data_PCOD9115213
_publ_section_title
;
Structure prediction by ZEFSAII (Michael W. Deem and Ramdas Pophale) SiO2 
 PCOD9115213
Probable space group: P 21
;
_chemical_formula_sum "Si O2"
_cell_formula_units_Z 16
_cell_length_a 9.671151
_cell_length_b 8.910883
_cell_length_c 9.118792
_cell_angle_alpha 90.000000
_cell_angle_beta 53.116922
_cell_angle_gamma 90.000000
_cell_volume 628.566535
_symmetry_space_group_name_H-M "P 21"
_symmetry_group_IT_number 4
_symmetry_cell_setting 'monoclinic'
loop_
_space_group_symop_operation_xyz
x,y,z
-x,1/2+y,-z
loop_
_atom_site_type_symbol
_atom_site_label
_atom_site_fract_x
_atom_site_fract_y
_atom_site_fract_z
Si Si1 0.424651 0.685100 0.294100
Si Si2 0.121353 0.365465 0.779049
Si Si3 0.347905 0.093475 0.591536
Si Si4 0.154521 0.472692 0.441853
Si Si5 0.165774 0.629358 0.967996
Si Si6 0.139244 0.807437 0.696406
Si Si7 0.486569 0.009968 0.178377
Si Si8 0.848065 0.659096 0.697189
O O1 0.533454 0.582890 0.338912
O O2 0.313778 0.564317 0.277366
O O3 0.267742 0.764807 0.482755
O O4 0.509925 0.828428 0.161514
O O5 0.290926 0.264961 0.653017
O O6 0.129365 0.470731 0.633577
O O7 0.110903 0.468202 0.930330
O O8 0.967174 0.244527 0.872091
O O9 0.184014 0.981475 0.697469
O O10 0.436971 0.058344 0.379222
O O11 0.182588 0.303242 0.381869
O O12 0.973257 0.550992 0.520563
O O13 0.208397 0.723120 0.794695
O O14 0.332717 0.593220 0.955965
O O15 0.951562 0.739862 0.767480
O O16 0.330294 0.067338 0.173320
#
# Coordination Sequence:
#
# PCOD9115213 Si02
#       8
#     2   2   2   2   2   2   2   2
#     4  10  20  35  65  97 137 160 226 296 331 388
#     4  12  24  42  66  96 139 176 225 268 345 411
#     4  11  20  37  64 100 128 167 223 292 329 391
#     4  11  22  40  64 104 134 177 217 287 348 400
#     4  12  24  44  65  97 135 184 223 275 337 409
#     4  10  22  38  62  98 136 171 217 282 348 398
#     4  11  22  39  69 103 129 171 232 286 342 396
#     4  11  22  39  67  97 140 170 225 286 346 411
#
# _framework density 25.454743000000001
#
# number of rings (size 3 to 8) (size 9 to 14) (size 15 to 20)
#    0.000    1.000    6.250    3.000    3.500    0.000 
#    0.000    0.000    5.500    0.000    0.000    0.000 
#    0.000    0.000    0.000    0.000    0.000    0.000 
#
# Total GULP energy -89304.064839 kJ/mol
# GULP energy per Si atom -5581.504052 kJ/mol
# Density = 2.539681 g / cm^3
# Si number density = 25.454743 Si / 1000 Ang^3
#
#
#
# Elastic Constant Matrix: (Units=GPa)
#
#
# Indices 1 2 3 4 5 6 
#
# 1 136.3872 37.8678 26.8227 0.0000 -8.9241 0.0000
# 2 37.8678 107.2235 16.2087 0.0000 -7.3125 0.0000
# 3 26.8227 16.2087 39.2015 0.0000 13.0854 0.0000
# 4 0.0000 0.0000 0.0000 25.9967 0.0000 -10.9312
# 5 -8.9241 -7.3125 13.0854 0.0000 25.8367 0.0000
# 6 0.0000 0.0000 0.0000 -10.9312 0.0000 40.0470
#
#
#
# Elastic Compliance Matrix: (Units=1/GPa)
#
#
# Indices 1 2 3 4 5 6 
#
# 1 0.009967 -0.001735 -0.008530 0.000000 0.007272 0.000000
# 2 -0.001735 0.011057 -0.005090 0.000000 0.005108 0.000000
# 3 -0.008530 -0.005090 0.042018 0.000000 -0.025667 0.000000
# 4 0.000000 0.000000 0.000000 0.043454 0.000000 0.011861
# 5 0.007272 0.005108 -0.025667 0.000000 0.055662 0.000000
# 6 0.000000 0.000000 0.000000 0.011861 0.000000 0.028208
#
#
# Mechanical properties :
#
#
# Convention : Reuss Voigt Hill
#
# Bulk Modulus (GPa) = 30.92814 49.40118 40.16466
# Shear Modulus (GPa) = 21.56558 31.83695 26.70126
#
# Velocity S-wave (km/s) = 2.91385 3.54040 3.24229
# Velocity P-wave (km/s) = 4.84740 6.01350 5.46166
#
# Compressibility (1/GPa) = 0.03233302
#
# Stress axis : x y z
#
# Youngs Moduli (GPa) = 100.33108 90.44281 23.79952
#
# Poissons Ratio (x) = 0.15689 0.20300
# Poissons Ratio (y) = 0.17404 0.12113
# Poissons Ratio (z) = 0.85580 0.46033
#
# Static dielectric constant tensor:
#      x y z
#    x 2.283580 0.000000 -0.047520 
#    y 0.000000 2.019300 0.000000 
#    z -0.047520 0.000000 2.016670 
# 
# From -- ./inp_files/7758.got.cif
#   From: 2010.05.17/outbox.cif.g08.bks.cpg/sg4_4_cif.got.tgz:7758.got - 2010.06.03 18:43:04.
