data_PCOD9115334
_publ_section_title
;
Structure prediction by ZEFSAII (Michael W. Deem and Ramdas Pophale) SiO2 
 PCOD9115334
Probable space group: P 21
;
_chemical_formula_sum "Si O2"
_cell_formula_units_Z 16
_cell_length_a 8.736886
_cell_length_b 11.084692
_cell_length_c 13.139788
_cell_angle_alpha 90.000000
_cell_angle_beta 30.895935
_cell_angle_gamma 90.000000
_cell_volume 653.420124
_symmetry_space_group_name_H-M "P 21"
_symmetry_group_IT_number 4
_symmetry_cell_setting 'monoclinic'
loop_
_space_group_symop_operation_xyz
x,y,z
-x,1/2+y,-z
loop_
_atom_site_type_symbol
_atom_site_label
_atom_site_fract_x
_atom_site_fract_y
_atom_site_fract_z
Si Si1 0.873241 0.190120 0.655229
Si Si2 0.502091 0.974565 0.426755
Si Si3 0.853840 0.273206 0.454142
Si Si4 0.524259 0.495186 0.039258
Si Si5 0.711864 0.600956 0.260160
Si Si6 0.979155 0.294101 0.805101
Si Si7 0.979172 0.634261 0.904814
Si Si8 0.277678 0.345313 0.027530
O O1 0.999599 0.222687 0.473662
O O2 0.039501 0.232365 0.661298
O O3 0.746537 0.055212 0.743605
O O4 0.578218 0.273942 0.828397
O O5 0.332610 0.899446 0.436829
O O6 0.759546 0.887364 0.321073
O O7 0.307835 0.006463 0.636978
O O8 0.681530 0.091931 0.288063
O O9 0.602757 0.173793 0.565192
O O10 0.094919 0.305645 0.232167
O O11 0.401790 0.475857 0.993640
O O12 0.669743 0.366133 0.983515
O O13 0.804723 0.583295 0.903376
O O14 0.978345 0.691007 0.137167
O O15 0.799964 0.564986 0.096438
O O16 0.933740 0.779226 0.935869
#
# Coordination Sequence:
#
# PCOD9115334 Si02
#       8
#     2   2   2   2   2   2   2   2
#     4  10  21  43  63  89 132 165 212 267 315 382
#     4  10  23  40  62  93 127 165 212 266 324 372
#     4  11  22  39  64  94 125 165 216 263 316 388
#     4   9  19  38  63  89 124 172 204 259 327 363
#     4  11  21  41  65  89 131 170 207 271 319 379
#     4   9  22  41  61  95 130 161 223 265 308 397
#     4  10  20  41  64  88 131 169 211 261 322 385
#     4  10  20  37  64  91 126 165 215 260 315 386
#
# _framework density 24.486540999999999
#
# number of rings (size 3 to 8) (size 9 to 14) (size 15 to 20)
#    0.000    2.000    3.750    0.000    1.750    2.000 
#    4.500    2.500    0.000    0.000    0.000    0.000 
#    0.000    0.000    0.000    0.000    0.000    0.000 
#
# Total GULP energy -89094.931721 kJ/mol
# GULP energy per Si atom -5568.433233 kJ/mol
# Density = 2.443081 g / cm^3
# Si number density = 24.486541 Si / 1000 Ang^3
#
#
#
# Elastic Constant Matrix: (Units=GPa)
#
#
# Indices 1 2 3 4 5 6 
#
# 1 75.1585 38.8810 2.0308 0.0000 4.2909 0.0000
# 2 38.8810 63.5675 12.8202 0.0000 -1.1458 0.0000
# 3 2.0308 12.8202 64.6572 0.0000 3.1518 0.0000
# 4 0.0000 0.0000 0.0000 23.3740 0.0000 5.9319
# 5 4.2909 -1.1458 3.1518 0.0000 32.2113 0.0000
# 6 0.0000 0.0000 0.0000 5.9319 0.0000 42.4350
#
#
#
# Elastic Compliance Matrix: (Units=1/GPa)
#
#
# Indices 1 2 3 4 5 6 
#
# 1 0.020019 -0.012719 0.002055 0.000000 -0.003320 0.000000
# 2 -0.012719 0.024494 -0.004604 0.000000 0.003016 0.000000
# 3 0.002055 -0.004604 0.016414 0.000000 -0.002044 0.000000
# 4 0.000000 0.000000 0.000000 0.044356 0.000000 -0.006200
# 5 -0.003320 0.003016 -0.002044 0.000000 0.031795 0.000000
# 6 0.000000 0.000000 0.000000 -0.006200 0.000000 0.024432
#
#
# Mechanical properties :
#
#
# Convention : Reuss Voigt Hill
#
# Bulk Modulus (GPa) = 32.90473 34.53858 33.72165
# Shear Modulus (GPa) = 24.73091 29.58082 27.15587
#
# Velocity S-wave (km/s) = 3.18147 3.47946 3.33380
# Velocity P-wave (km/s) = 5.19256 5.50254 5.34980
#
# Compressibility (1/GPa) = 0.03039077
#
# Stress axis : x y z
#
# Youngs Moduli (GPa) = 49.95257 40.82676 60.92298
#
# Poissons Ratio (x) = 0.51927 -0.12520
# Poissons Ratio (y) = 0.63534 0.28050
# Poissons Ratio (z) = -0.10265 0.18797
#
# Static dielectric constant tensor:
#      x y z
#    x 2.024180 0.000000 -0.008080 
#    y 0.000000 2.054670 0.000000 
#    z -0.008080 0.000000 1.915090 
# 
# From -- ./inp_files/11342.got.cif
#   From: 2010.05.17/outbox.cif.g08.bks.cpg/sg4_6_cif.got.tgz:11342.got - 2010.06.03 18:43:04.
