data_PCOD9115623
_publ_section_title
;
Structure prediction by ZEFSAII (Michael W. Deem and Ramdas Pophale) SiO2 
 PCOD9115623
Probable space group: P 21
;
_chemical_formula_sum "Si O2"
_cell_formula_units_Z 14
_cell_length_a 8.947779
_cell_length_b 5.489647
_cell_length_c 18.109576
_cell_angle_alpha 90.000000
_cell_angle_beta 139.355261
_cell_angle_gamma 90.000000
_cell_volume 579.420197
_symmetry_space_group_name_H-M "P 21"
_symmetry_group_IT_number 4
_symmetry_cell_setting 'monoclinic'
loop_
_space_group_symop_operation_xyz
x,y,z
-x,1/2+y,-z
loop_
_atom_site_type_symbol
_atom_site_label
_atom_site_fract_x
_atom_site_fract_y
_atom_site_fract_z
Si Si1 0.818828 0.958210 0.331086
Si Si2 0.331456 0.846060 0.152760
Si Si3 0.368916 0.516048 0.470116
Si Si4 0.086220 0.070589 0.929751
Si Si5 0.006240 0.815881 0.249946
Si Si6 0.752419 0.707137 0.745726
Si Si7 0.719741 0.276673 0.420920
O O1 0.599794 0.778437 0.260200
O O2 0.867357 0.946660 0.262730
O O3 0.056452 0.898228 0.461767
O O4 0.751914 0.206133 0.348106
O O5 0.125133 0.660800 0.096035
O O6 0.298601 0.053945 0.200709
O O7 0.285391 0.974692 0.056880
O O8 0.473237 0.252425 0.491748
O O9 0.307499 0.540789 0.534366
O O10 0.135576 0.584066 0.336655
O O11 0.124445 0.255446 0.875869
O O12 0.984590 0.844211 0.847772
O O13 0.201789 0.004169 0.297997
O O14 0.533134 0.888824 0.659225
#
# Coordination Sequence:
#
# PCOD9115623 Si02
#       7
#     2   2   2   2   2   2   2
#     4  10  24  44  59 101 135 176 217 287 352 434
#     4  10  22  41  67  93 127 166 236 277 353 412
#     4  11  22  40  69 103 136 186 237 295 345 428
#     4  11  21  41  70  91 124 178 231 295 336 423
#     4  10  23  41  63  98 135 174 239 280 359 415
#     4  10  20  41  66  96 121 175 229 283 333 427
#     4  10  22  40  66  94 142 177 223 281 362 421
#
# _framework density 24.162082999999999
#
# number of rings (size 3 to 8) (size 9 to 14) (size 15 to 20)
#    0.000    1.714    2.857    0.857    2.000    2.286 
#    5.143    0.000    0.000    0.000    0.000    0.000 
#    0.000    0.000    0.000    0.000    0.000    0.000 
#
# Total GULP energy -78039.290782 kJ/mol
# GULP energy per Si atom -5574.235056 kJ/mol
# Density = 2.410709 g / cm^3
# Si number density = 24.162083 Si / 1000 Ang^3
#
#
#
# Elastic Constant Matrix: (Units=GPa)
#
#
# Indices 1 2 3 4 5 6 
#
# 1 75.8828 7.4000 30.1398 0.0000 -34.4952 0.0000
# 2 7.4000 61.7715 18.9059 0.0000 -9.6764 0.0000
# 3 30.1398 18.9059 60.5574 0.0000 -13.1048 0.0000
# 4 0.0000 0.0000 0.0000 33.0915 0.0000 -4.5382
# 5 -34.4952 -9.6764 -13.1048 0.0000 46.1208 0.0000
# 6 0.0000 0.0000 0.0000 -4.5382 0.0000 28.1874
#
#
#
# Elastic Compliance Matrix: (Units=1/GPa)
#
#
# Indices 1 2 3 4 5 6 
#
# 1 0.023679 0.002413 -0.009159 0.000000 0.015614 0.000000
# 2 0.002413 0.018379 -0.006088 0.000000 0.003931 0.000000
# 3 -0.009159 -0.006088 0.022604 0.000000 -0.001705 0.000000
# 4 0.000000 0.000000 0.000000 0.030902 0.000000 0.004975
# 5 0.015614 0.003931 -0.001705 0.000000 0.033700 0.000000
# 6 0.000000 0.000000 0.000000 0.004975 0.000000 0.036278
#
#
# Mechanical properties :
#
#
# Convention : Reuss Voigt Hill
#
# Bulk Modulus (GPa) = 25.64666 34.56700 30.10683
# Shear Modulus (GPa) = 24.48491 30.93100 27.70795
#
# Velocity S-wave (km/s) = 3.18679 3.58179 3.39005
# Velocity P-wave (km/s) = 4.91714 5.60741 5.27358
#
# Compressibility (1/GPa) = 0.03899143
#
# Stress axis : x y z
#
# Youngs Moduli (GPa) = 42.23199 54.41086 44.24078
#
# Poissons Ratio (x) = -0.13127 0.40522
# Poissons Ratio (y) = -0.10189 0.26934
# Poissons Ratio (z) = 0.38682 0.33125
#
# Static dielectric constant tensor:
#      x y z
#    x 1.982000 0.000000 0.007910 
#    y 0.000000 2.000900 0.000000 
#    z 0.007910 0.000000 2.031470 
# 
# From -- ./inp_files/8942.got.cif
#   From: 2010.05.17/outbox.cif.g08.bks.cpg/sg4_5_cif.got.tgz:8942.got - 2010.06.03 18:43:04.
