data_PCOD9115317
_publ_section_title
;
Structure prediction by ZEFSAII (Michael W. Deem and Ramdas Pophale) SiO2 
 PCOD9115317
Probable space group: P 21
;
_chemical_formula_sum "Si O2"
_cell_formula_units_Z 16
_cell_length_a 11.020222
_cell_length_b 8.305636
_cell_length_c 11.294391
_cell_angle_alpha 90.000000
_cell_angle_beta 49.911605
_cell_angle_gamma 90.000000
_cell_volume 790.891531
_symmetry_space_group_name_H-M "P 21"
_symmetry_group_IT_number 4
_symmetry_cell_setting 'monoclinic'
loop_
_space_group_symop_operation_xyz
x,y,z
-x,1/2+y,-z
loop_
_atom_site_type_symbol
_atom_site_label
_atom_site_fract_x
_atom_site_fract_y
_atom_site_fract_z
Si Si1 0.940727 0.386200 0.730129
Si Si2 0.111225 0.850733 0.968974
Si Si3 0.722997 0.858305 0.589489
Si Si4 0.869656 0.009583 0.727266
Si Si5 0.417709 0.992559 0.652339
Si Si6 0.807284 0.978613 0.035988
Si Si7 0.794530 0.488550 0.591292
Si Si8 0.510058 0.356250 0.648817
O O1 0.899703 0.419445 0.891029
O O2 0.892245 0.202778 0.724883
O O3 0.846415 0.491962 0.695102
O O4 0.128624 0.404407 0.588566
O O5 0.150561 0.663237 0.960817
O O6 0.942887 0.872032 0.011695
O O7 0.247596 0.938673 0.808684
O O8 0.734557 0.666487 0.597787
O O9 0.757169 0.949246 0.692077
O O10 0.556305 0.903157 0.637788
O O11 0.045785 0.948208 0.582038
O O12 0.813651 0.953084 0.890973
O O13 0.451606 0.180039 0.649804
O O14 0.434848 0.946442 0.504548
O O15 0.636776 0.942133 0.196574
O O16 0.659182 0.361671 0.643703
#
# Coordination Sequence:
#
# PCOD9115317 Si02
#       8
#     2   2   2   2   2   2   2   2
#     4   9  20  38  60  87 119 155 194 238 290 350
#     4  11  23  40  62  88 120 157 199 245 295 350
#     4  10  20  37  62  90 119 153 195 241 292 350
#     4   9  20  38  60  87 119 155 194 238 290 350
#     4  12  25  41  61  86 118 155 198 246 298 354
#     4  11  23  40  62  88 120 157 199 245 295 350
#     4  10  20  37  62  90 119 153 195 241 292 350
#     4  12  25  41  61  86 118 155 198 246 298 354
#
# _framework density 20.230333999999999
#
# number of rings (size 3 to 8) (size 9 to 14) (size 15 to 20)
#    0.000    1.500    0.000    5.250    0.000    6.000 
#    0.000    0.000    0.000    0.000    0.000    0.000 
#    0.000    0.000    0.000    0.000    0.000    0.000 
#
# Total GULP energy -89495.961448 kJ/mol
# GULP energy per Si atom -5593.497590 kJ/mol
# Density = 2.018429 g / cm^3
# Si number density = 20.230334 Si / 1000 Ang^3
#
#
#
# Elastic Constant Matrix: (Units=GPa)
#
#
# Indices 1 2 3 4 5 6 
#
# 1 60.6068 -13.6774 42.1365 0.0000 -5.2526 0.0000
# 2 -13.6774 20.6336 5.8436 0.0000 5.5986 0.0000
# 3 42.1365 5.8436 135.1218 0.0000 17.1912 0.0000
# 4 0.0000 0.0000 0.0000 26.7555 0.0000 -2.5834
# 5 -5.2526 5.5986 17.1912 0.0000 27.7273 0.0000
# 6 0.0000 0.0000 0.0000 -2.5834 0.0000 32.4904
#
#
#
# Elastic Compliance Matrix: (Units=1/GPa)
#
#
# Indices 1 2 3 4 5 6 
#
# 1 0.029661 0.020551 -0.011209 0.000000 0.008419 0.000000
# 2 0.020551 0.065632 -0.008746 0.000000 -0.003936 0.000000
# 3 -0.011209 -0.008746 0.012289 0.000000 -0.007977 0.000000
# 4 0.000000 0.000000 0.000000 0.037665 0.000000 0.002995
# 5 0.008419 -0.003936 -0.007977 0.000000 0.043401 0.000000
# 6 0.000000 0.000000 0.000000 0.002995 0.000000 0.031016
#
#
# Mechanical properties :
#
#
# Convention : Reuss Voigt Hill
#
# Bulk Modulus (GPa) = 9.19341 31.66308 20.42824
# Shear Modulus (GPa) = 19.62853 29.53192 24.58022
#
# Velocity S-wave (km/s) = 3.11827 3.82486 3.48949
# Velocity P-wave (km/s) = 4.18557 5.93223 5.13373
#
# Compressibility (1/GPa) = 0.10877356
#
# Stress axis : x y z
#
# Youngs Moduli (GPa) = 33.71483 15.23638 81.37094
#
# Poissons Ratio (x) = -0.31313 0.91211
# Poissons Ratio (y) = -0.69288 0.71170
# Poissons Ratio (z) = 0.37792 0.13326
#
# Static dielectric constant tensor:
#      x y z
#    x 1.685310 0.000000 0.012140 
#    y 0.000000 1.723890 0.000000 
#    z 0.012140 0.000000 1.680810 
# 
# From -- ./inp_files/9135.got.cif
#   From: 2010.05.17/outbox.cif.g08.bks.cpg/sg4_5_cif.got.tgz:9135.got - 2010.06.03 18:43:04.
