data_PCOD9115925
_publ_section_title
;
Structure prediction by ZEFSAII (Michael W. Deem and Ramdas Pophale) SiO2 
 PCOD9115925
Probable space group: P 21
;
_chemical_formula_sum "Si O2"
_cell_formula_units_Z 14
_cell_length_a 5.108173
_cell_length_b 19.804152
_cell_length_c 5.190624
_cell_angle_alpha 90.000000
_cell_angle_beta 87.424151
_cell_angle_gamma 90.000000
_cell_volume 524.568716
_symmetry_space_group_name_H-M "P 21"
_symmetry_group_IT_number 4
_symmetry_cell_setting 'monoclinic'
loop_
_space_group_symop_operation_xyz
x,y,z
-x,1/2+y,-z
loop_
_atom_site_type_symbol
_atom_site_label
_atom_site_fract_x
_atom_site_fract_y
_atom_site_fract_z
Si Si1 0.641877 0.145770 0.975730
Si Si2 0.033369 0.264297 0.823684
Si Si3 0.639467 0.369505 0.595370
Si Si4 0.107587 0.984552 0.683340
Si Si5 0.420662 0.418917 0.102415
Si Si6 0.789333 0.730194 0.686401
Si Si7 0.820308 0.109152 0.465722
O O1 0.888871 0.193613 0.894802
O O2 0.590859 0.119202 0.688946
O O3 0.431376 0.191057 0.139517
O O4 0.714618 0.089693 0.186799
O O5 0.825045 0.311435 0.692549
O O6 0.265294 0.255755 0.601969
O O7 0.108786 0.285063 0.110687
O O8 0.813936 0.437161 0.559203
O O9 0.520641 0.364765 0.314204
O O10 0.429913 0.388042 0.820380
O O11 0.857027 0.949372 0.819891
O O12 0.356999 0.976887 0.859716
O O13 0.016311 0.056300 0.584294
O O14 0.021049 0.677180 0.609393
#
# Coordination Sequence:
#
# PCOD9115925 Si02
#       7
#     2   2   2   2   2   2   2
#     4  10  22  38  60  91 122 163 208 263 321 375
#     4  10  21  40  61  92 122 160 211 258 317 380
#     4  10  24  41  65  94 132 170 217 266 321 385
#     4  10  26  42  65  96 128 174 213 269 318 391
#     4  10  25  40  65  92 129 161 220 253 329 371
#     4  10  21  38  62  91 122 164 204 264 317 375
#     4  10  23  37  60  86 127 156 219 251 325 373
#
# _framework density 26.688592
#
# number of rings (size 3 to 8) (size 9 to 14) (size 15 to 20)
#    0.857    1.143    0.000    1.714    6.000    3.429 
#    0.000    0.000    0.000    0.000    0.000    0.000 
#    0.000    0.000    0.000    0.000    0.000    0.000 
#
# Total GULP energy -78266.464701 kJ/mol
# GULP energy per Si atom -5590.461764 kJ/mol
# Density = 2.662785 g / cm^3
# Si number density = 26.688592 Si / 1000 Ang^3
#
#
#
# Elastic Constant Matrix: (Units=GPa)
#
#
# Indices 1 2 3 4 5 6 
#
# 1 87.1110 18.7948 55.2036 0.0000 -12.3966 0.0000
# 2 18.7948 59.5079 33.7360 0.0000 3.5750 0.0000
# 3 55.2036 33.7360 238.5863 0.0000 -13.9608 0.0000
# 4 0.0000 0.0000 0.0000 27.9421 0.0000 -3.2537
# 5 -12.3966 3.5750 -13.9608 0.0000 44.0261 0.0000
# 6 0.0000 0.0000 0.0000 -3.2537 0.0000 45.9020
#
#
#
# Elastic Compliance Matrix: (Units=1/GPa)
#
#
# Indices 1 2 3 4 5 6 
#
# 1 0.014357 -0.003233 -0.002662 0.000000 0.003461 0.000000
# 2 -0.003233 0.019238 -0.002157 0.000000 -0.003156 0.000000
# 3 -0.002662 -0.002157 0.005175 0.000000 0.001066 0.000000
# 4 0.000000 0.000000 0.000000 0.036086 0.000000 0.002558
# 5 0.003461 -0.003156 0.001066 0.000000 0.024283 0.000000
# 6 0.000000 0.000000 0.000000 0.002558 0.000000 0.021967
#
#
# Mechanical properties :
#
#
# Convention : Reuss Voigt Hill
#
# Bulk Modulus (GPa) = 44.12047 66.74154 55.43101
# Shear Modulus (GPa) = 34.53884 42.07209 38.30547
#
# Velocity S-wave (km/s) = 3.60132 3.97471 3.79261
# Velocity P-wave (km/s) = 5.81895 6.79163 6.32402
#
# Compressibility (1/GPa) = 0.02266522
#
# Stress axis : x y z
#
# Youngs Moduli (GPa) = 69.65382 51.98037 193.24772
#
# Poissons Ratio (x) = 0.16806 0.51446
# Poissons Ratio (y) = 0.22520 0.41681
# Poissons Ratio (z) = 0.18543 0.11212
#
# Static dielectric constant tensor:
#      x y z
#    x 2.122210 0.000000 0.078310 
#    y 0.000000 2.179760 0.000000 
#    z 0.078310 0.000000 2.095110 
# 
# From -- ./inp_files/518.got.cif
#   From: 2010.05.17/outbox.cif.g08.bks.cpg/sg4_1_cif.got.tgz:518.got - 2010.06.03 18:43:04.
