data_PCOD9115017
_publ_section_title
;
Structure prediction by ZEFSAII (Michael W. Deem and Ramdas Pophale) SiO2 
 PCOD9115017
Probable space group: P 21
;
_chemical_formula_sum "Si O2"
_cell_formula_units_Z 16
_cell_length_a 8.401536
_cell_length_b 12.319618
_cell_length_c 9.260256
_cell_angle_alpha 90.000000
_cell_angle_beta 51.803289
_cell_angle_gamma 90.000000
_cell_volume 753.254979
_symmetry_space_group_name_H-M "P 21"
_symmetry_group_IT_number 4
_symmetry_cell_setting 'monoclinic'
loop_
_space_group_symop_operation_xyz
x,y,z
-x,1/2+y,-z
loop_
_atom_site_type_symbol
_atom_site_label
_atom_site_fract_x
_atom_site_fract_y
_atom_site_fract_z
Si Si1 0.693884 0.438750 0.145457
Si Si2 0.495000 0.094818 0.949430
Si Si3 0.480108 0.992967 0.267979
Si Si4 0.116274 0.558979 0.868760
Si Si5 0.830068 0.403483 0.376656
Si Si6 0.830771 0.229812 0.904551
Si Si7 0.934205 0.687525 0.730817
Si Si8 0.145393 0.136620 0.554579
O O1 0.687966 0.401365 0.314478
O O2 0.522219 0.519413 0.181799
O O3 0.730236 0.340393 0.014372
O O4 0.904826 0.503700 0.022723
O O5 0.288037 0.164668 0.078496
O O6 0.488635 0.016732 0.094294
O O7 0.686085 0.171504 0.868651
O O8 0.319995 0.901172 0.401408
O O9 0.699499 0.977177 0.211066
O O10 0.381338 0.101640 0.401144
O O11 0.090371 0.609081 0.725420
O O12 0.156077 0.655390 0.960108
O O13 0.934908 0.521656 0.336083
O O14 0.991017 0.308892 0.284660
O O15 0.055390 0.229080 0.708198
O O16 0.923974 0.660711 0.568178
#
# Coordination Sequence:
#
# PCOD9115017 Si02
#       8
#     2   2   2   2   2   2   2   2
#     4  11  22  38  62  90 118 162 203 246 304 361
#     4   9  22  39  59  84 125 155 200 250 298 354
#     4   8  19  39  55  80 118 158 186 250 294 351
#     4  10  19  39  61  85 125 151 197 255 300 350
#     4  10  20  38  60  84 118 155 200 241 304 356
#     4  11  21  39  60  91 120 160 200 253 301 356
#     4  10  20  37  61  85 114 162 193 248 303 355
#     4   9  21  37  56  83 122 149 199 249 288 363
#
# _framework density 21.241146000000001
#
# number of rings (size 3 to 8) (size 9 to 14) (size 15 to 20)
#    0.750    1.500    2.500    0.000    1.750    2.000 
#    2.250    0.000    0.000    0.000    0.000    0.000 
#    0.000    0.000    0.000    0.000    0.000    0.000 
#
# Total GULP energy -89145.240501 kJ/mol
# GULP energy per Si atom -5571.577531 kJ/mol
# Density = 2.119280 g / cm^3
# Si number density = 21.241146 Si / 1000 Ang^3
#
#
#
# Elastic Constant Matrix: (Units=GPa)
#
#
# Indices 1 2 3 4 5 6 
#
# 1 69.7972 9.6536 -3.7765 0.0000 2.2900 0.0000
# 2 9.6536 34.0295 -10.9793 0.0000 7.8860 0.0000
# 3 -3.7765 -10.9793 36.9253 0.0000 11.1604 0.0000
# 4 0.0000 0.0000 0.0000 11.5335 0.0000 13.1139
# 5 2.2900 7.8860 11.1604 0.0000 17.1725 0.0000
# 6 0.0000 0.0000 0.0000 13.1139 0.0000 21.3929
#
#
#
# Elastic Compliance Matrix: (Units=1/GPa)
#
#
# Indices 1 2 3 4 5 6 
#
# 1 0.014918 -0.003955 0.000500 0.000000 -0.000498 0.000000
# 2 -0.003955 0.047201 0.024916 0.000000 -0.037341 0.000000
# 3 0.000500 0.024916 0.047314 0.000000 -0.042258 0.000000
# 4 0.000000 0.000000 0.000000 0.286148 0.000000 -0.175410
# 5 -0.000498 -0.037341 -0.042258 0.000000 0.102911 0.000000
# 6 0.000000 0.000000 0.000000 -0.175410 0.000000 0.154271
#
#
# Mechanical properties :
#
#
# Convention : Reuss Voigt Hill
#
# Bulk Modulus (GPa) = 6.56361 14.50528 10.53445
# Shear Modulus (GPa) = 7.56860 19.74338 13.65599
#
# Velocity S-wave (km/s) = 1.88969 3.05206 2.53830
# Velocity P-wave (km/s) = 2.80321 4.38905 3.68251
#
# Compressibility (1/GPa) = 0.15235509
#
# Stress axis : x y z
#
# Youngs Moduli (GPa) = 67.03463 21.18606 21.13560
#
# Poissons Ratio (x) = 0.08379 -0.01057
# Poissons Ratio (y) = 0.26512 -0.52662
# Poissons Ratio (z) = -0.03353 -0.52788
#
# Static dielectric constant tensor:
#      x y z
#    x 1.763660 0.000000 -0.005330 
#    y 0.000000 1.805020 0.000000 
#    z -0.005330 0.000000 1.790380 
# 
# From -- ./inp_files/6237.got.cif
#   From: 2010.05.17/outbox.cif.g08.bks.cpg/sg4_4_cif.got.tgz:6237.got - 2010.06.03 18:43:04.
