data_PCOD9115111
_publ_section_title
;
Structure prediction by ZEFSAII (Michael W. Deem and Ramdas Pophale) SiO2 
 PCOD9115111
Probable space group: P 21
;
_chemical_formula_sum "Si O2"
_cell_formula_units_Z 16
_cell_length_a 27.899072
_cell_length_b 5.144354
_cell_length_c 15.508129
_cell_angle_alpha 90.000000
_cell_angle_beta 156.309401
_cell_angle_gamma 90.000000
_cell_volume 894.308322
_symmetry_space_group_name_H-M "P 21"
_symmetry_group_IT_number 4
_symmetry_cell_setting 'monoclinic'
loop_
_space_group_symop_operation_xyz
x,y,z
-x,1/2+y,-z
loop_
_atom_site_type_symbol
_atom_site_label
_atom_site_fract_x
_atom_site_fract_y
_atom_site_fract_z
Si Si1 0.344312 0.872110 0.223789
Si Si2 0.872175 0.843829 0.346140
Si Si3 0.447714 0.371908 0.304219
Si Si4 0.100243 0.089690 0.782130
Si Si5 0.334170 0.610133 0.775942
Si Si6 0.138630 0.828263 0.567745
Si Si7 0.432196 0.352759 0.783068
Si Si8 0.488110 0.364351 0.170229
O O1 0.369857 0.592987 0.223499
O O2 0.420009 0.893119 0.436261
O O3 0.400577 0.088627 0.253057
O O4 0.206018 0.947020 0.005250
O O5 0.846681 0.764787 0.207146
O O6 0.821912 0.119207 0.293970
O O7 0.015474 0.882846 0.592685
O O8 0.841615 0.611895 0.361228
O O9 0.452329 0.404336 0.209628
O O10 0.002038 0.256488 0.673302
O O11 0.216886 0.758849 0.613688
O O12 0.332441 0.453335 0.684274
O O13 0.447282 0.808294 0.960351
O O14 0.377291 0.417673 0.923352
O O15 0.462966 0.578689 0.766584
O O16 0.418815 0.083367 0.710229
#
# Coordination Sequence:
#
# PCOD9115111 Si02
#       8
#     2   2   2   2   2   2   2   2
#     4  10  23  35  57  70 115 136 179 231 257 288
#     4  10  21  32  45  74 102 132 181 195 251 309
#     4  10  22  38  50  85  95 145 187 216 260 310
#     4  10  21  34  50  70 106 139 168 216 255 295
#     4  10  21  33  50  76 110 128 175 204 268 314
#     4  10  22  30  48  71 100 137 167 206 241 328
#     4  10  20  32  51  74 104 138 158 217 271 307
#     4  10  20  32  53  72 104 133 175 207 263 317
#
# _framework density 17.890920999999999
#
# number of rings (size 3 to 8) (size 9 to 14) (size 15 to 20)
#    1.500    0.500    2.500    0.750    7.000    0.000 
#    0.000    0.000    0.000    0.000    0.000    1.750 
#    0.000    0.000    0.000    0.000    0.000    0.000 
#
# Total GULP energy -89138.804957 kJ/mol
# GULP energy per Si atom -5571.175310 kJ/mol
# Density = 1.785020 g / cm^3
# Si number density = 17.890921 Si / 1000 Ang^3
#
#
#
# Elastic Constant Matrix: (Units=GPa)
#
#
# Indices 1 2 3 4 5 6 
#
# 1 54.9368 1.5058 -1.3655 0.0000 5.8008 0.0000
# 2 1.5058 83.2754 -4.5607 0.0000 -1.3758 0.0000
# 3 -1.3655 -4.5607 53.1250 0.0000 -1.3083 0.0000
# 4 0.0000 0.0000 0.0000 18.7399 0.0000 3.6689
# 5 5.8008 -1.3758 -1.3083 0.0000 17.1518 0.0000
# 6 0.0000 0.0000 0.0000 3.6689 0.0000 21.2477
#
#
#
# Elastic Compliance Matrix: (Units=1/GPa)
#
#
# Indices 1 2 3 4 5 6 
#
# 1 0.018898 -0.000432 0.000291 0.000000 -0.006404 0.000000
# 2 -0.000432 0.012094 0.001057 0.000000 0.001197 0.000000
# 3 0.000291 0.001057 0.018957 0.000000 0.001432 0.000000
# 4 0.000000 0.000000 0.000000 0.055229 0.000000 -0.009537
# 5 -0.006404 0.001197 0.001432 0.000000 0.060674 0.000000
# 6 0.000000 0.000000 0.000000 -0.009537 0.000000 0.048711
#
#
# Mechanical properties :
#
#
# Convention : Reuss Voigt Hill
#
# Bulk Modulus (GPa) = 19.31218 20.27738 19.79478
# Shear Modulus (GPa) = 21.74003 24.47840 23.10922
#
# Velocity S-wave (km/s) = 3.48967 3.70294 3.59788
# Velocity P-wave (km/s) = 5.20143 5.44434 5.32427
#
# Compressibility (1/GPa) = 0.05178080
#
# Stress axis : x y z
#
# Youngs Moduli (GPa) = 52.91575 82.68705 52.75103
#
# Poissons Ratio (x) = 0.03569 -0.01535
# Poissons Ratio (y) = 0.02284 -0.05574
# Poissons Ratio (z) = -0.01540 -0.08737
#
# Static dielectric constant tensor:
#      x y z
#    x 1.618380 0.000000 0.037860 
#    y 0.000000 1.649420 0.000000 
#    z 0.037860 0.000000 1.651370 
# 
# From -- ./inp_files/15434.got.cif
#   From: 2010.05.17/outbox.cif.g08.bks.cpg/sg4_8_cif.got.tgz:15434.got - 2010.06.03 18:43:04.
