data_PCOD9115584
_publ_section_title
;
Structure prediction by ZEFSAII (Michael W. Deem and Ramdas Pophale) SiO2 
 PCOD9115584
Probable space group: P 21
;
_chemical_formula_sum "Si O2"
_cell_formula_units_Z 14
_cell_length_a 7.235340
_cell_length_b 18.361015
_cell_length_c 5.545171
_cell_angle_alpha 90.000000
_cell_angle_beta 119.636253
_cell_angle_gamma 90.000000
_cell_volume 640.296912
_symmetry_space_group_name_H-M "P 21"
_symmetry_group_IT_number 4
_symmetry_cell_setting 'monoclinic'
loop_
_space_group_symop_operation_xyz
x,y,z
-x,1/2+y,-z
loop_
_atom_site_type_symbol
_atom_site_label
_atom_site_fract_x
_atom_site_fract_y
_atom_site_fract_z
Si Si1 0.346527 0.041200 0.272954
Si Si2 0.828298 0.478715 0.356177
Si Si3 0.263516 0.817358 0.642393
Si Si4 0.507668 0.804197 0.196551
Si Si5 0.732840 0.935879 0.583465
Si Si6 0.134725 0.326192 0.956353
Si Si7 0.387143 0.210003 0.355526
O O1 0.203647 0.025607 0.420600
O O2 0.374753 0.127661 0.271841
O O3 0.573715 0.003783 0.483371
O O4 0.257401 0.011196 0.956441
O O5 0.698635 0.404592 0.329064
O O6 0.074810 0.455856 0.473744
O O7 0.411777 0.754204 0.625355
O O8 0.053601 0.813271 0.349097
O O9 0.271683 0.803175 0.936986
O O10 0.572078 0.868392 0.418876
O O11 0.655275 0.826781 0.071490
O O12 0.576824 0.726176 0.339054
O O13 0.860492 0.901414 0.892586
O O14 0.178288 0.255947 0.150554
#
# Coordination Sequence:
#
# PCOD9115584 Si02
#       7
#     2   2   2   2   2   2   2
#     4  12  28  48  69 108 158 189 241 301 375 447
#     4  12  26  44  78 107 143 193 247 304 367 431
#     4  11  22  42  72 102 132 186 249 299 359 418
#     4  10  20  40  70  97 133 178 242 296 352 417
#     4  11  24  44  71 106 138 188 246 300 362 427
#     4  10  22  41  70 105 134 181 250 302 346 432
#     4  10  26  43  68 101 146 195 231 300 373 434
#
# _framework density 21.864856
#
# number of rings (size 3 to 8) (size 9 to 14) (size 15 to 20)
#    0.000    1.143    2.857    3.429    6.000    1.143 
#    0.000    0.000    3.143    0.000    0.000    0.000 
#    0.000    0.000    0.000    0.000    0.000    0.000 
#
# Total GULP energy -77950.841657 kJ/mol
# GULP energy per Si atom -5567.917261 kJ/mol
# Density = 2.181509 g / cm^3
# Si number density = 21.864856 Si / 1000 Ang^3
#
#
#
# Elastic Constant Matrix: (Units=GPa)
#
#
# Indices 1 2 3 4 5 6 
#
# 1 96.6467 40.9622 38.9926 0.0000 -6.3836 0.0000
# 2 40.9622 137.7913 47.4302 0.0000 5.6876 0.0000
# 3 38.9926 47.4302 144.2073 0.0000 26.7735 0.0000
# 4 0.0000 0.0000 0.0000 26.1936 0.0000 -6.9157
# 5 -6.3836 5.6876 26.7735 0.0000 26.9688 0.0000
# 6 0.0000 0.0000 0.0000 -6.9157 0.0000 22.7166
#
#
#
# Elastic Compliance Matrix: (Units=1/GPa)
#
#
# Indices 1 2 3 4 5 6 
#
# 1 0.013884 -0.002988 -0.004289 0.000000 0.008174 0.000000
# 2 -0.002988 0.008857 -0.001994 0.000000 -0.000595 0.000000
# 3 -0.004289 -0.001994 0.010863 0.000000 -0.011379 0.000000
# 4 0.000000 0.000000 0.000000 0.041514 0.000000 0.012638
# 5 0.008174 -0.000595 -0.011379 0.000000 0.050436 0.000000
# 6 0.000000 0.000000 0.000000 0.012638 0.000000 0.047868
#
#
# Mechanical properties :
#
#
# Convention : Reuss Voigt Hill
#
# Bulk Modulus (GPa) = 66.40189 70.37948 68.39069
# Shear Modulus (GPa) = 25.38256 31.92647 28.65451
#
# Velocity S-wave (km/s) = 3.41087 3.82537 3.62405
# Velocity P-wave (km/s) = 6.77844 7.19510 6.98988
#
# Compressibility (1/GPa) = 0.01505981
#
# Stress axis : x y z
#
# Youngs Moduli (GPa) = 72.02602 112.90680 92.05853
#
# Poissons Ratio (x) = 0.33742 0.39482
# Poissons Ratio (y) = 0.21525 0.18361
# Poissons Ratio (z) = 0.30891 0.22519
#
# Static dielectric constant tensor:
#      x y z
#    x 1.901730 0.000000 -0.045710 
#    y 0.000000 1.759450 0.000000 
#    z -0.045710 0.000000 2.117980 
# 
# From -- ./inp_files/384.got.cif
#   From: 2010.05.17/outbox.cif.g08.bks.cpg/sg4_1_cif.got.tgz:384.got - 2010.06.03 18:43:04.
