data_PCOD9115634
_publ_section_title
;
Structure prediction by ZEFSAII (Michael W. Deem and Ramdas Pophale) SiO2 
 PCOD9115634
Probable space group: P 21
;
_chemical_formula_sum "Si O2"
_cell_formula_units_Z 16
_cell_length_a 7.437980
_cell_length_b 15.227009
_cell_length_c 6.305999
_cell_angle_alpha 90.000000
_cell_angle_beta 64.007591
_cell_angle_gamma 90.000000
_cell_volume 641.965596
_symmetry_space_group_name_H-M "P 21"
_symmetry_group_IT_number 4
_symmetry_cell_setting 'monoclinic'
loop_
_space_group_symop_operation_xyz
x,y,z
-x,1/2+y,-z
loop_
_atom_site_type_symbol
_atom_site_label
_atom_site_fract_x
_atom_site_fract_y
_atom_site_fract_z
Si Si1 0.175313 0.217750 0.594995
Si Si2 0.132455 0.056315 0.933189
Si Si3 0.780655 0.298733 0.786644
Si Si4 0.580609 0.162471 0.179567
Si Si5 0.473085 0.015713 0.508427
Si Si6 0.769638 0.995090 0.872246
Si Si7 0.389694 0.350289 0.776251
Si Si8 0.894784 0.493637 0.635341
O O1 0.358767 0.201445 0.339159
O O2 0.235535 0.286006 0.748047
O O3 0.973216 0.250003 0.592393
O O4 0.125805 0.134123 0.767287
O O5 0.106033 0.070863 0.193168
O O6 0.355421 0.018854 0.786917
O O7 0.949099 0.996440 0.954039
O O8 0.592703 0.298677 0.724895
O O9 0.847008 0.400493 0.772067
O O10 0.713508 0.244502 0.031750
O O11 0.597481 0.102830 0.386067
O O12 0.638990 0.083202 0.983948
O O13 0.584638 0.926385 0.411164
O O14 0.289502 0.007620 0.431096
O O15 0.893635 0.993084 0.592466
O O16 0.658328 0.904999 0.985544
#
# Coordination Sequence:
#
# PCOD9115634 Si02
#       8
#     2   2   2   2   2   2   2   2
#     4  11  24  44  70 106 138 185 230 293 360 410
#     4  10  20  41  68  99 137 184 230 291 345 416
#     4  11  24  44  67 107 139 176 230 303 345 406
#     4  10  22  43  67  95 144 180 221 292 354 400
#     4   8  20  41  64  94 138 181 228 291 344 410
#     4  10  21  47  65 101 141 187 233 288 348 416
#     4  10  23  43  69 101 136 184 233 285 354 422
#     4  10  22  39  70  99 133 189 235 279 354 420
#
# _framework density 24.923452999999999
#
# number of rings (size 3 to 8) (size 9 to 14) (size 15 to 20)
#    0.000    2.000    1.250    0.750    5.250    0.000 
#    6.750    2.500    0.000    0.000    0.000    0.000 
#    0.000    0.000    0.000    0.000    0.000    0.000 
#
# Total GULP energy -89298.752356 kJ/mol
# GULP energy per Si atom -5581.172022 kJ/mol
# Density = 2.486673 g / cm^3
# Si number density = 24.923453 Si / 1000 Ang^3
#
#
#
# Elastic Constant Matrix: (Units=GPa)
#
#
# Indices 1 2 3 4 5 6 
#
# 1 55.2310 26.0920 52.6552 0.0000 -10.5387 0.0000
# 2 26.0920 118.4582 41.0058 0.0000 -14.5145 0.0000
# 3 52.6552 41.0058 120.6749 0.0000 -34.4914 0.0000
# 4 0.0000 0.0000 0.0000 30.1046 0.0000 -17.3817
# 5 -10.5387 -14.5145 -34.4914 0.0000 37.5385 0.0000
# 6 0.0000 0.0000 0.0000 -17.3817 0.0000 39.5669
#
#
#
# Elastic Compliance Matrix: (Units=1/GPa)
#
#
# Indices 1 2 3 4 5 6 
#
# 1 0.032466 -0.002696 -0.014840 0.000000 -0.005563 0.000000
# 2 -0.002696 0.009817 -0.001751 0.000000 0.001430 0.000000
# 3 -0.014840 -0.001751 0.018949 0.000000 0.012568 0.000000
# 4 0.000000 0.000000 0.000000 0.044506 0.000000 0.019552
# 5 -0.005563 0.001430 0.012568 0.000000 0.037178 0.000000
# 6 0.000000 0.000000 0.000000 0.019552 0.000000 0.033863
#
#
# Mechanical properties :
#
#
# Convention : Reuss Voigt Hill
#
# Bulk Modulus (GPa) = 44.13349 59.31892 51.72621
# Shear Modulus (GPa) = 22.43108 33.08273 27.75691
#
# Velocity S-wave (km/s) = 3.00325 3.64727 3.34081
# Velocity P-wave (km/s) = 5.45638 6.44894 5.97331
#
# Compressibility (1/GPa) = 0.02265853
#
# Stress axis : x y z
#
# Youngs Moduli (GPa) = 30.80161 101.86564 52.77262
#
# Poissons Ratio (x) = 0.27459 0.78316
# Poissons Ratio (y) = 0.08303 0.09240
# Poissons Ratio (z) = 0.45711 0.17835
#
# Static dielectric constant tensor:
#      x y z
#    x 1.993560 0.000000 -0.038630 
#    y 0.000000 1.982230 0.000000 
#    z -0.038630 0.000000 1.989420 
# 
# From -- ./inp_files/2032.got.cif
#   From: 2010.05.17/outbox.cif.g08.bks.cpg/sg4_2_cif.got.tgz:2032.got - 2010.06.03 18:43:04.
