data_PCOD9115735
_publ_section_title
;
Structure prediction by ZEFSAII (Michael W. Deem and Ramdas Pophale) SiO2 
 PCOD9115735
Probable space group: P 21
;
_chemical_formula_sum "Si O2"
_cell_formula_units_Z 14
_cell_length_a 6.797854
_cell_length_b 7.913240
_cell_length_c 14.247601
_cell_angle_alpha 90.000000
_cell_angle_beta 130.494636
_cell_angle_gamma 90.000000
_cell_volume 582.838393
_symmetry_space_group_name_H-M "P 21"
_symmetry_group_IT_number 4
_symmetry_cell_setting 'monoclinic'
loop_
_space_group_symop_operation_xyz
x,y,z
-x,1/2+y,-z
loop_
_atom_site_type_symbol
_atom_site_label
_atom_site_fract_x
_atom_site_fract_y
_atom_site_fract_z
Si Si1 0.879494 0.808970 0.156423
Si Si2 0.387314 0.003233 0.027660
Si Si3 0.183095 0.101883 0.699403
Si Si4 0.551121 0.592004 0.602459
Si Si5 0.400315 0.867226 0.219073
Si Si6 0.591185 0.451781 0.406724
Si Si7 0.029708 0.344949 0.215862
O O1 0.971353 0.745625 0.288163
O O2 0.115350 0.825147 0.161203
O O3 0.681884 0.961689 0.096512
O O4 0.706324 0.660333 0.059724
O O5 0.385492 0.016891 0.138813
O O6 0.178935 0.860174 0.931240
O O7 0.453297 0.209624 0.782164
O O8 0.201126 0.035625 0.598097
O O9 0.111526 0.934607 0.738337
O O10 0.473177 0.438771 0.646273
O O11 0.564752 0.538846 0.499296
O O12 0.366103 0.751593 0.564419
O O13 0.836056 0.666380 0.717925
O O14 0.293639 0.451590 0.274514
#
# Coordination Sequence:
#
# PCOD9115735 Si02
#       7
#     2   2   2   2   2   2   2
#     4  10  24  39  63  98 140 170 228 277 338 417
#     4  10  23  39  65  97 134 177 222 277 345 408
#     4  10  20  44  65  95 130 179 222 279 343 400
#     4  10  24  45  68  99 138 177 235 283 346 412
#     4  11  24  41  68 101 139 183 221 281 351 418
#     4  10  22  44  68  92 135 180 226 289 346 399
#     4   9  23  42  65 100 132 176 232 286 335 416
#
# _framework density 24.020381
#
# number of rings (size 3 to 8) (size 9 to 14) (size 15 to 20)
#    0.857    1.143    0.000    2.571    4.000    6.857 
#    7.714    0.000    0.000    0.000    0.000    0.000 
#    0.000    0.000    0.000    0.000    0.000    0.000 
#
# Total GULP energy -77986.054650 kJ/mol
# GULP energy per Si atom -5570.432475 kJ/mol
# Density = 2.396571 g / cm^3
# Si number density = 24.020381 Si / 1000 Ang^3
#
#
#
# Elastic Constant Matrix: (Units=GPa)
#
#
# Indices 1 2 3 4 5 6 
#
# 1 116.6843 25.8476 9.3956 0.0000 -9.2512 0.0000
# 2 25.8476 53.5855 4.8119 0.0000 4.5721 0.0000
# 3 9.3956 4.8119 40.8284 0.0000 -6.0919 0.0000
# 4 0.0000 0.0000 0.0000 31.4806 0.0000 -3.5359
# 5 -9.2512 4.5721 -6.0919 0.0000 42.5860 0.0000
# 6 0.0000 0.0000 0.0000 -3.5359 0.0000 15.1844
#
#
#
# Elastic Compliance Matrix: (Units=1/GPa)
#
#
# Indices 1 2 3 4 5 6 
#
# 1 0.009961 -0.004897 -0.001342 0.000000 0.002498 0.000000
# 2 -0.004897 0.021511 -0.001953 0.000000 -0.003653 0.000000
# 3 -0.001342 -0.001953 0.025565 0.000000 0.003575 0.000000
# 4 0.000000 0.000000 0.000000 0.032619 0.000000 0.007596
# 5 0.002498 -0.003653 0.003575 0.000000 0.024928 0.000000
# 6 0.000000 0.000000 0.000000 0.007596 0.000000 0.067626
#
#
# Mechanical properties :
#
#
# Convention : Reuss Voigt Hill
#
# Bulk Modulus (GPa) = 24.59941 32.35650 28.47795
# Shear Modulus (GPa) = 23.56859 29.25308 26.41084
#
# Velocity S-wave (km/s) = 3.13580 3.49355 3.31950
# Velocity P-wave (km/s) = 4.83469 5.45645 5.15495
#
# Compressibility (1/GPa) = 0.04065138
#
# Stress axis : x y z
#
# Youngs Moduli (GPa) = 100.39027 46.48747 39.11548
#
# Poissons Ratio (x) = 0.22767 0.05251
# Poissons Ratio (y) = 0.49165 0.07640
# Poissons Ratio (z) = 0.13477 0.09080
#
# Static dielectric constant tensor:
#      x y z
#    x 1.868840 0.000000 0.038780 
#    y 0.000000 2.046130 0.000000 
#    z 0.038780 0.000000 2.005590 
# 
# From -- ./inp_files/13341.got.cif
#   From: 2010.05.17/outbox.cif.g08.bks.cpg/sg4_7_cif.got.tgz:13341.got - 2010.06.03 18:43:04.
