data_PCOD9115006
_publ_section_title
;
Structure prediction by ZEFSAII (Michael W. Deem and Ramdas Pophale) SiO2 
 PCOD9115006
Probable space group: P 21
;
_chemical_formula_sum "Si O2"
_cell_formula_units_Z 16
_cell_length_a 22.454002
_cell_length_b 5.496437
_cell_length_c 27.722089
_cell_angle_alpha 90.000000
_cell_angle_beta 11.346258
_cell_angle_gamma 90.000000
_cell_volume 673.114180
_symmetry_space_group_name_H-M "P 21"
_symmetry_group_IT_number 4
_symmetry_cell_setting 'monoclinic'
loop_
_space_group_symop_operation_xyz
x,y,z
-x,1/2+y,-z
loop_
_atom_site_type_symbol
_atom_site_label
_atom_site_fract_x
_atom_site_fract_y
_atom_site_fract_z
Si Si1 0.478785 0.426610 0.123719
Si Si2 0.437205 0.140361 0.839254
Si Si3 0.941599 0.163680 0.983332
Si Si4 0.031107 0.306662 0.815477
Si Si5 0.043177 0.752862 0.638734
Si Si6 0.171272 0.541037 0.112899
Si Si7 0.294275 0.668980 0.726156
Si Si8 0.317186 0.511197 0.154410
O O1 0.437562 0.492343 0.212838
O O2 0.231409 0.479700 0.279314
O O3 0.599494 0.151885 0.029994
O O4 0.763199 0.581150 0.876660
O O5 0.673743 0.118759 0.608522
O O6 0.375276 0.393945 0.913790
O O7 0.107714 0.074719 0.078263
O O8 0.715416 0.176416 0.207876
O O9 0.830342 0.183332 0.016823
O O10 0.153665 0.408478 0.821891
O O11 0.103533 0.903430 0.860750
O O12 0.368438 0.224335 0.559341
O O13 0.983547 0.235270 0.797843
O O14 0.945566 0.937159 0.673601
O O15 0.084901 0.894970 0.655342
O O16 0.444153 0.784043 0.044204
#
# Coordination Sequence:
#
# PCOD9115006 Si02
#       8
#     2   2   2   2   2   2   2   2
#     4   9  20  41  59  87 125 162 217 275 328 394
#     4  10  24  40  59  96 128 169 221 268 324 395
#     4  10  23  42  68  99 131 165 225 269 318 388
#     4  11  24  39  66  91 130 178 207 265 330 391
#     4  10  21  41  63  89 129 170 218 277 326 392
#     4  10  22  40  61  89 131 167 215 270 320 395
#     4  10  23  43  67  98 132 169 217 274 318 383
#     4  10  19  38  69  91 120 174 220 274 346 388
#
# _framework density 23.770112999999998
#
# number of rings (size 3 to 8) (size 9 to 14) (size 15 to 20)
#    0.000    2.000    1.250    0.750    3.500    6.000 
#    4.500    0.000    0.000    0.000    0.000    0.000 
#    0.000    0.000    0.000    0.000    0.000    0.000 
#
# Total GULP energy -89118.639251 kJ/mol
# GULP energy per Si atom -5569.914953 kJ/mol
# Density = 2.371601 g / cm^3
# Si number density = 23.770113 Si / 1000 Ang^3
#
#
#
# Elastic Constant Matrix: (Units=GPa)
#
#
# Indices 1 2 3 4 5 6 
#
# 1 111.3653 13.8059 20.1576 0.0000 29.3558 0.0000
# 2 13.8059 74.7920 5.1731 0.0000 4.4972 0.0000
# 3 20.1576 5.1731 46.5057 0.0000 23.9901 0.0000
# 4 0.0000 0.0000 0.0000 1.2795 0.0000 3.4594
# 5 29.3558 4.4972 23.9901 0.0000 30.9806 0.0000
# 6 0.0000 0.0000 0.0000 3.4594 0.0000 41.0574
#
#
#
# Elastic Compliance Matrix: (Units=1/GPa)
#
#
# Indices 1 2 3 4 5 6 
#
# 1 0.012189 -0.001597 0.001220 0.000000 -0.012263 0.000000
# 2 -0.001597 0.013716 -0.000978 0.000000 0.000279 0.000000
# 3 0.001220 -0.000978 0.035977 0.000000 -0.028873 0.000000
# 4 0.000000 0.000000 0.000000 1.012119 0.000000 -0.085278
# 5 -0.012263 0.000279 -0.028873 0.000000 0.066216 0.000000
# 6 0.000000 0.000000 0.000000 -0.085278 0.000000 0.031541
#
#
# Mechanical properties :
#
#
# Convention : Reuss Voigt Hill
#
# Bulk Modulus (GPa) = 16.89948 34.54847 25.72398
# Shear Modulus (GPa) = 4.18693 27.56527 15.87610
#
# Velocity S-wave (km/s) = 1.32863 3.40907 2.58718
# Velocity P-wave (km/s) = 3.07874 5.48285 4.44637
#
# Compressibility (1/GPa) = 0.05917343
#
# Stress axis : x y z
#
# Youngs Moduli (GPa) = 82.04076 72.90737 27.79554
#
# Poissons Ratio (x) = 0.11643 -0.03392
# Poissons Ratio (y) = 0.13102 0.02717
# Poissons Ratio (z) = -0.10011 0.07127
#
# Static dielectric constant tensor:
#      x y z
#    x 1.988770 0.000000 -0.043880 
#    y 0.000000 1.989000 0.000000 
#    z -0.043880 0.000000 1.942850 
# 
# From -- ./inp_files/15886.got.cif
#   From: 2010.05.17/outbox.cif.g08.bks.cpg/sg4_8_cif.got.tgz:15886.got - 2010.06.03 18:43:04.
