data_PCOD9115959
_publ_section_title
;
Structure prediction by ZEFSAII (Michael W. Deem and Ramdas Pophale) SiO2 
 PCOD9115959
Probable space group: P 21
;
_chemical_formula_sum "Si O2"
_cell_formula_units_Z 14
_cell_length_a 8.222016
_cell_length_b 8.858236
_cell_length_c 8.467898
_cell_angle_alpha 90.000000
_cell_angle_beta 67.804399
_cell_angle_gamma 90.000000
_cell_volume 571.038086
_symmetry_space_group_name_H-M "P 21"
_symmetry_group_IT_number 4
_symmetry_cell_setting 'monoclinic'
loop_
_space_group_symop_operation_xyz
x,y,z
-x,1/2+y,-z
loop_
_atom_site_type_symbol
_atom_site_label
_atom_site_fract_x
_atom_site_fract_y
_atom_site_fract_z
Si Si1 0.016357 0.295020 0.646848
Si Si2 0.123869 0.061354 0.829755
Si Si3 0.800759 0.841740 0.989287
Si Si4 0.310108 0.138381 0.222095
Si Si5 0.892106 0.112542 0.435265
Si Si6 0.648071 0.101961 0.227778
Si Si7 0.277538 0.871470 0.009368
O O1 0.864786 0.225135 0.591015
O O2 0.916355 0.359945 0.838209
O O3 0.132431 0.158242 0.669392
O O4 0.119021 0.432966 0.529923
O O5 0.117844 0.185947 0.972556
O O6 0.275653 0.954255 0.839547
O O7 0.954478 0.954041 0.878769
O O8 0.699114 0.930982 0.163755
O O9 0.675842 0.786802 0.893298
O O10 0.441139 0.130423 0.321050
O O11 0.102160 0.135508 0.332973
O O12 0.361535 0.990130 0.099705
O O13 0.769776 0.145953 0.330687
O O14 0.682093 0.201299 0.056240
#
# Coordination Sequence:
#
# PCOD9115959 Si02
#       7
#     2   2   2   2   2   2   2
#     4  11  23  40  64  96 129 173 217 264 328 388
#     4  11  18  36  66  99 123 163 226 266 325 384
#     4  11  19  34  65  99 125 167 218 283 323 377
#     4  10  24  40  64 100 134 168 224 275 327 390
#     4  11  26  42  63  95 132 180 211 265 331 405
#     4  12  21  42  68  95 133 173 222 274 329 388
#     4  10  21  38  66  98 126 166 222 281 317 380
#
# _framework density 24.516753000000001
#
# number of rings (size 3 to 8) (size 9 to 14) (size 15 to 20)
#    0.000    1.143    4.286    3.429    4.000    0.000 
#    0.000    2.857    0.000    0.000    0.000    0.000 
#    0.000    0.000    0.000    0.000    0.000    0.000 
#
# Total GULP energy -78072.562324 kJ/mol
# GULP energy per Si atom -5576.611595 kJ/mol
# Density = 2.446095 g / cm^3
# Si number density = 24.516753 Si / 1000 Ang^3
#
#
#
# Elastic Constant Matrix: (Units=GPa)
#
#
# Indices 1 2 3 4 5 6 
#
# 1 125.1794 20.7426 26.7436 0.0000 32.0353 0.0000
# 2 20.7426 121.8683 20.2933 0.0000 8.1276 0.0000
# 3 26.7436 20.2933 54.2771 0.0000 22.0523 0.0000
# 4 0.0000 0.0000 0.0000 24.3926 0.0000 13.4759
# 5 32.0353 8.1276 22.0523 0.0000 33.8485 0.0000
# 6 0.0000 0.0000 0.0000 13.4759 0.0000 33.5112
#
#
#
# Elastic Compliance Matrix: (Units=1/GPa)
#
#
# Indices 1 2 3 4 5 6 
#
# 1 0.010756 -0.001021 -0.001199 0.000000 -0.009154 0.000000
# 2 -0.001021 0.008847 -0.003175 0.000000 0.000910 0.000000
# 3 -0.001199 -0.003175 0.026426 0.000000 -0.015319 0.000000
# 4 0.000000 0.000000 0.000000 0.052705 0.000000 -0.021194
# 5 -0.009154 0.000910 -0.015319 0.000000 0.047969 0.000000
# 6 0.000000 0.000000 0.000000 -0.021194 0.000000 0.038364
#
#
# Mechanical properties :
#
#
# Convention : Reuss Voigt Hill
#
# Bulk Modulus (GPa) = 28.37634 48.54264 38.45949
# Shear Modulus (GPa) = 24.08444 33.92015 29.00230
#
# Velocity S-wave (km/s) = 3.13767 3.72365 3.44315
# Velocity P-wave (km/s) = 4.97253 6.19113 5.61499
#
# Compressibility (1/GPa) = 0.03524063
#
# Stress axis : x y z
#
# Youngs Moduli (GPa) = 92.96716 113.02947 37.84179
#
# Poissons Ratio (x) = 0.11536 0.04538
# Poissons Ratio (y) = 0.09488 0.12013
# Poissons Ratio (z) = 0.11149 0.35882
#
# Static dielectric constant tensor:
#      x y z
#    x 2.056960 0.000000 0.002890 
#    y 0.000000 1.995390 0.000000 
#    z 0.002890 0.000000 1.981230 
# 
# From -- ./inp_files/5544.got.cif
#   From: 2010.05.17/outbox.cif.g08.bks.cpg/sg4_3_cif.got.tgz:5544.got - 2010.06.03 18:43:04.
