data_PCOD9115089
_publ_section_title
;
Structure prediction by ZEFSAII (Michael W. Deem and Ramdas Pophale) SiO2 
 PCOD9115089
Probable space group: P 21
;
_chemical_formula_sum "Si O2"
_cell_formula_units_Z 16
_cell_length_a 9.135095
_cell_length_b 9.817320
_cell_length_c 13.949000
_cell_angle_alpha 90.000000
_cell_angle_beta 147.493101
_cell_angle_gamma 90.000000
_cell_volume 672.276123
_symmetry_space_group_name_H-M "P 21"
_symmetry_group_IT_number 4
_symmetry_cell_setting 'monoclinic'
loop_
_space_group_symop_operation_xyz
x,y,z
-x,1/2+y,-z
loop_
_atom_site_type_symbol
_atom_site_label
_atom_site_fract_x
_atom_site_fract_y
_atom_site_fract_z
Si Si1 0.374484 0.789500 0.556553
Si Si2 0.318164 0.309038 0.946978
Si Si3 0.227625 0.111997 0.132724
Si Si4 0.743830 0.427926 0.331345
Si Si5 0.610898 0.179423 0.788340
Si Si6 0.984177 0.555810 0.289085
Si Si7 0.713965 0.376213 0.684638
Si Si8 0.638214 0.422775 0.956275
O O1 0.649650 0.753305 0.763329
O O2 0.410416 0.892404 0.489364
O O3 0.241686 0.655500 0.434631
O O4 0.175438 0.840959 0.531076
O O5 0.268067 0.161326 0.870766
O O6 0.402734 0.405463 0.905085
O O7 0.030747 0.339496 0.838940
O O8 0.549727 0.339784 0.153408
O O9 0.273035 0.008189 0.243841
O O10 0.381335 0.050330 0.126151
O O11 0.910958 0.119730 0.936905
O O12 0.585841 0.558511 0.287989
O O13 0.970519 0.485060 0.384939
O O14 0.555200 0.263494 0.660103
O O15 0.637482 0.290009 0.888496
O O16 0.919346 0.444932 0.171639
#
# Coordination Sequence:
#
# PCOD9115089 Si02
#       8
#     2   2   2   2   2   2   2   2
#     4  11  25  39  61  91 134 174 200 259 331 385
#     4  10  19  42  66  95 119 163 219 267 315 364
#     4  11  23  40  62  94 124 168 208 264 319 380
#     4  11  22  40  67  93 127 166 217 266 316 382
#     4  11  22  41  65  96 120 168 219 268 314 372
#     4  10  22  42  63  94 127 165 212 268 319 382
#     4  10  23  39  62  90 129 164 209 262 319 385
#     4  10  22  39  70  91 122 164 220 272 307 374
#
# _framework density 23.799745999999999
#
# number of rings (size 3 to 8) (size 9 to 14) (size 15 to 20)
#    0.000    1.500    2.500    3.000    3.500    3.000 
#    0.000    2.500    0.000    0.000    0.000    0.000 
#    0.000    0.000    0.000    0.000    0.000    0.000 
#
# Total GULP energy -89378.750717 kJ/mol
# GULP energy per Si atom -5586.171920 kJ/mol
# Density = 2.374558 g / cm^3
# Si number density = 23.799746 Si / 1000 Ang^3
#
#
#
# Elastic Constant Matrix: (Units=GPa)
#
#
# Indices 1 2 3 4 5 6 
#
# 1 92.2193 13.8004 22.9697 0.0000 -38.6097 0.0000
# 2 13.8004 44.8608 -2.5025 0.0000 -7.8669 0.0000
# 3 22.9697 -2.5025 51.4573 0.0000 -22.0503 0.0000
# 4 0.0000 0.0000 0.0000 22.1380 0.0000 1.9055
# 5 -38.6097 -7.8669 -22.0503 0.0000 45.8547 0.0000
# 6 0.0000 0.0000 0.0000 1.9055 0.0000 30.2895
#
#
#
# Elastic Compliance Matrix: (Units=1/GPa)
#
#
# Indices 1 2 3 4 5 6 
#
# 1 0.017305 -0.003195 -0.002357 0.000000 0.012890 0.000000
# 2 -0.003195 0.024095 0.004051 0.000000 0.003392 0.000000
# 3 -0.002357 0.004051 0.025355 0.000000 0.010903 0.000000
# 4 0.000000 0.000000 0.000000 0.045417 0.000000 -0.002857
# 5 0.012890 0.003392 0.010903 0.000000 0.038486 0.000000
# 6 0.000000 0.000000 0.000000 -0.002857 0.000000 0.033194
#
#
# Mechanical properties :
#
#
# Convention : Reuss Voigt Hill
#
# Bulk Modulus (GPa) = 15.68506 28.56364 22.12435
# Shear Modulus (GPa) = 24.02637 29.94108 26.98373
#
# Velocity S-wave (km/s) = 3.18075 3.55074 3.37082
# Velocity P-wave (km/s) = 4.48266 5.37010 4.94633
#
# Compressibility (1/GPa) = 0.06375494
#
# Stress axis : x y z
#
# Youngs Moduli (GPa) = 57.78535 41.50273 39.44025
#
# Poissons Ratio (x) = 0.13259 0.09295
# Poissons Ratio (y) = 0.18461 -0.15979
# Poissons Ratio (z) = 0.13618 -0.16814
#
# Static dielectric constant tensor:
#      x y z
#    x 1.871260 0.000000 -0.015270 
#    y 0.000000 1.944750 0.000000 
#    z -0.015270 0.000000 1.933270 
# 
# From -- ./inp_files/5947.got.cif
#   From: 2010.05.17/outbox.cif.g08.bks.cpg/sg4_3_cif.got.tgz:5947.got - 2010.06.03 18:43:04.
