data_PCOD9115967
_publ_section_title
;
Structure prediction by ZEFSAII (Michael W. Deem and Ramdas Pophale) SiO2 
 PCOD9115967
Probable space group: P 21
;
_chemical_formula_sum "Si O2"
_cell_formula_units_Z 16
_cell_length_a 11.670331
_cell_length_b 5.247426
_cell_length_c 22.103036
_cell_angle_alpha 90.000000
_cell_angle_beta 151.326905
_cell_angle_gamma 90.000000
_cell_volume 649.459582
_symmetry_space_group_name_H-M "P 21"
_symmetry_group_IT_number 4
_symmetry_cell_setting 'monoclinic'
loop_
_space_group_symop_operation_xyz
x,y,z
-x,1/2+y,-z
loop_
_atom_site_type_symbol
_atom_site_label
_atom_site_fract_x
_atom_site_fract_y
_atom_site_fract_z
Si Si1 0.074183 0.571100 0.753001
Si Si2 0.498158 0.986662 0.123009
Si Si3 0.431458 0.834787 0.503987
Si Si4 0.816643 0.603629 0.343428
Si Si5 0.586104 0.733863 0.797030
Si Si6 0.100946 0.072965 0.843312
Si Si7 0.277207 0.368103 0.579595
Si Si8 0.667876 0.993089 0.722640
O O1 0.275844 0.643564 0.797537
O O2 0.162541 0.334843 0.836711
O O3 0.837260 0.444029 0.615095
O O4 0.032345 0.832295 0.769603
O O5 0.348164 0.104881 0.109415
O O6 0.642936 0.743297 0.215583
O O7 0.319299 0.967503 0.984667
O O8 0.558397 0.074917 0.529294
O O9 0.578990 0.780363 0.633535
O O10 0.650777 0.385193 0.293799
O O11 0.856816 0.786523 0.420273
O O12 0.077693 0.504246 0.446745
O O13 0.494755 0.526508 0.707840
O O14 0.740787 0.911366 0.824555
O O15 0.884029 0.130820 0.789114
O O16 0.419110 0.144977 0.613069
#
# Coordination Sequence:
#
# PCOD9115967 Si02
#       8
#     2   2   2   2   2   2   2   2
#     4  12  27  49  79 110 147 202 262 325 381 453
#     4  11  28  46  76 109 147 201 264 318 383 465
#     4  12  25  46  73 113 148 188 248 313 395 455
#     4  10  21  40  65 108 144 191 242 311 387 461
#     4  10  24  44  68 106 147 197 243 307 397 452
#     4  12  28  53  75 107 154 209 261 316 381 457
#     4  10  21  38  68 103 150 192 236 311 388 455
#     4  11  26  44  74 106 153 198 252 319 388 472
#
# _framework density 24.635869
#
# number of rings (size 3 to 8) (size 9 to 14) (size 15 to 20)
#    0.000    1.000    3.750    0.750   10.500    0.000 
#    6.750    0.000    0.000    0.000    0.000    0.000 
#    0.000    0.000    0.000    0.000    0.000    0.000 
#
# Total GULP energy -89334.715513 kJ/mol
# GULP energy per Si atom -5583.419720 kJ/mol
# Density = 2.457980 g / cm^3
# Si number density = 24.635869 Si / 1000 Ang^3
#
#
#
# Elastic Constant Matrix: (Units=GPa)
#
#
# Indices 1 2 3 4 5 6 
#
# 1 114.3296 22.9638 11.8532 0.0000 0.9453 0.0000
# 2 22.9638 89.6385 4.3017 0.0000 -10.3077 0.0000
# 3 11.8532 4.3017 84.0849 0.0000 6.1035 0.0000
# 4 0.0000 0.0000 0.0000 10.0851 0.0000 -8.0169
# 5 0.9453 -10.3077 6.1035 0.0000 17.0046 0.0000
# 6 0.0000 0.0000 0.0000 -8.0169 0.0000 38.3576
#
#
#
# Elastic Compliance Matrix: (Units=1/GPa)
#
#
# Indices 1 2 3 4 5 6 
#
# 1 0.009383 -0.002546 -0.001070 0.000000 -0.001680 0.000000
# 2 -0.002546 0.012796 -0.000892 0.000000 0.008218 0.000000
# 3 -0.001070 -0.000892 0.012449 0.000000 -0.004950 0.000000
# 4 0.000000 0.000000 0.000000 0.118913 0.000000 0.024853
# 5 -0.001680 0.008218 -0.004950 0.000000 0.065659 0.000000
# 6 0.000000 0.000000 0.000000 0.024853 0.000000 0.031265
#
#
# Mechanical properties :
#
#
# Convention : Reuss Voigt Hill
#
# Bulk Modulus (GPa) = 39.04638 40.69893 39.87266
# Shear Modulus (GPa) = 18.65548 29.68507 24.17028
#
# Velocity S-wave (km/s) = 2.75480 3.47501 3.13565
# Velocity P-wave (km/s) = 5.09925 5.71463 5.41569
#
# Compressibility (1/GPa) = 0.02561057
#
# Stress axis : x y z
#
# Youngs Moduli (GPa) = 106.57784 78.14985 80.33047
#
# Poissons Ratio (x) = 0.19894 0.08599
# Poissons Ratio (y) = 0.27130 0.07168
# Poissons Ratio (z) = 0.11409 0.06974
#
# Static dielectric constant tensor:
#      x y z
#    x 2.026670 0.000000 -0.052460 
#    y 0.000000 2.281830 0.000000 
#    z -0.052460 0.000000 1.955210 
# 
# From -- ./inp_files/12998.got.cif
#   From: 2010.05.17/outbox.cif.g08.bks.cpg/sg4_7_cif.got.tgz:12998.got - 2010.06.03 18:43:04.
