data_PCOD9115605
_publ_section_title
;
Structure prediction by ZEFSAII (Michael W. Deem and Ramdas Pophale) SiO2 
 PCOD9115605
Probable space group: P 21
;
_chemical_formula_sum "Si O2"
_cell_formula_units_Z 16
_cell_length_a 9.023236
_cell_length_b 13.408756
_cell_length_c 9.669412
_cell_angle_alpha 90.000000
_cell_angle_beta 136.478440
_cell_angle_gamma 90.000000
_cell_volume 805.629238
_symmetry_space_group_name_H-M "P 21"
_symmetry_group_IT_number 4
_symmetry_cell_setting 'monoclinic'
loop_
_space_group_symop_operation_xyz
x,y,z
-x,1/2+y,-z
loop_
_atom_site_type_symbol
_atom_site_label
_atom_site_fract_x
_atom_site_fract_y
_atom_site_fract_z
Si Si1 0.005073 0.765730 0.972471
Si Si2 0.629449 0.121669 0.325843
Si Si3 0.524572 0.999055 0.988433
Si Si4 0.642360 0.099170 0.800685
Si Si5 0.301606 0.104451 0.353036
Si Si6 0.975055 0.486132 0.034519
Si Si7 0.113488 0.097724 0.743477
Si Si8 0.672713 0.782078 0.000500
O O1 0.845946 0.701639 0.768301
O O2 0.863799 0.787090 0.015032
O O3 0.066580 0.872897 0.954419
O O4 0.215743 0.697137 0.136486
O O5 0.502890 0.107095 0.383616
O O6 0.565678 0.037396 0.171113
O O7 0.238361 0.202720 0.828242
O O8 0.535105 0.226286 0.205341
O O9 0.636695 0.076316 0.958901
O O10 0.270108 0.013773 0.787578
O O11 0.610029 0.889204 0.016051
O O12 0.407550 0.100262 0.574301
O O13 0.774833 0.007080 0.824507
O O14 0.153602 0.015945 0.191745
O O15 0.912186 0.562640 0.113520
O O16 0.881873 0.113058 0.521650
#
# Coordination Sequence:
#
# PCOD9115605 Si02
#       8
#     2   2   2   2   2   2   2   2
#     4  10  21  38  63  93 125 159 208 253 300 361
#     4  10  21  42  65  84 126 167 198 248 309 370
#     4  11  24  40  62  95 128 156 202 262 305 355
#     4  11  22  40  62  93 126 157 206 257 297 358
#     4  10  20  41  63  89 123 165 202 249 306 359
#     4  11  20  38  64  90 119 163 206 246 299 367
#     4  11  22  42  64  89 124 166 205 246 312 370
#     4  10  20  41  63  91 123 163 203 253 308 362
#
# _framework density 19.860253
#
# number of rings (size 3 to 8) (size 9 to 14) (size 15 to 20)
#    0.000    1.500    7.500    0.000    0.000    6.000 
#    2.250    0.000    0.000    0.000    0.000    0.000 
#    0.000    0.000    0.000    0.000    0.000    0.000 
#
# Total GULP energy -89234.094144 kJ/mol
# GULP energy per Si atom -5577.130884 kJ/mol
# Density = 1.981505 g / cm^3
# Si number density = 19.860253 Si / 1000 Ang^3
#
#
#
# Elastic Constant Matrix: (Units=GPa)
#
#
# Indices 1 2 3 4 5 6 
#
# 1 34.0555 12.4254 6.4621 0.0000 11.5369 0.0000
# 2 12.4254 112.3882 30.9571 0.0000 7.5960 0.0000
# 3 6.4621 30.9571 99.4634 0.0000 29.0809 0.0000
# 4 0.0000 0.0000 0.0000 6.3894 0.0000 2.7906
# 5 11.5369 7.5960 29.0809 0.0000 30.2214 0.0000
# 6 0.0000 0.0000 0.0000 2.7906 0.0000 30.2070
#
#
#
# Elastic Compliance Matrix: (Units=1/GPa)
#
#
# Indices 1 2 3 4 5 6 
#
# 1 0.035513 -0.003826 0.003571 0.000000 -0.016032 0.000000
# 2 -0.003826 0.010154 -0.003607 0.000000 0.002380 0.000000
# 3 0.003571 -0.003607 0.015415 0.000000 -0.015290 0.000000
# 4 0.000000 0.000000 0.000000 0.163089 0.000000 -0.015067
# 5 -0.016032 0.002380 -0.015290 0.000000 0.053324 0.000000
# 6 0.000000 0.000000 0.000000 -0.015067 0.000000 0.034497
#
#
# Mechanical properties :
#
#
# Convention : Reuss Voigt Hill
#
# Bulk Modulus (GPa) = 18.74197 38.39958 28.57078
# Shear Modulus (GPa) = 14.81467 26.43438 20.62452
#
# Velocity S-wave (km/s) = 2.73416 3.65227 3.22605
# Velocity P-wave (km/s) = 4.40737 6.09609 5.31918
#
# Compressibility (1/GPa) = 0.05335619
#
# Stress axis : x y z
#
# Youngs Moduli (GPa) = 28.15846 98.48749 64.87125
#
# Poissons Ratio (x) = 0.37685 -0.23165
# Poissons Ratio (y) = 0.10774 0.23402
# Poissons Ratio (z) = -0.10055 0.35529
#
# Static dielectric constant tensor:
#      x y z
#    x 1.754570 0.000000 -0.002120 
#    y 0.000000 1.698570 0.000000 
#    z -0.002120 0.000000 1.693970 
# 
# From -- ./inp_files/6668.got.cif
#   From: 2010.05.17/outbox.cif.g08.bks.cpg/sg4_4_cif.got.tgz:6668.got - 2010.06.03 18:43:04.
