data_PCOD9115280
_publ_section_title
;
Structure prediction by ZEFSAII (Michael W. Deem and Ramdas Pophale) SiO2 
 PCOD9115280
Probable space group: P 21
;
_chemical_formula_sum "Si O2"
_cell_formula_units_Z 14
_cell_length_a 8.048452
_cell_length_b 13.380382
_cell_length_c 5.098056
_cell_angle_alpha 90.000000
_cell_angle_beta 91.078051
_cell_angle_gamma 90.000000
_cell_volume 548.919416
_symmetry_space_group_name_H-M "P 21"
_symmetry_group_IT_number 4
_symmetry_cell_setting 'monoclinic'
loop_
_space_group_symop_operation_xyz
x,y,z
-x,1/2+y,-z
loop_
_atom_site_type_symbol
_atom_site_label
_atom_site_fract_x
_atom_site_fract_y
_atom_site_fract_z
Si Si1 0.754746 0.407420 0.583261
Si Si2 0.367175 0.016778 0.922783
Si Si3 0.729772 0.750444 0.044832
Si Si4 0.047186 0.520004 0.443891
Si Si5 0.964345 0.150694 0.074388
Si Si6 0.356448 0.583064 0.732183
Si Si7 0.529628 0.764082 0.537028
O O1 0.732520 0.447196 0.875935
O O2 0.944374 0.419690 0.494546
O O3 0.648966 0.307887 0.548589
O O4 0.660682 0.477202 0.367662
O O5 0.552246 0.019785 0.044732
O O6 0.306764 0.130839 0.947238
O O7 0.926972 0.746963 0.996351
O O8 0.661771 0.787671 0.316908
O O9 0.615809 0.794821 0.811756
O O10 0.031135 0.568012 0.157631
O O11 0.236659 0.518558 0.544765
O O12 0.971748 0.601778 0.650244
O O13 0.768375 0.161914 0.127696
O O14 0.487226 0.647258 0.572694
#
# Coordination Sequence:
#
# PCOD9115280 Si02
#       7
#     2   2   2   2   2   2   2
#     4  12  22  41  61  95 127 169 204 270 324 364
#     4  11  21  37  67  88 120 162 220 253 298 386
#     4  11  20  40  63  92 115 171 207 257 301 391
#     4  10  20  37  63  92 117 166 209 252 307 383
#     4  10  20  36  65  90 115 157 215 251 296 370
#     4   9  24  38  65  96 117 166 216 259 299 382
#     4  11  25  37  64  93 133 157 213 270 323 356
#
# _framework density 25.504652
#
# number of rings (size 3 to 8) (size 9 to 14) (size 15 to 20)
#    0.857    0.571    2.857    3.429    6.000    0.000 
#    0.000    1.429    6.286    0.000    0.000    0.000 
#    0.000    0.000    0.000    0.000    0.000    0.000 
#
# Total GULP energy -78248.023574 kJ/mol
# GULP energy per Si atom -5589.144541 kJ/mol
# Density = 2.544660 g / cm^3
# Si number density = 25.504652 Si / 1000 Ang^3
#
#
#
# Elastic Constant Matrix: (Units=GPa)
#
#
# Indices 1 2 3 4 5 6 
#
# 1 90.9192 -5.7137 15.0986 0.0000 5.6185 0.0000
# 2 -5.7137 44.2085 22.1322 0.0000 0.8107 0.0000
# 3 15.0986 22.1322 131.1051 0.0000 -7.9869 0.0000
# 4 0.0000 0.0000 0.0000 23.3655 0.0000 6.0224
# 5 5.6185 0.8107 -7.9869 0.0000 42.8914 0.0000
# 6 0.0000 0.0000 0.0000 6.0224 0.0000 29.0964
#
#
#
# Elastic Compliance Matrix: (Units=1/GPa)
#
#
# Indices 1 2 3 4 5 6 
#
# 1 0.011582 0.002466 -0.001867 0.000000 -0.001911 0.000000
# 2 0.002466 0.025301 -0.004657 0.000000 -0.001668 0.000000
# 3 -0.001867 -0.004657 0.008748 0.000000 0.001962 0.000000
# 4 0.000000 0.000000 0.000000 0.045210 0.000000 -0.009358
# 5 -0.001911 -0.001668 0.001962 0.000000 0.023962 0.000000
# 6 0.000000 0.000000 0.000000 -0.009358 0.000000 0.036305
#
#
# Mechanical properties :
#
#
# Convention : Reuss Voigt Hill
#
# Bulk Modulus (GPa) = 26.65474 36.58522 31.61998
# Shear Modulus (GPa) = 29.11589 34.71837 31.91713
#
# Velocity S-wave (km/s) = 3.38241 3.69352 3.54138
# Velocity P-wave (km/s) = 5.07227 5.70659 5.39875
#
# Compressibility (1/GPa) = 0.03751679
#
# Stress axis : x y z
#
# Youngs Moduli (GPa) = 86.34179 39.52445 114.31113
#
# Poissons Ratio (x) = -0.09748 0.21338
# Poissons Ratio (y) = -0.21296 0.53232
# Poissons Ratio (z) = 0.16117 0.18406
#
# Static dielectric constant tensor:
#      x y z
#    x 2.127950 0.000000 -0.048120 
#    y 0.000000 2.028250 0.000000 
#    z -0.048120 0.000000 1.959640 
# 
# From -- ./inp_files/1707.got.cif
#   From: 2010.05.17/outbox.cif.g08.bks.cpg/sg4_1_cif.got.tgz:1707.got - 2010.06.03 18:43:04.
