data_PCOD9115737
_publ_section_title
;
Structure prediction by ZEFSAII (Michael W. Deem and Ramdas Pophale) SiO2 
 PCOD9115737
Probable space group: P 21
;
_chemical_formula_sum "Si O2"
_cell_formula_units_Z 14
_cell_length_a 7.600350
_cell_length_b 12.135686
_cell_length_c 8.279286
_cell_angle_alpha 90.000000
_cell_angle_beta 129.598041
_cell_angle_gamma 90.000000
_cell_volume 588.414274
_symmetry_space_group_name_H-M "P 21"
_symmetry_group_IT_number 4
_symmetry_cell_setting 'monoclinic'
loop_
_space_group_symop_operation_xyz
x,y,z
-x,1/2+y,-z
loop_
_atom_site_type_symbol
_atom_site_label
_atom_site_fract_x
_atom_site_fract_y
_atom_site_fract_z
Si Si1 0.174656 0.061770 0.262047
Si Si2 0.774792 0.180946 0.407869
Si Si3 0.621504 0.866273 0.825348
Si Si4 0.377994 0.467869 0.534391
Si Si5 0.920988 0.320031 0.743146
Si Si6 0.307130 0.588003 0.989377
Si Si7 0.554086 0.738478 0.365535
O O1 0.294129 0.158994 0.432367
O O2 0.929992 0.090642 0.046566
O O3 0.374144 0.015384 0.264654
O O4 0.118146 0.948567 0.325722
O O5 0.561462 0.267935 0.280649
O O6 0.966532 0.253541 0.606491
O O7 0.779266 0.130818 0.232934
O O8 0.771848 0.072912 0.519072
O O9 0.620194 0.930588 0.652514
O O10 0.870607 0.817486 0.010343
O O11 0.592140 0.964859 0.938519
O O12 0.327091 0.355072 0.594039
O O13 0.686877 0.272765 0.686858
O O14 0.485779 0.671389 0.169015
#
# Coordination Sequence:
#
# PCOD9115737 Si02
#       7
#     2   2   2   2   2   2   2
#     4  10  20  44  66  89 131 170 215 276 320 389
#     4  12  24  45  65 104 135 171 219 279 327 398
#     4  11  23  46  69  95 137 174 224 277 321 396
#     4  11  22  43  70  91 134 172 228 273 317 386
#     4  10  22  40  69  96 124 176 224 268 328 388
#     4  11  26  39  69  98 137 178 213 269 352 383
#     4  11  21  41  66  97 126 175 221 270 323 390
#
# _framework density 23.792760999999999
#
# number of rings (size 3 to 8) (size 9 to 14) (size 15 to 20)
#    0.000    1.143    5.714    0.000    6.000    1.143 
#    5.143    0.000    0.000    0.000    0.000    0.000 
#    0.000    0.000    0.000    0.000    0.000    0.000 
#
# Total GULP energy -78106.994947 kJ/mol
# GULP energy per Si atom -5579.071068 kJ/mol
# Density = 2.373861 g / cm^3
# Si number density = 23.792761 Si / 1000 Ang^3
#
#
#
# Elastic Constant Matrix: (Units=GPa)
#
#
# Indices 1 2 3 4 5 6 
#
# 1 41.1170 28.5445 20.9175 0.0000 5.0117 0.0000
# 2 28.5445 169.8416 24.4009 0.0000 3.3528 0.0000
# 3 20.9175 24.4009 87.4756 0.0000 13.6779 0.0000
# 4 0.0000 0.0000 0.0000 50.2922 0.0000 -0.8300
# 5 5.0117 3.3528 13.6779 0.0000 27.6443 0.0000
# 6 0.0000 0.0000 0.0000 -0.8300 0.0000 26.9551
#
#
#
# Elastic Compliance Matrix: (Units=1/GPa)
#
#
# Indices 1 2 3 4 5 6 
#
# 1 0.030465 -0.004250 -0.005762 0.000000 -0.002157 0.000000
# 2 -0.004250 0.006727 -0.000925 0.000000 0.000412 0.000000
# 3 -0.005762 -0.000925 0.013967 0.000000 -0.005754 0.000000
# 4 0.000000 0.000000 0.000000 0.019894 0.000000 0.000613
# 5 -0.002157 0.000412 -0.005754 0.000000 0.039362 0.000000
# 6 0.000000 0.000000 0.000000 0.000613 0.000000 0.037118
#
#
# Mechanical properties :
#
#
# Convention : Reuss Voigt Hill
#
# Bulk Modulus (GPa) = 34.14588 49.57333 41.85960
# Shear Modulus (GPa) = 27.90675 35.94976 31.92825
#
# Velocity S-wave (km/s) = 3.42849 3.89132 3.66721
# Velocity P-wave (km/s) = 5.48227 6.40863 5.96346
#
# Compressibility (1/GPa) = 0.02928611
#
# Stress axis : x y z
#
# Youngs Moduli (GPa) = 32.82409 148.65957 71.59585
#
# Poissons Ratio (x) = 0.63176 0.41256
# Poissons Ratio (y) = 0.13949 0.06620
# Poissons Ratio (z) = 0.18914 0.13745
#
# Static dielectric constant tensor:
#      x y z
#    x 2.017820 0.000000 -0.010990 
#    y 0.000000 1.930200 0.000000 
#    z -0.010990 0.000000 1.894480 
# 
# From -- ./inp_files/6358.got.cif
#   From: 2010.05.17/outbox.cif.g08.bks.cpg/sg4_4_cif.got.tgz:6358.got - 2010.06.03 18:43:04.
