data_PCOD9115110
_publ_section_title
;
Structure prediction by ZEFSAII (Michael W. Deem and Ramdas Pophale) SiO2 
 PCOD9115110
Probable space group: P 21
;
_chemical_formula_sum "Si O2"
_cell_formula_units_Z 14
_cell_length_a 14.665896
_cell_length_b 5.193910
_cell_length_c 23.349621
_cell_angle_alpha 90.000000
_cell_angle_beta 153.905875
_cell_angle_gamma 90.000000
_cell_volume 782.320256
_symmetry_space_group_name_H-M "P 21"
_symmetry_group_IT_number 4
_symmetry_cell_setting 'monoclinic'
loop_
_space_group_symop_operation_xyz
x,y,z
-x,1/2+y,-z
loop_
_atom_site_type_symbol
_atom_site_label
_atom_site_fract_x
_atom_site_fract_y
_atom_site_fract_z
Si Si1 0.675701 0.145690 0.290754
Si Si2 0.883677 0.842114 0.500506
Si Si3 0.554120 0.598828 0.954594
Si Si4 0.762417 0.101924 0.122270
Si Si5 0.330910 0.832106 0.592712
Si Si6 0.752521 0.664114 0.612088
Si Si7 0.483883 0.666365 0.565598
O O1 0.512987 0.115187 0.148904
O O2 0.593199 0.303022 0.299138
O O3 0.880895 0.278273 0.380518
O O4 0.765599 0.889464 0.372957
O O5 0.770282 0.611791 0.469810
O O6 0.850441 0.114652 0.513005
O O7 0.348224 0.612892 0.878205
O O8 0.658283 0.327261 0.026672
O O9 0.703067 0.829194 0.060040
O O10 0.004680 0.160128 0.262218
O O11 0.495842 0.740522 0.638990
O O12 0.691706 0.682502 0.645111
O O13 0.662953 0.391537 0.541378
O O14 0.628780 0.895206 0.510883
#
# Coordination Sequence:
#
# PCOD9115110 Si02
#       7
#     2   2   2   2   2   2   2
#     4  10  21  33  52  77 112 138 182 211 279 320
#     4  10  20  32  49  81 107 144 167 218 274 329
#     4  10  23  35  55  76 109 148 188 214 265 330
#     4  10  22  39  51  79 106 148 188 224 260 312
#     4  10  20  32  50  82 110 132 174 216 277 329
#     4  10  21  38  58  80 112 143 180 232 271 320
#     4  10  21  35  59  87 106 141 181 221 290 326
#
# _framework density 17.895482999999999
#
# number of rings (size 3 to 8) (size 9 to 14) (size 15 to 20)
#    0.857    1.143    1.429    1.714    6.000    0.000 
#    0.000    0.000    0.000    1.714    0.000    0.000 
#    0.000    0.000    0.000    0.000    0.000    0.000 
#
# Total GULP energy -78011.333917 kJ/mol
# GULP energy per Si atom -5572.238137 kJ/mol
# Density = 1.785475 g / cm^3
# Si number density = 17.895483 Si / 1000 Ang^3
#
#
#
# Elastic Constant Matrix: (Units=GPa)
#
#
# Indices 1 2 3 4 5 6 
#
# 1 37.7370 -12.5909 -6.2766 0.0000 -4.8632 0.0000
# 2 -12.5909 75.7138 -13.0127 0.0000 4.0506 0.0000
# 3 -6.2766 -13.0127 30.5093 0.0000 7.6724 0.0000
# 4 0.0000 0.0000 0.0000 10.4136 0.0000 1.8637
# 5 -4.8632 4.0506 7.6724 0.0000 19.5589 0.0000
# 6 0.0000 0.0000 0.0000 1.8637 0.0000 23.4736
#
#
#
# Elastic Compliance Matrix: (Units=1/GPa)
#
#
# Indices 1 2 3 4 5 6 
#
# 1 0.030346 0.006286 0.008159 0.000000 0.003043 0.000000
# 2 0.006286 0.016200 0.009601 0.000000 -0.005558 0.000000
# 3 0.008159 0.009601 0.042758 0.000000 -0.016732 0.000000
# 4 0.000000 0.000000 0.000000 0.097412 0.000000 -0.007734
# 5 0.003043 -0.005558 -0.016732 0.000000 0.059599 0.000000
# 6 0.000000 0.000000 0.000000 -0.007734 0.000000 0.043215
#
#
# Mechanical properties :
#
#
# Convention : Reuss Voigt Hill
#
# Bulk Modulus (GPa) = 7.27835 8.91108 8.09472
# Shear Modulus (GPa) = 17.40715 22.41191 19.90953
#
# Velocity S-wave (km/s) = 3.12222 3.54273 3.33910
# Velocity P-wave (km/s) = 4.13202 4.66100 4.40446
#
# Compressibility (1/GPa) = 0.13739369
#
# Stress axis : x y z
#
# Youngs Moduli (GPa) = 32.95372 61.72728 23.38744
#
# Poissons Ratio (x) = -0.38800 -0.19081
# Poissons Ratio (y) = -0.20714 -0.22453
# Poissons Ratio (z) = -0.26886 -0.59262
#
# Static dielectric constant tensor:
#      x y z
#    x 1.685400 0.000000 -0.004160 
#    y 0.000000 1.630620 0.000000 
#    z -0.004160 0.000000 1.571390 
# 
# From -- ./inp_files/16412.got.cif
#   From: 2010.05.17/outbox.cif.g08.bks.cpg/sg4_9_cif.got.tgz:16412.got - 2010.06.03 18:43:04.
