data_PCOD9115009
_publ_section_title
;
Structure prediction by ZEFSAII (Michael W. Deem and Ramdas Pophale) SiO2 
 PCOD9115009
Probable space group: P 21
;
_chemical_formula_sum "Si O2"
_cell_formula_units_Z 16
_cell_length_a 21.705004
_cell_length_b 5.415258
_cell_length_c 18.953986
_cell_angle_alpha 90.000000
_cell_angle_beta 18.760201
_cell_angle_gamma 90.000000
_cell_volume 716.483994
_symmetry_space_group_name_H-M "P 21"
_symmetry_group_IT_number 4
_symmetry_cell_setting 'monoclinic'
loop_
_space_group_symop_operation_xyz
x,y,z
-x,1/2+y,-z
loop_
_atom_site_type_symbol
_atom_site_label
_atom_site_fract_x
_atom_site_fract_y
_atom_site_fract_z
Si Si1 0.754593 0.359810 0.944923
Si Si2 0.381157 0.456487 0.284049
Si Si3 0.103551 0.131277 0.490186
Si Si4 0.856358 0.102448 0.980467
Si Si5 0.415788 0.203792 0.058766
Si Si6 0.513351 0.560114 0.530017
Si Si7 0.030524 0.747534 0.686513
Si Si8 0.933779 0.720511 0.110371
O O1 0.896782 0.246459 0.731391
O O2 0.830859 0.635153 0.875663
O O3 0.536505 0.319027 0.162022
O O4 0.800071 0.248114 0.971535
O O5 0.266444 0.290782 0.353074
O O6 0.204379 0.568651 0.517462
O O7 0.512692 0.648116 0.097552
O O8 0.190108 0.145463 0.317885
O O9 0.104242 0.882822 0.535222
O O10 0.662025 0.009372 0.227227
O O11 0.973885 0.245813 0.912611
O O12 0.989716 0.896832 0.801057
O O13 0.478272 0.482274 0.011520
O O14 0.542845 0.304630 0.454951
O O15 0.711220 0.643281 0.351794
O O16 0.035875 0.480109 0.963357
#
# Coordination Sequence:
#
# PCOD9115009 Si02
#       8
#     2   2   2   2   2   2   2   2
#     4  10  24  42  63  98 137 174 234 281 335 417
#     4  10  21  41  66  95 134 181 230 287 340 405
#     4   9  20  41  61  92 134 176 224 292 339 403
#     4  11  26  43  69  98 138 180 223 271 354 404
#     4  10  19  38  69  96 131 183 234 286 355 399
#     4  12  25  46  72 104 138 171 225 284 330 407
#     4  10  22  42  65  91 140 171 225 279 338 408
#     4  12  25  47  75 102 138 178 223 280 345 405
#
# _framework density 22.331272999999999
#
# number of rings (size 3 to 8) (size 9 to 14) (size 15 to 20)
#    0.000    1.500    3.750    0.000    3.500    6.000 
#    2.250    0.000    0.000    0.000    0.000    0.000 
#    0.000    0.000    0.000    0.000    0.000    0.000 
#
# Total GULP energy -89229.188067 kJ/mol
# GULP energy per Si atom -5576.824254 kJ/mol
# Density = 2.228045 g / cm^3
# Si number density = 22.331273 Si / 1000 Ang^3
#
#
#
# Elastic Constant Matrix: (Units=GPa)
#
#
# Indices 1 2 3 4 5 6 
#
# 1 83.6701 0.3574 -50.9336 0.0000 -33.8451 0.0000
# 2 0.3574 65.1969 10.9934 0.0000 6.4654 0.0000
# 3 -50.9336 10.9934 282.1109 0.0000 53.7422 0.0000
# 4 0.0000 0.0000 0.0000 60.4033 0.0000 0.4741
# 5 -33.8451 6.4654 53.7422 0.0000 55.7809 0.0000
# 6 0.0000 0.0000 0.0000 0.4741 0.0000 10.6991
#
#
#
# Elastic Compliance Matrix: (Units=1/GPa)
#
#
# Indices 1 2 3 4 5 6 
#
# 1 0.016303 -0.001180 0.001321 0.000000 0.008755 0.000000
# 2 -0.001180 0.015626 -0.000417 0.000000 -0.002125 0.000000
# 3 0.001321 -0.000417 0.004455 0.000000 -0.003442 0.000000
# 4 0.000000 0.000000 0.000000 0.016561 0.000000 -0.000734
# 5 0.008755 -0.002125 -0.003442 0.000000 0.026802 0.000000
# 6 0.000000 0.000000 0.000000 -0.000734 0.000000 0.093498
#
#
# Mechanical properties :
#
#
# Convention : Reuss Voigt Hill
#
# Bulk Modulus (GPa) = 27.90826 39.09024 33.49925
# Shear Modulus (GPa) = 26.91914 56.74739 41.83326
#
# Velocity S-wave (km/s) = 3.47572 5.04646 4.33286
# Velocity P-wave (km/s) = 5.35089 7.17624 6.32971
#
# Compressibility (1/GPa) = 0.03583169
#
# Stress axis : x y z
#
# Youngs Moduli (GPa) = 61.33917 63.99699 224.45130
#
# Poissons Ratio (x) = 0.07554 -0.29661
# Poissons Ratio (y) = 0.07241 0.09362
# Poissons Ratio (z) = -0.08106 0.02669
#
# Static dielectric constant tensor:
#      x y z
#    x 1.866420 0.000000 0.045450 
#    y 0.000000 1.738260 0.000000 
#    z 0.045450 0.000000 1.862310 
# 
# From -- ./inp_files/15370.got.cif
#   From: 2010.05.17/outbox.cif.g08.bks.cpg/sg4_8_cif.got.tgz:15370.got - 2010.06.03 18:43:04.
