data_PCOD9115047
_publ_section_title
;
Structure prediction by ZEFSAII (Michael W. Deem and Ramdas Pophale) SiO2 
 PCOD9115047
Probable space group: P 21
;
_chemical_formula_sum "Si O2"
_cell_formula_units_Z 16
_cell_length_a 12.637114
_cell_length_b 7.446972
_cell_length_c 11.605334
_cell_angle_alpha 90.000000
_cell_angle_beta 34.749451
_cell_angle_gamma 90.000000
_cell_volume 622.517635
_symmetry_space_group_name_H-M "P 21"
_symmetry_group_IT_number 4
_symmetry_cell_setting 'monoclinic'
loop_
_space_group_symop_operation_xyz
x,y,z
-x,1/2+y,-z
loop_
_atom_site_type_symbol
_atom_site_label
_atom_site_fract_x
_atom_site_fract_y
_atom_site_fract_z
Si Si1 0.183123 0.198710 0.574369
Si Si2 0.828816 0.532155 0.638815
Si Si3 0.188233 0.883790 0.105144
Si Si4 0.416278 0.495635 0.256895
Si Si5 0.763842 0.925869 0.794888
Si Si6 0.112235 0.288359 0.086042
Si Si7 0.327140 0.367664 0.663223
Si Si8 0.310858 0.744008 0.547069
O O1 0.239234 0.381711 0.455283
O O2 0.289925 0.220481 0.597456
O O3 0.964085 0.236629 0.793195
O O4 0.247179 0.049717 0.423610
O O5 0.797284 0.388936 0.767907
O O6 0.776213 0.718792 0.745009
O O7 0.047009 0.517919 0.416283
O O8 0.124974 0.079175 0.113650
O O9 0.401909 0.880300 0.874040
O O10 0.399007 0.515401 0.134296
O O11 0.399778 0.674847 0.346429
O O12 0.771623 0.904586 0.924751
O O13 0.892466 0.330103 0.283736
O O14 0.193495 0.322794 0.888549
O O15 0.286436 0.560667 0.643649
O O16 0.536015 0.355849 0.522132
#
# Coordination Sequence:
#
# PCOD9115047 Si02
#       8
#     2   2   2   2   2   2   2   2
#     4  10  22  42  62  94 133 171 222 274 330 402
#     4  10  19  40  63  93 130 171 216 271 340 393
#     4  11  19  40  68  89 129 181 207 278 341 395
#     4  10  19  40  64  93 126 173 218 264 339 399
#     4  10  21  40  63  97 134 167 223 276 335 407
#     4  11  23  43  69  97 133 178 229 275 337 404
#     4  11  25  44  70  98 135 181 235 271 344 408
#     4  11  24  45  71  95 140 182 224 287 340 400
#
# _framework density 25.702081
#
# number of rings (size 3 to 8) (size 9 to 14) (size 15 to 20)
#    0.000    1.500    6.250    0.750    0.000    5.000 
#   11.250    0.000    0.000    0.000    0.000    0.000 
#    0.000    0.000    0.000    0.000    0.000    0.000 
#
# Total GULP energy -89425.975449 kJ/mol
# GULP energy per Si atom -5589.123466 kJ/mol
# Density = 2.564358 g / cm^3
# Si number density = 25.702081 Si / 1000 Ang^3
#
#
#
# Elastic Constant Matrix: (Units=GPa)
#
#
# Indices 1 2 3 4 5 6 
#
# 1 159.5440 24.9344 41.8325 0.0000 16.6616 0.0000
# 2 24.9344 68.7299 17.9870 0.0000 13.3994 0.0000
# 3 41.8325 17.9870 83.2103 0.0000 -1.2187 0.0000
# 4 0.0000 0.0000 0.0000 -57.0221 0.0000 5.1958
# 5 16.6616 13.3994 -1.2187 0.0000 44.3708 0.0000
# 6 0.0000 0.0000 0.0000 5.1958 0.0000 34.7718
#
#
#
# Elastic Compliance Matrix: (Units=1/GPa)
#
#
# Indices 1 2 3 4 5 6 
#
# 1 0.007696 -0.001342 -0.003617 0.000000 -0.002584 0.000000
# 2 -0.001342 0.016727 -0.003009 0.000000 -0.004630 0.000000
# 3 -0.003617 -0.003009 0.014525 0.000000 0.002666 0.000000
# 4 0.000000 0.000000 0.000000 -0.017301 0.000000 0.002585
# 5 -0.002584 -0.004630 0.002666 0.000000 0.024979 0.000000
# 6 0.000000 0.000000 0.000000 0.002585 0.000000 0.028373
#
#
# Mechanical properties :
#
#
# Convention : Reuss Voigt Hill
#
# Bulk Modulus (GPa) = 43.45361 53.44356 48.44859
# Shear Modulus (GPa) = 50.70807 19.53944 35.12376
#
# Velocity S-wave (km/s) = 4.44657 2.76021 3.70073
# Velocity P-wave (km/s) = 6.58073 5.56749 6.09520
#
# Compressibility (1/GPa) = 0.02301305
#
# Stress axis : x y z
#
# Youngs Moduli (GPa) = 129.94281 59.78513 68.84465
#
# Poissons Ratio (x) = 0.08021 0.24899
# Poissons Ratio (y) = 0.17434 0.20715
# Poissons Ratio (z) = 0.46996 0.17989
#
# Static dielectric constant tensor:
#      x y z
#    x 2.063950 0.000000 -0.001560 
#    y 0.000000 2.070920 0.000000 
#    z -0.001560 0.000000 2.010370 
# 
# From -- ./inp_files/12094.got.cif
#   From: 2010.05.17/outbox.cif.g08.bks.cpg/sg4_7_cif.got.tgz:12094.got - 2010.06.03 18:43:04.
