data_PCOD9115677
_publ_section_title
;
Structure prediction by ZEFSAII (Michael W. Deem and Ramdas Pophale) SiO2 
 PCOD9115677
Probable space group: P 21
;
_chemical_formula_sum "Si O2"
_cell_formula_units_Z 14
_cell_length_a 5.502175
_cell_length_b 16.566667
_cell_length_c 9.054481
_cell_angle_alpha 90.000000
_cell_angle_beta 126.912334
_cell_angle_gamma 90.000000
_cell_volume 659.905363
_symmetry_space_group_name_H-M "P 21"
_symmetry_group_IT_number 4
_symmetry_cell_setting 'monoclinic'
loop_
_space_group_symop_operation_xyz
x,y,z
-x,1/2+y,-z
loop_
_atom_site_type_symbol
_atom_site_label
_atom_site_fract_x
_atom_site_fract_y
_atom_site_fract_z
Si Si1 0.580427 0.968690 0.817135
Si Si2 0.670510 0.041249 0.308258
Si Si3 0.365177 0.804582 0.809132
Si Si4 0.284268 0.935839 0.009270
Si Si5 0.336761 0.604779 0.377052
Si Si6 0.058272 0.168459 0.313275
Si Si7 0.151316 0.169775 0.021954
O O1 0.439450 0.880403 0.730083
O O2 0.428100 0.985577 0.921173
O O3 0.948795 0.958524 0.944789
O O4 0.519080 0.041148 0.684694
O O5 0.746720 0.055428 0.506442
O O6 0.943387 0.079458 0.315139
O O7 0.391371 0.099873 0.155777
O O8 0.539824 0.953207 0.225338
O O9 0.273383 0.848465 0.928847
O O10 0.114414 0.740380 0.666245
O O11 0.664259 0.751072 0.940811
O O12 0.586433 0.669194 0.521910
O O13 0.058061 0.644393 0.189405
O O14 0.974468 0.179694 0.111505
#
# Coordination Sequence:
#
# PCOD9115677 Si02
#       7
#     2   2   2   2   2   2   2
#     4  10  22  40  72  99 129 183 221 281 335 403
#     4  10  22  37  67  98 129 170 227 277 337 396
#     4   9  22  39  74  87 138 182 227 265 359 386
#     4  10  21  41  72  94 132 178 222 275 341 397
#     4  11  23  37  73 100 135 167 242 272 343 389
#     4  10  22  40  66  98 130 182 220 287 328 413
#     4  10  20  42  66  94 131 180 221 279 331 408
#
# _framework density 21.215164999999999
#
# number of rings (size 3 to 8) (size 9 to 14) (size 15 to 20)
#    0.857    1.143    1.429    1.714    4.000    2.286 
#    0.000    0.000   59.714    0.000    0.000    0.000 
#    0.000    0.000    0.000    0.000    0.000    0.000 
#
# Total GULP energy -77972.296663 kJ/mol
# GULP energy per Si atom -5569.449762 kJ/mol
# Density = 2.116688 g / cm^3
# Si number density = 21.215165 Si / 1000 Ang^3
#
#
#
# Elastic Constant Matrix: (Units=GPa)
#
#
# Indices 1 2 3 4 5 6 
#
# 1 76.3112 -4.5952 14.1976 0.0000 -6.5377 0.0000
# 2 -4.5952 45.7423 -3.0485 0.0000 1.0732 0.0000
# 3 14.1976 -3.0485 87.8002 0.0000 -2.8359 0.0000
# 4 0.0000 0.0000 0.0000 9.4529 0.0000 0.2015
# 5 -6.5377 1.0732 -2.8359 0.0000 23.0520 0.0000
# 6 0.0000 0.0000 0.0000 0.2015 0.0000 36.2661
#
#
#
# Elastic Compliance Matrix: (Units=1/GPa)
#
#
# Indices 1 2 3 4 5 6 
#
# 1 0.013873 0.001170 -0.002086 0.000000 0.003623 0.000000
# 2 0.001170 0.022031 0.000556 0.000000 -0.000626 0.000000
# 3 -0.002086 0.000556 0.011773 0.000000 0.000831 0.000000
# 4 0.000000 0.000000 0.000000 0.105800 0.000000 -0.000588
# 5 0.003623 -0.000626 0.000831 0.000000 0.044539 0.000000
# 6 0.000000 0.000000 0.000000 -0.000588 0.000000 0.027577
#
#
# Mechanical properties :
#
#
# Convention : Reuss Voigt Hill
#
# Bulk Modulus (GPa) = 21.29656 24.77350 23.03503
# Shear Modulus (GPa) = 20.66406 27.30752 23.98579
#
# Velocity S-wave (km/s) = 3.12432 3.59161 3.36608
# Velocity P-wave (km/s) = 4.80368 5.37607 5.09791
#
# Compressibility (1/GPa) = 0.04695595
#
# Stress axis : x y z
#
# Youngs Moduli (GPa) = 72.08180 45.39095 84.94091
#
# Poissons Ratio (x) = -0.05309 0.17716
# Poissons Ratio (y) = -0.08431 -0.04719
# Poissons Ratio (z) = 0.15034 -0.02522
#
# Static dielectric constant tensor:
#      x y z
#    x 1.840330 0.000000 0.005700 
#    y 0.000000 1.819550 0.000000 
#    z 0.005700 0.000000 1.760240 
# 
# From -- ./inp_files/446.got.cif
#   From: 2010.05.17/outbox.cif.g08.bks.cpg/sg4_1_cif.got.tgz:446.got - 2010.06.03 18:43:04.
