data_PCOD9115112
_publ_section_title
;
Structure prediction by ZEFSAII (Michael W. Deem and Ramdas Pophale) SiO2 
 PCOD9115112
Probable space group: P 21
;
_chemical_formula_sum "Si O2"
_cell_formula_units_Z 16
_cell_length_a 7.194950
_cell_length_b 21.238679
_cell_length_c 6.656242
_cell_angle_alpha 90.000000
_cell_angle_beta 138.648901
_cell_angle_gamma 90.000000
_cell_volume 672.000974
_symmetry_space_group_name_H-M "P 21"
_symmetry_group_IT_number 4
_symmetry_cell_setting 'monoclinic'
loop_
_space_group_symop_operation_xyz
x,y,z
-x,1/2+y,-z
loop_
_atom_site_type_symbol
_atom_site_label
_atom_site_fract_x
_atom_site_fract_y
_atom_site_fract_z
Si Si1 0.000004 0.402490 0.749999
Si Si2 0.402434 0.006693 0.400583
Si Si3 0.597556 0.006693 0.099419
Si Si4 0.904676 0.083120 0.908201
Si Si5 0.690636 0.701370 0.083000
Si Si6 0.095315 0.083119 0.591801
Si Si7 0.499997 0.817676 0.749999
Si Si8 0.309367 0.701370 0.416996
O O1 0.783671 0.446481 0.696896
O O2 0.779697 0.358853 0.450844
O O3 0.216338 0.446480 0.803100
O O4 0.220311 0.358854 0.049157
O O5 0.687980 0.025011 0.746892
O O6 0.499995 0.000559 0.250001
O O7 0.191520 0.066294 0.252017
O O8 0.808471 0.066293 0.247985
O O9 0.312010 0.025011 0.753110
O O10 0.754356 0.150663 0.807087
O O11 0.999995 0.084277 0.750001
O O12 0.542818 0.769504 0.973733
O O13 0.500002 0.670411 0.749998
O O14 0.754363 0.650662 0.307084
O O15 0.000001 0.716905 0.249997
O O16 0.457181 0.769505 0.526265
#
# Coordination Sequence:
#
# PCOD9115112 Si02
#       8
#     2   2   2   2   2   2   2   2
#     4  12  22  36  52  82 116 144 180 208 268 334
#     4  10  21  34  53  81 107 145 173 221 271 315
#     4  10  21  34  53  81 107 145 173 221 271 315
#     4   9  16  30  53  80 105 129 179 225 269 309
#     4   9  15  28  50  81 103 132 184 228 255 310
#     4   9  16  30  53  80 105 129 179 225 269 309
#     4  10  20  32  52  84 106 146 186 216 256 324
#     4   9  15  28  50  81 103 132 184 228 255 310
#
# _framework density 23.809488000000002
#
# number of rings (size 3 to 8) (size 9 to 14) (size 15 to 20)
#    0.750    1.500    1.250    5.250    0.000    0.000 
#    0.000    0.000    0.000    0.000   13.000    0.000 
#    0.000    0.000    0.000    0.000    0.000    0.000 
#
# Total GULP energy -89166.308691 kJ/mol
# GULP energy per Si atom -5572.894293 kJ/mol
# Density = 2.375530 g / cm^3
# Si number density = 23.809488 Si / 1000 Ang^3
#
#
#
# Elastic Constant Matrix: (Units=GPa)
#
#
# Indices 1 2 3 4 5 6 
#
# 1 65.2092 24.5071 13.7941 0.0000 23.4856 0.0000
# 2 24.5071 162.6817 73.8694 0.0000 15.5948 0.0000
# 3 13.7941 73.8694 189.7152 0.0000 5.8509 0.0000
# 4 0.0000 0.0000 0.0000 72.2901 0.0000 5.0009
# 5 23.4856 15.5948 5.8509 0.0000 35.4252 0.0000
# 6 0.0000 0.0000 0.0000 5.0009 0.0000 10.7814
#
#
#
# Elastic Compliance Matrix: (Units=1/GPa)
#
#
# Indices 1 2 3 4 5 6 
#
# 1 0.020714 -0.001675 -0.000455 0.000000 -0.012920 0.000000
# 2 -0.001675 0.007894 -0.002894 0.000000 -0.001887 0.000000
# 3 -0.000455 -0.002894 0.006415 0.000000 0.000516 0.000000
# 4 0.000000 0.000000 0.000000 0.014292 0.000000 -0.006629
# 5 -0.012920 -0.001887 0.000516 0.000000 0.037539 0.000000
# 6 0.000000 0.000000 0.000000 -0.006629 0.000000 0.095827
#
#
# Mechanical properties :
#
#
# Convention : Reuss Voigt Hill
#
# Bulk Modulus (GPa) = 40.04014 71.32748 55.68381
# Shear Modulus (GPa) = 24.86875 44.06170 34.46523
#
# Velocity S-wave (km/s) = 3.23536 4.30652 3.80878
# Velocity P-wave (km/s) = 5.55069 7.39938 6.54068
#
# Compressibility (1/GPa) = 0.02497494
#
# Stress axis : x y z
#
# Youngs Moduli (GPa) = 48.27538 126.67586 155.88476
#
# Poissons Ratio (x) = 0.21220 0.07099
# Poissons Ratio (y) = 0.08087 0.45109
# Poissons Ratio (z) = 0.02199 0.36657
#
# Static dielectric constant tensor:
#      x y z
#    x 2.011650 0.000000 -0.019160 
#    y 0.000000 1.996010 0.000000 
#    z -0.019160 0.000000 1.905930 
# 
# From -- ./inp_files/11440.got.cif
#   From: 2010.05.17/outbox.cif.g08.bks.cpg/sg4_6_cif.got.tgz:11440.got - 2010.06.03 18:43:04.
