data_PCOD9115464
_publ_section_title
;
Structure prediction by ZEFSAII (Michael W. Deem and Ramdas Pophale) SiO2 
 PCOD9115464
Probable space group: P 21
;
_chemical_formula_sum "Si O2"
_cell_formula_units_Z 16
_cell_length_a 9.425552
_cell_length_b 12.156819
_cell_length_c 8.496770
_cell_angle_alpha 90.000000
_cell_angle_beta 130.661593
_cell_angle_gamma 90.000000
_cell_volume 738.545075
_symmetry_space_group_name_H-M "P 21"
_symmetry_group_IT_number 4
_symmetry_cell_setting 'monoclinic'
loop_
_space_group_symop_operation_xyz
x,y,z
-x,1/2+y,-z
loop_
_atom_site_type_symbol
_atom_site_label
_atom_site_fract_x
_atom_site_fract_y
_atom_site_fract_z
Si Si1 0.800373 0.341190 0.230961
Si Si2 0.019442 0.336920 0.816290
Si Si3 0.847698 0.948581 0.368578
Si Si4 0.985847 0.699436 0.877531
Si Si5 0.478776 0.873433 0.235193
Si Si6 0.687120 0.510451 0.608127
Si Si7 0.637138 0.137465 0.712184
Si Si8 0.225525 0.679036 0.534586
O O1 0.699159 0.271188 0.293180
O O2 0.945770 0.423011 0.417422
O O3 0.927382 0.261327 0.210883
O O4 0.645909 0.393683 0.008777
O O5 0.162174 0.410470 0.819747
O O6 0.832148 0.411963 0.680556
O O7 0.968559 0.230442 0.672762
O O8 0.057437 0.290963 0.018186
O O9 0.695846 0.879549 0.354754
O O10 0.803501 0.073157 0.379011
O O11 0.811235 0.620574 0.718686
O O12 0.154123 0.623440 0.069207
O O13 0.428934 0.753401 0.264736
O O14 0.415965 0.965438 0.312076
O O15 0.517368 0.544203 0.370138
O O16 0.659630 0.154336 0.540136
#
# Coordination Sequence:
#
# PCOD9115464 Si02
#       8
#     2   2   2   2   2   2   2   2
#     4  10  22  41  61  90 131 159 210 268 311 373
#     4  10  23  42  63  96 129 163 222 257 312 395
#     4  11  23  41  65  90 127 173 204 264 330 366
#     4  10  22  40  63  96 125 166 212 267 308 384
#     4  11  23  40  63  94 122 163 219 259 309 390
#     4  12  21  40  69  89 124 173 207 257 324 370
#     4  10  22  41  64  92 128 166 214 261 311 386
#     4  10  20  39  62  89 128 163 204 267 313 370
#
# _framework density 21.664217000000001
#
# number of rings (size 3 to 8) (size 9 to 14) (size 15 to 20)
#    0.000    1.500    5.000    1.500    3.500    2.000 
#    2.250    7.500    0.000    0.000    0.000    0.000 
#    0.000    0.000    0.000    0.000    0.000    0.000 
#
# Total GULP energy -89290.244434 kJ/mol
# GULP energy per Si atom -5580.640277 kJ/mol
# Density = 2.161491 g / cm^3
# Si number density = 21.664217 Si / 1000 Ang^3
#
#
#
# Elastic Constant Matrix: (Units=GPa)
#
#
# Indices 1 2 3 4 5 6 
#
# 1 59.7628 -0.1658 -5.1241 0.0000 -4.4527 0.0000
# 2 -0.1658 38.2079 -0.5048 0.0000 3.2370 0.0000
# 3 -5.1241 -0.5048 44.1458 0.0000 6.4205 0.0000
# 4 0.0000 0.0000 0.0000 23.9856 0.0000 -2.3952
# 5 -4.4527 3.2370 6.4205 0.0000 31.2093 0.0000
# 6 0.0000 0.0000 0.0000 -2.3952 0.0000 29.0345
#
#
#
# Elastic Compliance Matrix: (Units=1/GPa)
#
#
# Indices 1 2 3 4 5 6 
#
# 1 0.017032 -0.000081 0.001671 0.000000 0.002095 0.000000
# 2 -0.000081 0.026427 0.000714 0.000000 -0.002900 0.000000
# 3 0.001671 0.000714 0.023535 0.000000 -0.004677 0.000000
# 4 0.000000 0.000000 0.000000 0.042038 0.000000 0.003468
# 5 0.002095 -0.002900 -0.004677 0.000000 0.033604 0.000000
# 6 0.000000 0.000000 0.000000 0.003468 0.000000 0.034728
#
#
# Mechanical properties :
#
#
# Convention : Reuss Voigt Hill
#
# Bulk Modulus (GPa) = 13.96596 14.50301 14.23448
# Shear Modulus (GPa) = 25.42947 26.70663 26.06805
#
# Velocity S-wave (km/s) = 3.42979 3.51487 3.47259
# Velocity P-wave (km/s) = 4.70587 4.81470 4.76060
#
# Compressibility (1/GPa) = 0.07160269
#
# Stress axis : x y z
#
# Youngs Moduli (GPa) = 58.71317 37.83955 42.49059
#
# Poissons Ratio (x) = 0.00308 -0.07102
# Poissons Ratio (y) = 0.00478 -0.03036
# Poissons Ratio (z) = -0.09813 -0.02704
#
# Static dielectric constant tensor:
#      x y z
#    x 1.814890 0.000000 -0.018590 
#    y 0.000000 1.799860 0.000000 
#    z -0.018590 0.000000 1.783970 
# 
# From -- ./inp_files/6480.got.cif
#   From: 2010.05.17/outbox.cif.g08.bks.cpg/sg4_4_cif.got.tgz:6480.got - 2010.06.03 18:43:04.
