data_PCOD9115567
_publ_section_title
;
Structure prediction by ZEFSAII (Michael W. Deem and Ramdas Pophale) SiO2 
 PCOD9115567
Probable space group: P 21
;
_chemical_formula_sum "Si O2"
_cell_formula_units_Z 14
_cell_length_a 5.329318
_cell_length_b 8.447462
_cell_length_c 14.541481
_cell_angle_alpha 90.000000
_cell_angle_beta 111.853414
_cell_angle_gamma 90.000000
_cell_volume 607.602630
_symmetry_space_group_name_H-M "P 21"
_symmetry_group_IT_number 4
_symmetry_cell_setting 'monoclinic'
loop_
_space_group_symop_operation_xyz
x,y,z
-x,1/2+y,-z
loop_
_atom_site_type_symbol
_atom_site_label
_atom_site_fract_x
_atom_site_fract_y
_atom_site_fract_z
Si Si1 0.219939 0.063120 0.433576
Si Si2 0.340926 0.999410 0.813290
Si Si3 0.107625 0.076789 0.138854
Si Si4 0.280040 0.630695 0.748297
Si Si5 0.957010 0.941904 0.927944
Si Si6 0.310800 0.382635 0.504665
Si Si7 0.100415 0.131904 0.604612
O O1 0.336387 0.240842 0.434396
O O2 0.266213 0.035944 0.548944
O O3 0.911130 0.089973 0.363286
O O4 0.402277 0.930104 0.413229
O O5 0.293081 0.820819 0.766618
O O6 0.659475 0.016520 0.874293
O O7 0.170690 0.010931 0.883909
O O8 0.228391 0.118874 0.721307
O O9 0.416414 0.067574 0.214698
O O10 0.071578 0.256412 0.097632
O O11 0.887903 0.057670 0.189057
O O12 0.054840 0.966146 0.044875
O O13 0.121228 0.300945 0.557282
O O14 0.178030 0.536192 0.440109
#
# Coordination Sequence:
#
# PCOD9115567 Si02
#       7
#     2   2   2   2   2   2   2
#     4  10  24  40  63  96 132 179 220 279 324 409
#     4  10  20  40  67  96 123 181 212 269 329 419
#     4  10  22  41  65  93 124 169 217 277 330 402
#     4  10  21  40  68  93 128 177 220 258 343 405
#     4  10  22  40  66  91 127 163 224 267 343 385
#     4  10  24  38  67  89 142 171 228 276 336 386
#     4  10  23  41  62  96 132 176 223 274 329 404
#
# _framework density 23.041374999999999
#
# number of rings (size 3 to 8) (size 9 to 14) (size 15 to 20)
#    0.857    1.143    1.429    0.857    6.000    1.143 
#    2.571    0.000    0.000    0.000    0.000    0.000 
#    0.000    0.000    0.000    0.000    0.000    0.000 
#
# Total GULP energy -78122.811172 kJ/mol
# GULP energy per Si atom -5580.200798 kJ/mol
# Density = 2.298893 g / cm^3
# Si number density = 23.041375 Si / 1000 Ang^3
#
#
#
# Elastic Constant Matrix: (Units=GPa)
#
#
# Indices 1 2 3 4 5 6 
#
# 1 80.9586 8.2749 6.3062 0.0000 7.7271 0.0000
# 2 8.2749 36.0120 14.1614 0.0000 7.7241 0.0000
# 3 6.3062 14.1614 64.9761 0.0000 3.9440 0.0000
# 4 0.0000 0.0000 0.0000 30.1084 0.0000 -0.1309
# 5 7.7271 7.7241 3.9440 0.0000 39.0801 0.0000
# 6 0.0000 0.0000 0.0000 -0.1309 0.0000 25.9907
#
#
#
# Elastic Compliance Matrix: (Units=1/GPa)
#
#
# Indices 1 2 3 4 5 6 
#
# 1 0.012826 -0.002266 -0.000628 0.000000 -0.002025 0.000000
# 2 -0.002266 0.031934 -0.006423 0.000000 -0.005215 0.000000
# 3 -0.000628 -0.006423 0.016870 0.000000 -0.000309 0.000000
# 4 0.000000 0.000000 0.000000 0.033214 0.000000 0.000167
# 5 -0.002025 -0.005215 -0.000309 0.000000 0.027051 0.000000
# 6 0.000000 0.000000 0.000000 0.000167 0.000000 0.038476
#
#
# Mechanical properties :
#
#
# Convention : Reuss Voigt Hill
#
# Bulk Modulus (GPa) = 23.25863 26.60352 24.93108
# Shear Modulus (GPa) = 25.86162 29.24945 27.55553
#
# Velocity S-wave (km/s) = 3.35386 3.56677 3.46195
# Velocity P-wave (km/s) = 5.01139 5.34168 5.17917
#
# Compressibility (1/GPa) = 0.04299479
#
# Stress axis : x y z
#
# Youngs Moduli (GPa) = 77.96812 31.31483 59.27706
#
# Poissons Ratio (x) = 0.07096 0.03723
# Poissons Ratio (y) = 0.17667 0.38076
# Poissons Ratio (z) = 0.04897 0.20115
#
# Static dielectric constant tensor:
#      x y z
#    x 1.901280 0.000000 -0.021370 
#    y 0.000000 1.936280 0.000000 
#    z -0.021370 0.000000 1.828410 
# 
# From -- ./inp_files/10472.got.cif
#   From: 2010.05.17/outbox.cif.g08.bks.cpg/sg4_6_cif.got.tgz:10472.got - 2010.06.03 18:43:04.
