data_PCOD9115406
_publ_section_title
;
Structure prediction by ZEFSAII (Michael W. Deem and Ramdas Pophale) SiO2 
 PCOD9115406
Probable space group: P 21
;
_chemical_formula_sum "Si O2"
_cell_formula_units_Z 16
_cell_length_a 7.740317
_cell_length_b 9.496363
_cell_length_c 10.366324
_cell_angle_alpha 90.000000
_cell_angle_beta 50.992649
_cell_angle_gamma 90.000000
_cell_volume 592.104417
_symmetry_space_group_name_H-M "P 21"
_symmetry_group_IT_number 4
_symmetry_cell_setting 'monoclinic'
loop_
_space_group_symop_operation_xyz
x,y,z
-x,1/2+y,-z
loop_
_atom_site_type_symbol
_atom_site_label
_atom_site_fract_x
_atom_site_fract_y
_atom_site_fract_z
Si Si1 0.274067 0.745250 0.541161
Si Si2 0.443576 0.950255 0.778341
Si Si3 0.418898 0.907091 0.233193
Si Si4 0.031269 0.772227 0.082694
Si Si5 0.004679 0.492014 0.690872
Si Si6 0.705377 0.695949 0.000683
Si Si7 0.403951 0.184653 0.371967
Si Si8 0.117563 0.024010 0.700081
O O1 0.428118 0.819457 0.362389
O O2 0.409890 0.710349 0.606775
O O3 0.180370 0.594658 0.541948
O O4 0.090256 0.863999 0.666253
O O5 0.638562 0.838881 0.663779
O O6 0.467718 0.081785 0.859788
O O7 0.326704 0.007886 0.702002
O O8 0.251975 0.850306 0.932079
O O9 0.561079 0.836061 0.053288
O O10 0.160035 0.903750 0.319286
O O11 0.484221 0.066582 0.234670
O O12 0.882068 0.739577 0.028402
O O13 0.054892 0.622404 0.143806
O O14 0.916236 0.885815 0.234019
O O15 0.840862 0.608556 0.833026
O O16 0.197791 0.114089 0.540526
#
# Coordination Sequence:
#
# PCOD9115406 Si02
#       8
#     2   2   2   2   2   2   2   2
#     4  10  21  41  62  87 121 161 204 247 297 366
#     4   9  19  34  57  90 117 151 202 253 292 343
#     4  11  25  41  61  93 126 159 199 254 311 356
#     4  10  20  38  64  90 118 159 206 246 297 365
#     4  11  25  41  61  93 126 159 199 254 311 356
#     4  10  21  41  62  87 121 161 204 247 297 366
#     4  10  20  38  64  90 118 159 206 246 297 365
#     4   9  19  34  57  90 117 151 202 253 292 343
#
# _framework density 27.022258999999998
#
# number of rings (size 3 to 8) (size 9 to 14) (size 15 to 20)
#    0.000    2.000    0.000    3.750    0.000   10.000 
#    0.000    2.500    0.000    0.000    0.000    0.000 
#    0.000    0.000    0.000    0.000    0.000    0.000 
#
# Total GULP energy -89561.198118 kJ/mol
# GULP energy per Si atom -5597.574882 kJ/mol
# Density = 2.696076 g / cm^3
# Si number density = 27.022259 Si / 1000 Ang^3
#
#
#
# Elastic Constant Matrix: (Units=GPa)
#
#
# Indices 1 2 3 4 5 6 
#
# 1 74.5371 22.4895 5.5746 0.0000 2.9065 0.0000
# 2 22.4895 153.0638 33.5667 0.0000 0.8743 0.0000
# 3 5.5746 33.5667 55.5338 0.0000 -0.0172 0.0000
# 4 0.0000 0.0000 0.0000 77.7683 0.0000 -11.0811
# 5 2.9065 0.8743 -0.0172 0.0000 12.7183 0.0000
# 6 0.0000 0.0000 0.0000 -11.0811 0.0000 21.3385
#
#
#
# Elastic Compliance Matrix: (Units=1/GPa)
#
#
# Indices 1 2 3 4 5 6 
#
# 1 0.014161 -0.002019 -0.000202 0.000000 -0.003098 0.000000
# 2 -0.002019 0.007823 -0.004526 0.000000 -0.000083 0.000000
# 3 -0.000202 -0.004526 0.020763 0.000000 0.000385 0.000000
# 4 0.000000 0.000000 0.000000 0.013886 0.000000 0.007211
# 5 -0.003098 -0.000083 0.000385 0.000000 0.079341 0.000000
# 6 0.000000 0.000000 0.000000 0.007211 0.000000 0.050608
#
#
# Mechanical properties :
#
#
# Convention : Reuss Voigt Hill
#
# Bulk Modulus (GPa) = 34.18403 45.15517 39.66960
# Shear Modulus (GPa) = 23.82915 37.13196 30.48055
#
# Velocity S-wave (km/s) = 2.97279 3.71094 3.36218
# Velocity P-wave (km/s) = 4.94582 5.92521 5.45753
#
# Compressibility (1/GPa) = 0.02925343
#
# Stress axis : x y z
#
# Youngs Moduli (GPa) = 70.61588 127.83174 48.16255
#
# Poissons Ratio (x) = 0.25804 0.00975
# Poissons Ratio (y) = 0.14255 0.21797
# Poissons Ratio (z) = 0.01429 0.57854
#
# Static dielectric constant tensor:
#      x y z
#    x 2.063030 0.000000 -0.011600 
#    y 0.000000 2.085420 0.000000 
#    z -0.011600 0.000000 2.213530 
# 
# From -- ./inp_files/11028.got.cif
#   From: 2010.05.17/outbox.cif.g08.bks.cpg/sg4_6_cif.got.tgz:11028.got - 2010.06.03 18:43:04.
