data_PCOD9115359
_publ_section_title
;
Structure prediction by ZEFSAII (Michael W. Deem and Ramdas Pophale) SiO2 
 PCOD9115359
Probable space group: P 21
;
_chemical_formula_sum "Si O2"
_cell_formula_units_Z 16
_cell_length_a 10.750781
_cell_length_b 14.079869
_cell_length_c 7.866856
_cell_angle_alpha 90.000000
_cell_angle_beta 41.014699
_cell_angle_gamma 90.000000
_cell_volume 781.467432
_symmetry_space_group_name_H-M "P 21"
_symmetry_group_IT_number 4
_symmetry_cell_setting 'monoclinic'
loop_
_space_group_symop_operation_xyz
x,y,z
-x,1/2+y,-z
loop_
_atom_site_type_symbol
_atom_site_label
_atom_site_fract_x
_atom_site_fract_y
_atom_site_fract_z
Si Si1 0.135957 0.081840 0.012768
Si Si2 0.616611 0.659262 0.955471
Si Si3 0.454703 0.051346 0.440706
Si Si4 0.629395 0.459011 0.792312
Si Si5 0.105790 0.881373 0.226920
Si Si6 0.663271 0.847787 0.688454
Si Si7 0.612954 0.247608 0.247169
Si Si8 0.304410 0.630745 0.529683
O O1 0.249629 0.154065 0.016307
O O2 0.245497 0.080749 0.720704
O O3 0.915747 0.107100 0.239663
O O4 0.159710 0.976346 0.066619
O O5 0.404128 0.644979 0.246692
O O6 0.678097 0.568325 0.782459
O O7 0.640691 0.755904 0.831674
O O8 0.435870 0.962456 0.335694
O O9 0.556051 0.141275 0.244600
O O10 0.580648 0.048543 0.483563
O O11 0.805540 0.396252 0.676153
O O12 0.458861 0.428026 0.091558
O O13 0.881615 0.872678 0.451109
O O14 0.209677 0.792488 0.032806
O O15 0.560948 0.816607 0.619203
O O16 0.657203 0.225475 0.397427
#
# Coordination Sequence:
#
# PCOD9115359 Si02
#       8
#     2   2   2   2   2   2   2   2
#     4  10  21  38  60  89 121 154 201 247 297 353
#     4  10  20  38  59  85 121 155 193 251 296 361
#     4   9  20  39  61  85 115 158 194 245 297 355
#     4  10  21  40  59  87 119 154 202 248 297 355
#     4  10  23  38  58  92 119 153 201 252 294 358
#     4  11  22  39  62  87 120 162 197 247 307 345
#     4   9  21  38  61  82 117 156 199 240 295 363
#     4   9  20  36  60  85 110 160 197 234 301 346
#
# _framework density 20.474299999999999
#
# number of rings (size 3 to 8) (size 9 to 14) (size 15 to 20)
#    0.750    1.500    1.250    0.750    1.750    5.000 
#    4.500    2.500    0.000    0.000    0.000    0.000 
#    0.000    0.000    0.000    0.000    0.000    0.000 
#
# Total GULP energy -89168.903627 kJ/mol
# GULP energy per Si atom -5573.056477 kJ/mol
# Density = 2.042770 g / cm^3
# Si number density = 20.474300 Si / 1000 Ang^3
#
#
#
# Elastic Constant Matrix: (Units=GPa)
#
#
# Indices 1 2 3 4 5 6 
#
# 1 42.6679 13.4239 30.5871 0.0000 -12.4325 0.0000
# 2 13.4239 65.4124 10.5198 0.0000 5.2816 0.0000
# 3 30.5871 10.5198 78.3779 0.0000 -31.4715 0.0000
# 4 0.0000 0.0000 0.0000 26.7259 0.0000 9.8796
# 5 -12.4325 5.2816 -31.4715 0.0000 38.6733 0.0000
# 6 0.0000 0.0000 0.0000 9.8796 0.0000 29.6184
#
#
#
# Elastic Compliance Matrix: (Units=1/GPa)
#
#
# Indices 1 2 3 4 5 6 
#
# 1 0.034154 -0.005289 -0.011764 0.000000 0.002129 0.000000
# 2 -0.005289 0.017340 -0.002818 0.000000 -0.006361 0.000000
# 3 -0.011764 -0.002818 0.024306 0.000000 0.016383 0.000000
# 4 0.000000 0.000000 0.000000 0.042680 0.000000 -0.014236
# 5 0.002129 -0.006361 0.016383 0.000000 0.040742 0.000000
# 6 0.000000 0.000000 0.000000 -0.014236 0.000000 0.038512
#
#
# Mechanical properties :
#
#
# Convention : Reuss Voigt Hill
#
# Bulk Modulus (GPa) = 27.73254 32.83552 30.28403
# Shear Modulus (GPa) = 20.04049 27.79869 23.91959
#
# Velocity S-wave (km/s) = 3.13199 3.68874 3.42171
# Velocity P-wave (km/s) = 5.16271 5.84933 5.51672
#
# Compressibility (1/GPa) = 0.03605873
#
# Stress axis : x y z
#
# Youngs Moduli (GPa) = 29.27885 57.67089 41.14200
#
# Poissons Ratio (x) = 0.30502 0.48400
# Poissons Ratio (y) = 0.15486 0.11592
# Poissons Ratio (z) = 0.34444 0.16249
#
# Static dielectric constant tensor:
#      x y z
#    x 1.813360 0.000000 0.034430 
#    y 0.000000 1.737520 0.000000 
#    z 0.034430 0.000000 1.708280 
# 
# From -- ./inp_files/8501.got.cif
#   From: 2010.05.17/outbox.cif.g08.bks.cpg/sg4_5_cif.got.tgz:8501.got - 2010.06.03 18:43:04.
