data_PCOD9115490
_publ_section_title
;
Structure prediction by ZEFSAII (Michael W. Deem and Ramdas Pophale) SiO2 
 PCOD9115490
Probable space group: P 21
;
_chemical_formula_sum "Si O2"
_cell_formula_units_Z 16
_cell_length_a 6.523521
_cell_length_b 8.975018
_cell_length_c 13.935413
_cell_angle_alpha 90.000000
_cell_angle_beta 126.189847
_cell_angle_gamma 90.000000
_cell_volume 658.484759
_symmetry_space_group_name_H-M "P 21"
_symmetry_group_IT_number 4
_symmetry_cell_setting 'monoclinic'
loop_
_space_group_symop_operation_xyz
x,y,z
-x,1/2+y,-z
loop_
_atom_site_type_symbol
_atom_site_label
_atom_site_fract_x
_atom_site_fract_y
_atom_site_fract_z
Si Si1 0.267850 0.217430 0.421056
Si Si2 0.188517 0.870247 0.636022
Si Si3 0.041912 0.939667 0.045814
Si Si4 0.474169 0.118589 0.274995
Si Si5 0.561866 0.140528 0.685906
Si Si6 0.051755 0.419973 0.621414
Si Si7 0.644257 0.192525 0.914948
Si Si8 0.104305 0.219377 0.825100
O O1 0.385144 0.193547 0.349437
O O2 0.469902 0.221066 0.563695
O O3 0.071564 0.355033 0.375700
O O4 0.117120 0.063566 0.398693
O O5 0.379965 0.753280 0.736778
O O6 0.081896 0.826662 0.500270
O O7 0.356375 0.014882 0.658862
O O8 0.929063 0.824420 0.092004
O O9 0.187665 0.835797 0.008536
O O10 0.244477 0.048427 0.153114
O O11 0.816507 0.047196 0.952356
O O12 0.692769 0.995288 0.349377
O O13 0.563889 0.235108 0.784156
O O14 0.862378 0.109476 0.754885
O O15 0.081999 0.324327 0.725268
O O16 0.389761 0.158285 0.902562
#
# Coordination Sequence:
#
# PCOD9115490 Si02
#       8
#     2   2   2   2   2   2   2   2
#     4  10  21  38  64  98 140 181 223 273 335 415
#     4  10  23  37  63 105 140 177 223 278 333 417
#     4  11  26  46  74  98 130 184 232 290 351 416
#     4  11  22  40  67 100 136 184 221 282 348 411
#     4  10  24  42  67 104 135 185 226 282 352 414
#     4  10  20  39  65  96 139 179 224 273 343 411
#     4  11  26  48  72  96 137 178 234 299 345 415
#     4  11  22  44  70  99 133 178 231 285 357 413
#
# _framework density 24.298207999999999
#
# number of rings (size 3 to 8) (size 9 to 14) (size 15 to 20)
#    0.000    1.500    2.500    1.500    3.500    7.000 
#    2.250    0.000    0.000    0.000    0.000    0.000 
#    0.000    0.000    0.000    0.000    0.000    0.000 
#
# Total GULP energy -89343.723799 kJ/mol
# GULP energy per Si atom -5583.982737 kJ/mol
# Density = 2.424290 g / cm^3
# Si number density = 24.298208 Si / 1000 Ang^3
#
#
#
# Elastic Constant Matrix: (Units=GPa)
#
#
# Indices 1 2 3 4 5 6 
#
# 1 134.3764 31.1634 42.4176 0.0000 37.2398 0.0000
# 2 31.1634 67.6477 28.6678 0.0000 17.1137 0.0000
# 3 42.4176 28.6678 53.1343 0.0000 24.0803 0.0000
# 4 0.0000 0.0000 0.0000 38.5770 0.0000 9.1920
# 5 37.2398 17.1137 24.0803 0.0000 40.3157 0.0000
# 6 0.0000 0.0000 0.0000 9.1920 0.0000 54.8747
#
#
#
# Elastic Compliance Matrix: (Units=1/GPa)
#
#
# Indices 1 2 3 4 5 6 
#
# 1 0.011257 -0.001255 -0.005263 0.000000 -0.006722 0.000000
# 2 -0.001255 0.019519 -0.008638 0.000000 -0.001967 0.000000
# 3 -0.005263 -0.008638 0.032657 0.000000 -0.010978 0.000000
# 4 0.000000 0.000000 0.000000 0.027000 0.000000 -0.004523
# 5 -0.006722 -0.001967 -0.010978 0.000000 0.038405 0.000000
# 6 0.000000 0.000000 0.000000 -0.004523 0.000000 0.018981
#
#
# Mechanical properties :
#
#
# Convention : Reuss Voigt Hill
#
# Bulk Modulus (GPa) = 30.19195 51.07290 40.63243
# Shear Modulus (GPa) = 26.43104 36.94742 31.68923
#
# Velocity S-wave (km/s) = 3.30173 3.90369 3.61526
# Velocity P-wave (km/s) = 5.19497 6.43298 5.84684
#
# Compressibility (1/GPa) = 0.03312141
#
# Stress axis : x y z
#
# Youngs Moduli (GPa) = 88.83342 51.23285 30.62086
#
# Poissons Ratio (x) = 0.06429 0.16117
# Poissons Ratio (y) = 0.11147 0.26450
# Poissons Ratio (z) = 0.46756 0.44254
#
# Static dielectric constant tensor:
#      x y z
#    x 2.004120 0.000000 0.061790 
#    y 0.000000 1.950330 0.000000 
#    z 0.061790 0.000000 1.965320 
# 
# From -- ./inp_files/11949.got.cif
#   From: 2010.05.17/outbox.cif.g08.bks.cpg/sg4_6_cif.got.tgz:11949.got - 2010.06.03 18:43:04.
