data_PCOD9115135
_publ_section_title
;
Structure prediction by ZEFSAII (Michael W. Deem and Ramdas Pophale) SiO2 
 PCOD9115135
Probable space group: P 21
;
_chemical_formula_sum "Si O2"
_cell_formula_units_Z 16
_cell_length_a 11.417400
_cell_length_b 8.559349
_cell_length_c 8.900549
_cell_angle_alpha 90.000000
_cell_angle_beta 114.976084
_cell_angle_gamma 90.000000
_cell_volume 788.469584
_symmetry_space_group_name_H-M "P 21"
_symmetry_group_IT_number 4
_symmetry_cell_setting 'monoclinic'
loop_
_space_group_symop_operation_xyz
x,y,z
-x,1/2+y,-z
loop_
_atom_site_type_symbol
_atom_site_label
_atom_site_fract_x
_atom_site_fract_y
_atom_site_fract_z
Si Si1 0.402386 0.407230 0.780824
Si Si2 0.876490 0.012976 0.485476
Si Si3 0.245654 0.742025 0.389295
Si Si4 0.631128 0.618247 0.006704
Si Si5 0.249517 0.078915 0.242665
Si Si6 0.078646 0.174570 0.398600
Si Si7 0.513728 0.658352 0.410938
Si Si8 0.694072 0.472170 0.327822
O O1 0.266156 0.468491 0.647737
O O2 0.383267 0.276979 0.902973
O O3 0.468336 0.316522 0.675627
O O4 0.493383 0.548939 0.880957
O O5 0.868448 0.125255 0.627558
O O6 0.955906 0.082079 0.390271
O O7 0.941080 0.852228 0.569511
O O8 0.371129 0.651376 0.398597
O O9 0.273115 0.816000 0.568573
O O10 0.231631 0.893700 0.273769
O O11 0.688786 0.485930 0.148934
O O12 0.723300 0.623909 0.912767
O O13 0.125380 0.156935 0.253375
O O14 0.377770 0.139113 0.401747
O O15 0.200741 0.099433 0.556634
O O16 0.553969 0.523530 0.315834
#
# Coordination Sequence:
#
# PCOD9115135 Si02
#       8
#     2   2   2   2   2   2   2   2
#     4  11  23  40  61  95 133 170 200 261 322 393
#     4  12  22  41  68  92 122 165 221 265 313 360
#     4  10  20  33  62  92 120 162 210 258 311 373
#     4  11  22  40  61  91 141 164 202 256 341 389
#     4  10  20  37  60  89 121 169 208 265 311 370
#     4  10  21  41  65  88 119 163 223 265 298 366
#     4   9  17  35  57  88 124 154 209 250 301 369
#     4   9  21  37  58  89 128 167 197 256 321 376
#
# _framework density 20.292473999999999
#
# number of rings (size 3 to 8) (size 9 to 14) (size 15 to 20)
#    0.000    2.000    5.000    2.250    5.250    0.000 
#    2.250    0.000    5.500    0.000    0.000    0.000 
#    0.000    0.000    0.000    0.000    0.000    0.000 
#
# Total GULP energy -89237.141405 kJ/mol
# GULP energy per Si atom -5577.321338 kJ/mol
# Density = 2.024629 g / cm^3
# Si number density = 20.292474 Si / 1000 Ang^3
#
#
#
# Elastic Constant Matrix: (Units=GPa)
#
#
# Indices 1 2 3 4 5 6 
#
# 1 70.9546 12.4195 20.7910 0.0000 -38.0714 0.0000
# 2 12.4195 78.7119 6.5944 0.0000 -13.8760 0.0000
# 3 20.7910 6.5944 69.3119 0.0000 -35.7425 0.0000
# 4 0.0000 0.0000 0.0000 18.5976 0.0000 -2.0832
# 5 -38.0714 -13.8760 -35.7425 0.0000 34.8401 0.0000
# 6 0.0000 0.0000 0.0000 -2.0832 0.0000 31.7138
#
#
#
# Elastic Compliance Matrix: (Units=1/GPa)
#
#
# Indices 1 2 3 4 5 6 
#
# 1 0.054228 0.005331 0.031592 0.000000 0.093791 0.000000
# 2 0.005331 0.014530 0.006384 0.000000 0.018162 0.000000
# 3 0.031592 0.006384 0.049806 0.000000 0.088162 0.000000
# 4 0.000000 0.000000 0.000000 0.054169 0.000000 0.003558
# 5 0.093791 0.018162 0.088162 0.000000 0.228871 0.000000
# 6 0.000000 0.000000 0.000000 0.003558 0.000000 0.031766
#
#
# Mechanical properties :
#
#
# Convention : Reuss Voigt Hill
#
# Bulk Modulus (GPa) = 4.87376 33.17649 19.02512
# Shear Modulus (GPa) = 12.04388 28.97521 20.50955
#
# Velocity S-wave (km/s) = 2.43886 3.78283 3.18260
# Velocity P-wave (km/s) = 3.21523 5.95520 4.78550
#
# Compressibility (1/GPa) = 0.20518039
#
# Stress axis : x y z
#
# Youngs Moduli (GPa) = 18.44069 68.82163 20.07772
#
# Poissons Ratio (x) = -0.36690 -0.63430
# Poissons Ratio (y) = -0.09831 -0.12818
# Poissons Ratio (z) = -0.58258 -0.43938
#
# Static dielectric constant tensor:
#      x y z
#    x 1.723950 0.000000 -0.003000 
#    y 0.000000 1.785400 0.000000 
#    z -0.003000 0.000000 1.735340 
# 
# From -- ./inp_files/7724.got.cif
#   From: 2010.05.17/outbox.cif.g08.bks.cpg/sg4_4_cif.got.tgz:7724.got - 2010.06.03 18:43:04.
