data_PCOD9115613
_publ_section_title
;
Structure prediction by ZEFSAII (Michael W. Deem and Ramdas Pophale) SiO2 
 PCOD9115613
Probable space group: P 21
;
_chemical_formula_sum "Si O2"
_cell_formula_units_Z 16
_cell_length_a 6.339102
_cell_length_b 19.753486
_cell_length_c 4.955178
_cell_angle_alpha 90.000000
_cell_angle_beta 98.084732
_cell_angle_gamma 90.000000
_cell_volume 614.317343
_symmetry_space_group_name_H-M "P 21"
_symmetry_group_IT_number 4
_symmetry_cell_setting 'monoclinic'
loop_
_space_group_symop_operation_xyz
x,y,z
-x,1/2+y,-z
loop_
_atom_site_type_symbol
_atom_site_label
_atom_site_fract_x
_atom_site_fract_y
_atom_site_fract_z
Si Si1 0.030479 0.567660 0.748982
Si Si2 0.770267 0.821971 0.149284
Si Si3 0.383356 0.112395 0.606499
Si Si4 0.500945 0.336937 0.431027
Si Si5 0.192947 0.800243 0.058212
Si Si6 0.025570 0.937256 0.009282
Si Si7 0.647416 0.982795 0.551360
Si Si8 0.616620 0.168158 0.126786
O O1 0.861588 0.603282 0.522527
O O2 0.221491 0.523546 0.651124
O O3 0.892364 0.509961 0.879610
O O4 0.175156 0.623904 0.918228
O O5 0.904772 0.891788 0.213500
O O6 0.679802 0.800298 0.416647
O O7 0.593991 0.836030 0.888613
O O8 0.951085 0.775791 0.054220
O O9 0.488190 0.037687 0.650850
O O10 0.425654 0.150505 0.890822
O O11 0.525203 0.150524 0.404007
O O12 0.707160 0.308546 0.625184
O O13 0.487860 0.415492 0.529864
O O14 0.824522 0.376688 0.074584
O O15 0.311373 0.744665 0.903945
O O16 0.838157 0.958212 0.776447
#
# Coordination Sequence:
#
# PCOD9115613 Si02
#       8
#     2   2   2   2   2   2   2   2
#     4  11  22  43  70  95 135 175 222 278 335 390
#     4   9  23  39  63  99 126 168 214 269 326 386
#     4  11  26  42  70  92 130 179 219 272 337 393
#     4  11  21  40  63  96 131 161 215 271 327 394
#     4  10  24  43  67  96 137 180 218 277 338 389
#     4   9  19  42  64  98 128 170 217 280 331 380
#     4  10  20  41  65 100 131 159 228 278 327 398
#     4  11  27  46  62 100 136 176 229 271 321 416
#
# _framework density 26.045169000000001
#
# number of rings (size 3 to 8) (size 9 to 14) (size 15 to 20)
#    0.750    1.000    2.500    0.750    1.750    5.000 
#    9.000    0.000    0.000    0.000    0.000    0.000 
#    0.000    0.000    0.000    0.000    0.000    0.000 
#
# Total GULP energy -89310.903406 kJ/mol
# GULP energy per Si atom -5581.931463 kJ/mol
# Density = 2.598589 g / cm^3
# Si number density = 26.045169 Si / 1000 Ang^3
#
#
#
# Elastic Constant Matrix: (Units=GPa)
#
#
# Indices 1 2 3 4 5 6 
#
# 1 73.3967 25.3998 -3.3030 0.0000 24.6992 0.0000
# 2 25.3998 95.5276 1.2009 0.0000 16.5654 0.0000
# 3 -3.3030 1.2009 77.3302 0.0000 23.1677 0.0000
# 4 0.0000 0.0000 0.0000 18.5891 0.0000 3.8455
# 5 24.6992 16.5654 23.1677 0.0000 36.4762 0.0000
# 6 0.0000 0.0000 0.0000 3.8455 0.0000 29.8170
#
#
#
# Elastic Compliance Matrix: (Units=1/GPa)
#
#
# Indices 1 2 3 4 5 6 
#
# 1 0.020233 -0.002653 0.005742 0.000000 -0.016143 0.000000
# 2 -0.002653 0.011893 0.000966 0.000000 -0.004218 0.000000
# 3 0.005742 0.000966 0.017856 0.000000 -0.015667 0.000000
# 4 0.000000 0.000000 0.000000 0.055270 0.000000 -0.007128
# 5 -0.016143 -0.004218 -0.015667 0.000000 0.050213 0.000000
# 6 0.000000 0.000000 0.000000 -0.007128 0.000000 0.034457
#
#
# Mechanical properties :
#
#
# Convention : Reuss Voigt Hill
#
# Bulk Modulus (GPa) = 17.21429 32.53889 24.87659
# Shear Modulus (GPa) = 24.85390 31.84024 28.34707
#
# Velocity S-wave (km/s) = 3.09246 3.50022 3.30264
# Velocity P-wave (km/s) = 4.40169 5.37176 4.91073
#
# Compressibility (1/GPa) = 0.05809127
#
# Stress axis : x y z
#
# Youngs Moduli (GPa) = 49.42350 84.08419 56.00460
#
# Poissons Ratio (x) = 0.22305 -0.32156
# Poissons Ratio (y) = 0.13111 -0.05409
# Poissons Ratio (z) = -0.28377 -0.08120
#
# Static dielectric constant tensor:
#      x y z
#    x 2.223730 0.000000 -0.132520 
#    y 0.000000 2.185490 0.000000 
#    z -0.132520 0.000000 2.063950 
# 
# From -- ./inp_files/770.got.cif
#   From: 2010.05.17/outbox.cif.g08.bks.cpg/sg4_1_cif.got.tgz:770.got - 2010.06.03 18:43:04.
