data_PCOD9115060
_publ_section_title
;
Structure prediction by ZEFSAII (Michael W. Deem and Ramdas Pophale) SiO2 
 PCOD9115060
Probable space group: P 21
;
_chemical_formula_sum "Si O2"
_cell_formula_units_Z 16
_cell_length_a 7.829396
_cell_length_b 10.970015
_cell_length_c 10.732641
_cell_angle_alpha 90.000000
_cell_angle_beta 45.079145
_cell_angle_gamma 90.000000
_cell_volume 652.718868
_symmetry_space_group_name_H-M "P 21"
_symmetry_group_IT_number 4
_symmetry_cell_setting 'monoclinic'
loop_
_space_group_symop_operation_xyz
x,y,z
-x,1/2+y,-z
loop_
_atom_site_type_symbol
_atom_site_label
_atom_site_fract_x
_atom_site_fract_y
_atom_site_fract_z
Si Si1 0.569027 0.157780 0.538808
Si Si2 0.301566 0.160854 0.044775
Si Si3 0.778064 0.251470 0.695802
Si Si4 0.844698 0.781749 0.131708
Si Si5 0.418953 0.971880 0.323902
Si Si6 0.349715 0.915745 0.616947
Si Si7 0.301065 0.906639 0.915895
Si Si8 0.722015 0.727525 0.670280
O O1 0.692346 0.188227 0.608141
O O2 0.289697 0.184761 0.713149
O O3 0.623436 0.268578 0.414873
O O4 0.576404 0.013982 0.505306
O O5 0.585429 0.198559 0.892566
O O6 0.166071 0.231954 0.003503
O O7 0.293292 0.021099 0.008878
O O8 0.191780 0.194382 0.234168
O O9 0.710767 0.393900 0.716132
O O10 0.063568 0.237591 0.539807
O O11 0.668683 0.900519 0.220036
O O12 0.100800 0.810288 0.056684
O O13 0.250835 0.954669 0.532982
O O14 0.441813 0.112076 0.282000
O O15 0.223170 0.935996 0.813437
O O16 0.563528 0.848355 0.764555
#
# Coordination Sequence:
#
# PCOD9115060 Si02
#       8
#     2   2   2   2   2   2   2   2
#     4   9  19  39  63  94 130 182 217 289 343 397
#     4  10  25  48  66  99 147 177 230 294 344 410
#     4   9  22  46  62  92 137 185 218 278 349 403
#     4   9  22  44  66  91 138 175 230 290 340 400
#     4   9  23  43  64  99 134 178 227 289 343 404
#     4  10  19  40  66  94 134 167 237 276 340 413
#     4  12  25  42  71 107 126 188 237 276 360 419
#     4  12  27  42  72 106 136 182 240 272 361 424
#
# _framework density 24.512848999999999
#
# number of rings (size 3 to 8) (size 9 to 14) (size 15 to 20)
#    0.000    2.500    2.500    0.750   10.500    2.000 
#    9.000    0.000    0.000    0.000    0.000    0.000 
#    0.000    0.000    0.000    0.000    0.000    0.000 
#
# Total GULP energy -89244.568234 kJ/mol
# GULP energy per Si atom -5577.785515 kJ/mol
# Density = 2.445706 g / cm^3
# Si number density = 24.512849 Si / 1000 Ang^3
#
#
#
# Elastic Constant Matrix: (Units=GPa)
#
#
# Indices 1 2 3 4 5 6 
#
# 1 44.5359 24.7134 13.8695 0.0000 -0.3777 0.0000
# 2 24.7134 94.0618 6.6995 0.0000 -6.5214 0.0000
# 3 13.8695 6.6995 87.3398 0.0000 -0.3722 0.0000
# 4 0.0000 0.0000 0.0000 13.2082 0.0000 6.4799
# 5 -0.3777 -6.5214 -0.3722 0.0000 40.9975 0.0000
# 6 0.0000 0.0000 0.0000 6.4799 0.0000 18.7285
#
#
#
# Elastic Compliance Matrix: (Units=1/GPa)
#
#
# Indices 1 2 3 4 5 6 
#
# 1 0.027539 -0.007025 -0.003838 0.000000 -0.000899 0.000000
# 2 -0.007025 0.012600 0.000157 0.000000 0.001941 0.000000
# 3 -0.003838 0.000157 0.012047 0.000000 0.000099 0.000000
# 4 0.000000 0.000000 0.000000 0.091189 0.000000 -0.031551
# 5 -0.000899 0.001941 0.000099 0.000000 0.024693 0.000000
# 6 0.000000 0.000000 0.000000 -0.031551 0.000000 0.064311
#
#
# Mechanical properties :
#
#
# Convention : Reuss Voigt Hill
#
# Bulk Modulus (GPa) = 32.49275 35.16693 33.82984
# Shear Modulus (GPa) = 18.93578 26.63050 22.78314
#
# Velocity S-wave (km/s) = 2.78237 3.29962 3.05197
# Velocity P-wave (km/s) = 4.85863 5.37532 5.12350
#
# Compressibility (1/GPa) = 0.03077609
#
# Stress axis : x y z
#
# Youngs Moduli (GPa) = 36.31153 79.36338 83.00548
#
# Poissons Ratio (x) = 0.55749 0.31859
# Poissons Ratio (y) = 0.25507 -0.01305
# Poissons Ratio (z) = 0.13937 -0.01248
#
# Static dielectric constant tensor:
#      x y z
#    x 2.009870 0.000000 0.015520 
#    y 0.000000 1.968910 0.000000 
#    z 0.015520 0.000000 1.987280 
# 
# From -- ./inp_files/11231.got.cif
#   From: 2010.05.17/outbox.cif.g08.bks.cpg/sg4_6_cif.got.tgz:11231.got - 2010.06.03 18:43:04.
