data_PCOD9115507
_publ_section_title
;
Structure prediction by ZEFSAII (Michael W. Deem and Ramdas Pophale) SiO2 
 PCOD9115507
Probable space group: P 21
;
_chemical_formula_sum "Si O2"
_cell_formula_units_Z 14
_cell_length_a 12.311506
_cell_length_b 9.111945
_cell_length_c 5.302621
_cell_angle_alpha 90.000000
_cell_angle_beta 99.398663
_cell_angle_gamma 90.000000
_cell_volume 586.872004
_symmetry_space_group_name_H-M "P 21"
_symmetry_group_IT_number 4
_symmetry_cell_setting 'monoclinic'
loop_
_space_group_symop_operation_xyz
x,y,z
-x,1/2+y,-z
loop_
_atom_site_type_symbol
_atom_site_label
_atom_site_fract_x
_atom_site_fract_y
_atom_site_fract_z
Si Si1 0.374578 0.786460 0.843206
Si Si2 0.219933 0.991294 0.035859
Si Si3 0.999578 0.497595 0.768043
Si Si4 0.738759 0.718208 0.329766
Si Si5 0.067149 0.326186 0.285921
Si Si6 0.582218 0.959429 0.151783
Si Si7 0.588574 0.496835 0.531616
O O1 0.260183 0.847353 0.906551
O O2 0.392487 0.621467 0.927571
O O3 0.375094 0.836115 0.551068
O O4 0.482959 0.875866 0.976043
O O5 0.187250 0.116143 0.823005
O O6 0.127740 0.965206 0.206358
O O7 0.333712 0.041219 0.206581
O O8 0.004393 0.675542 0.763742
O O9 0.030208 0.423619 0.513590
O O10 0.061624 0.421013 0.028140
O O11 0.811104 0.768735 0.593625
O O12 0.689769 0.861498 0.184741
O O13 0.631549 0.617852 0.351906
O O14 0.534860 0.985180 0.418395
#
# Coordination Sequence:
#
# PCOD9115507 Si02
#       7
#     2   2   2   2   2   2   2
#     4  10  22  38  63 100 133 191 237 302 369 440
#     4  10  22  43  70  94 139 192 237 306 373 443
#     4  12  26  51  78 110 152 195 261 313 392 446
#     4  11  23  43  70 102 141 191 246 300 381 440
#     4  12  27  48  81 113 149 203 251 324 379 465
#     4  11  22  40  64  98 143 180 246 300 361 455
#     4  10  20  39  68  93 133 192 230 291 371 437
#
# _framework density 23.855287000000001
#
# number of rings (size 3 to 8) (size 9 to 14) (size 15 to 20)
#    0.000    1.143    1.429    6.000    2.000    2.286 
#    2.571    1.429    0.000    0.000    0.000    0.000 
#    0.000    0.000    0.000    0.000    0.000    0.000 
#
# Total GULP energy -78206.422560 kJ/mol
# GULP energy per Si atom -5586.173040 kJ/mol
# Density = 2.380099 g / cm^3
# Si number density = 23.855287 Si / 1000 Ang^3
#
#
#
# Elastic Constant Matrix: (Units=GPa)
#
#
# Indices 1 2 3 4 5 6 
#
# 1 68.4429 12.2592 10.3530 0.0000 -2.5949 0.0000
# 2 12.2592 94.1992 24.9073 0.0000 26.9294 0.0000
# 3 10.3530 24.9073 96.5958 0.0000 6.2067 0.0000
# 4 0.0000 0.0000 0.0000 36.0438 0.0000 7.1139
# 5 -2.5949 26.9294 6.2067 0.0000 38.3546 0.0000
# 6 0.0000 0.0000 0.0000 7.1139 0.0000 29.0005
#
#
#
# Elastic Compliance Matrix: (Units=1/GPa)
#
#
# Indices 1 2 3 4 5 6 
#
# 1 0.015361 -0.002550 -0.001183 0.000000 0.003021 0.000000
# 2 -0.002550 0.014533 -0.002837 0.000000 -0.009917 0.000000
# 3 -0.001183 -0.002837 0.011204 0.000000 0.000099 0.000000
# 4 0.000000 0.000000 0.000000 0.029156 0.000000 -0.007152
# 5 0.003021 -0.009917 0.000099 0.000000 0.033224 0.000000
# 6 0.000000 0.000000 0.000000 -0.007152 0.000000 0.036237
#
#
# Mechanical properties :
#
#
# Convention : Reuss Voigt Hill
#
# Bulk Modulus (GPa) = 35.76702 39.36410 37.56556
# Shear Modulus (GPa) = 30.83123 34.79433 32.81278
#
# Velocity S-wave (km/s) = 3.59893 3.82325 3.71279
# Velocity P-wave (km/s) = 5.68293 6.00222 5.84476
#
# Compressibility (1/GPa) = 0.02795871
#
# Stress axis : x y z
#
# Youngs Moduli (GPa) = 65.10017 68.80968 89.25117
#
# Poissons Ratio (x) = 0.17546 0.10558
# Poissons Ratio (y) = 0.16600 0.25319
# Poissons Ratio (z) = 0.07701 0.19520
#
# Static dielectric constant tensor:
#      x y z
#    x 1.893510 0.000000 -0.010680 
#    y 0.000000 1.933600 0.000000 
#    z -0.010680 0.000000 2.058420 
# 
# From -- ./inp_files/2440.got.cif
#   From: 2010.05.17/outbox.cif.g08.bks.cpg/sg4_2_cif.got.tgz:2440.got - 2010.06.03 18:43:04.
