data_PCOD9115499
_publ_section_title
;
Structure prediction by ZEFSAII (Michael W. Deem and Ramdas Pophale) SiO2 
 PCOD9115499
Probable space group: P 21
;
_chemical_formula_sum "Si O2"
_cell_formula_units_Z 10
_cell_length_a 17.544952
_cell_length_b 5.181346
_cell_length_c 12.111103
_cell_angle_alpha 90.000000
_cell_angle_beta 21.034875
_cell_angle_gamma 90.000000
_cell_volume 395.180642
_symmetry_space_group_name_H-M "P 21"
_symmetry_group_IT_number 4
_symmetry_cell_setting 'monoclinic'
loop_
_space_group_symop_operation_xyz
x,y,z
-x,1/2+y,-z
loop_
_atom_site_type_symbol
_atom_site_label
_atom_site_fract_x
_atom_site_fract_y
_atom_site_fract_z
Si Si1 0.825136 0.613740 0.126199
Si Si2 0.644331 0.436815 0.811470
Si Si3 0.823076 0.744642 0.373900
Si Si4 0.651368 0.950084 0.187768
Si Si5 0.651325 0.438945 0.041997
O O1 0.893058 0.636204 0.161082
O O2 0.779773 0.879075 0.123814
O O3 0.594287 0.478610 0.443048
O O4 0.005273 0.452768 0.821642
O O5 0.778800 0.530230 0.525590
O O6 0.757667 0.440646 0.777300
O O7 0.460827 0.658193 0.063888
O O8 0.596163 0.877012 0.651686
O O9 0.669450 0.707046 0.081026
O O10 0.716018 0.204115 0.033646
#
# Coordination Sequence:
#
# PCOD9115499 Si02
#       5
#     2   2   2   2   2
#     4  11  22  40  64 104 142 177 221 276 343 408
#     4  10  20  39  67 100 135 174 226 283 336 391
#     4  10  22  37  67 102 136 172 227 283 329 396
#     4  11  23  39  65  94 140 184 216 268 344 411
#     4  10  21  41  65  96 131 181 228 272 332 400
#
# _framework density 25.304880000000001
#
# number of rings (size 3 to 8) (size 9 to 14) (size 15 to 20)
#    0.000    1.600    0.000    7.200    0.000    3.200 
#    0.000    0.000    0.000   21.600    0.000    5.600 
#    0.000    0.000    0.000    0.000    0.000    0.000 
#
# Total GULP energy -56073.965478 kJ/mol
# GULP energy per Si atom -5607.396548 kJ/mol
# Density = 2.524729 g / cm^3
# Si number density = 25.304880 Si / 1000 Ang^3
#
#
#
# Elastic Constant Matrix: (Units=GPa)
#
#
# Indices 1 2 3 4 5 6 
#
# 1 170.2481 57.7129 44.5654 0.0000 23.6345 0.0000
# 2 57.7129 109.8475 30.2381 0.0000 9.5209 0.0000
# 3 44.5654 30.2381 41.3281 0.0000 -3.0687 0.0000
# 4 0.0000 0.0000 0.0000 45.6967 0.0000 2.7615
# 5 23.6345 9.5209 -3.0687 0.0000 33.3020 0.0000
# 6 0.0000 0.0000 0.0000 2.7615 0.0000 61.1324
#
#
#
# Elastic Compliance Matrix: (Units=1/GPa)
#
#
# Indices 1 2 3 4 5 6 
#
# 1 0.010271 -0.001908 -0.010250 0.000000 -0.007688 0.000000
# 2 -0.001908 0.012325 -0.007170 0.000000 -0.002830 0.000000
# 3 -0.010250 -0.007170 0.041472 0.000000 0.013146 0.000000
# 4 0.000000 0.000000 0.000000 0.021943 0.000000 -0.000991
# 5 -0.007688 -0.002830 0.013146 0.000000 0.037505 0.000000
# 6 0.000000 0.000000 0.000000 -0.000991 0.000000 0.016403
#
#
# Mechanical properties :
#
#
# Convention : Reuss Voigt Hill
#
# Bulk Modulus (GPa) = 39.35336 65.16184 52.25760
# Shear Modulus (GPa) = 26.73110 40.62004 33.67557
#
# Velocity S-wave (km/s) = 3.25370 4.01087 3.65196
# Velocity P-wave (km/s) = 5.44985 6.87431 6.20310
#
# Compressibility (1/GPa) = 0.02541079
#
# Stress axis : x y z
#
# Youngs Moduli (GPa) = 97.35877 81.13452 24.11255
#
# Poissons Ratio (x) = 0.15484 0.24716
# Poissons Ratio (y) = 0.18580 0.17289
# Poissons Ratio (z) = 0.99797 0.58174
#
# Static dielectric constant tensor:
#      x y z
#    x 1.993500 0.000000 0.030630 
#    y 0.000000 1.982560 0.000000 
#    z 0.030630 0.000000 2.012750 
# 
# From -- ./inp_files/12715.got.cif
#   From: 2010.05.17/outbox.cif.g08.bks.cpg/sg4_7_cif.got.tgz:12715.got - 2010.06.03 18:43:04.
