data_PCOD9115685
_publ_section_title
;
Structure prediction by ZEFSAII (Michael W. Deem and Ramdas Pophale) SiO2 
 PCOD9115685
Probable space group: P 21
;
_chemical_formula_sum "Si O2"
_cell_formula_units_Z 14
_cell_length_a 5.959563
_cell_length_b 11.854812
_cell_length_c 8.240712
_cell_angle_alpha 90.000000
_cell_angle_beta 89.588706
_cell_angle_gamma 90.000000
_cell_volume 582.187174
_symmetry_space_group_name_H-M "P 21"
_symmetry_group_IT_number 4
_symmetry_cell_setting 'monoclinic'
loop_
_space_group_symop_operation_xyz
x,y,z
-x,1/2+y,-z
loop_
_atom_site_type_symbol
_atom_site_label
_atom_site_fract_x
_atom_site_fract_y
_atom_site_fract_z
Si Si1 0.465803 0.125000 0.438488
Si Si2 0.255958 0.810036 0.755380
Si Si3 0.743223 0.959170 0.252998
Si Si4 0.064938 0.289197 0.504691
Si Si5 0.257214 0.654858 0.253608
Si Si6 0.016060 0.129875 0.053624
Si Si7 0.417303 0.284196 0.990376
O O1 0.619703 0.224061 0.365276
O O2 0.222981 0.184081 0.449401
O O3 0.576443 0.095487 0.614468
O O4 0.519229 0.026310 0.309240
O O5 0.069524 0.856736 0.635272
O O6 0.113559 0.741737 0.887972
O O7 0.458174 0.852421 0.865754
O O8 0.793261 0.882880 0.406304
O O9 0.722977 0.875769 0.103466
O O10 0.941309 0.042354 0.193022
O O11 0.903708 0.234090 0.639326
O O12 0.093423 0.595265 0.120262
O O13 0.417698 0.732873 0.144841
O O14 0.269434 0.175532 0.043932
#
# Coordination Sequence:
#
# PCOD9115685 Si02
#       7
#     2   2   2   2   2   2   2
#     4  10  21  43  69 102 145 178 229 293 339 416
#     4   9  22  40  70  99 144 183 226 286 354 395
#     4  11  24  44  78 105 132 189 236 274 366 407
#     4  11  21  46  73 102 142 186 227 293 343 414
#     4  10  20  42  68 100 146 180 222 298 346 396
#     4  10  21  43  69 102 145 178 229 293 339 416
#     4  11  21  46  73 102 142 186 227 293 343 414
#
# _framework density 24.047249999999998
#
# number of rings (size 3 to 8) (size 9 to 14) (size 15 to 20)
#    0.000    1.714    2.857    0.857    0.000    0.000 
#   20.571    0.000   12.571    0.000    0.000    0.000 
#    0.000    0.000    0.000    0.000    0.000    0.000 
#
# Total GULP energy -78006.077210 kJ/mol
# GULP energy per Si atom -5571.862658 kJ/mol
# Density = 2.399252 g / cm^3
# Si number density = 24.047250 Si / 1000 Ang^3
#
#
#
# Elastic Constant Matrix: (Units=GPa)
#
#
# Indices 1 2 3 4 5 6 
#
# 1 105.6815 30.5687 43.2633 0.0000 -12.4379 0.0000
# 2 30.5687 53.2087 27.1647 0.0000 1.8196 0.0000
# 3 43.2633 27.1647 121.2994 0.0000 16.5879 0.0000
# 4 0.0000 0.0000 0.0000 9.5316 0.0000 -10.2883
# 5 -12.4379 1.8196 16.5879 0.0000 66.8267 0.0000
# 6 0.0000 0.0000 0.0000 -10.2883 0.0000 6.9513
#
#
#
# Elastic Compliance Matrix: (Units=1/GPa)
#
#
# Indices 1 2 3 4 5 6 
#
# 1 0.013116 -0.005668 -0.003896 0.000000 0.003563 0.000000
# 2 -0.005668 0.023695 -0.003159 0.000000 -0.000916 0.000000
# 3 -0.003896 -0.003159 0.010795 0.000000 -0.003319 0.000000
# 4 0.000000 0.000000 0.000000 -0.175571 0.000000 -0.259855
# 5 0.003563 -0.000916 -0.003319 0.000000 0.016476 0.000000
# 6 0.000000 0.000000 0.000000 -0.259855 0.000000 -0.240743
#
#
# Mechanical properties :
#
#
# Convention : Reuss Voigt Hill
#
# Bulk Modulus (GPa) = 45.12898 53.57591 49.35244
# Shear Modulus (GPa) = -15.65437 28.60812 6.47687
#
# Velocity S-wave (km/s) = -2.55421 3.45289 1.64294
# Velocity P-wave (km/s) = 3.17945 6.18259 4.91596
#
# Compressibility (1/GPa) = 0.02215871
#
# Stress axis : x y z
#
# Youngs Moduli (GPa) = 76.24231 42.20364 92.63567
#
# Poissons Ratio (x) = 0.23922 0.36090
# Poissons Ratio (y) = 0.43215 0.29268
# Poissons Ratio (z) = 0.29703 0.13334
#
# Static dielectric constant tensor:
#      x y z
#    x 2.105930 0.000000 0.107720 
#    y 0.000000 1.886320 0.000000 
#    z 0.107720 0.000000 1.965780 
# 
# From -- ./inp_files/4686.got.cif
#   From: 2010.05.17/outbox.cif.g08.bks.cpg/sg4_3_cif.got.tgz:4686.got - 2010.06.03 18:43:04.
