data_PCOD9115064
_publ_section_title
;
Structure prediction by ZEFSAII (Michael W. Deem and Ramdas Pophale) SiO2 
 PCOD9115064
Probable space group: P 21
;
_chemical_formula_sum "Si O2"
_cell_formula_units_Z 16
_cell_length_a 8.995891
_cell_length_b 7.536383
_cell_length_c 12.022731
_cell_angle_alpha 90.000000
_cell_angle_beta 125.544734
_cell_angle_gamma 90.000000
_cell_volume 663.214859
_symmetry_space_group_name_H-M "P 21"
_symmetry_group_IT_number 4
_symmetry_cell_setting 'monoclinic'
loop_
_space_group_symop_operation_xyz
x,y,z
-x,1/2+y,-z
loop_
_atom_site_type_symbol
_atom_site_label
_atom_site_fract_x
_atom_site_fract_y
_atom_site_fract_z
Si Si1 0.342335 0.928610 0.882023
Si Si2 0.897011 0.760274 0.197885
Si Si3 0.795694 0.461924 0.407298
Si Si4 0.609681 0.475056 0.855486
Si Si5 0.428054 0.643500 0.302408
Si Si6 0.194635 0.493990 0.632496
Si Si7 0.260546 0.633199 0.448069
Si Si8 0.277031 0.364796 0.076990
O O1 0.209931 0.877372 0.720390
O O2 0.543022 0.908472 0.919286
O O3 0.274343 0.127650 0.876921
O O4 0.341053 0.865332 0.009608
O O5 0.869623 0.865511 0.298467
O O6 0.083286 0.653387 0.293473
O O7 0.887651 0.877057 0.082670
O O8 0.628405 0.597622 0.342242
O O9 0.744050 0.302068 0.469400
O O10 0.985072 0.562642 0.513806
O O11 0.629419 0.335950 0.765281
O O12 0.397296 0.539345 0.769629
O O13 0.716798 0.658441 0.884017
O O14 0.425062 0.630277 0.433867
O O15 0.295939 0.496199 0.188331
O O16 0.251327 0.468628 0.527662
#
# Coordination Sequence:
#
# PCOD9115064 Si02
#       8
#     2   2   2   2   2   2   2   2
#     4  10  19  40  68 101 126 169 224 292 331 393
#     4  10  21  41  66 105 139 169 232 302 331 404
#     4  10  23  41  67 100 135 169 238 280 333 406
#     4  11  24  40  75 101 137 174 232 285 351 398
#     4  11  26  47  67 101 142 191 221 280 350 426
#     4  11  20  38  70  96 130 181 219 291 337 383
#     4  11  25  43  66 100 146 184 228 280 351 422
#     4  10  22  42  71 102 137 175 234 282 342 416
#
# _framework density 24.124911999999998
#
# number of rings (size 3 to 8) (size 9 to 14) (size 15 to 20)
#    0.000    1.500    2.500    3.000    7.000    1.000 
#    4.500    0.000    0.000    0.000    0.000    0.000 
#    0.000    0.000    0.000    0.000    0.000    0.000 
#
# Total GULP energy -89110.854223 kJ/mol
# GULP energy per Si atom -5569.428389 kJ/mol
# Density = 2.407000 g / cm^3
# Si number density = 24.124912 Si / 1000 Ang^3
#
#
#
# Elastic Constant Matrix: (Units=GPa)
#
#
# Indices 1 2 3 4 5 6 
#
# 1 46.9246 5.8548 31.5860 0.0000 -17.2228 0.0000
# 2 5.8548 74.9292 31.7139 0.0000 -9.8882 0.0000
# 3 31.5860 31.7139 127.1983 0.0000 -7.4857 0.0000
# 4 0.0000 0.0000 0.0000 45.3195 0.0000 -9.5309
# 5 -17.2228 -9.8882 -7.4857 0.0000 36.5828 0.0000
# 6 0.0000 0.0000 0.0000 -9.5309 0.0000 14.7249
#
#
#
# Elastic Compliance Matrix: (Units=1/GPa)
#
#
# Indices 1 2 3 4 5 6 
#
# 1 0.031155 0.002593 -0.007570 0.000000 0.013819 0.000000
# 2 0.002593 0.015543 -0.004251 0.000000 0.004552 0.000000
# 3 -0.007570 -0.004251 0.010652 0.000000 -0.002533 0.000000
# 4 0.000000 0.000000 0.000000 0.025542 0.000000 0.016533
# 5 0.013819 0.004552 -0.002533 0.000000 0.034553 0.000000
# 6 0.000000 0.000000 0.000000 0.016533 0.000000 0.078613
#
#
# Mechanical properties :
#
#
# Convention : Reuss Voigt Hill
#
# Bulk Modulus (GPa) = 25.71047 43.04018 34.37532
# Shear Modulus (GPa) = 21.97996 31.31860 26.64928
#
# Velocity S-wave (km/s) = 3.02170 3.60694 3.32721
# Velocity P-wave (km/s) = 4.78065 5.93515 5.38890
#
# Compressibility (1/GPa) = 0.03889467
#
# Stress axis : x y z
#
# Youngs Moduli (GPa) = 32.09798 64.33567 93.87593
#
# Poissons Ratio (x) = -0.16683 0.71061
# Poissons Ratio (y) = -0.08324 0.39911
# Poissons Ratio (z) = 0.24297 0.27352
#
# Static dielectric constant tensor:
#      x y z
#    x 1.890770 0.000000 0.014610 
#    y 0.000000 2.102250 0.000000 
#    z 0.014610 0.000000 2.054420 
# 
# From -- ./inp_files/10913.got.cif
#   From: 2010.05.17/outbox.cif.g08.bks.cpg/sg4_6_cif.got.tgz:10913.got - 2010.06.03 18:43:04.
