data_PCOD9115810
_publ_section_title
;
Structure prediction by ZEFSAII (Michael W. Deem and Ramdas Pophale) SiO2 
 PCOD9115810
Probable space group: P 21
;
_chemical_formula_sum "Si O2"
_cell_formula_units_Z 16
_cell_length_a 10.974865
_cell_length_b 5.151446
_cell_length_c 12.079581
_cell_angle_alpha 90.000000
_cell_angle_beta 63.217995
_cell_angle_gamma 90.000000
_cell_volume 609.675952
_symmetry_space_group_name_H-M "P 21"
_symmetry_group_IT_number 4
_symmetry_cell_setting 'monoclinic'
loop_
_space_group_symop_operation_xyz
x,y,z
-x,1/2+y,-z
loop_
_atom_site_type_symbol
_atom_site_label
_atom_site_fract_x
_atom_site_fract_y
_atom_site_fract_z
Si Si1 0.554167 0.418550 0.622609
Si Si2 0.308255 0.045977 0.137092
Si Si3 0.831065 0.887742 0.959103
Si Si4 0.677597 0.193189 0.375784
Si Si5 0.634811 0.044743 0.767501
Si Si6 0.793394 0.823964 0.523557
Si Si7 0.892290 0.129596 0.143266
Si Si8 0.968611 0.274781 0.734629
O O1 0.578520 0.379561 0.481807
O O2 0.410848 0.558560 0.682100
O O3 0.548046 0.168157 0.703332
O O4 0.690287 0.586339 0.592052
O O5 0.370379 0.765212 0.135950
O O6 0.149917 0.990162 0.240046
O O7 0.282217 0.179878 0.029374
O O8 0.391621 0.266514 0.168420
O O9 0.963624 0.741679 0.950690
O O10 0.885316 0.042333 0.828620
O O11 0.804065 0.079845 0.070249
O O12 0.808127 0.312735 0.262102
O O13 0.729512 0.000420 0.451278
O O14 0.779004 0.997201 0.640958
O O15 0.936646 0.735568 0.412192
O O16 0.934412 0.892092 0.207365
#
# Coordination Sequence:
#
# PCOD9115810 Si02
#       8
#     2   2   2   2   2   2   2   2
#     4  11  20  38  65  91 131 173 209 272 330 387
#     4  11  23  41  59  87 122 170 217 262 317 385
#     4  11  20  38  65  91 131 173 209 272 330 387
#     4  10  21  36  60  96 129 165 214 265 328 396
#     4  11  23  41  59  87 122 170 217 262 317 385
#     4  10  21  37  59  90 128 166 207 261 322 388
#     4  10  21  36  60  96 129 165 214 265 328 396
#     4  10  21  37  59  90 128 166 207 261 322 388
#
# _framework density 26.243449999999999
#
# number of rings (size 3 to 8) (size 9 to 14) (size 15 to 20)
#    0.000    1.500    5.000    0.750    0.000    2.000 
#    0.000    0.000    0.000    1.500    0.000    0.000 
#    0.000    0.000    0.000    0.000    0.000    0.000 
#
# Total GULP energy -89248.462256 kJ/mol
# GULP energy per Si atom -5578.028891 kJ/mol
# Density = 2.618372 g / cm^3
# Si number density = 26.243450 Si / 1000 Ang^3
#
#
#
# Elastic Constant Matrix: (Units=GPa)
#
#
# Indices 1 2 3 4 5 6 
#
# 1 44.5840 -1.8158 19.5362 0.0000 14.6330 0.0000
# 2 -1.8158 99.3612 16.6331 0.0000 11.1418 0.0000
# 3 19.5362 16.6331 88.7757 0.0000 3.4981 0.0000
# 4 0.0000 0.0000 0.0000 22.9185 0.0000 22.4563
# 5 14.6330 11.1418 3.4981 0.0000 29.7339 0.0000
# 6 0.0000 0.0000 0.0000 22.4563 0.0000 42.3957
#
#
#
# Elastic Compliance Matrix: (Units=1/GPa)
#
#
# Indices 1 2 3 4 5 6 
#
# 1 0.030651 0.003441 -0.006776 0.000000 -0.015577 0.000000
# 2 0.003441 0.011194 -0.002635 0.000000 -0.005578 0.000000
# 3 -0.006776 -0.002635 0.013140 0.000000 0.002776 0.000000
# 4 0.000000 0.000000 0.000000 0.090713 0.000000 -0.048049
# 5 -0.015577 -0.005578 0.002776 0.000000 0.043061 0.000000
# 6 0.000000 0.000000 0.000000 -0.048049 0.000000 0.049038
#
#
# Mechanical properties :
#
#
# Convention : Reuss Voigt Hill
#
# Bulk Modulus (GPa) = 23.23124 33.49197 28.36161
# Shear Modulus (GPa) = 18.93331 32.23413 25.58372
#
# Velocity S-wave (km/s) = 2.68889 3.50848 3.12566
# Velocity P-wave (km/s) = 4.30251 5.40391 4.88436
#
# Compressibility (1/GPa) = 0.04304548
#
# Stress axis : x y z
#
# Youngs Moduli (GPa) = 32.62486 89.33578 76.10473
#
# Poissons Ratio (x) = -0.30742 0.51570
# Poissons Ratio (y) = -0.11227 0.20052
# Poissons Ratio (z) = 0.22107 0.23538
#
# Static dielectric constant tensor:
#      x y z
#    x 2.078020 0.000000 0.027900 
#    y 0.000000 2.150250 0.000000 
#    z 0.027900 0.000000 2.071270 
# 
# From -- ./inp_files/11615.got.cif
#   From: 2010.05.17/outbox.cif.g08.bks.cpg/sg4_6_cif.got.tgz:11615.got - 2010.06.03 18:43:04.
