data_PCOD9115873
_publ_section_title
;
Structure prediction by ZEFSAII (Michael W. Deem and Ramdas Pophale) SiO2 
 PCOD9115873
Probable space group: P 21
;
_chemical_formula_sum "Si O2"
_cell_formula_units_Z 12
_cell_length_a 5.353678
_cell_length_b 8.089447
_cell_length_c 10.930762
_cell_angle_alpha 90.000000
_cell_angle_beta 102.866378
_cell_angle_gamma 90.000000
_cell_volume 461.506732
_symmetry_space_group_name_H-M "P 21"
_symmetry_group_IT_number 4
_symmetry_cell_setting 'monoclinic'
loop_
_space_group_symop_operation_xyz
x,y,z
-x,1/2+y,-z
loop_
_atom_site_type_symbol
_atom_site_label
_atom_site_fract_x
_atom_site_fract_y
_atom_site_fract_z
Si Si1 0.784129 0.103300 0.583348
Si Si2 0.029289 0.384968 0.957283
Si Si3 0.324227 0.581245 0.821631
Si Si4 0.304394 0.320907 0.622857
Si Si5 0.294981 0.078115 0.920036
Si Si6 0.421266 0.399895 0.223541
O O1 0.537068 0.222226 0.582215
O O2 0.039963 0.215293 0.602749
O O3 0.763197 0.985946 0.463087
O O4 0.757140 0.964390 0.688243
O O5 0.051997 0.527450 0.855083
O O6 0.064237 0.208366 0.899787
O O7 0.253760 0.387785 0.082753
O O8 0.798347 0.413605 0.022025
O O9 0.394458 0.410296 0.759752
O O10 0.403752 0.736023 0.745200
O O11 0.482776 0.620181 0.961201
O O12 0.384836 0.045079 0.794082
#
# Coordination Sequence:
#
# PCOD9115873 Si02
#       6
#     2   2   2   2   2   2
#     4  12  28  51  78 107 142 189 243 305 365 434
#     4  10  21  37  65 103 147 194 236 292 350 430
#     4  10  23  42  67 105 144 190 238 297 355 428
#     4  12  28  51  78 107 142 189 243 305 365 434
#     4  10  21  39  64 103 149 190 240 286 356 424
#     4  10  23  42  68 103 146 188 240 295 357 426
#
# _framework density 26.001791999999998
#
# number of rings (size 3 to 8) (size 9 to 14) (size 15 to 20)
#    0.000    1.333    0.000    4.000    7.000    2.667 
#    3.000    0.000    0.000    0.000    0.000    0.000 
#    0.000    0.000    0.000    0.000    0.000    0.000 
#
# Total GULP energy -66944.870245 kJ/mol
# GULP energy per Si atom -5578.739187 kJ/mol
# Density = 2.594261 g / cm^3
# Si number density = 26.001792 Si / 1000 Ang^3
#
#
#
# Elastic Constant Matrix: (Units=GPa)
#
#
# Indices 1 2 3 4 5 6 
#
# 1 141.1588 67.6114 26.9768 0.0000 -20.0863 0.0000
# 2 67.6114 158.2540 38.0474 0.0000 -3.0649 0.0000
# 3 26.9768 38.0474 66.5786 0.0000 -11.0503 0.0000
# 4 0.0000 0.0000 0.0000 50.0615 0.0000 -15.0938
# 5 -20.0863 -3.0649 -11.0503 0.0000 25.5861 0.0000
# 6 0.0000 0.0000 0.0000 -15.0938 0.0000 56.5094
#
#
#
# Elastic Compliance Matrix: (Units=1/GPa)
#
#
# Indices 1 2 3 4 5 6 
#
# 1 0.010175 -0.004063 -0.000599 0.000000 0.007243 0.000000
# 2 -0.004063 0.008972 -0.004128 0.000000 -0.003898 0.000000
# 3 -0.000599 -0.004128 0.018810 0.000000 0.007159 0.000000
# 4 0.000000 0.000000 0.000000 0.021725 0.000000 0.005803
# 5 0.007243 -0.003898 0.007159 0.000000 0.047395 0.000000
# 6 0.000000 0.000000 0.000000 0.005803 0.000000 0.019246
#
#
# Mechanical properties :
#
#
# Convention : Reuss Voigt Hill
#
# Bulk Modulus (GPa) = 49.07396 70.14027 59.60712
# Shear Modulus (GPa) = 33.17983 41.98846 37.58415
#
# Velocity S-wave (km/s) = 3.57607 4.02285 3.80602
# Velocity P-wave (km/s) = 5.99711 6.97220 6.50296
#
# Compressibility (1/GPa) = 0.02037741
#
# Stress axis : x y z
#
# Youngs Moduli (GPa) = 98.27649 111.46190 53.16457
#
# Poissons Ratio (x) = 0.45287 0.03184
# Poissons Ratio (y) = 0.39930 0.21944
# Poissons Ratio (z) = 0.05886 0.46007
#
# Static dielectric constant tensor:
#      x y z
#    x 2.155630 0.000000 0.026780 
#    y 0.000000 2.174530 0.000000 
#    z 0.026780 0.000000 2.078230 
# 
# From -- ./inp_files/2504.got.cif
#   From: 2010.05.17/outbox.cif.g08.bks.cpg/sg4_2_cif.got.tgz:2504.got - 2010.06.03 18:43:04.
