data_PCOD9115224
_publ_section_title
;
Structure prediction by ZEFSAII (Michael W. Deem and Ramdas Pophale) SiO2 
 PCOD9115224
Probable space group: P 21
;
_chemical_formula_sum "Si O2"
_cell_formula_units_Z 16
_cell_length_a 21.273710
_cell_length_b 8.446263
_cell_length_c 4.992010
_cell_angle_alpha 90.000000
_cell_angle_beta 126.896401
_cell_angle_gamma 90.000000
_cell_volume 717.335836
_symmetry_space_group_name_H-M "P 21"
_symmetry_group_IT_number 4
_symmetry_cell_setting 'monoclinic'
loop_
_space_group_symop_operation_xyz
x,y,z
-x,1/2+y,-z
loop_
_atom_site_type_symbol
_atom_site_label
_atom_site_fract_x
_atom_site_fract_y
_atom_site_fract_z
Si Si1 0.428182 0.493260 0.018986
Si Si2 0.719836 0.279874 0.756279
Si Si3 0.929358 0.714528 0.828889
Si Si4 0.135205 0.935765 0.596571
Si Si5 0.096390 0.628861 0.148605
Si Si6 0.549781 0.218176 0.423441
Si Si7 0.035363 0.428802 0.586552
Si Si8 0.261327 0.571642 0.700658
O O1 0.477756 0.335992 0.195643
O O2 0.448520 0.629956 0.288045
O O3 0.445831 0.576138 0.781170
O O4 0.334665 0.462621 0.813492
O O5 0.629678 0.321496 0.587142
O O6 0.726636 0.223474 0.467691
O O7 0.788129 0.395985 0.032117
O O8 0.732372 0.124979 0.976530
O O9 0.861026 0.598189 0.561074
O O10 0.947041 0.836644 0.636981
O O11 0.928929 0.807702 0.101498
O O12 0.009061 0.607810 0.044859
O O13 0.119414 0.797584 0.336862
O O14 0.057439 0.947065 0.586431
O O15 0.172108 0.523720 0.417956
O O16 0.079700 0.592237 0.790224
#
# Coordination Sequence:
#
# PCOD9115224 Si02
#       8
#     2   2   2   2   2   2   2   2
#     4  10  20  36  57  81 108 138 174 215 261 313
#     4   9  18  32  52  76 100 132 174 212 247 303
#     4  10  21  34  50  75 105 134 170 219 265 301
#     4   9  19  35  55  74 100 139 179 211 253 311
#     4   9  19  35  55  74 100 139 179 211 253 311
#     4  10  20  36  57  81 108 138 174 215 261 313
#     4  10  21  34  50  75 105 134 170 219 265 301
#     4   9  18  32  52  76 100 132 174 212 247 303
#
# _framework density 22.304756999999999
#
# number of rings (size 3 to 8) (size 9 to 14) (size 15 to 20)
#    0.000    2.500    0.000    1.500    0.000   12.000 
#    0.000    2.500    0.000    0.000    0.000    0.000 
#    0.000    0.000    0.000    0.000    0.000    0.000 
#
# Total GULP energy -89294.632175 kJ/mol
# GULP energy per Si atom -5580.914511 kJ/mol
# Density = 2.225399 g / cm^3
# Si number density = 22.304757 Si / 1000 Ang^3
#
#
#
# Elastic Constant Matrix: (Units=GPa)
#
#
# Indices 1 2 3 4 5 6 
#
# 1 58.8415 11.2141 17.5611 0.0000 6.4345 0.0000
# 2 11.2141 52.6586 15.6891 0.0000 -9.3343 0.0000
# 3 17.5611 15.6891 84.8681 0.0000 -1.6725 0.0000
# 4 0.0000 0.0000 0.0000 51.4777 0.0000 2.4439
# 5 6.4345 -9.3343 -1.6725 0.0000 45.3022 0.0000
# 6 0.0000 0.0000 0.0000 2.4439 0.0000 21.7589
#
#
#
# Elastic Compliance Matrix: (Units=1/GPa)
#
#
# Indices 1 2 3 4 5 6 
#
# 1 0.019091 -0.003710 -0.003335 0.000000 -0.003599 0.000000
# 2 -0.003710 0.021572 -0.003125 0.000000 0.004856 0.000000
# 3 -0.003335 -0.003125 0.013057 0.000000 0.000312 0.000000
# 4 0.000000 0.000000 0.000000 0.019530 0.000000 -0.002194
# 5 -0.003599 0.004856 0.000312 0.000000 0.023597 0.000000
# 6 0.000000 0.000000 0.000000 -0.002194 0.000000 0.046205
#
#
# Mechanical properties :
#
#
# Convention : Reuss Voigt Hill
#
# Bulk Modulus (GPa) = 29.95780 31.69963 30.82871
# Shear Modulus (GPa) = 28.65031 33.83468 31.24250
#
# Velocity S-wave (km/s) = 3.58787 3.89900 3.74667
# Velocity P-wave (km/s) = 5.53390 5.87473 5.70686
#
# Compressibility (1/GPa) = 0.03338029
#
# Stress axis : x y z
#
# Youngs Moduli (GPa) = 52.38107 46.35625 76.58756
#
# Poissons Ratio (x) = 0.17197 0.25545
# Poissons Ratio (y) = 0.19432 0.23930
# Poissons Ratio (z) = 0.17471 0.14484
#
# Static dielectric constant tensor:
#      x y z
#    x 1.885130 0.000000 -0.000640 
#    y 0.000000 1.887150 0.000000 
#    z -0.000640 0.000000 1.856920 
# 
# From -- ./inp_files/4027.got.cif
#   From: 2010.05.17/outbox.cif.g08.bks.cpg/sg4_3_cif.got.tgz:4027.got - 2010.06.03 18:43:04.
