data_PCOD9115020
_publ_section_title
;
Structure prediction by ZEFSAII (Michael W. Deem and Ramdas Pophale) SiO2 
 PCOD9115020
Probable space group: P 21
;
_chemical_formula_sum "Si O2"
_cell_formula_units_Z 14
_cell_length_a 7.576738
_cell_length_b 10.314542
_cell_length_c 7.881046
_cell_angle_alpha 90.000000
_cell_angle_beta 124.452016
_cell_angle_gamma 90.000000
_cell_volume 507.878168
_symmetry_space_group_name_H-M "P 21"
_symmetry_group_IT_number 4
_symmetry_cell_setting 'monoclinic'
loop_
_space_group_symop_operation_xyz
x,y,z
-x,1/2+y,-z
loop_
_atom_site_type_symbol
_atom_site_label
_atom_site_fract_x
_atom_site_fract_y
_atom_site_fract_z
Si Si1 0.228603 0.967360 0.437622
Si Si2 0.786868 0.980375 0.351435
Si Si3 0.380795 0.205531 0.718372
Si Si4 0.246758 0.823064 0.892609
Si Si5 0.869534 0.099127 0.059036
Si Si6 0.560465 0.231839 0.340083
Si Si7 0.166135 0.113378 0.948064
O O1 0.369733 0.839417 0.487608
O O2 0.040717 0.954617 0.480634
O O3 0.365244 0.090474 0.575524
O O4 0.078526 0.998771 0.198065
O O5 0.676682 0.851868 0.356858
O O6 0.710114 0.104863 0.413971
O O7 0.725423 0.014963 0.121179
O O8 0.630392 0.216415 0.915097
O O9 0.229176 0.176883 0.799757
O O10 0.225525 0.963714 0.948988
O O11 0.379536 0.814245 0.796075
O O12 0.047424 0.726131 0.780935
O O13 0.926672 0.122808 0.890054
O O14 0.324543 0.184065 0.168137
#
# Coordination Sequence:
#
# PCOD9115020 Si02
#       7
#     2   2   2   2   2   2   2
#     4  10  21  39  62  88 121 158 206 252 299 365
#     4   9  20  37  60  89 118 156 201 255 298 357
#     4  11  21  37  69  87 113 166 211 247 296 366
#     4  10  21  40  61  90 120 157 211 253 298 367
#     4   9  24  38  60  86 131 155 195 261 314 367
#     4  10  19  39  62  88 117 158 208 246 296 362
#     4  11  22  38  62  90 122 162 200 256 311 362
#
# _framework density 27.565666
#
# number of rings (size 3 to 8) (size 9 to 14) (size 15 to 20)
#    0.857    1.143    2.857    0.857    2.000    0.000 
#    2.571    0.000    0.000    0.000    0.000    0.000 
#    0.000    0.000    0.000    0.000    0.000    0.000 
#
# Total GULP energy -78094.239919 kJ/mol
# GULP energy per Si atom -5578.159994 kJ/mol
# Density = 2.750292 g / cm^3
# Si number density = 27.565666 Si / 1000 Ang^3
#
#
#
# Elastic Constant Matrix: (Units=GPa)
#
#
# Indices 1 2 3 4 5 6 
#
# 1 136.0956 28.1566 25.7975 0.0000 -16.6162 0.0000
# 2 28.1566 199.0935 33.9091 0.0000 11.9376 0.0000
# 3 25.7975 33.9091 61.4049 0.0000 1.4496 0.0000
# 4 0.0000 0.0000 0.0000 46.4188 0.0000 20.3318
# 5 -16.6162 11.9376 1.4496 0.0000 32.9931 0.0000
# 6 0.0000 0.0000 0.0000 20.3318 0.0000 15.2758
#
#
#
# Elastic Compliance Matrix: (Units=1/GPa)
#
#
# Indices 1 2 3 4 5 6 
#
# 1 0.008768 -0.000980 -0.003259 0.000000 0.004913 0.000000
# 2 -0.000980 0.005772 -0.002718 0.000000 -0.002462 0.000000
# 3 -0.003259 -0.002718 0.019191 0.000000 -0.001501 0.000000
# 4 0.000000 0.000000 0.000000 0.051660 0.000000 -0.068758
# 5 0.004913 -0.002462 -0.001501 0.000000 0.033741 0.000000
# 6 0.000000 0.000000 0.000000 -0.068758 0.000000 0.156979
#
#
# Mechanical properties :
#
#
# Convention : Reuss Voigt Hill
#
# Bulk Modulus (GPa) = 50.45769 63.59112 57.02440
# Shear Modulus (GPa) = 16.85614 39.51960 28.18787
#
# Velocity S-wave (km/s) = 2.47552 3.79047 3.20124
# Velocity P-wave (km/s) = 5.14929 6.50199 5.86477
#
# Compressibility (1/GPa) = 0.01981859
#
# Stress axis : x y z
#
# Youngs Moduli (GPa) = 114.05073 173.25598 52.10898
#
# Poissons Ratio (x) = 0.16972 0.16981
# Poissons Ratio (y) = 0.11173 0.14161
# Poissons Ratio (z) = 0.37165 0.47085
#
# Static dielectric constant tensor:
#      x y z
#    x 2.192200 0.000000 0.035510 
#    y 0.000000 2.177220 0.000000 
#    z 0.035510 0.000000 2.429350 
# 
# From -- ./inp_files/10962.got.cif
#   From: 2010.05.17/outbox.cif.g08.bks.cpg/sg4_6_cif.got.tgz:10962.got - 2010.06.03 18:43:04.
