data_PCOD9115285
_publ_section_title
;
Structure prediction by ZEFSAII (Michael W. Deem and Ramdas Pophale) SiO2 
 PCOD9115285
Probable space group: P 21
;
_chemical_formula_sum "Si O2"
_cell_formula_units_Z 16
_cell_length_a 13.326788
_cell_length_b 8.175547
_cell_length_c 8.247141
_cell_angle_alpha 90.000000
_cell_angle_beta 58.487198
_cell_angle_gamma 90.000000
_cell_volume 766.041037
_symmetry_space_group_name_H-M "P 21"
_symmetry_group_IT_number 4
_symmetry_cell_setting 'monoclinic'
loop_
_space_group_symop_operation_xyz
x,y,z
-x,1/2+y,-z
loop_
_atom_site_type_symbol
_atom_site_label
_atom_site_fract_x
_atom_site_fract_y
_atom_site_fract_z
Si Si1 0.995461 0.047090 0.321175
Si Si2 0.252217 0.563525 0.290987
Si Si3 0.368493 0.221159 0.667287
Si Si4 0.630204 0.090035 0.478244
Si Si5 0.041218 0.490809 0.030351
Si Si6 0.221901 0.911525 0.743933
Si Si7 0.791470 0.775085 0.918198
Si Si8 0.844126 0.284877 0.865671
O O1 0.107011 0.165632 0.247928
O O2 0.876199 0.077509 0.516130
O O3 0.053918 0.874784 0.318922
O O4 0.966020 0.030582 0.153619
O O5 0.348123 0.562465 0.349371
O O6 0.248623 0.405743 0.180263
O O7 0.255851 0.715270 0.165030
O O8 0.502906 0.162706 0.544103
O O9 0.355156 0.409366 0.615365
O O10 0.293273 0.076781 0.642392
O O11 0.323770 0.214345 0.891234
O O12 0.719800 0.238848 0.355457
O O13 0.912646 0.434840 0.199274
O O14 0.134254 0.350921 0.993014
O O15 0.089856 0.642766 0.090578
O O16 0.209305 0.899205 0.950061
#
# Coordination Sequence:
#
# PCOD9115285 Si02
#       8
#     2   2   2   2   2   2   2   2
#     4  11  19  35  61  96 134 174 220 264 326 406
#     4  11  24  40  61  97 138 174 211 278 336 408
#     4  12  25  48  72  96 128 177 240 285 330 389
#     4  12  26  48  71  99 128 178 237 291 328 389
#     4  10  20  36  69 101 129 178 214 276 336 399
#     4  11  23  44  74  98 132 177 230 279 334 393
#     4  11  22  41  62  98 139 175 213 274 344 404
#     4  10  21  38  62  99 140 171 211 269 344 408
#
# _framework density 20.886610000000001
#
# number of rings (size 3 to 8) (size 9 to 14) (size 15 to 20)
#    0.000    1.000    3.750    6.000    1.750    1.000 
#    4.500    0.000    0.000    0.000    0.000    0.000 
#    0.000    0.000    0.000    0.000    0.000    0.000 
#
# Total GULP energy -89261.910103 kJ/mol
# GULP energy per Si atom -5578.869381 kJ/mol
# Density = 2.083907 g / cm^3
# Si number density = 20.886610 Si / 1000 Ang^3
#
#
#
# Elastic Constant Matrix: (Units=GPa)
#
#
# Indices 1 2 3 4 5 6 
#
# 1 67.9601 21.1265 22.1055 0.0000 -2.6593 0.0000
# 2 21.1265 101.6074 25.9658 0.0000 -7.8147 0.0000
# 3 22.1055 25.9658 45.7915 0.0000 -7.5510 0.0000
# 4 0.0000 0.0000 0.0000 33.6493 0.0000 -8.6067
# 5 -2.6593 -7.8147 -7.5510 0.0000 31.7474 0.0000
# 6 0.0000 0.0000 0.0000 -8.6067 0.0000 14.6396
#
#
#
# Elastic Compliance Matrix: (Units=1/GPa)
#
#
# Indices 1 2 3 4 5 6 
#
# 1 0.017737 -0.001786 -0.007678 0.000000 -0.000780 0.000000
# 2 -0.001786 0.011744 -0.005563 0.000000 0.001418 0.000000
# 3 -0.007678 -0.005563 0.029526 0.000000 0.005010 0.000000
# 4 0.000000 0.000000 0.000000 0.034978 0.000000 0.020564
# 5 -0.000780 0.001418 0.005010 0.000000 0.032974 0.000000
# 6 0.000000 0.000000 0.000000 0.020564 0.000000 0.080397
#
#
# Mechanical properties :
#
#
# Convention : Reuss Voigt Hill
#
# Bulk Modulus (GPa) = 34.54082 39.30608 36.92345
# Shear Modulus (GPa) = 20.23793 25.75132 22.99462
#
# Velocity S-wave (km/s) = 3.11616 3.51509 3.32162
# Velocity P-wave (km/s) = 5.43328 5.94425 5.69450
#
# Compressibility (1/GPa) = 0.02895125
#
# Stress axis : x y z
#
# Youngs Moduli (GPa) = 56.38048 85.15070 33.86887
#
# Poissons Ratio (x) = 0.15205 0.26006
# Poissons Ratio (y) = 0.10068 0.18843
# Poissons Ratio (z) = 0.43291 0.47373
#
# Static dielectric constant tensor:
#      x y z
#    x 1.719560 0.000000 -0.001660 
#    y 0.000000 1.870620 0.000000 
#    z -0.001660 0.000000 1.766240 
# 
# From -- ./inp_files/7830.got.cif
#   From: 2010.05.17/outbox.cif.g08.bks.cpg/sg4_4_cif.got.tgz:7830.got - 2010.06.03 18:43:04.
