data_PCOD9115263
_publ_section_title
;
Structure prediction by ZEFSAII (Michael W. Deem and Ramdas Pophale) SiO2 
 PCOD9115263
Probable space group: P 21
;
_chemical_formula_sum "Si O2"
_cell_formula_units_Z 16
_cell_length_a 22.138583
_cell_length_b 7.093254
_cell_length_c 8.742159
_cell_angle_alpha 90.000000
_cell_angle_beta 154.670657
_cell_angle_gamma 90.000000
_cell_volume 587.321562
_symmetry_space_group_name_H-M "P 21"
_symmetry_group_IT_number 4
_symmetry_cell_setting 'monoclinic'
loop_
_space_group_symop_operation_xyz
x,y,z
-x,1/2+y,-z
loop_
_atom_site_type_symbol
_atom_site_label
_atom_site_fract_x
_atom_site_fract_y
_atom_site_fract_z
Si Si1 0.635497 0.709140 0.136045
Si Si2 0.730432 0.177386 0.082114
Si Si3 0.461251 0.050412 0.756442
Si Si4 0.898926 0.911128 0.036905
Si Si5 0.004309 0.143971 0.522239
Si Si6 0.447507 0.050593 0.388069
Si Si7 0.803551 0.284775 0.840920
Si Si8 0.872994 0.406434 0.672143
O O1 0.577336 0.640312 0.836997
O O2 0.608069 0.933336 0.083537
O O3 0.564088 0.645860 0.136407
O O4 0.787734 0.604438 0.482436
O O5 0.615481 0.018184 0.782617
O O6 0.652079 0.365948 0.835490
O O7 0.870972 0.099465 0.324245
O O8 0.781074 0.258968 0.360944
O O9 0.438500 0.151618 0.538316
O O10 0.339950 0.892796 0.475022
O O11 0.880711 0.727047 0.098556
O O12 0.970316 0.897976 0.038174
O O13 0.025235 0.025275 0.416407
O O14 0.775676 0.059854 0.773655
O O15 0.921653 0.321203 0.239850
O O16 0.875849 0.336666 0.849556
#
# Coordination Sequence:
#
# PCOD9115263 Si02
#       8
#     2   2   2   2   2   2   2   2
#     4  10  23  36  60  89 121 159 200 239 298 360
#     4  10  20  36  62  85 118 159 192 241 298 351
#     4  11  22  39  62  85 125 160 198 240 303 356
#     4   9  19  38  62  81 111 155 196 239 296 346
#     4   9  18  39  59  84 112 153 194 241 291 346
#     4  11  19  37  58  89 119 158 200 239 293 355
#     4   9  19  38  61  80 116 156 188 244 297 341
#     4   9  20  39  58  85 120 152 192 247 298 341
#
# _framework density 27.242317
#
# number of rings (size 3 to 8) (size 9 to 14) (size 15 to 20)
#    0.750    1.500    2.500    0.000    5.250    0.000 
#    6.750    1.250    2.750    0.000    0.000    0.000 
#    0.000    0.000    0.000    0.000    0.000    0.000 
#
# Total GULP energy -89083.806887 kJ/mol
# GULP energy per Si atom -5567.737930 kJ/mol
# Density = 2.718031 g / cm^3
# Si number density = 27.242317 Si / 1000 Ang^3
#
#
#
# Elastic Constant Matrix: (Units=GPa)
#
#
# Indices 1 2 3 4 5 6 
#
# 1 132.1450 31.9664 43.2237 0.0000 -37.3413 0.0000
# 2 31.9664 31.6722 7.8330 0.0000 11.4628 0.0000
# 3 43.2237 7.8330 82.9856 0.0000 -9.2157 0.0000
# 4 0.0000 0.0000 0.0000 85.8899 0.0000 -1.2642
# 5 -37.3413 11.4628 -9.2157 0.0000 49.2997 0.0000
# 6 0.0000 0.0000 0.0000 -1.2642 0.0000 26.4180
#
#
#
# Elastic Compliance Matrix: (Units=1/GPa)
#
#
# Indices 1 2 3 4 5 6 
#
# 1 0.024673 -0.032148 -0.007058 0.000000 0.024844 0.000000
# 2 -0.032148 0.077882 0.004777 0.000000 -0.041565 0.000000
# 3 -0.007058 0.004777 0.014867 0.000000 -0.003677 0.000000
# 4 0.000000 0.000000 0.000000 0.011651 0.000000 0.000558
# 5 0.024844 -0.041565 -0.003677 0.000000 0.048079 0.000000
# 6 0.000000 0.000000 0.000000 0.000558 0.000000 0.037880
#
#
# Mechanical properties :
#
#
# Convention : Reuss Voigt Hill
#
# Bulk Modulus (GPa) = 20.59092 45.87211 33.23151
# Shear Modulus (GPa) = 16.66243 43.24017 29.95130
#
# Velocity S-wave (km/s) = 2.47581 3.98834 3.31938
# Velocity P-wave (km/s) = 3.96834 6.17125 5.18806
#
# Compressibility (1/GPa) = 0.04856511
#
# Stress axis : x y z
#
# Youngs Moduli (GPa) = 40.53016 12.83996 67.26292
#
# Poissons Ratio (x) = 0.41278 0.47472
# Poissons Ratio (y) = 1.30297 -0.32134
# Poissons Ratio (z) = 0.28605 -0.06134
#
# Static dielectric constant tensor:
#      x y z
#    x 2.057400 0.000000 -0.093320 
#    y 0.000000 2.665080 0.000000 
#    z -0.093320 0.000000 2.027070 
# 
# From -- ./inp_files/10077.got.cif
#   From: 2010.05.17/outbox.cif.g08.bks.cpg/sg4_6_cif.got.tgz:10077.got - 2010.06.03 18:43:04.
