data_PCOD9115041
_publ_section_title
;
Structure prediction by ZEFSAII (Michael W. Deem and Ramdas Pophale) SiO2 
 PCOD9115041
Probable space group: P 21
;
_chemical_formula_sum "Si O2"
_cell_formula_units_Z 16
_cell_length_a 16.063551
_cell_length_b 7.464517
_cell_length_c 13.186606
_cell_angle_alpha 90.000000
_cell_angle_beta 23.595056
_cell_angle_gamma 90.000000
_cell_volume 632.891546
_symmetry_space_group_name_H-M "P 21"
_symmetry_group_IT_number 4
_symmetry_cell_setting 'monoclinic'
loop_
_space_group_symop_operation_xyz
x,y,z
-x,1/2+y,-z
loop_
_atom_site_type_symbol
_atom_site_label
_atom_site_fract_x
_atom_site_fract_y
_atom_site_fract_z
Si Si1 0.915041 0.536050 0.012118
Si Si2 0.474959 0.152797 0.106985
Si Si3 0.135345 0.074082 0.620425
Si Si4 0.190728 0.463638 0.866482
Si Si5 0.234879 0.941750 0.215997
Si Si6 0.290700 0.073818 0.954465
Si Si7 0.404028 0.861284 0.475578
Si Si8 0.845816 0.913839 0.766938
O O1 0.858172 0.749244 0.077641
O O2 0.870126 0.494592 0.946223
O O3 0.764700 0.408654 0.247901
O O4 0.145035 0.512315 0.800764
O O5 0.303360 0.206483 0.383729
O O6 0.330559 0.101559 0.173349
O O7 0.646749 0.277868 0.864643
O O8 0.626231 0.003543 0.987998
O O9 0.285640 0.924951 0.506233
O O10 0.985900 0.014395 0.695460
O O11 0.973381 0.093198 0.893087
O O12 0.403786 0.478021 0.691243
O O13 0.991877 0.917973 0.504714
O O14 0.325359 0.927236 0.001731
O O15 0.476753 0.176257 0.688138
O O16 0.186052 0.223786 0.143345
#
# Coordination Sequence:
#
# PCOD9115041 Si02
#       8
#     2   2   2   2   2   2   2   2
#     4  10  23  42  70 102 134 187 233 284 350 411
#     4  11  23  43  67 105 138 181 231 289 341 422
#     4  10  19  39  72  94 131 180 221 281 350 396
#     4  10  21  44  67  99 135 177 234 285 346 415
#     4  11  26  42  71 104 142 179 238 280 351 421
#     4  11  22  48  68 100 138 185 228 289 353 403
#     4  10  21  41  70  97 134 183 229 279 349 409
#     4  11  21  43  73  97 136 184 230 285 348 405
#
# _framework density 25.280792000000002
#
# number of rings (size 3 to 8) (size 9 to 14) (size 15 to 20)
#    0.000    1.500    3.750    1.500    1.750    5.000 
#   15.750    0.000    0.000    0.000    0.000    0.000 
#    0.000    0.000    0.000    0.000    0.000    0.000 
#
# Total GULP energy -89089.279530 kJ/mol
# GULP energy per Si atom -5568.079971 kJ/mol
# Density = 2.522325 g / cm^3
# Si number density = 25.280792 Si / 1000 Ang^3
#
#
#
# Elastic Constant Matrix: (Units=GPa)
#
#
# Indices 1 2 3 4 5 6 
#
# 1 145.3453 -4.0636 58.1371 0.0000 -13.8565 0.0000
# 2 -4.0636 23.4092 28.0872 0.0000 -1.5851 0.0000
# 3 58.1371 28.0872 150.4360 0.0000 -2.3189 0.0000
# 4 0.0000 0.0000 0.0000 39.1108 0.0000 0.9382
# 5 -13.8565 -1.5851 -2.3189 0.0000 35.3291 0.0000
# 6 0.0000 0.0000 0.0000 0.9382 0.0000 25.7422
#
#
#
# Elastic Compliance Matrix: (Units=1/GPa)
#
#
# Indices 1 2 3 4 5 6 
#
# 1 0.009512 0.008050 -0.005121 0.000000 0.003756 0.000000
# 2 0.008050 0.061977 -0.014605 0.000000 0.004979 0.000000
# 3 -0.005121 -0.014605 0.011324 0.000000 -0.001920 0.000000
# 4 0.000000 0.000000 0.000000 0.025591 0.000000 -0.000933
# 5 0.003756 0.004979 -0.001920 0.000000 0.029876 0.000000
# 6 0.000000 0.000000 0.000000 -0.000933 0.000000 0.038881
#
#
# Mechanical properties :
#
#
# Convention : Reuss Voigt Hill
#
# Bulk Modulus (GPa) = 16.81845 53.72352 35.27098
# Shear Modulus (GPa) = 22.69304 35.83842 29.26573
#
# Velocity S-wave (km/s) = 2.99931 3.76921 3.40608
# Velocity P-wave (km/s) = 4.31991 6.34346 5.42683
#
# Compressibility (1/GPa) = 0.05945852
#
# Stress axis : x y z
#
# Youngs Moduli (GPa) = 105.13536 16.13508 88.31090
#
# Poissons Ratio (x) = -0.12988 0.45222
# Poissons Ratio (y) = -0.84629 1.28982
# Poissons Ratio (z) = 0.53838 0.23566
#
# Static dielectric constant tensor:
#      x y z
#    x 2.065240 0.000000 0.059160 
#    y 0.000000 2.294370 0.000000 
#    z 0.059160 0.000000 1.971170 
# 
# From -- ./inp_files/14325.got.cif
#   From: 2010.05.17/outbox.cif.g08.bks.cpg/sg4_8_cif.got.tgz:14325.got - 2010.06.03 18:43:04.
