data_PCOD9115885
_publ_section_title
;
Structure prediction by ZEFSAII (Michael W. Deem and Ramdas Pophale) SiO2 
 PCOD9115885
Probable space group: P 21
;
_chemical_formula_sum "Si O2"
_cell_formula_units_Z 16
_cell_length_a 15.687897
_cell_length_b 8.176862
_cell_length_c 8.353458
_cell_angle_alpha 90.000000
_cell_angle_beta 34.047144
_cell_angle_gamma 90.000000
_cell_volume 599.941160
_symmetry_space_group_name_H-M "P 21"
_symmetry_group_IT_number 4
_symmetry_cell_setting 'monoclinic'
loop_
_space_group_symop_operation_xyz
x,y,z
-x,1/2+y,-z
loop_
_atom_site_type_symbol
_atom_site_label
_atom_site_fract_x
_atom_site_fract_y
_atom_site_fract_z
Si Si1 0.544222 0.733070 0.455209
Si Si2 0.983407 0.122378 0.374065
Si Si3 0.380214 0.027790 0.128830
Si Si4 0.804067 0.904159 0.873383
Si Si5 0.829354 0.348943 0.345423
Si Si6 0.719778 0.429154 0.062063
Si Si7 0.671933 0.848895 0.598601
Si Si8 0.097401 0.550733 0.941419
O O1 0.593070 0.552044 0.331964
O O2 0.365578 0.761540 0.761367
O O3 0.615543 0.772463 0.517933
O O4 0.636932 0.834946 0.173864
O O5 0.079254 0.251373 0.333556
O O6 0.919116 0.233699 0.332319
O O7 0.841872 0.032779 0.677188
O O8 0.116307 0.989610 0.132695
O O9 0.334563 0.901582 0.340211
O O10 0.339213 0.210087 0.248940
O O11 0.287087 0.963096 0.118570
O O12 0.556125 0.996734 0.817814
O O13 0.858019 0.985258 0.955134
O O14 0.841409 0.231678 0.177132
O O15 0.918710 0.520404 0.198430
O O16 0.830194 0.931377 0.306022
#
# Coordination Sequence:
#
# PCOD9115885 Si02
#       8
#     2   2   2   2   2   2   2   2
#     4   9  21  38  58  84 116 151 193 240 289 349
#     4  10  21  38  57  85 119 154 195 242 288 346
#     4  11  23  41  63  89 119 156 198 248 300 353
#     4   9  20  37  56  81 115 149 192 242 289 346
#     4  11  23  38  60  88 119 157 199 246 297 352
#     4  10  21  38  59  85 118 154 195 241 290 350
#     4  10  22  41  61  88 122 154 199 249 295 354
#     4  10  21  39  58  86 120 155 199 248 294 352
#
# _framework density 26.669283
#
# number of rings (size 3 to 8) (size 9 to 14) (size 15 to 20)
#    0.000    2.000    0.000    3.750    0.000    7.000 
#    0.000    3.750    0.000    0.000    0.000    0.000 
#    0.000    0.000    0.000    0.000    0.000    0.000 
#
# Total GULP energy -89560.247942 kJ/mol
# GULP energy per Si atom -5597.515496 kJ/mol
# Density = 2.660858 g / cm^3
# Si number density = 26.669283 Si / 1000 Ang^3
#
#
#
# Elastic Constant Matrix: (Units=GPa)
#
#
# Indices 1 2 3 4 5 6 
#
# 1 63.7196 -5.4409 11.4172 0.0000 -0.0741 0.0000
# 2 -5.4409 54.8357 26.4535 0.0000 11.3403 0.0000
# 3 11.4172 26.4535 87.1875 0.0000 -2.2058 0.0000
# 4 0.0000 0.0000 0.0000 75.4256 0.0000 5.1638
# 5 -0.0741 11.3403 -2.2058 0.0000 25.0276 0.0000
# 6 0.0000 0.0000 0.0000 5.1638 0.0000 30.0758
#
#
#
# Elastic Compliance Matrix: (Units=1/GPa)
#
#
# Indices 1 2 3 4 5 6 
#
# 1 0.016599 0.003644 -0.003327 0.000000 -0.001895 0.000000
# 2 0.003644 0.025170 -0.008421 0.000000 -0.012136 0.000000
# 3 -0.003327 -0.008421 0.014589 0.000000 0.005092 0.000000
# 4 0.000000 0.000000 0.000000 0.013416 0.000000 -0.002303
# 5 -0.001895 -0.012136 0.005092 0.000000 0.045898 0.000000
# 6 0.000000 0.000000 0.000000 -0.002303 0.000000 0.033645
#
#
# Mechanical properties :
#
#
# Convention : Reuss Voigt Hill
#
# Bulk Modulus (GPa) = 24.90688 30.06694 27.48691
# Shear Modulus (GPa) = 27.94723 37.65999 32.80361
#
# Velocity S-wave (km/s) = 3.24067 3.76188 3.51096
# Velocity P-wave (km/s) = 4.83343 5.49249 5.17347
#
# Compressibility (1/GPa) = 0.04014955
#
# Stress axis : x y z
#
# Youngs Moduli (GPa) = 60.24509 39.72954 68.54435
#
# Poissons Ratio (x) = -0.14477 0.22806
# Poissons Ratio (y) = -0.21953 0.57722
# Poissons Ratio (z) = 0.20045 0.33457
#
# Static dielectric constant tensor:
#      x y z
#    x 2.109880 0.000000 0.053720 
#    y 0.000000 2.127570 0.000000 
#    z 0.053720 0.000000 2.012470 
# 
# From -- ./inp_files/9205.got.cif
#   From: 2010.05.17/outbox.cif.g08.bks.cpg/sg4_5_cif.got.tgz:9205.got - 2010.06.03 18:43:04.
