data_PCOD9115824
_publ_section_title
;
Structure prediction by ZEFSAII (Michael W. Deem and Ramdas Pophale) SiO2 
 PCOD9115824
Probable space group: P 21
;
_chemical_formula_sum "Si O2"
_cell_formula_units_Z 12
_cell_length_a 14.036100
_cell_length_b 7.244136
_cell_length_c 6.888328
_cell_angle_alpha 90.000000
_cell_angle_beta 138.935100
_cell_angle_gamma 90.000000
_cell_volume 460.102976
_symmetry_space_group_name_H-M "P 21"
_symmetry_group_IT_number 4
_symmetry_cell_setting 'monoclinic'
loop_
_space_group_symop_operation_xyz
x,y,z
-x,1/2+y,-z
loop_
_atom_site_type_symbol
_atom_site_label
_atom_site_fract_x
_atom_site_fract_y
_atom_site_fract_z
Si Si1 0.157516 0.283610 0.328596
Si Si2 0.388790 0.044780 0.565949
Si Si3 0.697341 0.137592 0.557184
Si Si4 0.103049 0.148116 0.806810
Si Si5 0.394495 0.238857 0.147925
Si Si6 0.118505 0.722173 0.832577
O O1 0.312286 0.181620 0.597463
O O2 0.200871 0.498209 0.400734
O O3 0.020770 0.216892 0.239243
O O4 0.111642 0.228644 0.035885
O O5 0.397521 0.166566 0.380066
O O6 0.287264 0.859484 0.439237
O O7 0.540070 0.938448 0.804234
O O8 0.524528 0.106792 0.264151
O O9 0.752190 0.115446 0.864283
O O10 0.945969 0.160204 0.470024
O O11 0.223125 0.245211 0.855477
O O12 0.155008 0.937170 0.874439
#
# Coordination Sequence:
#
# PCOD9115824 Si02
#       6
#     2   2   2   2   2   2
#     4  11  22  42  66  95 134 166 214 268 324 382
#     4   9  19  35  62  93 123 167 212 257 316 379
#     4  10  21  36  66  92 125 173 209 267 319 377
#     4  11  23  42  63  96 132 168 218 262 322 383
#     4   9  17  37  61  89 130 161 216 261 306 384
#     4  12  24  42  64  99 132 171 215 267 323 385
#
# _framework density 26.081116999999999
#
# number of rings (size 3 to 8) (size 9 to 14) (size 15 to 20)
#    1.000    0.667    3.333    4.000    0.000    0.000 
#    3.000    1.667    0.000    4.000    0.000    0.000 
#    0.000    0.000    0.000    0.000    0.000    0.000 
#
# Total GULP energy -66835.181564 kJ/mol
# GULP energy per Si atom -5569.598464 kJ/mol
# Density = 2.602176 g / cm^3
# Si number density = 26.081117 Si / 1000 Ang^3
#
#
#
# Elastic Constant Matrix: (Units=GPa)
#
#
# Indices 1 2 3 4 5 6 
#
# 1 107.6500 21.1412 15.5193 0.0000 10.7906 0.0000
# 2 21.1412 90.6191 9.7230 0.0000 6.5617 0.0000
# 3 15.5193 9.7230 128.0532 0.0000 9.5424 0.0000
# 4 0.0000 0.0000 0.0000 32.8769 0.0000 24.9896
# 5 10.7906 6.5617 9.5424 0.0000 23.9834 0.0000
# 6 0.0000 0.0000 0.0000 24.9896 0.0000 32.4149
#
#
#
# Elastic Compliance Matrix: (Units=1/GPa)
#
#
# Indices 1 2 3 4 5 6 
#
# 1 0.010173 -0.002019 -0.000804 0.000000 -0.003705 0.000000
# 2 -0.002019 0.011711 -0.000488 0.000000 -0.002102 0.000000
# 3 -0.000804 -0.000488 0.008148 0.000000 -0.002747 0.000000
# 4 0.000000 0.000000 0.000000 0.073466 0.000000 -0.056637
# 5 -0.003705 -0.002102 -0.002747 0.000000 0.045030 0.000000
# 6 0.000000 0.000000 0.000000 -0.056637 0.000000 0.074513
#
#
# Mechanical properties :
#
#
# Convention : Reuss Voigt Hill
#
# Bulk Modulus (GPa) = 42.71391 46.56548 44.63970
# Shear Modulus (GPa) = 21.05560 36.51764 28.78662
#
# Velocity S-wave (km/s) = 2.84441 3.74593 3.32585
# Velocity P-wave (km/s) = 5.21540 6.04997 5.64812
#
# Compressibility (1/GPa) = 0.02341158
#
# Stress axis : x y z
#
# Youngs Moduli (GPa) = 98.29881 85.39189 122.72361
#
# Poissons Ratio (x) = 0.17239 0.09861
# Poissons Ratio (y) = 0.19845 0.05988
# Poissons Ratio (z) = 0.07899 0.04166
#
# Static dielectric constant tensor:
#      x y z
#    x 2.038050 0.000000 -0.034760 
#    y 0.000000 2.024020 0.000000 
#    z -0.034760 0.000000 2.176060 
# 
# From -- ./inp_files/9637.got.cif
#   From: 2010.05.17/outbox.cif.g08.bks.cpg/sg4_5_cif.got.tgz:9637.got - 2010.06.03 18:43:04.
