data_PCOD9115972
_publ_section_title
;
Structure prediction by ZEFSAII (Michael W. Deem and Ramdas Pophale) SiO2 
 PCOD9115972
Probable space group: P 21
;
_chemical_formula_sum "Si O2"
_cell_formula_units_Z 14
_cell_length_a 8.561483
_cell_length_b 11.286469
_cell_length_c 7.502775
_cell_angle_alpha 90.000000
_cell_angle_beta 54.181206
_cell_angle_gamma 90.000000
_cell_volume 587.869955
_symmetry_space_group_name_H-M "P 21"
_symmetry_group_IT_number 4
_symmetry_cell_setting 'monoclinic'
loop_
_space_group_symop_operation_xyz
x,y,z
-x,1/2+y,-z
loop_
_atom_site_type_symbol
_atom_site_label
_atom_site_fract_x
_atom_site_fract_y
_atom_site_fract_z
Si Si1 0.832450 0.702620 0.319858
Si Si2 0.906586 0.999280 0.749416
Si Si3 0.793890 0.318108 0.507282
Si Si4 0.877568 0.649738 0.872322
Si Si5 0.877461 0.948130 0.173728
Si Si6 0.536162 0.515179 0.491375
Si Si7 0.461357 0.614124 0.152176
O O1 0.826060 0.841172 0.339903
O O2 0.648254 0.627672 0.495001
O O3 0.005920 0.631027 0.290110
O O4 0.854836 0.694396 0.090479
O O5 0.687337 0.024339 0.843104
O O6 0.053598 0.920535 0.533387
O O7 0.925453 0.937428 0.931636
O O8 0.650565 0.395839 0.473247
O O9 0.650277 0.236501 0.721231
O O10 0.945655 0.220911 0.331034
O O11 0.950042 0.517160 0.851612
O O12 0.665797 0.650456 0.927179
O O13 0.679595 0.019481 0.296236
O O14 0.522813 0.543020 0.290486
#
# Coordination Sequence:
#
# PCOD9115972 Si02
#       7
#     2   2   2   2   2   2   2
#     4   9  20  39  64  93 130 175 229 265 326 413
#     4  10  24  43  67 103 136 173 225 284 344 392
#     4  11  22  45  69  92 138 178 222 280 329 413
#     4  10  21  40  64  92 128 180 222 273 326 402
#     4  11  20  40  70  96 135 183 227 273 326 411
#     4  10  21  38  71  94 129 180 230 267 334 409
#     4  11  24  45  63 106 138 167 231 284 339 394
#
# _framework density 23.814791
#
# number of rings (size 3 to 8) (size 9 to 14) (size 15 to 20)
#    0.000    1.714    2.857    2.571    0.000    1.143 
#    7.714    0.000    0.000    0.000    0.000    0.000 
#    0.000    0.000    0.000    0.000    0.000    0.000 
#
# Total GULP energy -78047.788779 kJ/mol
# GULP energy per Si atom -5574.842056 kJ/mol
# Density = 2.376059 g / cm^3
# Si number density = 23.814791 Si / 1000 Ang^3
#
#
#
# Elastic Constant Matrix: (Units=GPa)
#
#
# Indices 1 2 3 4 5 6 
#
# 1 127.2378 46.8615 36.1710 0.0000 -23.4171 0.0000
# 2 46.8615 101.7131 20.3698 0.0000 -8.6248 0.0000
# 3 36.1710 20.3698 78.3454 0.0000 -30.0848 0.0000
# 4 0.0000 0.0000 0.0000 28.6388 0.0000 -4.0597
# 5 -23.4171 -8.6248 -30.0848 0.0000 48.4578 0.0000
# 6 0.0000 0.0000 0.0000 -4.0597 0.0000 15.4230
#
#
#
# Elastic Compliance Matrix: (Units=1/GPa)
#
#
# Indices 1 2 3 4 5 6 
#
# 1 0.010674 -0.004125 -0.002832 0.000000 0.002666 0.000000
# 2 -0.004125 0.011967 -0.001516 0.000000 -0.000804 0.000000
# 3 -0.002832 -0.001516 0.018168 0.000000 0.009641 0.000000
# 4 0.000000 0.000000 0.000000 0.036271 0.000000 0.009547
# 5 0.002666 -0.000804 0.009641 0.000000 0.027767 0.000000
# 6 0.000000 0.000000 0.000000 0.009547 0.000000 0.067351
#
#
# Mechanical properties :
#
#
# Convention : Reuss Voigt Hill
#
# Bulk Modulus (GPa) = 41.90452 57.12232 49.51342
# Shear Modulus (GPa) = 25.36800 32.09685 28.73242
#
# Velocity S-wave (km/s) = 3.26731 3.67518 3.47723
# Velocity P-wave (km/s) = 5.64517 6.48440 6.07928
#
# Compressibility (1/GPa) = 0.02386377
#
# Stress axis : x y z
#
# Youngs Moduli (GPa) = 93.68484 83.56121 55.04233
#
# Poissons Ratio (x) = 0.34465 0.15588
# Poissons Ratio (y) = 0.38641 0.08345
# Poissons Ratio (z) = 0.26531 0.12669
#
# Static dielectric constant tensor:
#      x y z
#    x 1.954770 0.000000 0.032160 
#    y 0.000000 1.978910 0.000000 
#    z 0.032160 0.000000 1.974280 
# 
# From -- ./inp_files/6350.got.cif
#   From: 2010.05.17/outbox.cif.g08.bks.cpg/sg4_4_cif.got.tgz:6350.got - 2010.06.03 18:43:04.
