data_PCOD9115936
_publ_section_title
;
Structure prediction by ZEFSAII (Michael W. Deem and Ramdas Pophale) SiO2 
 PCOD9115936
Probable space group: P 21
;
_chemical_formula_sum "Si O2"
_cell_formula_units_Z 16
_cell_length_a 24.987180
_cell_length_b 5.081379
_cell_length_c 5.313715
_cell_angle_alpha 90.000000
_cell_angle_beta 119.039692
_cell_angle_gamma 90.000000
_cell_volume 589.860676
_symmetry_space_group_name_H-M "P 21"
_symmetry_group_IT_number 4
_symmetry_cell_setting 'monoclinic'
loop_
_space_group_symop_operation_xyz
x,y,z
-x,1/2+y,-z
loop_
_atom_site_type_symbol
_atom_site_label
_atom_site_fract_x
_atom_site_fract_y
_atom_site_fract_z
Si Si1 0.198766 0.234280 0.098114
Si Si2 0.573687 0.264315 0.086721
Si Si3 0.000837 0.793451 0.825679
Si Si4 0.900928 0.080087 0.330400
Si Si5 0.318708 0.134498 0.170278
Si Si6 0.551995 0.764542 0.356274
Si Si7 0.296906 0.633813 0.836567
Si Si8 0.174189 0.917830 0.522066
O O1 0.272987 0.232913 0.286483
O O2 0.169096 0.114984 0.279428
O O3 0.162614 0.498225 0.946050
O O4 0.187237 0.061780 0.818742
O O5 0.520093 0.215851 0.756374
O O6 0.642855 0.203944 0.178877
O O7 0.566790 0.562405 0.161813
O O8 0.558509 0.061295 0.275450
O O9 0.056528 0.734508 0.765363
O O10 0.940989 0.832756 0.513200
O O11 0.991337 0.560319 0.000794
O O12 0.882941 0.237161 0.540130
O O13 0.390941 0.196389 0.338622
O O14 0.295646 0.328097 0.897528
O O15 0.308539 0.825400 0.105861
O O16 0.232367 0.733268 0.589167
#
# Coordination Sequence:
#
# PCOD9115936 Si02
#       8
#     2   2   2   2   2   2   2   2
#     4  11  28  50  81 119 162 215 271 338 406 489
#     4  10  21  38  63  96 141 199 260 327 401 476
#     4  12  32  54  88 122 170 218 272 338 410 500
#     4  12  30  54  82 124 166 218 274 338 418 490
#     4  11  23  44  68 106 150 199 265 330 402 475
#     4  10  21  38  63  96 141 199 260 327 401 476
#     4  11  23  44  68 106 150 199 265 330 402 475
#     4  11  28  50  81 119 162 215 271 338 406 489
#
# _framework density 27.125049000000001
#
# number of rings (size 3 to 8) (size 9 to 14) (size 15 to 20)
#    0.000    1.000    1.250    3.000    8.750    3.000 
#    0.000    0.000    0.000    0.000    0.000    0.000 
#    0.000    0.000    0.000    0.000    0.000    0.000 
#
# Total GULP energy -89696.214138 kJ/mol
# GULP energy per Si atom -5606.013384 kJ/mol
# Density = 2.706331 g / cm^3
# Si number density = 27.125049 Si / 1000 Ang^3
#
#
#
# Elastic Constant Matrix: (Units=GPa)
#
#
# Indices 1 2 3 4 5 6 
#
# 1 163.2622 34.9151 33.3742 0.0000 -2.4127 0.0000
# 2 34.9151 78.3858 43.7854 0.0000 -4.6363 0.0000
# 3 33.3742 43.7854 100.3126 0.0000 -3.0635 0.0000
# 4 0.0000 0.0000 0.0000 48.8090 0.0000 4.0574
# 5 -2.4127 -4.6363 -3.0635 0.0000 45.5587 0.0000
# 6 0.0000 0.0000 0.0000 4.0574 0.0000 48.9166
#
#
#
# Elastic Compliance Matrix: (Units=1/GPa)
#
#
# Indices 1 2 3 4 5 6 
#
# 1 0.006888 -0.002362 -0.001259 0.000000 0.000040 0.000000
# 2 -0.002362 0.017749 -0.006924 0.000000 0.001216 0.000000
# 3 -0.001259 -0.006924 0.013414 0.000000 0.000131 0.000000
# 4 0.000000 0.000000 0.000000 0.020630 0.000000 -0.001711
# 5 0.000040 0.001216 0.000131 0.000000 0.022084 0.000000
# 6 0.000000 0.000000 0.000000 -0.001711 0.000000 0.020585
#
#
# Mechanical properties :
#
#
# Convention : Reuss Voigt Hill
#
# Bulk Modulus (GPa) = 58.96319 62.90112 60.93216
# Shear Modulus (GPa) = 39.03287 43.98258 41.50772
#
# Velocity S-wave (km/s) = 3.79753 4.03112 3.91607
# Velocity P-wave (km/s) = 6.40414 6.70121 6.55436
#
# Compressibility (1/GPa) = 0.01695973
#
# Stress axis : x y z
#
# Youngs Moduli (GPa) = 145.17206 56.33967 74.54768
#
# Poissons Ratio (x) = 0.13310 0.09388
# Poissons Ratio (y) = 0.34296 0.51619
# Poissons Ratio (z) = 0.18283 0.39012
#
# Static dielectric constant tensor:
#      x y z
#    x 2.121330 0.000000 0.061840 
#    y 0.000000 2.063210 0.000000 
#    z 0.061840 0.000000 2.228680 
# 
# From -- ./inp_files/4406.got.cif
#   From: 2010.05.17/outbox.cif.g08.bks.cpg/sg4_3_cif.got.tgz:4406.got - 2010.06.03 18:43:04.
