data_PCOD9115395
_publ_section_title
;
Structure prediction by ZEFSAII (Michael W. Deem and Ramdas Pophale) SiO2 
 PCOD9115395
Probable space group: P 21
;
_chemical_formula_sum "Si O2"
_cell_formula_units_Z 16
_cell_length_a 9.648642
_cell_length_b 14.485714
_cell_length_c 9.648610
_cell_angle_alpha 90.000000
_cell_angle_beta 149.871859
_cell_angle_gamma 90.000000
_cell_volume 676.891171
_symmetry_space_group_name_H-M "P 21"
_symmetry_group_IT_number 4
_symmetry_cell_setting 'monoclinic'
loop_
_space_group_symop_operation_xyz
x,y,z
-x,1/2+y,-z
loop_
_atom_site_type_symbol
_atom_site_label
_atom_site_fract_x
_atom_site_fract_y
_atom_site_fract_z
Si Si1 0.383090 0.226810 0.610078
Si Si2 0.487711 0.902117 0.978594
Si Si3 0.534652 0.098365 0.507834
Si Si4 0.072043 0.901840 0.396288
Si Si5 0.992183 0.481643 0.965371
Si Si6 0.110005 0.853206 0.882996
Si Si7 0.478665 0.177871 0.987759
Si Si8 0.103642 0.678135 0.427908
O O1 0.368420 0.173367 0.453645
O O2 0.110426 0.290007 0.389668
O O3 0.426385 0.161023 0.780702
O O4 0.655632 0.290007 0.844464
O O5 0.506124 0.789994 0.993817
O O6 0.343084 0.933234 0.712146
O O7 0.280653 0.918979 0.926306
O O8 0.803457 0.931636 0.252419
O O9 0.710873 0.140473 0.535461
O O10 0.304442 0.026875 0.258580
O O11 0.758573 0.053139 0.804459
O O12 0.091929 0.789988 0.408009
O O13 0.035425 0.939499 0.210812
O O14 0.046397 0.406667 0.131660
O O15 0.752489 0.148349 0.303501
O O16 0.212218 0.146746 0.843124
#
# Coordination Sequence:
#
# PCOD9115395 Si02
#       8
#     2   2   2   2   2   2   2   2
#     4  11  22  41  66  91 118 158 204 251 302 360
#     4   9  18  35  62  92 115 143 200 259 296 343
#     4  12  26  42  58  89 130 165 200 247 300 360
#     4  10  20  38  63  88 116 156 202 247 295 355
#     4  12  26  42  58  89 130 165 200 247 300 360
#     4  11  22  41  66  91 118 158 204 251 302 360
#     4   9  18  35  62  92 115 143 200 259 296 343
#     4  10  20  38  63  88 116 156 202 247 295 355
#
# _framework density 23.63748
#
# number of rings (size 3 to 8) (size 9 to 14) (size 15 to 20)
#    0.000    1.500    0.000    7.500    0.000    3.000 
#    0.000    7.500    0.000    0.000    0.000    0.000 
#    0.000    0.000    0.000    0.000    0.000    0.000 
#
# Total GULP energy -89502.984103 kJ/mol
# GULP energy per Si atom -5593.936506 kJ/mol
# Density = 2.358368 g / cm^3
# Si number density = 23.637480 Si / 1000 Ang^3
#
#
#
# Elastic Constant Matrix: (Units=GPa)
#
#
# Indices 1 2 3 4 5 6 
#
# 1 94.3544 12.4898 -3.5804 0.0000 -7.1123 0.0000
# 2 12.4898 53.1053 10.0244 0.0000 -0.7101 0.0000
# 3 -3.5804 10.0244 99.2183 0.0000 8.5232 0.0000
# 4 0.0000 0.0000 0.0000 16.4448 0.0000 20.6177
# 5 -7.1123 -0.7101 8.5232 0.0000 41.1472 0.0000
# 6 0.0000 0.0000 0.0000 20.6177 0.0000 -54.8778
#
#
#
# Elastic Compliance Matrix: (Units=1/GPa)
#
#
# Indices 1 2 3 4 5 6 
#
# 1 0.011107 -0.002687 0.000521 0.000000 0.001766 0.000000
# 2 -0.002687 0.019869 -0.002132 0.000000 0.000320 0.000000
# 3 0.000521 -0.002132 0.010495 0.000000 -0.002121 0.000000
# 4 0.000000 0.000000 0.000000 0.041338 0.000000 0.015531
# 5 0.001766 0.000320 -0.002121 0.000000 0.025053 0.000000
# 6 0.000000 0.000000 0.000000 0.015531 0.000000 -0.012387
#
#
# Mechanical properties :
#
#
# Convention : Reuss Voigt Hill
#
# Bulk Modulus (GPa) = 30.41848 31.61619 31.01734
# Shear Modulus (GPa) = 43.46719 15.72577 29.59648
#
# Velocity S-wave (km/s) = 4.29290 2.58212 3.54234
# Velocity P-wave (km/s) = 6.12117 4.72168 5.46640
#
# Compressibility (1/GPa) = 0.03287475
#
# Stress axis : x y z
#
# Youngs Moduli (GPa) = 90.03452 50.32931 95.28212
#
# Poissons Ratio (x) = 0.13523 -0.04960
# Poissons Ratio (y) = 0.24191 0.20313
# Poissons Ratio (z) = -0.04687 0.10730
#
# Static dielectric constant tensor:
#      x y z
#    x 1.884120 0.000000 0.014970 
#    y 0.000000 2.039310 0.000000 
#    z 0.014970 0.000000 1.935900 
# 
# From -- ./inp_files/6906.got.cif
#   From: 2010.05.17/outbox.cif.g08.bks.cpg/sg4_4_cif.got.tgz:6906.got - 2010.06.03 18:43:04.
