data_PCOD9115001
_publ_section_title
;
Structure prediction by ZEFSAII (Michael W. Deem and Ramdas Pophale) SiO2 
 PCOD9115001
Probable space group: P 21
;
_chemical_formula_sum "Si O2"
_cell_formula_units_Z 14
_cell_length_a 7.503907
_cell_length_b 7.300730
_cell_length_c 11.621282
_cell_angle_alpha 90.000000
_cell_angle_beta 126.951346
_cell_angle_gamma 90.000000
_cell_volume 508.784703
_symmetry_space_group_name_H-M "P 21"
_symmetry_group_IT_number 4
_symmetry_cell_setting 'monoclinic'
loop_
_space_group_symop_operation_xyz
x,y,z
-x,1/2+y,-z
loop_
_atom_site_type_symbol
_atom_site_label
_atom_site_fract_x
_atom_site_fract_y
_atom_site_fract_z
Si Si1 0.947119 0.189890 0.616393
Si Si2 0.534332 0.703010 0.262127
Si Si3 0.240068 0.668176 0.690723
Si Si4 0.606157 0.988417 0.010496
Si Si5 0.678380 0.604472 0.794574
Si Si6 0.216524 0.111100 0.427132
Si Si7 0.145700 0.101994 0.909458
O O1 0.209912 0.190521 0.685646
O O2 0.942211 0.105280 0.742578
O O3 0.814625 0.096091 0.460824
O O4 0.865471 0.400782 0.588270
O O5 0.394359 0.604133 0.107279
O O6 0.442112 0.908047 0.237953
O O7 0.573574 0.636248 0.407986
O O8 0.485301 0.748471 0.759099
O O9 0.991915 0.742100 0.618904
O O10 0.290355 0.577183 0.833799
O O11 0.342435 0.967489 0.941298
O O12 0.740719 0.801569 0.055967
O O13 0.739242 0.640201 0.688828
O O14 0.879868 0.587065 0.963594
#
# Coordination Sequence:
#
# PCOD9115001 Si02
#       7
#     2   2   2   2   2   2   2
#     4  10  20  41  65  91 128 171 209 270 321 373
#     4  10  23  41  64 100 130 167 226 262 329 392
#     4  10  21  41  64  90 127 166 218 262 317 384
#     4  10  19  38  66  95 128 174 213 268 322 385
#     4  11  24  43  64  95 130 173 214 269 326 392
#     4  11  23  41  66  92 132 170 215 273 319 388
#     4  10  20  39  65  95 135 167 223 266 322 392
#
# _framework density 27.516552999999998
#
# number of rings (size 3 to 8) (size 9 to 14) (size 15 to 20)
#    0.000    1.714    2.857    2.571    6.000    0.000 
#    5.143    0.000    0.000    0.000    0.000    0.000 
#    0.000    0.000    0.000    0.000    0.000    0.000 
#
# Total GULP energy -78194.628147 kJ/mol
# GULP energy per Si atom -5585.330582 kJ/mol
# Density = 2.745392 g / cm^3
# Si number density = 27.516553 Si / 1000 Ang^3
#
#
#
# Elastic Constant Matrix: (Units=GPa)
#
#
# Indices 1 2 3 4 5 6 
#
# 1 111.3217 7.4368 49.7067 0.0000 -12.8917 0.0000
# 2 7.4368 86.3618 50.6217 0.0000 -3.4730 0.0000
# 3 49.7067 50.6217 296.5258 0.0000 -38.9715 0.0000
# 4 0.0000 0.0000 0.0000 46.2693 0.0000 4.8384
# 5 -12.8917 -3.4730 -38.9715 0.0000 56.1306 0.0000
# 6 0.0000 0.0000 0.0000 4.8384 0.0000 8.3578
#
#
#
# Elastic Compliance Matrix: (Units=1/GPa)
#
#
# Indices 1 2 3 4 5 6 
#
# 1 0.009786 0.000082 -0.001495 0.000000 0.001215 0.000000
# 2 0.000082 0.012900 -0.002320 0.000000 -0.000794 0.000000
# 3 -0.001495 -0.002320 0.004352 0.000000 0.002535 0.000000
# 4 0.000000 0.000000 0.000000 0.023005 0.000000 -0.013318
# 5 0.001215 -0.000794 0.002535 0.000000 0.019805 0.000000
# 6 0.000000 0.000000 0.000000 -0.013318 0.000000 0.127358
#
#
# Mechanical properties :
#
#
# Convention : Reuss Voigt Hill
#
# Bulk Modulus (GPa) = 51.09228 78.85999 64.97614
# Shear Modulus (GPa) = 23.67459 47.91447 35.79453
#
# Velocity S-wave (km/s) = 2.93640 4.17741 3.61062
# Velocity P-wave (km/s) = 5.48678 7.21034 6.40678
#
# Compressibility (1/GPa) = 0.01957243
#
# Stress axis : x y z
#
# Youngs Moduli (GPa) = 102.19118 77.51746 229.76628
#
# Poissons Ratio (x) = -0.00638 0.34345
# Poissons Ratio (y) = -0.00842 0.53316
# Poissons Ratio (z) = 0.15275 0.17988
#
# Static dielectric constant tensor:
#      x y z
#    x 2.203190 0.000000 -0.028360 
#    y 0.000000 2.311230 0.000000 
#    z -0.028360 0.000000 2.158930 
# 
# From -- ./inp_files/11079.got.cif
#   From: 2010.05.17/outbox.cif.g08.bks.cpg/sg4_6_cif.got.tgz:11079.got - 2010.06.03 18:43:04.
