data_PCOD9115021
_publ_section_title
;
Structure prediction by ZEFSAII (Michael W. Deem and Ramdas Pophale) SiO2 
 PCOD9115021
Probable space group: P 21
;
_chemical_formula_sum "Si O2"
_cell_formula_units_Z 16
_cell_length_a 14.961288
_cell_length_b 7.585023
_cell_length_c 8.975992
_cell_angle_alpha 90.000000
_cell_angle_beta 139.714675
_cell_angle_gamma 90.000000
_cell_volume 658.628157
_symmetry_space_group_name_H-M "P 21"
_symmetry_group_IT_number 4
_symmetry_cell_setting 'monoclinic'
loop_
_space_group_symop_operation_xyz
x,y,z
-x,1/2+y,-z
loop_
_atom_site_type_symbol
_atom_site_label
_atom_site_fract_x
_atom_site_fract_y
_atom_site_fract_z
Si Si1 0.878209 0.407760 0.859380
Si Si2 0.194498 0.301997 0.787273
Si Si3 0.245108 0.093925 0.553268
Si Si4 0.517367 0.924421 0.872726
Si Si5 0.554951 0.014412 0.265389
Si Si6 0.138684 0.547724 0.344946
Si Si7 0.273814 0.933356 0.045431
Si Si8 0.123724 0.785268 0.591618
O O1 0.856377 0.566064 0.714019
O O2 0.881134 0.231024 0.768278
O O3 0.753185 0.406601 0.816446
O O4 0.012410 0.432178 0.130794
O O5 0.213022 0.238918 0.637817
O O6 0.035171 0.349923 0.613490
O O7 0.325400 0.427832 0.988128
O O8 0.219593 0.125218 0.919342
O O9 0.401018 0.070422 0.689328
O O10 0.219939 0.918861 0.622070
O O11 0.463708 0.727819 0.764458
O O12 0.531071 0.947446 0.067709
O O13 0.711729 0.973993 0.508247
O O14 0.434940 0.933028 0.211966
O O15 0.133299 0.604351 0.511787
O O16 0.185169 0.794884 0.834680
#
# Coordination Sequence:
#
# PCOD9115021 Si02
#       8
#     2   2   2   2   2   2   2   2
#     4  11  24  42  62  92 133 172 199 264 322 382
#     4  10  21  35  66  95 121 162 217 264 310 372
#     4  10  21  40  59  89 131 163 208 262 319 379
#     4  11  19  38  65  91 126 160 214 264 310 366
#     4  11  21  41  65  93 124 168 212 263 312 377
#     4  11  24  42  66  90 132 170 211 258 322 383
#     4  10  21  39  63  90 126 163 210 263 312 372
#     4  10  19  39  62  94 121 160 213 270 301 367
#
# _framework density 24.292919000000001
#
# number of rings (size 3 to 8) (size 9 to 14) (size 15 to 20)
#    0.000    1.500    7.500    0.000    3.500    0.000 
#    0.000    5.000    0.000    0.000    0.000    0.000 
#    0.000    0.000    0.000    0.000    0.000    0.000 
#
# Total GULP energy -89506.691974 kJ/mol
# GULP energy per Si atom -5594.168248 kJ/mol
# Density = 2.423763 g / cm^3
# Si number density = 24.292919 Si / 1000 Ang^3
#
#
#
# Elastic Constant Matrix: (Units=GPa)
#
#
# Indices 1 2 3 4 5 6 
#
# 1 88.8105 25.9186 21.5176 0.0000 25.2601 0.0000
# 2 25.9186 67.6531 8.5893 0.0000 4.8832 0.0000
# 3 21.5176 8.5893 80.9951 0.0000 25.9797 0.0000
# 4 0.0000 0.0000 0.0000 35.6544 0.0000 8.7337
# 5 25.2601 4.8832 25.9797 0.0000 61.1627 0.0000
# 6 0.0000 0.0000 0.0000 8.7337 0.0000 19.5188
#
#
#
# Elastic Compliance Matrix: (Units=1/GPa)
#
#
# Indices 1 2 3 4 5 6 
#
# 1 0.014524 -0.004989 -0.001775 0.000000 -0.004846 0.000000
# 2 -0.004989 0.016716 -0.000787 0.000000 0.001060 0.000000
# 3 -0.001775 -0.000787 0.014641 0.000000 -0.005423 0.000000
# 4 0.000000 0.000000 0.000000 0.031500 0.000000 -0.014094
# 5 -0.004846 0.001060 -0.005423 0.000000 0.020570 0.000000
# 6 0.000000 0.000000 0.000000 -0.014094 0.000000 0.057539
#
#
# Mechanical properties :
#
#
# Convention : Reuss Voigt Hill
#
# Bulk Modulus (GPa) = 32.49062 38.83442 35.66252
# Shear Modulus (GPa) = 27.64671 35.36274 31.50473
#
# Velocity S-wave (km/s) = 3.37717 3.81948 3.60511
# Velocity P-wave (km/s) = 5.34889 5.95582 5.66049
#
# Compressibility (1/GPa) = 0.03077811
#
# Stress axis : x y z
#
# Youngs Moduli (GPa) = 68.84919 59.82236 68.30156
#
# Poissons Ratio (x) = 0.29847 0.12124
# Poissons Ratio (y) = 0.34351 0.05378
# Poissons Ratio (z) = 0.12221 0.04710
#
# Static dielectric constant tensor:
#      x y z
#    x 1.887710 0.000000 0.030790 
#    y 0.000000 2.043950 0.000000 
#    z 0.030790 0.000000 1.920620 
# 
# From -- ./inp_files/9203.got.cif
#   From: 2010.05.17/outbox.cif.g08.bks.cpg/sg4_5_cif.got.tgz:9203.got - 2010.06.03 18:43:04.
