data_PCOD9115776
_publ_section_title
;
Structure prediction by ZEFSAII (Michael W. Deem and Ramdas Pophale) SiO2 
 PCOD9115776
Probable space group: P 21
;
_chemical_formula_sum "Si O2"
_cell_formula_units_Z 12
_cell_length_a 8.056910
_cell_length_b 6.996762
_cell_length_c 12.120700
_cell_angle_alpha 90.000000
_cell_angle_beta 37.938040
_cell_angle_gamma 90.000000
_cell_volume 420.081447
_symmetry_space_group_name_H-M "P 21"
_symmetry_group_IT_number 4
_symmetry_cell_setting 'monoclinic'
loop_
_space_group_symop_operation_xyz
x,y,z
-x,1/2+y,-z
loop_
_atom_site_type_symbol
_atom_site_label
_atom_site_fract_x
_atom_site_fract_y
_atom_site_fract_z
Si Si1 0.636132 0.430430 0.570624
Si Si2 0.759217 0.005984 0.552870
Si Si3 0.180179 0.923620 0.755322
Si Si4 0.066615 0.471258 0.770718
Si Si5 0.494147 0.553997 0.106716
Si Si6 0.605339 0.996080 0.094318
O O1 0.777581 0.234135 0.528505
O O2 0.329733 0.380303 0.689135
O O3 0.776377 0.514026 0.389107
O O4 0.588625 0.558150 0.704040
O O5 0.942698 0.929688 0.356609
O O6 0.457779 0.948930 0.672684
O O7 0.747077 0.975522 0.690695
O O8 0.124852 0.699101 0.759410
O O9 0.924017 0.014816 0.949647
O O10 0.771669 0.434554 0.973944
O O11 0.444837 0.565930 0.002547
O O12 0.556526 0.767696 0.113646
#
# Coordination Sequence:
#
# PCOD9115776 Si02
#       6
#     2   2   2   2   2   2
#     4   9  18  33  52  73  96 123 158 199 239 280
#     4   9  18  33  52  73  96 123 158 199 239 280
#     4   9  18  33  52  73  96 123 158 199 239 280
#     4   9  18  33  52  73  96 123 158 199 239 280
#     4  10  21  34  48  70 100 130 159 194 236 282
#     4  10  21  34  48  70 100 130 159 194 236 282
#
# _framework density 28.565891000000001
#
# number of rings (size 3 to 8) (size 9 to 14) (size 15 to 20)
#    0.000    2.667    0.000    1.000    0.000    4.000 
#    0.000    0.000    0.000    0.000    0.000    0.000 
#    0.000    0.000    0.000    0.000    0.000    0.000 
#
# Total GULP energy -67223.456554 kJ/mol
# GULP energy per Si atom -5601.954713 kJ/mol
# Density = 2.850087 g / cm^3
# Si number density = 28.565891 Si / 1000 Ang^3
#
#
#
# Elastic Constant Matrix: (Units=GPa)
#
#
# Indices 1 2 3 4 5 6 
#
# 1 93.3406 13.8874 21.1698 0.0000 18.1835 0.0000
# 2 13.8874 104.9849 21.5082 0.0000 -6.6449 0.0000
# 3 21.1698 21.5082 169.1498 0.0000 41.2230 0.0000
# 4 0.0000 0.0000 0.0000 18.5353 0.0000 -1.1449
# 5 18.1835 -6.6449 41.2230 0.0000 60.1880 0.0000
# 6 0.0000 0.0000 0.0000 -1.1449 0.0000 34.6767
#
#
#
# Elastic Compliance Matrix: (Units=1/GPa)
#
#
# Indices 1 2 3 4 5 6 
#
# 1 0.011729 -0.001685 -0.000414 0.000000 -0.003446 0.000000
# 2 -0.001685 0.010299 -0.001800 0.000000 0.002879 0.000000
# 3 -0.000414 -0.001800 0.007455 0.000000 -0.005180 0.000000
# 4 0.000000 0.000000 0.000000 0.054061 0.000000 0.001785
# 5 -0.003446 0.002879 -0.005180 0.000000 0.021521 0.000000
# 6 0.000000 0.000000 0.000000 0.001785 0.000000 0.028897
#
#
# Mechanical properties :
#
#
# Convention : Reuss Voigt Hill
#
# Bulk Modulus (GPa) = 46.11458 53.40068 49.75763
# Shear Modulus (GPa) = 33.55946 43.40734 38.48340
#
# Velocity S-wave (km/s) = 3.43127 3.90237 3.67438
# Velocity P-wave (km/s) = 5.64592 6.24813 5.95464
#
# Compressibility (1/GPa) = 0.02168512
#
# Stress axis : x y z
#
# Youngs Moduli (GPa) = 85.25634 97.09562 134.13882
#
# Poissons Ratio (x) = 0.16359 0.05552
# Poissons Ratio (y) = 0.14365 0.24150
# Poissons Ratio (z) = 0.03529 0.17481
#
# Static dielectric constant tensor:
#      x y z
#    x 2.232060 0.000000 0.047140 
#    y 0.000000 2.177480 0.000000 
#    z 0.047140 0.000000 2.195820 
# 
# From -- ./inp_files/11184.got.cif
#   From: 2010.05.17/outbox.cif.g08.bks.cpg/sg4_6_cif.got.tgz:11184.got - 2010.06.03 18:43:04.
