data_PCOD9115595
_publ_section_title
;
Structure prediction by ZEFSAII (Michael W. Deem and Ramdas Pophale) SiO2 
 PCOD9115595
Probable space group: P 21
;
_chemical_formula_sum "Si O2"
_cell_formula_units_Z 14
_cell_length_a 7.514098
_cell_length_b 9.192149
_cell_length_c 9.851330
_cell_angle_alpha 90.000000
_cell_angle_beta 69.732163
_cell_angle_gamma 90.000000
_cell_volume 638.308008
_symmetry_space_group_name_H-M "P 21"
_symmetry_group_IT_number 4
_symmetry_cell_setting 'monoclinic'
loop_
_space_group_symop_operation_xyz
x,y,z
-x,1/2+y,-z
loop_
_atom_site_type_symbol
_atom_site_label
_atom_site_fract_x
_atom_site_fract_y
_atom_site_fract_z
Si Si1 0.516300 0.940680 0.114631
Si Si2 0.736473 0.970948 0.330140
Si Si3 0.000068 0.735769 0.396768
Si Si4 0.279500 0.190699 0.304289
Si Si5 0.104261 0.792645 0.657595
Si Si6 0.544224 0.439308 0.345856
Si Si7 0.640088 0.123690 0.829106
O O1 0.429776 0.783259 0.109454
O O2 0.663892 0.936068 0.199785
O O3 0.352122 0.050686 0.208452
O O4 0.607142 0.013000 0.959123
O O5 0.814649 0.134261 0.323287
O O6 0.562060 0.956009 0.482263
O O7 0.897534 0.859120 0.337162
O O8 0.121443 0.804477 0.489203
O O9 0.142727 0.636345 0.276475
O O10 0.878518 0.781196 0.738134
O O11 0.449716 0.296886 0.300957
O O12 0.164264 0.155399 0.473412
O O13 0.233815 0.911035 0.695193
O O14 0.484793 0.571935 0.266299
#
# Coordination Sequence:
#
# PCOD9115595 Si02
#       7
#     2   2   2   2   2   2   2
#     4  12  26  45  73 102 150 195 242 294 376 424
#     4  11  22  42  72 111 141 188 242 300 362 433
#     4   9  22  43  72 112 142 181 245 304 362 422
#     4   9  21  43  74 107 140 174 236 309 354 432
#     4  10  20  40  74 107 140 176 240 304 355 423
#     4  11  21  42  72 110 138 183 241 296 367 429
#     4  12  26  47  69 101 147 203 236 301 366 437
#
# _framework density 21.932984999999999
#
# number of rings (size 3 to 8) (size 9 to 14) (size 15 to 20)
#    0.857    0.571    2.857    2.571    0.000    0.000 
#    5.143    4.286    3.143    0.000    0.000    0.000 
#    0.000    0.000    0.000    0.000    0.000    0.000 
#
# Total GULP energy -78302.818786 kJ/mol
# GULP energy per Si atom -5593.058485 kJ/mol
# Density = 2.188306 g / cm^3
# Si number density = 21.932985 Si / 1000 Ang^3
#
#
#
# Elastic Constant Matrix: (Units=GPa)
#
#
# Indices 1 2 3 4 5 6 
#
# 1 122.5333 34.2537 37.4014 0.0000 -3.6463 0.0000
# 2 34.2537 89.7124 39.5919 0.0000 -18.8242 0.0000
# 3 37.4014 39.5919 85.2212 0.0000 -7.2096 0.0000
# 4 0.0000 0.0000 0.0000 21.6144 0.0000 6.7738
# 5 -3.6463 -18.8242 -7.2096 0.0000 20.8017 0.0000
# 6 0.0000 0.0000 0.0000 6.7738 0.0000 42.6478
#
#
#
# Elastic Compliance Matrix: (Units=1/GPa)
#
#
# Indices 1 2 3 4 5 6 
#
# 1 0.009850 -0.002735 -0.003210 0.000000 -0.001861 0.000000
# 2 -0.002735 0.017578 -0.005832 0.000000 0.013406 0.000000
# 3 -0.003210 -0.005832 0.015822 0.000000 -0.000356 0.000000
# 4 0.000000 0.000000 0.000000 0.048689 0.000000 -0.007733
# 5 -0.001861 0.013406 -0.000356 0.000000 0.059755 0.000000
# 6 0.000000 0.000000 0.000000 -0.007733 0.000000 0.024676
#
#
# Mechanical properties :
#
#
# Convention : Reuss Voigt Hill
#
# Bulk Modulus (GPa) = 50.76953 57.77343 54.27148
# Shear Modulus (GPa) = 24.21450 29.42744 26.82097
#
# Velocity S-wave (km/s) = 3.32629 3.66689 3.50074
# Velocity P-wave (km/s) = 6.16036 6.65779 6.41390
#
# Compressibility (1/GPa) = 0.01969685
#
# Stress axis : x y z
#
# Youngs Moduli (GPa) = 101.52386 56.89071 63.20297
#
# Poissons Ratio (x) = 0.15558 0.20287
# Poissons Ratio (y) = 0.27764 0.36859
# Poissons Ratio (z) = 0.32587 0.33178
#
# Static dielectric constant tensor:
#      x y z
#    x 1.798570 0.000000 0.002050 
#    y 0.000000 1.814340 0.000000 
#    z 0.002050 0.000000 1.786220 
# 
# From -- ./inp_files/5476.got.cif
#   From: 2010.05.17/outbox.cif.g08.bks.cpg/sg4_3_cif.got.tgz:5476.got - 2010.06.03 18:43:04.
