data_PCOD9115119
_publ_section_title
;
Structure prediction by ZEFSAII (Michael W. Deem and Ramdas Pophale) SiO2 
 PCOD9115119
Probable space group: P 21
;
_chemical_formula_sum "Si O2"
_cell_formula_units_Z 14
_cell_length_a 12.880786
_cell_length_b 4.979696
_cell_length_c 17.166829
_cell_angle_alpha 90.000000
_cell_angle_beta 151.731111
_cell_angle_gamma 90.000000
_cell_volume 521.502249
_symmetry_space_group_name_H-M "P 21"
_symmetry_group_IT_number 4
_symmetry_cell_setting 'monoclinic'
loop_
_space_group_symop_operation_xyz
x,y,z
-x,1/2+y,-z
loop_
_atom_site_type_symbol
_atom_site_label
_atom_site_fract_x
_atom_site_fract_y
_atom_site_fract_z
Si Si1 0.830814 0.682030 0.683047
Si Si2 0.783208 0.210923 0.557500
Si Si3 0.607944 0.597647 0.881349
Si Si4 0.649847 0.584688 0.327869
Si Si5 0.695989 0.225392 0.073249
Si Si6 0.803481 0.534924 0.270703
Si Si7 0.988753 0.870080 0.943982
O O1 0.744006 0.387026 0.609377
O O2 0.088980 0.628429 0.831461
O O3 0.822990 0.779335 0.766786
O O4 0.743297 0.910251 0.565316
O O5 0.677296 0.418836 0.424938
O O6 0.012651 0.165918 0.662072
O O7 0.543919 0.904831 0.837094
O O8 0.420568 0.396570 0.721644
O O9 0.662222 0.506619 0.004077
O O10 0.817169 0.532293 0.969009
O O11 0.837136 0.553423 0.385316
O O12 0.785779 0.239314 0.221170
O O13 0.445518 0.130866 0.909149
O O14 0.088298 0.598546 0.047007
#
# Coordination Sequence:
#
# PCOD9115119 Si02
#       7
#     2   2   2   2   2   2   2
#     4  10  22  39  60  86 118 155 191 244 317 363
#     4  11  23  38  57  82 122 168 206 240 282 349
#     4  10  22  39  60  86 118 155 191 244 317 363
#     4  11  23  38  57  82 122 168 206 240 282 349
#     4   9  18  32  53  80 114 148 189 246 300 339
#     4  10  20  32  56  84 116 158 210 252 282 330
#     4  11  22  40  71 100 118 140 191 260 318 379
#
# _framework density 26.845521999999999
#
# number of rings (size 3 to 8) (size 9 to 14) (size 15 to 20)
#    0.000    1.714    0.000    4.286    0.000   16.000 
#    0.000    0.000    0.000   17.143    0.000    0.000 
#    0.000    0.000    0.000    0.000    0.000    0.000 
#
# Total GULP energy -78045.115358 kJ/mol
# GULP energy per Si atom -5574.651097 kJ/mol
# Density = 2.678442 g / cm^3
# Si number density = 26.845522 Si / 1000 Ang^3
#
#
#
# Elastic Constant Matrix: (Units=GPa)
#
#
# Indices 1 2 3 4 5 6 
#
# 1 53.4953 16.9388 -4.4840 0.0000 -17.6120 0.0000
# 2 16.9388 129.6434 3.2301 0.0000 -3.1681 0.0000
# 3 -4.4840 3.2301 45.7168 0.0000 -14.7453 0.0000
# 4 0.0000 0.0000 0.0000 37.0274 0.0000 -2.0558
# 5 -17.6120 -3.1681 -14.7453 0.0000 29.9473 0.0000
# 6 0.0000 0.0000 0.0000 -2.0558 0.0000 41.5117
#
#
#
# Elastic Compliance Matrix: (Units=1/GPa)
#
#
# Indices 1 2 3 4 5 6 
#
# 1 0.027216 -0.003295 0.009454 0.000000 0.020312 0.000000
# 2 -0.003295 0.008137 -0.001481 0.000000 -0.001806 0.000000
# 3 0.009454 -0.001481 0.029302 0.000000 0.019830 0.000000
# 4 0.000000 0.000000 0.000000 0.027081 0.000000 0.001341
# 5 0.020312 -0.001806 0.019830 0.000000 0.054911 0.000000
# 6 0.000000 0.000000 0.000000 0.001341 0.000000 0.024156
#
#
# Mechanical properties :
#
#
# Convention : Reuss Voigt Hill
#
# Bulk Modulus (GPa) = 13.51163 28.91392 21.21277
# Shear Modulus (GPa) = 26.86479 35.90866 31.38673
#
# Velocity S-wave (km/s) = 3.16684 3.66129 3.42301
# Velocity P-wave (km/s) = 4.29138 5.35418 4.85197
#
# Compressibility (1/GPa) = 0.07401032
#
# Stress axis : x y z
#
# Youngs Moduli (GPa) = 36.74269 122.89913 34.12776
#
# Poissons Ratio (x) = 0.40497 -0.32263
# Poissons Ratio (y) = 0.12107 0.05053
# Poissons Ratio (z) = -0.34735 0.18197
#
# Static dielectric constant tensor:
#      x y z
#    x 2.210460 0.000000 -0.119630 
#    y 0.000000 2.164390 0.000000 
#    z -0.119630 0.000000 2.310060 
# 
# From -- ./inp_files/13858.got.cif
#   From: 2010.05.17/outbox.cif.g08.bks.cpg/sg4_7_cif.got.tgz:13858.got - 2010.06.03 18:43:04.
