data_PCOD9115037
_publ_section_title
;
Structure prediction by ZEFSAII (Michael W. Deem and Ramdas Pophale) SiO2 
 PCOD9115037
Probable space group: P 21
;
_chemical_formula_sum "Si O2"
_cell_formula_units_Z 16
_cell_length_a 11.234707
_cell_length_b 7.680004
_cell_length_c 11.224719
_cell_angle_alpha 90.000000
_cell_angle_beta 38.496480
_cell_angle_gamma 90.000000
_cell_volume 602.857539
_symmetry_space_group_name_H-M "P 21"
_symmetry_group_IT_number 4
_symmetry_cell_setting 'monoclinic'
loop_
_space_group_symop_operation_xyz
x,y,z
-x,1/2+y,-z
loop_
_atom_site_type_symbol
_atom_site_label
_atom_site_fract_x
_atom_site_fract_y
_atom_site_fract_z
Si Si1 0.219951 0.635900 0.268033
Si Si2 0.891757 0.922596 0.866972
Si Si3 0.669747 0.028620 0.428813
Si Si4 0.627369 0.641115 0.639810
Si Si5 0.225309 0.736477 0.892144
Si Si6 0.267122 0.952096 0.667200
Si Si7 0.062829 0.406398 0.584734
Si Si8 0.509235 0.751217 0.213858
O O1 0.183912 0.484291 0.201022
O O2 0.093814 0.575740 0.480281
O O3 0.431230 0.658223 0.156017
O O4 0.139901 0.814471 0.273632
O O5 0.902493 0.106657 0.931215
O O6 0.106950 0.856311 0.709423
O O7 0.734018 0.792806 0.042456
O O8 0.734919 0.127117 0.259651
O O9 0.565025 0.143197 0.614404
O O10 0.491395 0.912420 0.520459
O O11 0.854689 0.949841 0.349670
O O12 0.426420 0.741093 0.804238
O O13 0.695397 0.614913 0.449392
O O14 0.787674 0.756147 0.575201
O O15 0.586621 0.444490 0.712749
O O16 0.177098 0.921598 0.870249
#
# Coordination Sequence:
#
# PCOD9115037 Si02
#       8
#     2   2   2   2   2   2   2   2
#     4  11  25  44  68  98 134 176 231 274 333 390
#     4  11  26  39  64  99 139 169 217 276 348 391
#     4  10  22  41  69  98 124 177 228 261 332 404
#     4  10  19  39  67  95 126 169 223 265 329 393
#     4  10  22  38  62  97 133 173 206 270 333 400
#     4  11  21  38  64  94 138 164 212 272 332 405
#     4  11  22  41  71  98 126 173 228 279 315 399
#     4  10  23  44  65  91 132 179 223 275 322 396
#
# _framework density 26.540268000000001
#
# number of rings (size 3 to 8) (size 9 to 14) (size 15 to 20)
#    0.000    1.500    3.750    0.750    1.750    3.000 
#    0.000    1.250    0.000    0.000    0.000    0.000 
#    0.000    0.000    0.000    0.000    0.000    0.000 
#
# Total GULP energy -89236.287056 kJ/mol
# GULP energy per Si atom -5577.267941 kJ/mol
# Density = 2.647986 g / cm^3
# Si number density = 26.540268 Si / 1000 Ang^3
#
#
#
# Elastic Constant Matrix: (Units=GPa)
#
#
# Indices 1 2 3 4 5 6 
#
# 1 140.9845 40.7206 37.9043 0.0000 -3.0219 0.0000
# 2 40.7206 62.0510 3.7616 0.0000 -0.7286 0.0000
# 3 37.9043 3.7616 69.5448 0.0000 -11.7565 0.0000
# 4 0.0000 0.0000 0.0000 31.3872 0.0000 1.0862
# 5 -3.0219 -0.7286 -11.7565 0.0000 36.8970 0.0000
# 6 0.0000 0.0000 0.0000 1.0862 0.0000 65.6823
#
#
#
# Elastic Compliance Matrix: (Units=1/GPa)
#
#
# Indices 1 2 3 4 5 6 
#
# 1 0.010438 -0.006528 -0.005510 0.000000 -0.001030 0.000000
# 2 -0.006528 0.020251 0.002579 0.000000 0.000687 0.000000
# 3 -0.005510 0.002579 0.018153 0.000000 0.005384 0.000000
# 4 0.000000 0.000000 0.000000 0.031878 0.000000 -0.000527
# 5 -0.001030 0.000687 0.005384 0.000000 0.028747 0.000000
# 6 0.000000 0.000000 0.000000 -0.000527 0.000000 0.015234
#
#
# Mechanical properties :
#
#
# Convention : Reuss Voigt Hill
#
# Bulk Modulus (GPa) = 33.41814 48.59481 41.00647
# Shear Modulus (GPa) = 32.55345 39.47290 36.01318
#
# Velocity S-wave (km/s) = 3.50604 3.86072 3.68764
# Velocity P-wave (km/s) = 5.38596 6.18248 5.79792
#
# Compressibility (1/GPa) = 0.02992386
#
# Stress axis : x y z
#
# Youngs Moduli (GPa) = 95.80683 49.37954 55.08755
#
# Poissons Ratio (x) = 0.32234 0.30352
# Poissons Ratio (y) = 0.62540 -0.14205
# Poissons Ratio (z) = 0.52788 -0.12733
#
# Static dielectric constant tensor:
#      x y z
#    x 2.060650 0.000000 0.025470 
#    y 0.000000 2.390630 0.000000 
#    z 0.025470 0.000000 2.087730 
# 
# From -- ./inp_files/12103.got.cif
#   From: 2010.05.17/outbox.cif.g08.bks.cpg/sg4_7_cif.got.tgz:12103.got - 2010.06.03 18:43:04.
