data_PCOD9115544
_publ_section_title
;
Structure prediction by ZEFSAII (Michael W. Deem and Ramdas Pophale) SiO2 
 PCOD9115544
Probable space group: P 21
;
_chemical_formula_sum "Si O2"
_cell_formula_units_Z 16
_cell_length_a 14.913079
_cell_length_b 8.564018
_cell_length_c 11.750912
_cell_angle_alpha 90.000000
_cell_angle_beta 152.926295
_cell_angle_gamma 90.000000
_cell_volume 683.058575
_symmetry_space_group_name_H-M "P 21"
_symmetry_group_IT_number 4
_symmetry_cell_setting 'monoclinic'
loop_
_space_group_symop_operation_xyz
x,y,z
-x,1/2+y,-z
loop_
_atom_site_type_symbol
_atom_site_label
_atom_site_fract_x
_atom_site_fract_y
_atom_site_fract_z
Si Si1 0.120214 0.907630 0.434477
Si Si2 0.621018 0.931650 0.152612
Si Si3 0.056194 0.152465 0.082569
Si Si4 0.087061 0.254893 0.369776
Si Si5 0.723179 0.326431 0.615836
Si Si6 0.299307 0.125689 0.902110
Si Si7 0.867601 0.195762 0.334982
Si Si8 0.274135 0.286021 0.107752
O O1 0.138873 0.824091 0.574441
O O2 0.244098 0.812286 0.482201
O O3 0.891263 0.901318 0.133693
O O4 0.188726 0.085896 0.508139
O O5 0.783408 0.891319 0.431627
O O6 0.433792 0.985154 0.012210
O O7 0.616134 0.781350 0.065448
O O8 0.695483 0.072910 0.158240
O O9 0.068110 0.250935 0.213412
O O10 0.179191 0.222559 0.116399
O O11 0.145827 0.979963 0.204156
O O12 0.826903 0.175623 0.789203
O O13 0.896721 0.250633 0.238053
O O14 0.493022 0.348898 0.379015
O O15 0.297769 0.155415 0.035578
O O16 0.074584 0.115038 0.605773
#
# Coordination Sequence:
#
# PCOD9115544 Si02
#       8
#     2   2   2   2   2   2   2   2
#     4   9  20  40  63  88 118 156 203 243 299 364
#     4  11  24  39  63  93 124 157 195 248 302 355
#     4  10  24  40  60  90 119 158 207 246 294 356
#     4  10  21  39  60  88 123 156 195 248 297 350
#     4  10  22  41  63  86 120 160 200 250 298 350
#     4  10  24  41  62  94 122 157 203 243 297 365
#     4  10  20  40  64  88 121 160 196 245 304 353
#     4  10  21  40  65  87 119 162 201 247 301 351
#
# _framework density 23.424053000000001
#
# number of rings (size 3 to 8) (size 9 to 14) (size 15 to 20)
#    0.000    2.000    0.000    3.000    0.000   16.000 
#    0.000    5.000    0.000    0.000    0.000    0.000 
#    0.000    0.000    0.000    0.000    0.000    0.000 
#
# Total GULP energy -89416.396167 kJ/mol
# GULP energy per Si atom -5588.524760 kJ/mol
# Density = 2.337074 g / cm^3
# Si number density = 23.424053 Si / 1000 Ang^3
#
#
#
# Elastic Constant Matrix: (Units=GPa)
#
#
# Indices 1 2 3 4 5 6 
#
# 1 175.5837 24.9378 39.5688 0.0000 -18.0910 0.0000
# 2 24.9378 47.9963 24.1601 0.0000 -0.8145 0.0000
# 3 39.5688 24.1601 93.3796 0.0000 14.9605 0.0000
# 4 0.0000 0.0000 0.0000 19.0805 0.0000 -5.6165
# 5 -18.0910 -0.8145 14.9605 0.0000 43.9614 0.0000
# 6 0.0000 0.0000 0.0000 -5.6165 0.0000 31.2878
#
#
#
# Elastic Compliance Matrix: (Units=1/GPa)
#
#
# Indices 1 2 3 4 5 6 
#
# 1 0.007092 -0.002056 -0.003104 0.000000 0.003937 0.000000
# 2 -0.002056 0.024857 -0.005816 0.000000 0.001594 0.000000
# 3 -0.003104 -0.005816 0.014544 0.000000 -0.006335 0.000000
# 4 0.000000 0.000000 0.000000 0.055333 0.000000 0.009933
# 5 0.003937 0.001594 -0.006335 0.000000 0.026553 0.000000
# 6 0.000000 0.000000 0.000000 0.009933 0.000000 0.033744
#
#
# Mechanical properties :
#
#
# Convention : Reuss Voigt Hill
#
# Bulk Modulus (GPa) = 40.74520 54.92145 47.83333
# Shear Modulus (GPa) = 26.00695 34.08548 30.04622
#
# Velocity S-wave (km/s) = 3.33568 3.81878 3.58538
# Velocity P-wave (km/s) = 5.68050 6.55298 6.13228
#
# Compressibility (1/GPa) = 0.02454277
#
# Stress axis : x y z
#
# Youngs Moduli (GPa) = 140.99479 40.22933 68.75710
#
# Poissons Ratio (x) = 0.08270 0.21344
# Poissons Ratio (y) = 0.28984 0.39987
# Poissons Ratio (z) = 0.43769 0.23396
#
# Static dielectric constant tensor:
#      x y z
#    x 1.903040 0.000000 0.006310 
#    y 0.000000 1.941730 0.000000 
#    z 0.006310 0.000000 1.918320 
# 
# From -- ./inp_files/12671.got.cif
#   From: 2010.05.17/outbox.cif.g08.bks.cpg/sg4_7_cif.got.tgz:12671.got - 2010.06.03 18:43:04.
