data_PCOD9115088
_publ_section_title
;
Structure prediction by ZEFSAII (Michael W. Deem and Ramdas Pophale) SiO2 
 PCOD9115088
Probable space group: P 21
;
_chemical_formula_sum "Si O2"
_cell_formula_units_Z 14
_cell_length_a 13.739884
_cell_length_b 8.674803
_cell_length_c 7.737739
_cell_angle_alpha 90.000000
_cell_angle_beta 139.457763
_cell_angle_gamma 90.000000
_cell_volume 599.481449
_symmetry_space_group_name_H-M "P 21"
_symmetry_group_IT_number 4
_symmetry_cell_setting 'monoclinic'
loop_
_space_group_symop_operation_xyz
x,y,z
-x,1/2+y,-z
loop_
_atom_site_type_symbol
_atom_site_label
_atom_site_fract_x
_atom_site_fract_y
_atom_site_fract_z
Si Si1 0.024513 0.365250 0.615857
Si Si2 0.849968 0.461516 0.718118
Si Si3 0.599691 0.629151 0.185978
Si Si4 0.360268 0.426246 0.978624
Si Si5 0.093627 0.038999 0.849883
Si Si6 0.604287 0.253562 0.543273
Si Si7 0.415758 0.979967 0.201057
O O1 0.941556 0.437689 0.667479
O O2 0.943080 0.397393 0.324850
O O3 0.193209 0.428010 0.823081
O O4 0.029642 0.185385 0.666068
O O5 0.719616 0.581306 0.490372
O O6 0.759856 0.311301 0.668787
O O7 0.952538 0.516707 0.015219
O O8 0.631513 0.801138 0.166183
O O9 0.431444 0.587208 0.015420
O O10 0.617901 0.513885 0.044765
O O11 0.476083 0.350603 0.269755
O O12 0.272698 0.058984 0.100219
O O13 0.587974 0.311802 0.718325
O O14 0.562410 0.077010 0.451820
#
# Coordination Sequence:
#
# PCOD9115088 Si02
#       7
#     2   2   2   2   2   2   2
#     4  12  23  47  68 100 145 185 227 282 348 415
#     4  10  23  42  68  99 134 176 231 281 336 405
#     4  10  20  42  68  94 133 173 224 285 334 401
#     4  10  22  40  65  99 130 178 226 275 344 398
#     4  11  25  44  69  98 139 186 228 284 343 411
#     4   9  20  39  64  93 129 167 223 276 333 391
#     4  10  19  42  64  95 130 169 219 287 330 395
#
# _framework density 23.353518000000001
#
# number of rings (size 3 to 8) (size 9 to 14) (size 15 to 20)
#    0.000    1.714    4.286    0.000    0.000    9.143 
#   10.286    0.000    0.000    0.000    0.000    0.000 
#    0.000    0.000    0.000    0.000    0.000    0.000 
#
# Total GULP energy -78212.237267 kJ/mol
# GULP energy per Si atom -5586.588376 kJ/mol
# Density = 2.330036 g / cm^3
# Si number density = 23.353518 Si / 1000 Ang^3
#
#
#
# Elastic Constant Matrix: (Units=GPa)
#
#
# Indices 1 2 3 4 5 6 
#
# 1 94.9737 44.1559 49.9613 0.0000 -1.7070 0.0000
# 2 44.1559 40.9738 48.2153 0.0000 -7.1574 0.0000
# 3 49.9613 48.2153 80.4504 0.0000 -23.5840 0.0000
# 4 0.0000 0.0000 0.0000 30.4114 0.0000 -6.6968
# 5 -1.7070 -7.1574 -23.5840 0.0000 51.8390 0.0000
# 6 0.0000 0.0000 0.0000 -6.6968 0.0000 15.8388
#
#
#
# Elastic Compliance Matrix: (Units=1/GPa)
#
#
# Indices 1 2 3 4 5 6 
#
# 1 0.021425 -0.023783 0.000222 0.000000 -0.002477 0.000000
# 2 -0.023783 0.117358 -0.058900 0.000000 -0.011376 0.000000
# 3 0.000222 -0.058900 0.052168 0.000000 0.015608 0.000000
# 4 0.000000 0.000000 0.000000 0.036258 0.000000 0.015330
# 5 -0.002477 -0.011376 0.015608 0.000000 0.024739 0.000000
# 6 0.000000 0.000000 0.000000 0.015330 0.000000 0.069618
#
#
# Mechanical properties :
#
#
# Convention : Reuss Voigt Hill
#
# Bulk Modulus (GPa) = 38.41875 55.67364 47.04620
# Shear Modulus (GPa) = 10.09764 24.55553 17.32659
#
# Velocity S-wave (km/s) = 2.08164 3.24616 2.72679
# Velocity P-wave (km/s) = 4.71850 6.15965 5.48660
#
# Compressibility (1/GPa) = 0.02602896
#
# Stress axis : x y z
#
# Youngs Moduli (GPa) = 46.67348 8.52093 19.16900
#
# Poissons Ratio (x) = 0.20265 -0.00425
# Poissons Ratio (y) = 1.11003 1.12905
# Poissons Ratio (z) = -0.01035 0.50188
#
# Static dielectric constant tensor:
#      x y z
#    x 1.933940 0.000000 -0.028220 
#    y 0.000000 1.937600 0.000000 
#    z -0.028220 0.000000 1.869580 
# 
# From -- ./inp_files/9197.got.cif
#   From: 2010.05.17/outbox.cif.g08.bks.cpg/sg4_5_cif.got.tgz:9197.got - 2010.06.03 18:43:04.
