data_PCOD9115633
_publ_section_title
;
Structure prediction by ZEFSAII (Michael W. Deem and Ramdas Pophale) SiO2 
 PCOD9115633
Probable space group: P 21
;
_chemical_formula_sum "Si O2"
_cell_formula_units_Z 16
_cell_length_a 20.354067
_cell_length_b 5.032290
_cell_length_c 7.219753
_cell_angle_alpha 90.000000
_cell_angle_beta 119.168946
_cell_angle_gamma 90.000000
_cell_volume 645.722837
_symmetry_space_group_name_H-M "P 21"
_symmetry_group_IT_number 4
_symmetry_cell_setting 'monoclinic'
loop_
_space_group_symop_operation_xyz
x,y,z
-x,1/2+y,-z
loop_
_atom_site_type_symbol
_atom_site_label
_atom_site_fract_x
_atom_site_fract_y
_atom_site_fract_z
Si Si1 0.754677 0.529250 0.441672
Si Si2 0.142310 0.620784 0.816820
Si Si3 0.026122 0.497074 0.922625
Si Si4 0.304177 0.452446 0.946959
Si Si5 0.536456 0.334684 0.454994
Si Si6 0.331775 0.192691 0.371773
Si Si7 0.383757 0.618835 0.739230
Si Si8 0.904277 0.599728 0.458425
O O1 0.725093 0.730233 0.240710
O O2 0.747142 0.647988 0.636557
O O3 0.695190 0.287560 0.372099
O O4 0.840276 0.487347 0.509289
O O5 0.112854 0.526017 0.977134
O O6 0.231935 0.634994 0.898528
O O7 0.113098 0.398771 0.629212
O O8 0.106651 0.908183 0.731160
O O9 0.981024 0.559486 0.671301
O O10 0.001372 0.213588 0.966817
O O11 0.379631 0.556200 0.950052
O O12 0.325515 0.330059 0.169838
O O13 0.489882 0.583618 0.464416
O O14 0.622752 0.423475 0.606057
O O15 0.544228 0.268117 0.246596
O O16 0.374828 0.367079 0.588458
#
# Coordination Sequence:
#
# PCOD9115633 Si02
#       8
#     2   2   2   2   2   2   2   2
#     4   9  21  38  62  95 133 178 212 279 335 399
#     4  11  23  43  65  93 127 184 217 276 343 404
#     4  12  26  41  63  97 132 172 230 288 329 403
#     4  10  22  40  67 102 135 168 231 279 334 398
#     4  11  22  43  72  94 133 185 219 262 337 406
#     4  10  22  39  70  99 133 173 219 279 330 391
#     4  10  20  41  68  97 132 172 218 273 332 391
#     4  11  22  43  65  87 133 178 226 264 348 396
#
# _framework density 24.778435999999999
#
# number of rings (size 3 to 8) (size 9 to 14) (size 15 to 20)
#    0.000    1.500    2.500    2.250    1.750    3.000 
#    0.000    0.000   11.000    0.000    0.000    0.000 
#    0.000    0.000    0.000    0.000    0.000    0.000 
#
# Total GULP energy -89359.300257 kJ/mol
# GULP energy per Si atom -5584.956266 kJ/mol
# Density = 2.472204 g / cm^3
# Si number density = 24.778436 Si / 1000 Ang^3
#
#
#
# Elastic Constant Matrix: (Units=GPa)
#
#
# Indices 1 2 3 4 5 6 
#
# 1 151.9482 22.6256 35.4252 0.0000 -52.3041 0.0000
# 2 22.6256 78.7750 4.7959 0.0000 -14.5070 0.0000
# 3 35.4252 4.7959 79.6594 0.0000 -41.6346 0.0000
# 4 0.0000 0.0000 0.0000 27.5320 0.0000 -14.5068
# 5 -52.3041 -14.5070 -41.6346 0.0000 46.6543 0.0000
# 6 0.0000 0.0000 0.0000 -14.5068 0.0000 36.5831
#
#
#
# Elastic Compliance Matrix: (Units=1/GPa)
#
#
# Indices 1 2 3 4 5 6 
#
# 1 0.011100 -0.000642 0.002815 0.000000 0.014757 0.000000
# 2 -0.000642 0.013792 0.002475 0.000000 0.005777 0.000000
# 3 0.002815 0.002475 0.024747 0.000000 0.026010 0.000000
# 4 0.000000 0.000000 0.000000 0.045915 0.000000 0.018207
# 5 0.014757 0.005777 0.026010 0.000000 0.062986 0.000000
# 6 0.000000 0.000000 0.000000 0.018207 0.000000 0.034555
#
#
# Mechanical properties :
#
#
# Convention : Reuss Voigt Hill
#
# Bulk Modulus (GPa) = 16.96786 48.45288 32.71037
# Shear Modulus (GPa) = 24.57679 38.65629 31.61654
#
# Velocity S-wave (km/s) = 3.15280 3.95407 3.57595
# Velocity P-wave (km/s) = 4.48511 6.35949 5.50270
#
# Compressibility (1/GPa) = 0.05893495
#
# Stress axis : x y z
#
# Youngs Moduli (GPa) = 90.08865 72.50557 40.40946
#
# Poissons Ratio (x) = 0.04654 -0.11376
# Poissons Ratio (y) = 0.05783 -0.10000
# Poissons Ratio (z) = -0.25362 -0.17943
#
# Static dielectric constant tensor:
#      x y z
#    x 2.013510 0.000000 -0.014300 
#    y 0.000000 2.068300 0.000000 
#    z -0.014300 0.000000 1.984550 
# 
# From -- ./inp_files/4332.got.cif
#   From: 2010.05.17/outbox.cif.g08.bks.cpg/sg4_3_cif.got.tgz:4332.got - 2010.06.03 18:43:04.
