data_PCOD9115219
_publ_section_title
;
Structure prediction by ZEFSAII (Michael W. Deem and Ramdas Pophale) SiO2 
 PCOD9115219
Probable space group: P 21
;
_chemical_formula_sum "Si O2"
_cell_formula_units_Z 16
_cell_length_a 23.556100
_cell_length_b 5.243205
_cell_length_c 14.126526
_cell_angle_alpha 90.000000
_cell_angle_beta 152.371605
_cell_angle_gamma 90.000000
_cell_volume 809.106395
_symmetry_space_group_name_H-M "P 21"
_symmetry_group_IT_number 4
_symmetry_cell_setting 'monoclinic'
loop_
_space_group_symop_operation_xyz
x,y,z
-x,1/2+y,-z
loop_
_atom_site_type_symbol
_atom_site_label
_atom_site_fract_x
_atom_site_fract_y
_atom_site_fract_z
Si Si1 0.645836 0.063270 0.153861
Si Si2 0.333178 0.049669 0.143704
Si Si3 0.654328 0.062121 0.948487
Si Si4 0.777003 0.547789 0.813904
Si Si5 0.350292 0.065420 0.729864
Si Si6 0.426354 0.371046 0.572011
Si Si7 0.975434 0.016058 0.905077
Si Si8 0.281404 0.739966 0.458068
O O1 0.685494 0.337351 0.251517
O O2 0.688293 0.834829 0.284428
O O3 0.681816 0.018155 0.098511
O O4 0.497689 0.063843 0.939402
O O5 0.311096 0.325452 0.066086
O O6 0.275080 0.003888 0.159362
O O7 0.481459 0.013336 0.363688
O O8 0.290657 0.826026 0.009812
O O9 0.508319 0.126663 0.722175
O O10 0.745242 0.337898 0.687369
O O11 0.700790 0.789619 0.662071
O O12 0.923571 0.565399 0.026438
O O13 0.300372 0.977931 0.554785
O O14 0.397486 0.552084 0.618759
O O15 0.836285 0.086905 0.679244
O O16 0.014932 0.226674 0.043018
#
# Coordination Sequence:
#
# PCOD9115219 Si02
#       8
#     2   2   2   2   2   2   2   2
#     4  10  20  36  52  80 112 150 179 229 289 343
#     4  10  24  33  56  84 114 156 189 223 287 339
#     4  10  22  37  53  83 115 149 186 232 281 347
#     4  11  23  37  56  81 120 156 195 236 277 339
#     4  10  22  31  56  79 111 150 186 224 284 347
#     4  10  22  32  59  79 121 157 186 235 279 344
#     4  10  22  40  56  78 111 161 198 234 278 326
#     4  11  23  38  56  86 118 155 195 235 287 337
#
# _framework density 19.774901
#
# number of rings (size 3 to 8) (size 9 to 14) (size 15 to 20)
#    0.750    1.000    1.250    3.000   12.250    0.000 
#    0.000    0.000    0.000    0.000    0.000    3.500 
#    0.000    0.000    0.000    0.000    0.000    0.000 
#
# Total GULP energy -89265.070037 kJ/mol
# GULP energy per Si atom -5579.066877 kJ/mol
# Density = 1.972989 g / cm^3
# Si number density = 19.774901 Si / 1000 Ang^3
#
#
#
# Elastic Constant Matrix: (Units=GPa)
#
#
# Indices 1 2 3 4 5 6 
#
# 1 125.1330 23.5720 44.4514 0.0000 -5.8887 0.0000
# 2 23.5720 92.7050 18.9962 0.0000 -9.9100 0.0000
# 3 44.4514 18.9962 28.2521 0.0000 -10.6805 0.0000
# 4 0.0000 0.0000 0.0000 24.0596 0.0000 -7.1199
# 5 -5.8887 -9.9100 -10.6805 0.0000 28.5341 0.0000
# 6 0.0000 0.0000 0.0000 -7.1199 0.0000 22.3068
#
#
#
# Elastic Compliance Matrix: (Units=1/GPa)
#
#
# Indices 1 2 3 4 5 6 
#
# 1 0.019999 0.001281 -0.035642 0.000000 -0.008769 0.000000
# 2 0.001281 0.012640 -0.010198 0.000000 0.000837 0.000000
# 3 -0.035642 -0.010198 0.109740 0.000000 0.030179 0.000000
# 4 0.000000 0.000000 0.000000 0.045899 0.000000 0.014650
# 5 -0.008769 0.000837 0.030179 0.000000 0.044823 0.000000
# 6 0.000000 0.000000 0.000000 0.014650 0.000000 0.049505
#
#
# Mechanical properties :
#
#
# Convention : Reuss Voigt Hill
#
# Bulk Modulus (GPa) = 18.77556 46.68103 32.72830
# Shear Modulus (GPa) = 12.83772 25.58480 19.21126
#
# Velocity S-wave (km/s) = 2.55069 3.60085 3.12027
# Velocity P-wave (km/s) = 4.26497 6.39887 5.43763
#
# Compressibility (1/GPa) = 0.05326073
#
# Stress axis : x y z
#
# Youngs Moduli (GPa) = 50.00317 79.11157 9.11249
#
# Poissons Ratio (x) = -0.10134 0.32479
# Poissons Ratio (y) = -0.06405 0.09293
# Poissons Ratio (z) = 1.78221 0.80678
#
# Static dielectric constant tensor:
#      x y z
#    x 1.696570 0.000000 0.006540 
#    y 0.000000 1.751850 0.000000 
#    z 0.006540 0.000000 1.713500 
# 
# From -- ./inp_files/13007.got.cif
#   From: 2010.05.17/outbox.cif.g08.bks.cpg/sg4_7_cif.got.tgz:13007.got - 2010.06.03 18:43:04.
