data_PCOD9115628
_publ_section_title
;
Structure prediction by ZEFSAII (Michael W. Deem and Ramdas Pophale) SiO2 
 PCOD9115628
Probable space group: P 21
;
_chemical_formula_sum "Si O2"
_cell_formula_units_Z 16
_cell_length_a 10.872352
_cell_length_b 8.286173
_cell_length_c 11.985440
_cell_angle_alpha 90.000000
_cell_angle_beta 141.921914
_cell_angle_gamma 90.000000
_cell_volume 665.932135
_symmetry_space_group_name_H-M "P 21"
_symmetry_group_IT_number 4
_symmetry_cell_setting 'monoclinic'
loop_
_space_group_symop_operation_xyz
x,y,z
-x,1/2+y,-z
loop_
_atom_site_type_symbol
_atom_site_label
_atom_site_fract_x
_atom_site_fract_y
_atom_site_fract_z
Si Si1 0.291213 0.583910 0.276863
Si Si2 0.527387 0.661749 0.225953
Si Si3 0.334369 0.000482 0.085274
Si Si4 0.880332 0.436727 0.486133
Si Si5 0.863387 0.057116 0.151773
Si Si6 0.036515 0.905840 0.701295
Si Si7 0.668827 0.146191 0.445855
Si Si8 0.016836 0.883231 0.038810
O O1 0.449331 0.623660 0.294774
O O2 0.384284 0.618339 0.463037
O O3 0.103324 0.706671 0.127215
O O4 0.185655 0.411452 0.178099
O O5 0.477636 0.846740 0.166436
O O6 0.749340 0.598144 0.376865
O O7 0.372062 0.565408 0.037212
O O8 0.194597 0.956341 0.090793
O O9 0.481197 0.138358 0.229941
O O10 0.192661 0.021921 0.877843
O O11 0.897862 0.364452 0.376497
O O12 0.771294 0.314763 0.491791
O O13 0.083916 0.477382 0.693549
O O14 0.950476 0.240023 0.219490
O O15 0.965611 0.969026 0.119541
O O16 0.830843 0.002723 0.545003
#
# Coordination Sequence:
#
# PCOD9115628 Si02
#       8
#     2   2   2   2   2   2   2   2
#     4  10  21  39  66 100 136 165 216 268 334 396
#     4   9  23  42  64  96 127 176 213 266 336 385
#     4  10  23  42  65  96 130 171 216 270 329 391
#     4  12  25  42  66  96 133 174 227 270 327 395
#     4  10  22  44  68  93 130 176 221 272 330 389
#     4  11  25  46  65  92 134 182 220 270 330 393
#     4  12  25  40  65 104 129 168 228 273 325 392
#     4  10  20  41  67  97 135 168 211 271 333 391
#
# _framework density 24.026472999999999
#
# number of rings (size 3 to 8) (size 9 to 14) (size 15 to 20)
#    0.000    1.500    2.500    2.250    1.750    6.000 
#    0.000    0.000    0.000    0.000    0.000    0.000 
#    0.000    0.000    0.000    0.000    0.000    0.000 
#
# Total GULP energy -89494.341909 kJ/mol
# GULP energy per Si atom -5593.396369 kJ/mol
# Density = 2.397179 g / cm^3
# Si number density = 24.026473 Si / 1000 Ang^3
#
#
#
# Elastic Constant Matrix: (Units=GPa)
#
#
# Indices 1 2 3 4 5 6 
#
# 1 30.2610 0.3476 32.0334 0.0000 -13.5033 0.0000
# 2 0.3476 28.4985 4.9348 0.0000 3.0098 0.0000
# 3 32.0334 4.9348 147.8490 0.0000 -19.4017 0.0000
# 4 0.0000 0.0000 0.0000 33.3138 0.0000 -1.3603
# 5 -13.5033 3.0098 -19.4017 0.0000 25.3644 0.0000
# 6 0.0000 0.0000 0.0000 -1.3603 0.0000 22.5097
#
#
#
# Elastic Compliance Matrix: (Units=1/GPa)
#
#
# Indices 1 2 3 4 5 6 
#
# 1 0.051258 -0.001420 -0.008287 0.000000 0.021118 0.000000
# 2 -0.001420 0.036079 -0.001731 0.000000 -0.006362 0.000000
# 3 -0.008287 -0.001731 0.008965 0.000000 0.002651 0.000000
# 4 0.000000 0.000000 0.000000 0.030092 0.000000 0.001818
# 5 0.021118 -0.006362 0.002651 0.000000 0.053451 0.000000
# 6 0.000000 0.000000 0.000000 0.001818 0.000000 0.044535
#
#
# Mechanical properties :
#
#
# Convention : Reuss Voigt Hill
#
# Bulk Modulus (GPa) = 13.61955 31.24890 22.43422
# Shear Modulus (GPa) = 18.40051 27.52375 22.96213
#
# Velocity S-wave (km/s) = 2.77039 3.38828 3.09480
# Velocity P-wave (km/s) = 3.98927 5.32368 4.70403
#
# Compressibility (1/GPa) = 0.07342388
#
# Stress axis : x y z
#
# Youngs Moduli (GPa) = 19.50912 27.71728 111.54718
#
# Poissons Ratio (x) = 0.03937 0.92440
# Poissons Ratio (y) = 0.02771 0.19312
# Poissons Ratio (z) = 0.16167 0.04799
#
# Static dielectric constant tensor:
#      x y z
#    x 1.879710 0.000000 -0.000300 
#    y 0.000000 1.989670 0.000000 
#    z -0.000300 0.000000 1.900830 
# 
# From -- ./inp_files/11908.got.cif
#   From: 2010.05.17/outbox.cif.g08.bks.cpg/sg4_6_cif.got.tgz:11908.got - 2010.06.03 18:43:04.
