data_PCOD9115398
_publ_section_title
;
Structure prediction by ZEFSAII (Michael W. Deem and Ramdas Pophale) SiO2 
 PCOD9115398
Probable space group: P 21
;
_chemical_formula_sum "Si O2"
_cell_formula_units_Z 16
_cell_length_a 8.304881
_cell_length_b 10.740870
_cell_length_c 7.753750
_cell_angle_alpha 90.000000
_cell_angle_beta 106.253328
_cell_angle_gamma 90.000000
_cell_volume 664.004620
_symmetry_space_group_name_H-M "P 21"
_symmetry_group_IT_number 4
_symmetry_cell_setting 'monoclinic'
loop_
_space_group_symop_operation_xyz
x,y,z
-x,1/2+y,-z
loop_
_atom_site_type_symbol
_atom_site_label
_atom_site_fract_x
_atom_site_fract_y
_atom_site_fract_z
Si Si1 0.922655 0.472470 0.766624
Si Si2 0.504781 0.965281 0.781860
Si Si3 0.238170 0.874733 0.953202
Si Si4 0.061039 0.246887 0.304696
Si Si5 0.372720 0.815313 0.454213
Si Si6 0.205888 0.634832 0.189005
Si Si7 0.658571 0.727005 0.324914
Si Si8 0.856112 0.745306 0.060351
O O1 0.991897 0.601724 0.718832
O O2 0.778730 0.412634 0.605453
O O3 0.066057 0.372782 0.841606
O O4 0.827578 0.471035 0.922966
O O5 0.696288 0.012831 0.841001
O O6 0.411033 0.086378 0.670548
O O7 0.406854 0.928502 0.924512
O O8 0.473177 0.845375 0.654581
O O9 0.095368 0.841295 0.766096
O O10 0.247425 0.743488 0.060573
O O11 0.180330 0.257306 0.506490
O O12 0.158682 0.255511 0.149674
O O13 0.282879 0.683363 0.392994
O O14 0.513994 0.819665 0.347204
O O15 0.006898 0.646467 0.145072
O O16 0.698581 0.726196 0.134472
#
# Coordination Sequence:
#
# PCOD9115398 Si02
#       8
#     2   2   2   2   2   2   2   2
#     4   9  18  42  60  80 130 162 196 267 312 361
#     4  11  20  41  62  87 128 169 203 261 322 367
#     4   9  21  38  65  90 122 165 212 256 320 376
#     4  10  20  38  63  95 117 162 215 253 311 378
#     4   9  20  38  56  85 120 160 203 254 307 372
#     4   8  20  42  59  87 127 162 207 264 310 376
#     4  11  22  38  64  92 120 163 213 252 317 377
#     4   9  21  41  61  88 128 155 205 269 303 371
#
# _framework density 24.096219000000001
#
# number of rings (size 3 to 8) (size 9 to 14) (size 15 to 20)
#    0.000    3.000    1.250    0.750    3.500    0.000 
#   22.500    0.000    0.000    0.000    0.000    0.000 
#    0.000    0.000    0.000    0.000    0.000    0.000 
#
# Total GULP energy -89227.024534 kJ/mol
# GULP energy per Si atom -5576.689033 kJ/mol
# Density = 2.404138 g / cm^3
# Si number density = 24.096219 Si / 1000 Ang^3
#
#
#
# Elastic Constant Matrix: (Units=GPa)
#
#
# Indices 1 2 3 4 5 6 
#
# 1 34.3416 3.1933 1.6912 0.0000 1.5226 0.0000
# 2 3.1933 38.8949 0.1115 0.0000 10.1900 0.0000
# 3 1.6912 0.1115 50.2800 0.0000 3.9131 0.0000
# 4 0.0000 0.0000 0.0000 29.3654 0.0000 12.6654
# 5 1.5226 10.1900 3.9131 0.0000 41.1881 0.0000
# 6 0.0000 0.0000 0.0000 12.6654 0.0000 38.0890
#
#
#
# Elastic Compliance Matrix: (Units=1/GPa)
#
#
# Indices 1 2 3 4 5 6 
#
# 1 0.029399 -0.002299 -0.000950 0.000000 -0.000428 0.000000
# 2 -0.002299 0.027683 0.000546 0.000000 -0.006816 0.000000
# 3 -0.000950 0.000546 0.020076 0.000000 -0.002007 0.000000
# 4 0.000000 0.000000 0.000000 0.039755 0.000000 -0.013220
# 5 -0.000428 -0.006816 -0.002007 0.000000 0.026172 0.000000
# 6 0.000000 0.000000 0.000000 -0.013220 0.000000 0.030650
#
#
# Mechanical properties :
#
#
# Convention : Reuss Voigt Hill
#
# Bulk Modulus (GPa) = 13.93697 14.83429 14.38563
# Shear Modulus (GPa) = 24.62355 29.62987 27.12671
#
# Velocity S-wave (km/s) = 3.20016 3.51044 3.35888
# Velocity P-wave (km/s) = 4.41035 4.75400 4.58539
#
# Compressibility (1/GPa) = 0.07175159
#
# Stress axis : x y z
#
# Youngs Moduli (GPa) = 34.01502 36.12310 49.81173
#
# Poissons Ratio (x) = 0.08304 0.04734
# Poissons Ratio (y) = 0.07819 -0.02722
# Poissons Ratio (z) = 0.03233 -0.01974
#
# Static dielectric constant tensor:
#      x y z
#    x 1.946480 0.000000 0.033390 
#    y 0.000000 1.964630 0.000000 
#    z 0.033390 0.000000 1.979790 
# 
# From -- ./inp_files/6282.got.cif
#   From: 2010.05.17/outbox.cif.g08.bks.cpg/sg4_4_cif.got.tgz:6282.got - 2010.06.03 18:43:04.
