data_PCOD9115748
_publ_section_title
;
Structure prediction by ZEFSAII (Michael W. Deem and Ramdas Pophale) SiO2 
 PCOD9115748
Probable space group: P 21
;
_chemical_formula_sum "Si O2"
_cell_formula_units_Z 16
_cell_length_a 6.164475
_cell_length_b 15.323734
_cell_length_c 7.362173
_cell_angle_alpha 90.000000
_cell_angle_beta 110.267207
_cell_angle_gamma 90.000000
_cell_volume 652.394059
_symmetry_space_group_name_H-M "P 21"
_symmetry_group_IT_number 4
_symmetry_cell_setting 'monoclinic'
loop_
_space_group_symop_operation_xyz
x,y,z
-x,1/2+y,-z
loop_
_atom_site_type_symbol
_atom_site_label
_atom_site_fract_x
_atom_site_fract_y
_atom_site_fract_z
Si Si1 0.942134 0.507930 0.772906
Si Si2 0.326724 0.691509 0.298050
Si Si3 0.591927 0.042800 0.945367
Si Si4 0.223360 0.733137 0.645358
Si Si5 0.032605 0.324573 0.884094
Si Si6 0.234262 0.303626 0.535920
Si Si7 0.435718 0.917169 0.592188
Si Si8 0.689066 0.657479 0.914888
O O1 0.767190 0.473087 0.565219
O O2 0.818642 0.595607 0.808843
O O3 0.970411 0.423822 0.916730
O O4 0.219554 0.526008 0.840140
O O5 0.291764 0.610248 0.160570
O O6 0.199630 0.677633 0.452830
O O7 0.588403 0.722367 0.401482
O O8 0.212935 0.776925 0.180319
O O9 0.529674 0.960473 0.802754
O O10 0.352556 0.088961 0.933954
O O11 0.332001 0.824399 0.614653
O O12 0.421797 0.685105 0.810109
O O13 0.976719 0.764392 0.643048
O O14 0.135891 0.327165 0.707160
O O15 0.192047 0.250644 0.020232
O O16 0.357990 0.387762 0.484236
#
# Coordination Sequence:
#
# PCOD9115748 Si02
#       8
#     2   2   2   2   2   2   2   2
#     4  12  26  47  73 109 154 193 251 314 373 444
#     4  10  20  45  71  94 141 191 237 302 359 438
#     4  12  27  44  68 112 148 190 245 312 372 443
#     4  10  23  45  72 104 139 198 251 293 374 450
#     4  11  22  47  72 101 149 192 250 301 374 435
#     4  10  20  44  77  97 133 205 239 294 375 441
#     4  11  25  47  70 106 151 190 243 310 372 444
#     4  12  27  45  73 115 145 197 258 308 375 449
#
# _framework density 24.525054000000001
#
# number of rings (size 3 to 8) (size 9 to 14) (size 15 to 20)
#    0.000    1.000    6.250    1.500    1.750    4.000 
#    6.750    0.000    0.000    0.000    0.000    0.000 
#    0.000    0.000    0.000    0.000    0.000    0.000 
#
# Total GULP energy -89220.736970 kJ/mol
# GULP energy per Si atom -5576.296061 kJ/mol
# Density = 2.446923 g / cm^3
# Si number density = 24.525054 Si / 1000 Ang^3
#
#
#
# Elastic Constant Matrix: (Units=GPa)
#
#
# Indices 1 2 3 4 5 6 
#
# 1 75.9628 28.0418 35.8559 0.0000 22.6449 0.0000
# 2 28.0418 103.4129 26.6511 0.0000 8.4630 0.0000
# 3 35.8559 26.6511 59.7919 0.0000 16.3795 0.0000
# 4 0.0000 0.0000 0.0000 44.2721 0.0000 3.3777
# 5 22.6449 8.4630 16.3795 0.0000 42.7224 0.0000
# 6 0.0000 0.0000 0.0000 3.3777 0.0000 39.0948
#
#
#
# Elastic Compliance Matrix: (Units=1/GPa)
#
#
# Indices 1 2 3 4 5 6 
#
# 1 0.020546 -0.002620 -0.009287 0.000000 -0.006810 0.000000
# 2 -0.002620 0.011263 -0.003596 0.000000 0.000536 0.000000
# 3 -0.009287 -0.003596 0.024976 0.000000 -0.003941 0.000000
# 4 0.000000 0.000000 0.000000 0.022737 0.000000 -0.001964
# 5 -0.006810 0.000536 -0.003941 0.000000 0.028421 0.000000
# 6 0.000000 0.000000 0.000000 -0.001964 0.000000 0.025749
#
#
# Mechanical properties :
#
#
# Convention : Reuss Voigt Hill
#
# Bulk Modulus (GPa) = 38.79226 46.69614 42.74420
# Shear Modulus (GPa) = 28.85297 35.12578 31.98938
#
# Velocity S-wave (km/s) = 3.43369 3.78860 3.61550
# Velocity P-wave (km/s) = 5.61890 6.18219 5.90727
#
# Compressibility (1/GPa) = 0.02577834
#
# Stress axis : x y z
#
# Youngs Moduli (GPa) = 48.67228 88.78336 40.03798
#
# Poissons Ratio (x) = 0.23265 0.37183
# Poissons Ratio (y) = 0.12754 0.14397
# Poissons Ratio (z) = 0.45202 0.31926
#
# Static dielectric constant tensor:
#      x y z
#    x 2.065410 0.000000 0.019370 
#    y 0.000000 1.973820 0.000000 
#    z 0.019370 0.000000 2.094620 
# 
# From -- ./inp_files/4830.got.cif
#   From: 2010.05.17/outbox.cif.g08.bks.cpg/sg4_3_cif.got.tgz:4830.got - 2010.06.03 18:43:04.
