data_PCOD9115248
_publ_section_title
;
Structure prediction by ZEFSAII (Michael W. Deem and Ramdas Pophale) SiO2 
 PCOD9115248
Probable space group: P 21
;
_chemical_formula_sum "Si O2"
_cell_formula_units_Z 16
_cell_length_a 12.036357
_cell_length_b 8.630349
_cell_length_c 11.073097
_cell_angle_alpha 90.000000
_cell_angle_beta 35.356779
_cell_angle_gamma 90.000000
_cell_volume 665.611132
_symmetry_space_group_name_H-M "P 21"
_symmetry_group_IT_number 4
_symmetry_cell_setting 'monoclinic'
loop_
_space_group_symop_operation_xyz
x,y,z
-x,1/2+y,-z
loop_
_atom_site_type_symbol
_atom_site_label
_atom_site_fract_x
_atom_site_fract_y
_atom_site_fract_z
Si Si1 0.675806 0.209470 0.713333
Si Si2 0.840521 0.717656 0.471848
Si Si3 0.537141 0.869930 0.886512
Si Si4 0.989978 0.376725 0.303061
Si Si5 0.693444 0.749950 0.100280
Si Si6 0.226332 0.841406 0.757614
Si Si7 0.385953 0.182825 0.575743
Si Si8 0.837823 0.410884 0.926193
O O1 0.887941 0.257860 0.485198
O O2 0.637969 0.037555 0.795879
O O3 0.586697 0.328655 0.887561
O O4 0.530388 0.224069 0.728985
O O5 0.705226 0.750526 0.705373
O O6 0.932085 0.548223 0.394258
O O7 0.708181 0.721900 0.468670
O O8 0.004401 0.846734 0.305804
O O9 0.375513 0.861659 0.925018
O O10 0.899781 0.339545 0.250615
O O11 0.215029 0.370784 0.073892
O O12 0.813757 0.595173 0.960369
O O13 0.702113 0.780610 0.234537
O O14 0.387307 0.710528 0.624151
O O15 0.337800 0.005682 0.651144
O O16 0.116185 0.843204 0.982400
#
# Coordination Sequence:
#
# PCOD9115248 Si02
#       8
#     2   2   2   2   2   2   2   2
#     4  11  24  43  65  87 118 159 204 253 300 352
#     4  11  23  38  62  94 124 157 198 246 300 358
#     4  11  24  43  65  87 118 159 204 253 300 352
#     4  11  23  38  62  94 124 157 198 246 300 358
#     4  10  22  40  62  89 122 161 199 242 300 358
#     4  10  20  36  60  91 124 158 196 241 297 358
#     4  10  20  36  60  91 124 158 196 241 297 358
#     4  10  22  40  62  89 122 161 199 242 300 358
#
# _framework density 24.038060000000002
#
# number of rings (size 3 to 8) (size 9 to 14) (size 15 to 20)
#    0.000    1.500    2.500    2.250    0.000    5.000 
#    0.000    0.000    0.000    0.000    0.000    0.000 
#    0.000    0.000    0.000    0.000    0.000    0.000 
#
# Total GULP energy -89514.036746 kJ/mol
# GULP energy per Si atom -5594.627297 kJ/mol
# Density = 2.398335 g / cm^3
# Si number density = 24.038060 Si / 1000 Ang^3
#
#
#
# Elastic Constant Matrix: (Units=GPa)
#
#
# Indices 1 2 3 4 5 6 
#
# 1 43.2035 8.4962 -11.2000 0.0000 2.3550 0.0000
# 2 8.4962 26.6878 -3.9872 0.0000 -0.2684 0.0000
# 3 -11.2000 -3.9872 66.4235 0.0000 14.0744 0.0000
# 4 0.0000 0.0000 0.0000 41.6108 0.0000 -2.4728
# 5 2.3550 -0.2684 14.0744 0.0000 30.4720 0.0000
# 6 0.0000 0.0000 0.0000 -2.4728 0.0000 22.2616
#
#
#
# Elastic Compliance Matrix: (Units=1/GPa)
#
#
# Indices 1 2 3 4 5 6 
#
# 1 0.026147 -0.007640 0.004869 0.000000 -0.004337 0.000000
# 2 -0.007640 0.040059 0.001016 0.000000 0.000474 0.000000
# 3 0.004869 0.001016 0.017752 0.000000 -0.008567 0.000000
# 4 0.000000 0.000000 0.000000 0.024192 0.000000 0.002687
# 5 -0.004337 0.000474 -0.008567 0.000000 0.037113 0.000000
# 6 0.000000 0.000000 0.000000 0.002687 0.000000 0.045219
#
#
# Mechanical properties :
#
#
# Convention : Reuss Voigt Hill
#
# Bulk Modulus (GPa) = 12.43035 13.65921 13.04478
# Shear Modulus (GPa) = 22.64397 28.40261 25.52329
#
# Velocity S-wave (km/s) = 3.07254 3.44112 3.26204
# Velocity P-wave (km/s) = 4.21541 4.63499 4.43017
#
# Compressibility (1/GPa) = 0.08044824
#
# Stress axis : x y z
#
# Youngs Moduli (GPa) = 38.24460 24.96303 56.33137
#
# Poissons Ratio (x) = 0.19073 -0.27429
# Poissons Ratio (y) = 0.29220 -0.05723
# Poissons Ratio (z) = -0.18622 -0.02536
#
# Static dielectric constant tensor:
#      x y z
#    x 1.963480 0.000000 -0.009090 
#    y 0.000000 1.899020 0.000000 
#    z -0.009090 0.000000 1.892640 
# 
# From -- ./inp_files/2583.got.cif
#   From: 2010.05.17/outbox.cif.g08.bks.cpg/sg4_2_cif.got.tgz:2583.got - 2010.06.03 18:43:04.
