data_PCOD9115416
_publ_section_title
;
Structure prediction by ZEFSAII (Michael W. Deem and Ramdas Pophale) SiO2 
 PCOD9115416
Probable space group: P 21
;
_chemical_formula_sum "Si O2"
_cell_formula_units_Z 16
_cell_length_a 10.688161
_cell_length_b 8.096951
_cell_length_c 9.248031
_cell_angle_alpha 90.000000
_cell_angle_beta 46.259509
_cell_angle_gamma 90.000000
_cell_volume 578.227621
_symmetry_space_group_name_H-M "P 21"
_symmetry_group_IT_number 4
_symmetry_cell_setting 'monoclinic'
loop_
_space_group_symop_operation_xyz
x,y,z
-x,1/2+y,-z
loop_
_atom_site_type_symbol
_atom_site_label
_atom_site_fract_x
_atom_site_fract_y
_atom_site_fract_z
Si Si1 0.381420 0.772760 0.567949
Si Si2 0.662357 0.908614 0.523674
Si Si3 0.935399 0.558694 0.506192
Si Si4 0.991704 0.885327 0.826872
Si Si5 0.563618 0.447432 0.761381
Si Si6 0.810853 0.570059 0.919706
Si Si7 0.023193 0.749334 0.180640
Si Si8 0.412148 0.591202 0.141705
O O1 0.494707 0.798816 0.620132
O O2 0.373735 0.584924 0.522463
O O3 0.185271 0.836779 0.716587
O O4 0.475565 0.878134 0.364862
O O5 0.829949 0.821678 0.322869
O O6 0.683480 0.964021 0.674786
O O7 0.003206 0.408498 0.352475
O O8 0.731047 0.565662 0.625340
O O9 0.932508 0.561877 0.679249
O O10 0.035146 0.703399 0.342227
O O11 0.865251 0.734569 0.960345
O O12 0.951593 0.070747 0.913115
O O13 0.625463 0.282840 0.799833
O O14 0.412906 0.531307 0.975689
O O15 0.850538 0.396008 0.960690
O O16 0.613454 0.579221 0.029889
#
# Coordination Sequence:
#
# PCOD9115416 Si02
#       8
#     2   2   2   2   2   2   2   2
#     4  10  20  38  65  89 121 163 221 261 296 370
#     4  11  22  39  66  95 121 166 216 267 303 373
#     4   8  19  34  55  87 119 163 210 252 295 372
#     4   9  19  35  58  88 118 157 211 256 300 362
#     4   9  20  40  57  92 126 162 203 260 308 372
#     4  11  19  39  56  90 131 162 204 254 323 380
#     4  10  21  35  63  90 120 165 217 258 303 371
#     4  10  24  38  62  95 136 160 202 262 332 374
#
# _framework density 27.670764999999999
#
# number of rings (size 3 to 8) (size 9 to 14) (size 15 to 20)
#    0.750    1.500    1.250    1.500    3.500    0.000 
#    4.500    0.000    8.250    0.000    0.000    0.000 
#    0.000    0.000    0.000    0.000    0.000    0.000 
#
# Total GULP energy -89610.346166 kJ/mol
# GULP energy per Si atom -5600.646635 kJ/mol
# Density = 2.760779 g / cm^3
# Si number density = 27.670765 Si / 1000 Ang^3
#
#
#
# Elastic Constant Matrix: (Units=GPa)
#
#
# Indices 1 2 3 4 5 6 
#
# 1 76.4878 17.3491 32.8966 0.0000 -9.5196 0.0000
# 2 17.3491 129.6722 12.7752 0.0000 1.8179 0.0000
# 3 32.8966 12.7752 82.7189 0.0000 9.6333 0.0000
# 4 0.0000 0.0000 0.0000 24.5615 0.0000 3.9724
# 5 -9.5196 1.8179 9.6333 0.0000 60.4931 0.0000
# 6 0.0000 0.0000 0.0000 3.9724 0.0000 31.3992
#
#
#
# Elastic Compliance Matrix: (Units=1/GPa)
#
#
# Indices 1 2 3 4 5 6 
#
# 1 0.016889 -0.001632 -0.006908 0.000000 0.003807 0.000000
# 2 -0.001632 0.007989 -0.000537 0.000000 -0.000411 0.000000
# 3 -0.006908 -0.000537 0.015328 0.000000 -0.003512 0.000000
# 4 0.000000 0.000000 0.000000 0.041565 0.000000 -0.005258
# 5 0.003807 -0.000411 -0.003512 0.000000 0.017702 0.000000
# 6 0.000000 0.000000 0.000000 -0.005258 0.000000 0.032513
#
#
# Mechanical properties :
#
#
# Convention : Reuss Voigt Hill
#
# Bulk Modulus (GPa) = 45.34708 46.10229 45.72469
# Shear Modulus (GPa) = 31.74804 38.34796 35.04800
#
# Velocity S-wave (km/s) = 3.39093 3.72676 3.56280
# Velocity P-wave (km/s) = 5.63515 5.93427 5.78664
#
# Compressibility (1/GPa) = 0.02205214
#
# Stress axis : x y z
#
# Youngs Moduli (GPa) = 59.20998 125.17520 65.23921
#
# Poissons Ratio (x) = 0.20434 0.45066
# Poissons Ratio (y) = 0.09666 0.03501
# Poissons Ratio (z) = 0.40901 0.06718
#
# Static dielectric constant tensor:
#      x y z
#    x 2.077120 0.000000 0.026220 
#    y 0.000000 2.153010 0.000000 
#    z 0.026220 0.000000 2.130570 
# 
# From -- ./inp_files/12117.got.cif
#   From: 2010.05.17/outbox.cif.g08.bks.cpg/sg4_7_cif.got.tgz:12117.got - 2010.06.03 18:43:04.
