data_PCOD9115379
_publ_section_title
;
Structure prediction by ZEFSAII (Michael W. Deem and Ramdas Pophale) SiO2 
 PCOD9115379
Probable space group: P 21
;
_chemical_formula_sum "Si O2"
_cell_formula_units_Z 10
_cell_length_a 7.169379
_cell_length_b 8.428372
_cell_length_c 8.190690
_cell_angle_alpha 90.000000
_cell_angle_beta 129.671570
_cell_angle_gamma 90.000000
_cell_volume 380.957451
_symmetry_space_group_name_H-M "P 21"
_symmetry_group_IT_number 4
_symmetry_cell_setting 'monoclinic'
loop_
_space_group_symop_operation_xyz
x,y,z
-x,1/2+y,-z
loop_
_atom_site_type_symbol
_atom_site_label
_atom_site_fract_x
_atom_site_fract_y
_atom_site_fract_z
Si Si1 0.517491 0.274570 0.433346
Si Si2 0.017734 0.597315 0.414004
Si Si3 0.745647 0.760280 0.013155
Si Si4 0.207987 0.915838 0.131488
Si Si5 0.024169 0.748046 0.742502
O O1 0.747165 0.157158 0.555127
O O2 0.481022 0.321740 0.221277
O O3 0.598534 0.396539 0.618268
O O4 0.248646 0.226610 0.342434
O O5 0.973508 0.416526 0.347621
O O6 0.072480 0.617261 0.634881
O O7 0.798404 0.713985 0.230670
O O8 0.776889 0.580988 0.955708
O O9 0.950449 0.885345 0.073595
O O10 0.207823 0.775232 0.995380
#
# Coordination Sequence:
#
# PCOD9115379 Si02
#       5
#     2   2   2   2   2
#     4  10  20  38  62  82 112 156 198 238 288 344
#     4  10  22  38  58  87 120 154 195 242 293 352
#     4   9  19  36  58  85 116 151 194 242 292 348
#     4   9  19  36  58  85 116 151 194 242 292 348
#     4  10  22  38  58  87 120 154 195 242 293 352
#
# _framework density 26.249651
#
# number of rings (size 3 to 8) (size 9 to 14) (size 15 to 20)
#    0.000    2.400    0.000    1.200    0.000   11.200 
#    0.000    0.000    0.000    0.000    0.000    0.000 
#    0.000    0.000    0.000    0.000    0.000    0.000 
#
# Total GULP energy -55794.954795 kJ/mol
# GULP energy per Si atom -5579.495480 kJ/mol
# Density = 2.618991 g / cm^3
# Si number density = 26.249651 Si / 1000 Ang^3
#
#
#
# Elastic Constant Matrix: (Units=GPa)
#
#
# Indices 1 2 3 4 5 6 
#
# 1 79.2153 22.6705 14.6171 0.0000 5.6964 0.0000
# 2 22.6705 49.6029 35.2019 0.0000 -14.4408 0.0000
# 3 14.6171 35.2019 167.3723 0.0000 -10.7139 0.0000
# 4 0.0000 0.0000 0.0000 44.9552 0.0000 -11.5013
# 5 5.6964 -14.4408 -10.7139 0.0000 46.6360 0.0000
# 6 0.0000 0.0000 0.0000 -11.5013 0.0000 35.4959
#
#
#
# Elastic Compliance Matrix: (Units=1/GPa)
#
#
# Indices 1 2 3 4 5 6 
#
# 1 0.015319 -0.008395 0.000144 0.000000 -0.004438 0.000000
# 2 -0.008395 0.030264 -0.005041 0.000000 0.009239 0.000000
# 3 0.000144 -0.005041 0.007025 0.000000 0.000035 0.000000
# 4 0.000000 0.000000 0.000000 0.024255 0.000000 0.007859
# 5 -0.004438 0.009239 0.000035 0.000000 0.024854 0.000000
# 6 0.000000 0.000000 0.000000 0.007859 0.000000 0.030719
#
#
# Mechanical properties :
#
#
# Convention : Reuss Voigt Hill
#
# Bulk Modulus (GPa) = 38.42726 49.01883 43.72305
# Shear Modulus (GPa) = 29.81625 40.33082 35.07354
#
# Velocity S-wave (km/s) = 3.37393 3.92399 3.65931
# Velocity P-wave (km/s) = 5.46340 6.26457 5.87765
#
# Compressibility (1/GPa) = 0.02602319
#
# Stress axis : x y z
#
# Youngs Moduli (GPa) = 65.27800 33.04258 142.35793
#
# Poissons Ratio (x) = 0.27741 -0.02047
# Poissons Ratio (y) = 0.54804 0.71756
# Poissons Ratio (z) = -0.00939 0.16655
#
# Static dielectric constant tensor:
#      x y z
#    x 2.113510 0.000000 -0.045710 
#    y 0.000000 2.103450 0.000000 
#    z -0.045710 0.000000 2.180830 
# 
# From -- ./inp_files/1007.got.cif
#   From: 2010.05.17/outbox.cif.g08.bks.cpg/sg4_1_cif.got.tgz:1007.got - 2010.06.03 18:43:04.
