data_PCOD9115459
_publ_section_title
;
Structure prediction by ZEFSAII (Michael W. Deem and Ramdas Pophale) SiO2 
 PCOD9115459
Probable space group: P 21
;
_chemical_formula_sum "Si O2"
_cell_formula_units_Z 14
_cell_length_a 14.996589
_cell_length_b 6.855584
_cell_length_c 14.983794
_cell_angle_alpha 90.000000
_cell_angle_beta 20.450571
_cell_angle_gamma 90.000000
_cell_volume 538.245772
_symmetry_space_group_name_H-M "P 21"
_symmetry_group_IT_number 4
_symmetry_cell_setting 'monoclinic'
loop_
_space_group_symop_operation_xyz
x,y,z
-x,1/2+y,-z
loop_
_atom_site_type_symbol
_atom_site_label
_atom_site_fract_x
_atom_site_fract_y
_atom_site_fract_z
Si Si1 0.548658 0.901530 0.853140
Si Si2 0.779994 0.613087 0.761520
Si Si3 0.297797 0.813584 0.323850
Si Si4 0.142091 0.771305 0.983661
Si Si5 0.347072 0.780960 0.483554
Si Si6 0.891176 0.723337 0.029897
Si Si7 0.685769 0.819805 0.525988
O O1 0.720698 0.834064 0.771600
O O2 0.628630 0.833344 0.683486
O O3 0.498411 0.146350 0.905877
O O4 0.254004 0.885878 0.154802
O O5 0.721219 0.502803 0.719126
O O6 0.048404 0.678273 0.553698
O O7 0.359591 0.854686 0.369270
O O8 0.011262 0.705605 0.014821
O O9 0.951703 0.731529 0.244279
O O10 0.437452 0.716487 0.716695
O O11 0.146661 0.006588 0.972008
O O12 0.610080 0.815036 0.289910
O O13 0.320862 0.545828 0.498166
O O14 0.095108 0.832470 0.775753
#
# Coordination Sequence:
#
# PCOD9115459 Si02
#       7
#     2   2   2   2   2   2   2
#     4  11  24  41  65  95 134 171 223 277 336 394
#     4  12  24  42  66  98 128 178 228 278 334 402
#     4  11  24  41  65  95 134 171 223 277 336 394
#     4  10  20  39  61  89 119 162 207 259 328 393
#     4   9  21  37  63  87 124 167 206 260 330 395
#     4  10  20  39  61  89 119 162 207 259 328 393
#     4   9  21  37  63  87 124 167 206 260 330 395
#
# _framework density 26.010421999999998
#
# number of rings (size 3 to 8) (size 9 to 14) (size 15 to 20)
#    0.000    1.714    2.857    0.857   10.000    0.000 
#    5.143    0.000    0.000    0.000    0.000    0.000 
#    0.000    0.000    0.000    0.000    0.000    0.000 
#
# Total GULP energy -78075.764198 kJ/mol
# GULP energy per Si atom -5576.840300 kJ/mol
# Density = 2.595122 g / cm^3
# Si number density = 26.010422 Si / 1000 Ang^3
#
#
#
# Elastic Constant Matrix: (Units=GPa)
#
#
# Indices 1 2 3 4 5 6 
#
# 1 69.9836 -1.7999 -1.4206 0.0000 0.3064 0.0000
# 2 -1.7999 81.8030 -9.6089 0.0000 3.8941 0.0000
# 3 -1.4206 -9.6089 79.1601 0.0000 -5.3100 0.0000
# 4 0.0000 0.0000 0.0000 -7.1597 0.0000 -4.6436
# 5 0.3064 3.8941 -5.3100 0.0000 44.5297 0.0000
# 6 0.0000 0.0000 0.0000 -4.6436 0.0000 -101.9888
#
#
#
# Elastic Compliance Matrix: (Units=1/GPa)
#
#
# Indices 1 2 3 4 5 6 
#
# 1 0.014305 0.000354 0.000293 0.000000 -0.000094 0.000000
# 2 0.000354 0.012447 0.001456 0.000000 -0.000917 0.000000
# 3 0.000293 0.001456 0.012909 0.000000 0.001410 0.000000
# 4 0.000000 0.000000 0.000000 -0.143921 0.000000 0.006553
# 5 -0.000094 -0.000917 0.001410 0.000000 0.022706 0.000000
# 6 0.000000 0.000000 0.000000 0.006553 0.000000 -0.010103
#
#
# Mechanical properties :
#
#
# Convention : Reuss Voigt Hill
#
# Bulk Modulus (GPa) = 22.79671 22.80978 22.80324
# Shear Modulus (GPa) = -61.54500 3.32800 -29.10850
#
# Velocity S-wave (km/s) = -4.86960 1.13237 -3.34894
# Velocity P-wave (km/s) = 4.77848 3.24009 2.48352
#
# Compressibility (1/GPa) = 0.04386598
#
# Stress axis : x y z
#
# Youngs Moduli (GPa) = 69.90795 80.34111 77.46427
#
# Poissons Ratio (x) = -0.02842 -0.02272
# Poissons Ratio (y) = -0.02473 -0.11276
# Poissons Ratio (z) = -0.02050 -0.11695
#
# Static dielectric constant tensor:
#      x y z
#    x 1.995080 0.000000 0.051850 
#    y 0.000000 2.249950 0.000000 
#    z 0.051850 0.000000 2.385280 
# 
# From -- ./inp_files/3396.got.cif
#   From: 2010.05.17/outbox.cif.g08.bks.cpg/sg4_2_cif.got.tgz:3396.got - 2010.06.03 18:43:04.
