data_PCOD9115518
_publ_section_title
;
Structure prediction by ZEFSAII (Michael W. Deem and Ramdas Pophale) SiO2 
 PCOD9115518
Probable space group: P 21
;
_chemical_formula_sum "Si O2"
_cell_formula_units_Z 8
_cell_length_a 10.547219
_cell_length_b 5.015208
_cell_length_c 15.238684
_cell_angle_alpha 90.000000
_cell_angle_beta 159.740621
_cell_angle_gamma 90.000000
_cell_volume 279.119406
_symmetry_space_group_name_H-M "P 21"
_symmetry_group_IT_number 4
_symmetry_cell_setting 'monoclinic'
loop_
_space_group_symop_operation_xyz
x,y,z
-x,1/2+y,-z
loop_
_atom_site_type_symbol
_atom_site_label
_atom_site_fract_x
_atom_site_fract_y
_atom_site_fract_z
Si Si1 0.751002 0.887540 0.430918
Si Si2 0.533888 0.874206 0.666822
Si Si3 0.077784 0.163107 0.921056
Si Si4 0.525447 0.988319 0.956048
O O1 0.711559 0.597060 0.445604
O O2 0.151939 0.961018 0.656949
O O3 0.671610 0.094493 0.459531
O O4 0.428206 0.963154 0.153790
O O5 0.872005 0.829671 0.955667
O O6 0.714948 0.989549 0.697005
O O7 0.143902 0.373524 0.887024
O O8 0.452245 0.775362 0.986203
#
# Coordination Sequence:
#
# PCOD9115518 Si02
#       4
#     2   2   2   2
#     4  10  22  41  69 100 130 177 237 271 339 392
#     4  10  20  39  74 103 120 170 243 294 315 384
#     4  10  23  41  76  99 133 169 242 280 337 391
#     4  12  29  43  63 104 151 182 214 281 357 413
#
# _framework density 28.661569
#
# number of rings (size 3 to 8) (size 9 to 14) (size 15 to 20)
#    1.500    0.000    2.500    1.500    7.000    0.000 
#    0.000    5.000    0.000    0.000    0.000    0.000 
#    0.000    0.000    0.000    0.000    0.000    0.000 
#
# Total GULP energy -44852.851406 kJ/mol
# GULP energy per Si atom -5606.606426 kJ/mol
# Density = 2.859633 g / cm^3
# Si number density = 28.661569 Si / 1000 Ang^3
#
#
#
# Elastic Constant Matrix: (Units=GPa)
#
#
# Indices 1 2 3 4 5 6 
#
# 1 145.8816 37.1495 12.1049 0.0000 8.9820 0.0000
# 2 37.1495 139.9763 7.9723 0.0000 -3.7214 0.0000
# 3 12.1049 7.9723 81.2827 0.0000 21.6576 0.0000
# 4 0.0000 0.0000 0.0000 49.3694 0.0000 1.2072
# 5 8.9820 -3.7214 21.6576 0.0000 39.1270 0.0000
# 6 0.0000 0.0000 0.0000 1.2072 0.0000 54.9652
#
#
#
# Elastic Compliance Matrix: (Units=1/GPa)
#
#
# Indices 1 2 3 4 5 6 
#
# 1 0.007508 -0.002009 -0.000482 0.000000 -0.001648 0.000000
# 2 -0.002009 0.007775 -0.000919 0.000000 0.001709 0.000000
# 3 -0.000482 -0.000919 0.014614 0.000000 -0.008066 0.000000
# 4 0.000000 0.000000 0.000000 0.020266 0.000000 -0.000445
# 5 -0.001648 0.001709 -0.008066 0.000000 0.030563 0.000000
# 6 0.000000 0.000000 0.000000 -0.000445 0.000000 0.018203
#
#
# Mechanical properties :
#
#
# Convention : Reuss Voigt Hill
#
# Bulk Modulus (GPa) = 43.33304 53.51046 48.42175
# Shear Modulus (GPa) = 44.07567 49.35324 46.71446
#
# Velocity S-wave (km/s) = 3.92573 4.15412 4.04154
# Velocity P-wave (km/s) = 5.97496 6.45904 6.22171
#
# Compressibility (1/GPa) = 0.02307708
#
# Stress axis : x y z
#
# Youngs Moduli (GPa) = 133.19279 128.61713 68.42873
#
# Poissons Ratio (x) = 0.25838 0.03298
# Poissons Ratio (y) = 0.26758 0.06287
# Poissons Ratio (z) = 0.06420 0.11818
#
# Static dielectric constant tensor:
#      x y z
#    x 2.199630 0.000000 -0.100910 
#    y 0.000000 2.162070 0.000000 
#    z -0.100910 0.000000 2.346130 
# 
# From -- ./inp_files/881.got.cif
#   From: 2010.05.17/outbox.cif.g08.bks.cpg/sg4_1_cif.got.tgz:881.got - 2010.06.03 18:43:04.
