data_PCOD9115304
_publ_section_title
;
Structure prediction by ZEFSAII (Michael W. Deem and Ramdas Pophale) SiO2 
 PCOD9115304
Probable space group: P 21
;
_chemical_formula_sum "Si O2"
_cell_formula_units_Z 14
_cell_length_a 11.264023
_cell_length_b 8.555274
_cell_length_c 9.777944
_cell_angle_alpha 90.000000
_cell_angle_beta 145.282802
_cell_angle_gamma 90.000000
_cell_volume 536.647069
_symmetry_space_group_name_H-M "P 21"
_symmetry_group_IT_number 4
_symmetry_cell_setting 'monoclinic'
loop_
_space_group_symop_operation_xyz
x,y,z
-x,1/2+y,-z
loop_
_atom_site_type_symbol
_atom_site_label
_atom_site_fract_x
_atom_site_fract_y
_atom_site_fract_z
Si Si1 0.320349 0.269960 0.311744
Si Si2 0.967050 0.663505 0.580048
Si Si3 0.368809 0.179518 0.069851
Si Si4 0.061714 0.581057 0.975366
Si Si5 0.633496 0.908494 0.365640
Si Si6 0.112652 0.706576 0.303006
Si Si7 0.725308 0.366711 0.302522
O O1 0.445756 0.215560 0.299036
O O2 0.174714 0.418372 0.123000
O O3 0.433890 0.328755 0.555564
O O4 0.182294 0.118486 0.224259
O O5 0.149669 0.736527 0.663021
O O6 0.780112 0.784881 0.430658
O O7 0.840287 0.528641 0.380645
O O8 0.076824 0.619951 0.829516
O O9 0.485611 0.307301 0.085896
O O10 0.447436 0.002176 0.114915
O O11 0.125690 0.197558 0.866849
O O12 0.145489 0.700238 0.171238
O O13 0.791900 0.046620 0.551654
O O14 0.204252 0.851449 0.471054
#
# Coordination Sequence:
#
# PCOD9115304 Si02
#       7
#     2   2   2   2   2   2   2
#     4   9  18  34  59  93 122 152 199 246 295 350
#     4  11  22  41  61  85 121 163 200 242 302 356
#     4  10  20  37  60  88 120 156 198 245 295 352
#     4   9  18  36  63  89 116 154 197 241 293 351
#     4   9  20  38  60  87 122 158 196 245 296 352
#     4   9  19  40  65  90 119 153 196 247 298 349
#     4  11  23  40  62  86 122 160 198 248 297 354
#
# _framework density 26.087907999999999
#
# number of rings (size 3 to 8) (size 9 to 14) (size 15 to 20)
#    0.000    2.286    0.000    3.429    0.000    3.429 
#    0.000   22.857    0.000    0.000    0.000    0.000 
#    0.000    0.000    0.000    0.000    0.000    0.000 
#
# Total GULP energy -78084.585505 kJ/mol
# GULP energy per Si atom -5577.470393 kJ/mol
# Density = 2.602853 g / cm^3
# Si number density = 26.087908 Si / 1000 Ang^3
#
#
#
# Elastic Constant Matrix: (Units=GPa)
#
#
# Indices 1 2 3 4 5 6 
#
# 1 142.8282 34.5789 13.5838 0.0000 7.0117 0.0000
# 2 34.5789 65.6231 1.5782 0.0000 4.5216 0.0000
# 3 13.5838 1.5782 88.4251 0.0000 -4.5065 0.0000
# 4 0.0000 0.0000 0.0000 6.8914 0.0000 0.8198
# 5 7.0117 4.5216 -4.5065 0.0000 47.1510 0.0000
# 6 0.0000 0.0000 0.0000 0.8198 0.0000 39.9659
#
#
#
# Elastic Compliance Matrix: (Units=1/GPa)
#
#
# Indices 1 2 3 4 5 6 
#
# 1 0.008186 -0.004220 -0.001230 0.000000 -0.000930 0.000000
# 2 -0.004220 0.017526 0.000283 0.000000 -0.001026 0.000000
# 3 -0.001230 0.000283 0.011557 0.000000 0.001260 0.000000
# 4 0.000000 0.000000 0.000000 0.145464 0.000000 -0.002984
# 5 -0.000930 -0.001026 0.001260 0.000000 0.021566 0.000000
# 6 0.000000 0.000000 0.000000 -0.002984 0.000000 0.025083
#
#
# Mechanical properties :
#
#
# Convention : Reuss Voigt Hill
#
# Bulk Modulus (GPa) = 37.12443 44.03982 40.58212
# Shear Modulus (GPa) = 20.10520 35.27736 27.69128
#
# Velocity S-wave (km/s) = 2.77911 3.68128 3.26154
# Velocity P-wave (km/s) = 4.95574 5.91499 5.45648
#
# Compressibility (1/GPa) = 0.02693644
#
# Stress axis : x y z
#
# Youngs Moduli (GPa) = 122.16597 57.05854 86.52714
#
# Poissons Ratio (x) = 0.24076 0.10639
# Poissons Ratio (y) = 0.51549 -0.02450
# Poissons Ratio (z) = 0.15021 -0.01615
#
# Static dielectric constant tensor:
#      x y z
#    x 2.010440 0.000000 -0.088010 
#    y 0.000000 2.087260 0.000000 
#    z -0.088010 0.000000 2.258040 
# 
# From -- ./inp_files/12127.got.cif
#   From: 2010.05.17/outbox.cif.g08.bks.cpg/sg4_7_cif.got.tgz:12127.got - 2010.06.03 18:43:04.
