data_PCOD9115215
_publ_section_title
;
Structure prediction by ZEFSAII (Michael W. Deem and Ramdas Pophale) SiO2 
 PCOD9115215
Probable space group: P 21
;
_chemical_formula_sum "Si O2"
_cell_formula_units_Z 10
_cell_length_a 7.720636
_cell_length_b 4.837200
_cell_length_c 14.322331
_cell_angle_alpha 90.000000
_cell_angle_beta 46.502073
_cell_angle_gamma 90.000000
_cell_volume 388.005557
_symmetry_space_group_name_H-M "P 21"
_symmetry_group_IT_number 4
_symmetry_cell_setting 'monoclinic'
loop_
_space_group_symop_operation_xyz
x,y,z
-x,1/2+y,-z
loop_
_atom_site_type_symbol
_atom_site_label
_atom_site_fract_x
_atom_site_fract_y
_atom_site_fract_z
Si Si1 0.354848 0.614300 0.068327
Si Si2 0.724686 0.048031 0.528054
Si Si3 0.470435 0.562778 0.681242
Si Si4 0.008455 0.826892 0.935167
Si Si5 0.828777 0.825509 0.681836
O O1 0.259986 0.517984 0.203141
O O2 0.175363 0.495879 0.058745
O O3 0.596073 0.437835 0.959097
O O4 0.510791 0.255703 0.632063
O O5 0.865269 0.009901 0.575056
O O6 0.925867 0.167690 0.386451
O O7 0.604114 0.754930 0.555076
O O8 0.211024 0.674148 0.800335
O O9 0.621623 0.620755 0.720645
O O10 0.110806 0.076391 0.961852
#
# Coordination Sequence:
#
# PCOD9115215 Si02
#       5
#     2   2   2   2   2
#     4  12  28  43  67 101 130 175 224 283 321 393
#     4  10  20  35  66  96 120 177 206 271 314 398
#     4  10  20  36  62  91 125 168 218 251 334 376
#     4  12  25  45  64  93 135 182 217 267 340 395
#     4  10  21  39  65  95 132 162 229 256 327 386
#
# _framework density 25.772825999999998
#
# number of rings (size 3 to 8) (size 9 to 14) (size 15 to 20)
#    1.200    0.000    2.000    4.800    5.600    0.000 
#    0.000    2.000    0.000    0.000    0.000    0.000 
#    0.000    0.000    0.000    0.000    0.000    0.000 
#
# Total GULP energy -55977.828093 kJ/mol
# GULP energy per Si atom -5597.782809 kJ/mol
# Density = 2.571417 g / cm^3
# Si number density = 25.772826 Si / 1000 Ang^3
#
#
#
# Elastic Constant Matrix: (Units=GPa)
#
#
# Indices 1 2 3 4 5 6 
#
# 1 69.4682 -1.1180 3.6227 0.0000 -3.3448 0.0000
# 2 -1.1180 91.3489 -13.7618 0.0000 3.6621 0.0000
# 3 3.6227 -13.7618 69.5256 0.0000 -2.9298 0.0000
# 4 0.0000 0.0000 0.0000 35.4449 0.0000 -12.7120
# 5 -3.3448 3.6621 -2.9298 0.0000 38.3531 0.0000
# 6 0.0000 0.0000 0.0000 -12.7120 0.0000 23.1273
#
#
#
# Elastic Compliance Matrix: (Units=1/GPa)
#
#
# Indices 1 2 3 4 5 6 
#
# 1 0.014490 0.000024 -0.000699 0.000000 0.001208 0.000000
# 2 0.000024 0.011315 0.002200 0.000000 -0.000910 0.000000
# 3 -0.000699 0.002200 0.014892 0.000000 0.000867 0.000000
# 4 0.000000 0.000000 0.000000 0.035140 0.000000 0.019315
# 5 0.001208 -0.000910 0.000867 0.000000 0.026332 0.000000
# 6 0.000000 0.000000 0.000000 0.019315 0.000000 0.053855
#
#
# Mechanical properties :
#
#
# Convention : Reuss Voigt Hill
#
# Bulk Modulus (GPa) = 22.85951 23.09205 22.97578
# Shear Modulus (GPa) = 29.84050 35.49171 32.66611
#
# Velocity S-wave (km/s) = 3.40638 3.71495 3.56401
# Velocity P-wave (km/s) = 4.93559 5.23263 5.08628
#
# Compressibility (1/GPa) = 0.04374547
#
# Stress axis : x y z
#
# Youngs Moduli (GPa) = 69.01262 88.37612 67.15174
#
# Poissons Ratio (x) = -0.00208 0.04697
# Poissons Ratio (y) = -0.00162 -0.14774
# Poissons Ratio (z) = 0.04827 -0.19444
#
# Static dielectric constant tensor:
#      x y z
#    x 2.081980 0.000000 0.009280 
#    y 0.000000 1.959520 0.000000 
#    z 0.009280 0.000000 2.027650 
# 
# From -- ./inp_files/8881.got.cif
#   From: 2010.05.17/outbox.cif.g08.bks.cpg/sg4_5_cif.got.tgz:8881.got - 2010.06.03 18:43:04.
