data_PCOD9115004
_publ_section_title
;
Structure prediction by ZEFSAII (Michael W. Deem and Ramdas Pophale) SiO2 
 PCOD9115004
Probable space group: P 21
;
_chemical_formula_sum "Si O2"
_cell_formula_units_Z 16
_cell_length_a 19.535144
_cell_length_b 8.183234
_cell_length_c 6.133646
_cell_angle_alpha 90.000000
_cell_angle_beta 45.147835
_cell_angle_gamma 90.000000
_cell_volume 695.125115
_symmetry_space_group_name_H-M "P 21"
_symmetry_group_IT_number 4
_symmetry_cell_setting 'monoclinic'
loop_
_space_group_symop_operation_xyz
x,y,z
-x,1/2+y,-z
loop_
_atom_site_type_symbol
_atom_site_label
_atom_site_fract_x
_atom_site_fract_y
_atom_site_fract_z
Si Si1 0.239759 0.005480 0.122420
Si Si2 0.610969 0.065877 0.223934
Si Si3 0.065252 0.205167 0.546174
Si Si4 0.072126 0.494447 0.861361
Si Si5 0.229105 0.522312 0.823967
Si Si6 0.095581 0.716154 0.424908
Si Si7 0.687715 0.295266 0.674206
Si Si8 0.571389 0.390480 0.558958
O O1 0.178501 0.170956 0.258003
O O2 0.160825 0.871861 0.223679
O O3 0.262773 0.947557 0.317462
O O4 0.336974 0.983912 0.761318
O O5 0.678658 0.966755 0.241781
O O6 0.566314 0.210334 0.468238
O O7 0.527865 0.973283 0.283913
O O8 0.670622 0.165086 0.906358
O O9 0.045737 0.359453 0.744057
O O10 0.009539 0.227578 0.444378
O O11 0.014138 0.051104 0.785733
O O12 0.167236 0.432518 0.777539
O O13 0.095541 0.660132 0.673950
O O14 0.261151 0.690717 0.629571
O O15 0.149762 0.570319 0.178641
O O16 0.593452 0.367584 0.764836
#
# Coordination Sequence:
#
# PCOD9115004 Si02
#       8
#     2   2   2   2   2   2   2   2
#     4  11  21  42  63  95 127 170 213 262 328 376
#     4  10  21  42  66  96 124 170 211 261 326 389
#     4  11  26  38  65  95 133 168 219 267 317 385
#     4  11  23  41  62  99 125 176 217 263 322 384
#     4  10  19  39  67  89 127 165 213 258 320 382
#     4  11  20  40  67  89 125 176 215 263 317 385
#     4  10  19  38  68  90 126 168 207 261 321 387
#     4  10  23  42  68  93 129 167 213 267 325 384
#
# _framework density 23.017439
#
# number of rings (size 3 to 8) (size 9 to 14) (size 15 to 20)
#    0.000    1.500    5.000    1.500    1.750    6.000 
#    6.750    0.000    0.000    0.000    0.000    0.000 
#    0.000    0.000    0.000    0.000    0.000    0.000 
#
# Total GULP energy -89312.580474 kJ/mol
# GULP energy per Si atom -5582.036280 kJ/mol
# Density = 2.296505 g / cm^3
# Si number density = 23.017439 Si / 1000 Ang^3
#
#
#
# Elastic Constant Matrix: (Units=GPa)
#
#
# Indices 1 2 3 4 5 6 
#
# 1 172.0790 15.0662 19.6511 0.0000 1.1559 0.0000
# 2 15.0662 38.6077 1.1048 0.0000 -6.0920 0.0000
# 3 19.6511 1.1048 27.7330 0.0000 -1.7456 0.0000
# 4 0.0000 0.0000 0.0000 26.0902 0.0000 -8.7514
# 5 1.1559 -6.0920 -1.7456 0.0000 28.3967 0.0000
# 6 0.0000 0.0000 0.0000 -8.7514 0.0000 42.6569
#
#
#
# Elastic Compliance Matrix: (Units=1/GPa)
#
#
# Indices 1 2 3 4 5 6 
#
# 1 0.006575 -0.002609 -0.004625 0.000000 -0.001112 0.000000
# 2 -0.002609 0.027858 0.001126 0.000000 0.006152 0.000000
# 3 -0.004625 0.001126 0.039470 0.000000 0.002856 0.000000
# 4 0.000000 0.000000 0.000000 0.041161 0.000000 0.008444
# 5 -0.001112 0.006152 0.002856 0.000000 0.036756 0.000000
# 6 0.000000 0.000000 0.000000 0.008444 0.000000 0.025175
#
#
# Mechanical properties :
#
#
# Convention : Reuss Voigt Hill
#
# Bulk Modulus (GPa) = 16.21068 34.45156 25.33112
# Shear Modulus (GPa) = 23.83503 32.93526 28.38515
#
# Velocity S-wave (km/s) = 3.22144 3.78680 3.51551
# Velocity P-wave (km/s) = 4.57110 5.84123 5.24476
#
# Compressibility (1/GPa) = 0.06168774
#
# Stress axis : x y z
#
# Youngs Moduli (GPa) = 152.08256 35.89608 25.33543
#
# Poissons Ratio (x) = 0.09365 0.11718
# Poissons Ratio (y) = 0.39679 -0.02853
# Poissons Ratio (z) = 0.70342 -0.04042
#
# Static dielectric constant tensor:
#      x y z
#    x 1.887560 0.000000 -0.004230 
#    y 0.000000 1.940210 0.000000 
#    z -0.004230 0.000000 1.881010 
# 
# From -- ./inp_files/3423.got.cif
#   From: 2010.05.17/outbox.cif.g08.bks.cpg/sg4_2_cif.got.tgz:3423.got - 2010.06.03 18:43:04.
