data_PCOD9115249
_publ_section_title
;
Structure prediction by ZEFSAII (Michael W. Deem and Ramdas Pophale) SiO2 
 PCOD9115249
Probable space group: P 21
;
_chemical_formula_sum "Si O2"
_cell_formula_units_Z 16
_cell_length_a 5.604135
_cell_length_b 7.859152
_cell_length_c 14.410218
_cell_angle_alpha 90.000000
_cell_angle_beta 112.752910
_cell_angle_gamma 90.000000
_cell_volume 585.290066
_symmetry_space_group_name_H-M "P 21"
_symmetry_group_IT_number 4
_symmetry_cell_setting 'monoclinic'
loop_
_space_group_symop_operation_xyz
x,y,z
-x,1/2+y,-z
loop_
_atom_site_type_symbol
_atom_site_label
_atom_site_fract_x
_atom_site_fract_y
_atom_site_fract_z
Si Si1 0.624608 0.909480 0.845690
Si Si2 0.575977 0.322890 0.830625
Si Si3 0.927444 0.939718 0.654728
Si Si4 0.046222 0.248300 0.802871
Si Si5 0.808598 0.609033 0.472892
Si Si6 0.492309 0.922410 0.435285
Si Si7 0.720860 0.212237 0.346803
Si Si8 0.221610 0.950747 0.945202
O O1 0.520927 0.813529 0.737732
O O2 0.424115 0.874169 0.900262
O O3 0.929850 0.873374 0.904219
O O4 0.602406 0.116136 0.838227
O O5 0.267051 0.343879 0.777996
O O6 0.804755 0.363897 0.792987
O O7 0.656869 0.418485 0.936466
O O8 0.940699 0.084186 0.731812
O O9 0.142241 0.006641 0.612441
O O10 0.669095 0.926677 0.557062
O O11 0.058247 0.759537 0.697165
O O12 0.178745 0.150493 0.910415
O O13 0.765578 0.492606 0.557164
O O14 0.069372 0.714176 0.533103
O O15 0.564692 0.731814 0.419512
O O16 0.584467 0.044464 0.367496
#
# Coordination Sequence:
#
# PCOD9115249 Si02
#       8
#     2   2   2   2   2   2   2   2
#     4  10  21  36  65  91 119 166 213 256 320 396
#     4  10  20  36  61  90 122 154 211 265 321 383
#     4  10  20  38  62  93 121 171 222 261 322 385
#     4  10  21  36  64  91 118 167 210 258 317 399
#     4  10  22  36  61  93 132 169 216 271 320 386
#     4  10  22  36  63  91 133 168 214 270 320 385
#     4  10  20  38  62  93 121 173 217 265 317 390
#     4  10  20  36  60  92 120 156 207 268 319 382
#
# _framework density 27.336870000000001
#
# number of rings (size 3 to 8) (size 9 to 14) (size 15 to 20)
#    0.000    2.000    2.500    1.500    3.500    2.000 
#    0.000    0.000   16.500    0.000    0.000    0.000 
#    0.000    0.000    0.000    0.000    0.000    0.000 
#
# Total GULP energy -89179.000164 kJ/mol
# GULP energy per Si atom -5573.687510 kJ/mol
# Density = 2.727465 g / cm^3
# Si number density = 27.336870 Si / 1000 Ang^3
#
#
#
# Elastic Constant Matrix: (Units=GPa)
#
#
# Indices 1 2 3 4 5 6 
#
# 1 175.7997 50.4144 47.5237 0.0000 -17.4446 0.0000
# 2 50.4144 56.0202 20.6501 0.0000 2.6303 0.0000
# 3 47.5237 20.6501 44.0388 0.0000 6.3296 0.0000
# 4 0.0000 0.0000 0.0000 33.0317 0.0000 -4.3448
# 5 -17.4446 2.6303 6.3296 0.0000 50.9552 0.0000
# 6 0.0000 0.0000 0.0000 -4.3448 0.0000 40.6452
#
#
#
# Elastic Compliance Matrix: (Units=1/GPa)
#
#
# Indices 1 2 3 4 5 6 
#
# 1 0.010432 -0.006296 -0.009026 0.000000 0.005018 0.000000
# 2 -0.006296 0.025382 -0.004693 0.000000 -0.002883 0.000000
# 3 -0.009026 -0.004693 0.035695 0.000000 -0.007282 0.000000
# 4 0.000000 0.000000 0.000000 0.030706 0.000000 0.003282
# 5 0.005018 -0.002883 -0.007282 0.000000 0.022396 0.000000
# 6 0.000000 0.000000 0.000000 0.003282 0.000000 0.024954
#
#
# Mechanical properties :
#
#
# Convention : Reuss Voigt Hill
#
# Bulk Modulus (GPa) = 31.76821 57.00392 44.38607
# Shear Modulus (GPa) = 24.98896 35.41110 30.20003
#
# Velocity S-wave (km/s) = 3.02671 3.60302 3.32736
# Velocity P-wave (km/s) = 4.88476 6.18115 5.57079
#
# Compressibility (1/GPa) = 0.03147801
#
# Stress axis : x y z
#
# Youngs Moduli (GPa) = 95.86066 39.39752 28.01532
#
# Poissons Ratio (x) = 0.24806 0.25287
# Poissons Ratio (y) = 0.60357 0.13148
# Poissons Ratio (z) = 0.86525 0.18489
#
# Static dielectric constant tensor:
#      x y z
#    x 2.198030 0.000000 -0.026830 
#    y 0.000000 2.755190 0.000000 
#    z -0.026830 0.000000 2.179380 
# 
# From -- ./inp_files/3588.got.cif
#   From: 2010.05.17/outbox.cif.g08.bks.cpg/sg4_2_cif.got.tgz:3588.got - 2010.06.03 18:43:04.
