data_PCOD9115774
_publ_section_title
;
Structure prediction by ZEFSAII (Michael W. Deem and Ramdas Pophale) SiO2 
 PCOD9115774
Probable space group: P 21
;
_chemical_formula_sum "Si O2"
_cell_formula_units_Z 14
_cell_length_a 20.839888
_cell_length_b 5.509324
_cell_length_c 8.738910
_cell_angle_alpha 90.000000
_cell_angle_beta 139.776083
_cell_angle_gamma 90.000000
_cell_volume 647.937585
_symmetry_space_group_name_H-M "P 21"
_symmetry_group_IT_number 4
_symmetry_cell_setting 'monoclinic'
loop_
_space_group_symop_operation_xyz
x,y,z
-x,1/2+y,-z
loop_
_atom_site_type_symbol
_atom_site_label
_atom_site_fract_x
_atom_site_fract_y
_atom_site_fract_z
Si Si1 0.018920 0.733090 0.448453
Si Si2 0.553680 0.305385 0.911058
Si Si3 0.855527 0.778011 0.642752
Si Si4 0.052501 0.541701 0.930501
Si Si5 0.222745 0.878681 0.315697
Si Si6 0.553384 0.306195 0.284546
Si Si7 0.229443 0.673195 0.675931
O O1 0.132719 0.715210 0.600232
O O2 0.991423 0.466651 0.459626
O O3 0.945653 0.813801 0.178278
O O4 0.502585 0.558456 0.769819
O O5 0.497255 0.059404 0.760165
O O6 0.553591 0.305605 0.097933
O O7 0.668206 0.270822 0.071570
O O8 0.798907 0.658191 0.683197
O O9 0.938806 0.625315 0.708154
O O10 0.776178 0.888388 0.381634
O O11 0.929739 0.967202 0.861585
O O12 0.137046 0.744449 0.064091
O O13 0.331772 0.816272 0.455886
O O14 0.219564 0.786906 0.487707
#
# Coordination Sequence:
#
# PCOD9115774 Si02
#       7
#     2   2   2   2   2   2   2
#     4  12  27  42  59  84 124 162 210 253 287 354
#     4   9  19  32  52  75 122 153 186 230 288 365
#     4  11  19  33  61  88 121 161 196 250 299 383
#     4  11  21  36  55  87 120 159 197 243 304 359
#     4  10  21  32  60  86 124 152 192 242 303 368
#     4   9  19  31  48  86 116 152 183 229 295 361
#     4  10  22  36  57  86 117 163 200 239 304 354
#
# _framework density 21.607019999999999
#
# number of rings (size 3 to 8) (size 9 to 14) (size 15 to 20)
#    0.000    1.714    2.857    1.714   14.000    0.000 
#    0.000    0.000    0.000    0.000    0.000    4.000 
#    0.000    0.000    0.000    0.000    0.000    0.000 
#
# Total GULP energy -78001.918130 kJ/mol
# GULP energy per Si atom -5571.565581 kJ/mol
# Density = 2.155784 g / cm^3
# Si number density = 21.607020 Si / 1000 Ang^3
#
#
#
# Elastic Constant Matrix: (Units=GPa)
#
#
# Indices 1 2 3 4 5 6 
#
# 1 70.4432 40.8519 40.2652 0.0000 31.1527 0.0000
# 2 40.8519 121.2663 45.7547 0.0000 24.5552 0.0000
# 3 40.2652 45.7547 71.2691 0.0000 34.8836 0.0000
# 4 0.0000 0.0000 0.0000 28.6911 0.0000 -0.6425
# 5 31.1527 24.5552 34.8836 0.0000 31.0157 0.0000
# 6 0.0000 0.0000 0.0000 -0.6425 0.0000 32.3134
#
#
#
# Elastic Compliance Matrix: (Units=1/GPa)
#
#
# Indices 1 2 3 4 5 6 
#
# 1 0.027481 -0.003971 -0.002236 0.000000 -0.021944 0.000000
# 2 -0.003971 0.011496 -0.005861 0.000000 0.001478 0.000000
# 3 -0.002236 -0.005861 0.034899 0.000000 -0.032365 0.000000
# 4 0.000000 0.000000 0.000000 0.034870 0.000000 0.000693
# 5 -0.021944 0.001478 -0.032365 0.000000 0.089513 0.000000
# 6 0.000000 0.000000 0.000000 0.000693 0.000000 0.030961
#
#
# Mechanical properties :
#
#
# Convention : Reuss Voigt Hill
#
# Bulk Modulus (GPa) = 20.10435 57.41358 38.75896
# Shear Modulus (GPa) = 18.52304 27.47781 23.00042
#
# Velocity S-wave (km/s) = 2.93109 3.56997 3.26619
# Velocity P-wave (km/s) = 4.55849 6.60472 5.67460
#
# Compressibility (1/GPa) = 0.04974049
#
# Stress axis : x y z
#
# Youngs Moduli (GPa) = 36.38849 86.98800 28.65447
#
# Poissons Ratio (x) = 0.34540 0.06408
# Poissons Ratio (y) = 0.14448 0.16793
# Poissons Ratio (z) = 0.08138 0.50980
#
# Static dielectric constant tensor:
#      x y z
#    x 1.795430 0.000000 -0.006090 
#    y 0.000000 2.160870 0.000000 
#    z -0.006090 0.000000 1.784180 
# 
# From -- ./inp_files/9793.got.cif
#   From: 2010.05.17/outbox.cif.g08.bks.cpg/sg4_5_cif.got.tgz:9793.got - 2010.06.03 18:43:04.
