data_PCOD9115619
_publ_section_title
;
Structure prediction by ZEFSAII (Michael W. Deem and Ramdas Pophale) SiO2 
 PCOD9115619
Probable space group: P 21
;
_chemical_formula_sum "Si O2"
_cell_formula_units_Z 16
_cell_length_a 11.788966
_cell_length_b 8.898089
_cell_length_c 12.029088
_cell_angle_alpha 90.000000
_cell_angle_beta 38.734715
_cell_angle_gamma 90.000000
_cell_volume 789.554303
_symmetry_space_group_name_H-M "P 21"
_symmetry_group_IT_number 4
_symmetry_cell_setting 'monoclinic'
loop_
_space_group_symop_operation_xyz
x,y,z
-x,1/2+y,-z
loop_
_atom_site_type_symbol
_atom_site_label
_atom_site_fract_x
_atom_site_fract_y
_atom_site_fract_z
Si Si1 0.096011 0.750000 0.611642
Si Si2 0.245808 0.413053 0.759712
Si Si3 0.507441 0.556193 0.974725
Si Si4 0.255290 0.331965 0.260926
Si Si5 0.708928 0.925615 0.533170
Si Si6 0.526505 0.371099 0.736817
Si Si7 0.990106 0.677791 0.929437
Si Si8 0.647294 0.543994 0.091620
O O1 0.176913 0.580859 0.544307
O O2 0.261639 0.852794 0.447427
O O3 0.919239 0.779401 0.673386
O O4 0.044951 0.773563 0.779351
O O5 0.281075 0.381573 0.602918
O O6 0.422074 0.409998 0.703203
O O7 0.156858 0.577564 0.841090
O O8 0.108309 0.286268 0.909501
O O9 0.575097 0.725141 0.901095
O O10 0.501676 0.481434 0.858769
O O11 0.320265 0.501374 0.177156
O O12 0.650864 0.499637 0.959370
O O13 0.221027 0.323526 0.419051
O O14 0.498152 0.950277 0.727447
O O15 0.438182 0.211921 0.840245
O O16 0.841566 0.557673 0.998224
#
# Coordination Sequence:
#
# PCOD9115619 Si02
#       8
#     2   2   2   2   2   2   2   2
#     4  10  21  40  65  86 123 169 199 252 328 371
#     4  10  22  43  60  91 124 163 212 246 310 369
#     4  11  20  40  61  92 124 159 206 256 311 377
#     4  11  22  39  65  94 122 161 209 254 318 369
#     4   9  22  40  62  93 125 162 203 255 313 371
#     4  10  21  38  61  88 125 161 202 257 308 370
#     4  10  20  41  66  83 119 165 208 250 303 376
#     4   9  18  39  64  83 122 164 193 248 327 365
#
# _framework density 20.264597999999999
#
# number of rings (size 3 to 8) (size 9 to 14) (size 15 to 20)
#    0.000    2.000    2.500    0.750    1.750    1.000 
#   15.750    3.750    0.000    0.000    0.000    0.000 
#    0.000    0.000    0.000    0.000    0.000    0.000 
#
# Total GULP energy -89202.114242 kJ/mol
# GULP energy per Si atom -5575.132140 kJ/mol
# Density = 2.021847 g / cm^3
# Si number density = 20.264598 Si / 1000 Ang^3
#
#
#
# Elastic Constant Matrix: (Units=GPa)
#
#
# Indices 1 2 3 4 5 6 
#
# 1 117.6852 35.1159 49.6335 0.0000 22.0370 0.0000
# 2 35.1159 23.4350 15.2829 0.0000 8.7891 0.0000
# 3 49.6335 15.2829 78.8995 0.0000 22.5842 0.0000
# 4 0.0000 0.0000 0.0000 22.9910 0.0000 5.6658
# 5 22.0370 8.7891 22.5842 0.0000 44.5607 0.0000
# 6 0.0000 0.0000 0.0000 5.6658 0.0000 30.3263
#
#
#
# Elastic Compliance Matrix: (Units=1/GPa)
#
#
# Indices 1 2 3 4 5 6 
#
# 1 0.018331 -0.022584 -0.006828 0.000000 -0.001151 0.000000
# 2 -0.022584 0.077915 0.000370 0.000000 -0.004387 0.000000
# 3 -0.006828 0.000370 0.018659 0.000000 -0.006153 0.000000
# 4 0.000000 0.000000 0.000000 0.045595 0.000000 -0.008518
# 5 -0.001151 -0.004387 -0.006153 0.000000 0.026994 0.000000
# 6 0.000000 0.000000 0.000000 -0.008518 0.000000 0.034566
#
#
# Mechanical properties :
#
#
# Convention : Reuss Voigt Hill
#
# Bulk Modulus (GPa) = 17.59844 46.67605 32.13724
# Shear Modulus (GPa) = 16.71773 27.57476 22.14625
#
# Velocity S-wave (km/s) = 2.87535 3.69282 3.30942
# Velocity P-wave (km/s) = 4.44147 6.42385 5.52234
#
# Compressibility (1/GPa) = 0.05682323
#
# Stress axis : x y z
#
# Youngs Moduli (GPa) = 54.55243 12.83442 53.59335
#
# Poissons Ratio (x) = 0.28985 0.36592
# Poissons Ratio (y) = 1.23200 -0.01985
# Poissons Ratio (z) = 0.37247 -0.00475
#
# Static dielectric constant tensor:
#      x y z
#    x 1.707570 0.000000 0.005480 
#    y 0.000000 1.749110 0.000000 
#    z 0.005480 0.000000 1.731030 
# 
# From -- ./inp_files/12099.got.cif
#   From: 2010.05.17/outbox.cif.g08.bks.cpg/sg4_7_cif.got.tgz:12099.got - 2010.06.03 18:43:04.
