data_PCOD9115926
_publ_section_title
;
Structure prediction by ZEFSAII (Michael W. Deem and Ramdas Pophale) SiO2 
 PCOD9115926
Probable space group: P 21
;
_chemical_formula_sum "Si O2"
_cell_formula_units_Z 16
_cell_length_a 11.907848
_cell_length_b 8.576194
_cell_length_c 11.240923
_cell_angle_alpha 90.000000
_cell_angle_beta 143.364008
_cell_angle_gamma 90.000000
_cell_volume 685.025987
_symmetry_space_group_name_H-M "P 21"
_symmetry_group_IT_number 4
_symmetry_cell_setting 'monoclinic'
loop_
_space_group_symop_operation_xyz
x,y,z
-x,1/2+y,-z
loop_
_atom_site_type_symbol
_atom_site_label
_atom_site_fract_x
_atom_site_fract_y
_atom_site_fract_z
Si Si1 0.332743 0.970190 0.224045
Si Si2 0.057500 0.175384 0.852434
Si Si3 0.562366 0.382016 0.176644
Si Si4 0.075246 0.005981 0.641338
Si Si5 0.228782 0.768136 0.939290
Si Si6 0.741936 0.983781 0.895784
Si Si7 0.664740 0.065729 0.193073
Si Si8 0.343809 0.670185 0.404583
O O1 0.375272 0.873618 0.138511
O O2 0.340659 0.835785 0.331656
O O3 0.465065 0.113802 0.371470
O O4 0.135858 0.046156 0.012735
O O5 0.833310 0.172407 0.658848
O O6 0.126112 0.148445 0.774242
O O7 0.130526 0.337136 0.966669
O O8 0.766457 0.459438 0.320899
O O9 0.575082 0.195224 0.203301
O O10 0.449953 0.423296 0.959092
O O11 0.074759 0.869659 0.740227
O O12 0.872316 0.023818 0.412348
O O13 0.154901 0.638797 0.966706
O O14 0.317005 0.670337 0.909391
O O15 0.548591 0.953425 0.805643
O O16 0.694749 0.031211 0.722706
#
# Coordination Sequence:
#
# PCOD9115926 Si02
#       8
#     2   2   2   2   2   2   2   2
#     4  10  22  42  63  92 129 170 217 265 325 382
#     4  11  23  40  65  96 130 163 212 276 325 381
#     4  10  22  41  63  91 130 166 210 272 316 382
#     4  10  22  39  62  94 128 170 214 259 326 391
#     4   8  20  40  59  87 129 165 210 265 310 373
#     4  10  21  41  66  93 126 169 216 267 328 381
#     4  10  21  38  62  92 127 170 213 258 324 385
#     4  11  23  41  66  93 127 173 218 264 322 389
#
# _framework density 23.356779
#
# number of rings (size 3 to 8) (size 9 to 14) (size 15 to 20)
#    0.000    2.000    0.000    2.250    0.000   11.000 
#    0.000   13.750    0.000    0.000    0.000    0.000 
#    0.000    0.000    0.000    0.000    0.000    0.000 
#
# Total GULP energy -89259.855650 kJ/mol
# GULP energy per Si atom -5578.740978 kJ/mol
# Density = 2.330362 g / cm^3
# Si number density = 23.356779 Si / 1000 Ang^3
#
#
#
# Elastic Constant Matrix: (Units=GPa)
#
#
# Indices 1 2 3 4 5 6 
#
# 1 61.1555 9.8082 19.0654 0.0000 1.3743 0.0000
# 2 9.8082 84.0210 34.1841 0.0000 5.0964 0.0000
# 3 19.0654 34.1841 102.9746 0.0000 19.2233 0.0000
# 4 0.0000 0.0000 0.0000 28.2759 0.0000 -1.7545
# 5 1.3743 5.0964 19.2233 0.0000 29.5726 0.0000
# 6 0.0000 0.0000 0.0000 -1.7545 0.0000 27.8660
#
#
#
# Elastic Compliance Matrix: (Units=1/GPa)
#
#
# Indices 1 2 3 4 5 6 
#
# 1 0.017456 -0.000810 -0.003229 0.000000 0.001428 0.000000
# 2 -0.000810 0.013810 -0.004549 0.000000 0.000615 0.000000
# 3 -0.003229 -0.004549 0.013253 0.000000 -0.007681 0.000000
# 4 0.000000 0.000000 0.000000 0.035504 0.000000 0.002235
# 5 0.001428 0.000615 -0.007681 0.000000 0.038636 0.000000
# 6 0.000000 0.000000 0.000000 0.002235 0.000000 0.036027
#
#
# Mechanical properties :
#
#
# Convention : Reuss Voigt Hill
#
# Bulk Modulus (GPa) = 36.57471 41.58516 39.07993
# Shear Modulus (GPa) = 27.62758 29.48244 28.55501
#
# Velocity S-wave (km/s) = 3.44299 3.55669 3.50030
# Velocity P-wave (km/s) = 5.61237 5.89149 5.75363
#
# Compressibility (1/GPa) = 0.02734130
#
# Stress axis : x y z
#
# Youngs Moduli (GPa) = 57.28537 72.41163 75.45395
#
# Poissons Ratio (x) = 0.05869 0.24368
# Poissons Ratio (y) = 0.04643 0.34325
# Poissons Ratio (z) = 0.18500 0.32941
#
# Static dielectric constant tensor:
#      x y z
#    x 1.917970 0.000000 -0.016840 
#    y 0.000000 2.038300 0.000000 
#    z -0.016840 0.000000 1.866800 
# 
# From -- ./inp_files/13218.got.cif
#   From: 2010.05.17/outbox.cif.g08.bks.cpg/sg4_7_cif.got.tgz:13218.got - 2010.06.03 18:43:04.
