data_PCOD9115919
_publ_section_title
;
Structure prediction by ZEFSAII (Michael W. Deem and Ramdas Pophale) SiO2 
 PCOD9115919
Probable space group: P 21
;
_chemical_formula_sum "Si O2"
_cell_formula_units_Z 14
_cell_length_a 29.898386
_cell_length_b 5.135439
_cell_length_c 23.357844
_cell_angle_alpha 90.000000
_cell_angle_beta 169.596214
_cell_angle_gamma 90.000000
_cell_volume 647.645977
_symmetry_space_group_name_H-M "P 21"
_symmetry_group_IT_number 4
_symmetry_cell_setting 'monoclinic'
loop_
_space_group_symop_operation_xyz
x,y,z
-x,1/2+y,-z
loop_
_atom_site_type_symbol
_atom_site_label
_atom_site_fract_x
_atom_site_fract_y
_atom_site_fract_z
Si Si1 0.330977 0.044800 0.776429
Si Si2 0.131661 0.036947 0.395667
Si Si3 0.885386 0.437015 0.381545
Si Si4 0.582079 0.031551 0.279421
Si Si5 0.570042 0.009934 0.713448
Si Si6 0.951415 0.611507 0.974362
Si Si7 0.529800 0.009760 0.336326
O O1 0.216090 0.054391 0.568518
O O2 0.119596 0.976327 0.556828
O O3 0.463447 0.317129 0.958749
O O4 0.255465 0.273613 0.518315
O O5 0.244940 0.776357 0.512621
O O6 0.836274 0.041424 0.020759
O O7 0.935581 0.144110 0.423898
O O8 0.613019 0.514790 0.017452
O O9 0.429812 0.044801 0.146829
O O10 0.553596 0.732876 0.724692
O O11 0.334916 0.047676 0.375128
O O12 0.531706 0.233723 0.713156
O O13 0.017984 0.411897 0.005823
O O14 0.171742 0.544467 0.294753
#
# Coordination Sequence:
#
# PCOD9115919 Si02
#       7
#     2   2   2   2   2   2   2
#     4  12  23  44  62  82 115 161 192 230 296 349
#     4  12  24  41  60  86 121 156 192 237 290 354
#     4  12  26  41  62  87 115 149 199 245 285 342
#     4  12  25  42  57  88 125 152 186 245 302 335
#     4  10  21  38  63  90 112 155 202 235 276 353
#     4   8  16  34  58  85 116 147 191 237 283 333
#     4  10  21  38  62  88 118 154 192 243 288 334
#
# _framework density 21.616745999999999
#
# number of rings (size 3 to 8) (size 9 to 14) (size 15 to 20)
#    0.000    1.143    2.857    3.429    4.000    0.000 
#    0.000    1.429    0.000    0.000    0.000    0.000 
#    0.000    0.000    0.000    0.000    0.000    0.000 
#
# Total GULP energy -78269.961774 kJ/mol
# GULP energy per Si atom -5590.711555 kJ/mol
# Density = 2.156755 g / cm^3
# Si number density = 21.616746 Si / 1000 Ang^3
#
#
#
# Elastic Constant Matrix: (Units=GPa)
#
#
# Indices 1 2 3 4 5 6 
#
# 1 37.6781 -0.5428 -24.8011 0.0000 4.3702 0.0000
# 2 -0.5428 104.7116 18.0333 0.0000 0.4947 0.0000
# 3 -24.8011 18.0333 74.8717 0.0000 17.2025 0.0000
# 4 0.0000 0.0000 0.0000 43.6341 0.0000 6.8095
# 5 4.3702 0.4947 17.2025 0.0000 16.6585 0.0000
# 6 0.0000 0.0000 0.0000 6.8095 0.0000 29.7711
#
#
#
# Elastic Compliance Matrix: (Units=1/GPa)
#
#
# Indices 1 2 3 4 5 6 
#
# 1 0.048107 -0.004031 0.025931 0.000000 -0.039278 0.000000
# 2 -0.004031 0.010406 -0.005262 0.000000 0.006182 0.000000
# 3 0.025931 -0.005262 0.032436 0.000000 -0.040142 0.000000
# 4 0.000000 0.000000 0.000000 0.023766 0.000000 -0.005436
# 5 -0.039278 0.006182 -0.040142 0.000000 0.111603 0.000000
# 6 0.000000 0.000000 0.000000 -0.005436 0.000000 0.034833
#
#
# Mechanical properties :
#
#
# Convention : Reuss Voigt Hill
#
# Bulk Modulus (GPa) = 8.04994 22.51557 15.28275
# Shear Modulus (GPa) = 18.56782 32.98422 25.77602
#
# Velocity S-wave (km/s) = 2.93397 3.91047 3.45687
# Velocity P-wave (km/s) = 3.89995 5.55225 4.79776
#
# Compressibility (1/GPa) = 0.12422454
#
# Stress axis : x y z
#
# Youngs Moduli (GPa) = 20.78708 96.09704 30.83001
#
# Poissons Ratio (x) = 0.38735 -0.79944
# Poissons Ratio (y) = 0.08379 0.16223
# Poissons Ratio (z) = -0.53902 0.50566
#
# Static dielectric constant tensor:
#      x y z
#    x 1.734100 0.000000 -0.012430 
#    y 0.000000 1.741670 0.000000 
#    z -0.012430 0.000000 1.808950 
# 
# From -- ./inp_files/9412.got.cif
#   From: 2010.05.17/outbox.cif.g08.bks.cpg/sg4_5_cif.got.tgz:9412.got - 2010.06.03 18:43:04.
