data_PCOD9115743
_publ_section_title
;
Structure prediction by ZEFSAII (Michael W. Deem and Ramdas Pophale) SiO2 
 PCOD9115743
Probable space group: P 21
;
_chemical_formula_sum "Si O2"
_cell_formula_units_Z 14
_cell_length_a 4.872568
_cell_length_b 9.351908
_cell_length_c 12.746256
_cell_angle_alpha 90.000000
_cell_angle_beta 114.512724
_cell_angle_gamma 90.000000
_cell_volume 528.469240
_symmetry_space_group_name_H-M "P 21"
_symmetry_group_IT_number 4
_symmetry_cell_setting 'monoclinic'
loop_
_space_group_symop_operation_xyz
x,y,z
-x,1/2+y,-z
loop_
_atom_site_type_symbol
_atom_site_label
_atom_site_fract_x
_atom_site_fract_y
_atom_site_fract_z
Si Si1 0.525922 0.919670 0.495165
Si Si2 0.118340 0.379767 0.824275
Si Si3 0.202102 0.663324 0.351382
Si Si4 0.326818 0.827002 0.692914
Si Si5 0.235440 0.797678 0.035309
Si Si6 0.240027 0.504424 0.134388
Si Si7 0.155665 0.137719 0.296208
O O1 0.485424 0.767129 0.427678
O O2 0.371689 0.887801 0.583247
O O3 0.798131 0.033977 0.563924
O O4 0.315728 0.022009 0.393292
O O5 0.418473 0.332962 0.931282
O O6 0.067942 0.276382 0.715090
O O7 0.840310 0.356468 0.859642
O O8 0.111046 0.546216 0.797176
O O9 0.210273 0.580894 0.242216
O O10 0.430314 0.935279 0.799858
O O11 0.585698 0.704231 0.734479
O O12 0.001897 0.762262 0.662790
O O13 0.203176 0.627611 0.042359
O O14 0.004991 0.881748 0.925364
#
# Coordination Sequence:
#
# PCOD9115743 Si02
#       7
#     2   2   2   2   2   2   2
#     4  10  20  44  71 107 145 189 231 290 360 420
#     4  10  24  44  73 102 143 180 244 287 356 418
#     4   9  20  44  69 107 141 184 233 292 347 428
#     4  11  25  44  69 106 143 184 237 292 348 427
#     4  11  25  47  72 102 139 188 234 297 357 413
#     4  10  26  46  73 106 142 187 239 298 352 426
#     4  11  24  43  71 106 139 190 230 294 350 430
#
# _framework density 26.491606000000001
#
# number of rings (size 3 to 8) (size 9 to 14) (size 15 to 20)
#    0.000    1.714    1.429    0.857    4.000    8.000 
#   15.429    0.000    0.000    0.000    0.000    0.000 
#    0.000    0.000    0.000    0.000    0.000    0.000 
#
# Total GULP energy -78247.834117 kJ/mol
# GULP energy per Si atom -5589.131008 kJ/mol
# Density = 2.643131 g / cm^3
# Si number density = 26.491606 Si / 1000 Ang^3
#
#
#
# Elastic Constant Matrix: (Units=GPa)
#
#
# Indices 1 2 3 4 5 6 
#
# 1 77.0236 13.2095 1.5069 0.0000 -9.6967 0.0000
# 2 13.2095 144.6831 52.2974 0.0000 -6.9084 0.0000
# 3 1.5069 52.2974 133.5697 0.0000 6.7041 0.0000
# 4 0.0000 0.0000 0.0000 70.4201 0.0000 8.7788
# 5 -9.6967 -6.9084 6.7041 0.0000 17.9015 0.0000
# 6 0.0000 0.0000 0.0000 8.7788 0.0000 28.4367
#
#
#
# Elastic Compliance Matrix: (Units=1/GPa)
#
#
# Indices 1 2 3 4 5 6 
#
# 1 0.014061 -0.000864 -0.000189 0.000000 0.007354 0.000000
# 2 -0.000864 0.008454 -0.003507 0.000000 0.004108 0.000000
# 3 -0.000189 -0.003507 0.009106 0.000000 -0.004866 0.000000
# 4 0.000000 0.000000 0.000000 0.014769 0.000000 -0.004559
# 5 0.007354 0.004108 -0.004866 0.000000 0.063252 0.000000
# 6 0.000000 0.000000 0.000000 -0.004559 0.000000 0.036573
#
#
# Mechanical properties :
#
#
# Convention : Reuss Voigt Hill
#
# Bulk Modulus (GPa) = 44.44288 54.36710 49.40499
# Shear Modulus (GPa) = 30.70580 42.56917 36.63749
#
# Velocity S-wave (km/s) = 3.40822 4.01296 3.72288
# Velocity P-wave (km/s) = 5.68336 6.48372 6.09669
#
# Compressibility (1/GPa) = 0.02250079
#
# Stress axis : x y z
#
# Youngs Moduli (GPa) = 71.12011 118.28484 109.81732
#
# Poissons Ratio (x) = 0.10222 0.02080
# Poissons Ratio (y) = 0.06146 0.38508
# Poissons Ratio (z) = 0.01347 0.41477
#
# Static dielectric constant tensor:
#      x y z
#    x 2.001760 0.000000 0.023170 
#    y 0.000000 2.111490 0.000000 
#    z 0.023170 0.000000 2.140730 
# 
# From -- ./inp_files/10244.got.cif
#   From: 2010.05.17/outbox.cif.g08.bks.cpg/sg4_6_cif.got.tgz:10244.got - 2010.06.03 18:43:04.
