data_PCOD9115823
_publ_section_title
;
Structure prediction by ZEFSAII (Michael W. Deem and Ramdas Pophale) SiO2 
 PCOD9115823
Probable space group: P 21
;
_chemical_formula_sum "Si O2"
_cell_formula_units_Z 16
_cell_length_a 5.821840
_cell_length_b 16.516316
_cell_length_c 9.722958
_cell_angle_alpha 90.000000
_cell_angle_beta 45.436292
_cell_angle_gamma 90.000000
_cell_volume 666.099092
_symmetry_space_group_name_H-M "P 21"
_symmetry_group_IT_number 4
_symmetry_cell_setting 'monoclinic'
loop_
_space_group_symop_operation_xyz
x,y,z
-x,1/2+y,-z
loop_
_atom_site_type_symbol
_atom_site_label
_atom_site_fract_x
_atom_site_fract_y
_atom_site_fract_z
Si Si1 0.007045 0.597840 0.217644
Si Si2 0.454477 0.877889 0.440928
Si Si3 0.445366 0.207597 0.062535
Si Si4 0.928632 0.914363 0.874944
Si Si5 0.348321 0.218732 0.803483
Si Si6 0.095548 0.388020 0.519492
Si Si7 0.354252 0.878416 0.938719
Si Si8 0.934034 0.694958 0.501813
O O1 0.969453 0.504155 0.214865
O O2 0.894293 0.649456 0.135510
O O3 0.823588 0.636403 0.425794
O O4 0.376960 0.627223 0.064137
O O5 0.170673 0.860128 0.675624
O O6 0.602619 0.796280 0.314412
O O7 0.748639 0.918337 0.403107
O O8 0.238972 0.916965 0.408816
O O9 0.666795 0.282159 0.023682
O O10 0.232849 0.187759 0.282522
O O11 0.291391 0.242048 0.986389
O O12 0.035104 0.905233 0.989666
O O13 0.549302 0.907633 0.993150
O O14 0.693294 0.176147 0.638317
O O15 0.370933 0.399948 0.289454
O O16 0.071625 0.289599 0.542053
#
# Coordination Sequence:
#
# PCOD9115823 Si02
#       8
#     2   2   2   2   2   2   2   2
#     4  11  23  38  66  98 131 172 226 289 337 406
#     4   9  16  33  55  83 117 158 209 256 311 386
#     4  10  23  40  67  98 131 177 234 279 332 411
#     4  10  22  38  65  93 134 178 221 278 356 399
#     4  10  21  36  65  96 126 167 231 280 325 410
#     4   8  14  29  55  82 102 151 204 250 291 379
#     4   9  20  38  62  89 125 177 221 266 335 407
#     4   9  19  38  59  87 128 168 212 268 335 394
#
# _framework density 24.02045
#
# number of rings (size 3 to 8) (size 9 to 14) (size 15 to 20)
#    0.000    2.500    1.250    0.750    5.250    1.000 
#    0.000    1.250    0.000    0.000    0.000    0.000 
#    0.000    0.000    0.000    0.000    0.000    0.000 
#
# Total GULP energy -89145.529872 kJ/mol
# GULP energy per Si atom -5571.595617 kJ/mol
# Density = 2.396578 g / cm^3
# Si number density = 24.020450 Si / 1000 Ang^3
#
#
#
# Elastic Constant Matrix: (Units=GPa)
#
#
# Indices 1 2 3 4 5 6 
#
# 1 193.6177 14.6932 28.8547 0.0000 21.0929 0.0000
# 2 14.6932 64.3054 23.3082 0.0000 5.3975 0.0000
# 3 28.8547 23.3082 118.8298 0.0000 29.8697 0.0000
# 4 0.0000 0.0000 0.0000 18.3985 0.0000 -1.4021
# 5 21.0929 5.3975 29.8697 0.0000 36.3974 0.0000
# 6 0.0000 0.0000 0.0000 -1.4021 0.0000 17.6830
#
#
#
# Elastic Compliance Matrix: (Units=1/GPa)
#
#
# Indices 1 2 3 4 5 6 
#
# 1 0.005601 -0.000868 -0.000512 0.000000 -0.002697 0.000000
# 2 -0.000868 0.016878 -0.003272 0.000000 0.000685 0.000000
# 3 -0.000512 -0.003272 0.011320 0.000000 -0.008508 0.000000
# 4 0.000000 0.000000 0.000000 0.054683 0.000000 0.004336
# 5 -0.002697 0.000685 -0.008508 0.000000 0.035918 0.000000
# 6 0.000000 0.000000 0.000000 0.004336 0.000000 0.056895
#
#
# Mechanical properties :
#
#
# Convention : Reuss Voigt Hill
#
# Bulk Modulus (GPa) = 40.82461 56.71835 48.77148
# Shear Modulus (GPa) = 25.15561 35.15557 30.15559
#
# Velocity S-wave (km/s) = 3.23965 3.82981 3.54702
# Velocity P-wave (km/s) = 5.57014 6.57422 6.09290
#
# Compressibility (1/GPa) = 0.02449503
#
# Stress axis : x y z
#
# Youngs Moduli (GPa) = 178.54694 59.25032 88.33827
#
# Poissons Ratio (x) = 0.05142 0.04522
# Poissons Ratio (y) = 0.15495 0.28905
# Poissons Ratio (z) = 0.09139 0.19387
#
# Static dielectric constant tensor:
#      x y z
#    x 2.155010 0.000000 -0.015370 
#    y 0.000000 1.883330 0.000000 
#    z -0.015370 0.000000 1.936070 
# 
# From -- ./inp_files/2029.got.cif
#   From: 2010.05.17/outbox.cif.g08.bks.cpg/sg4_2_cif.got.tgz:2029.got - 2010.06.03 18:43:04.
