data_PCOD9115526
_publ_section_title
;
Structure prediction by ZEFSAII (Michael W. Deem and Ramdas Pophale) SiO2 
 PCOD9115526
Probable space group: P 21
;
_chemical_formula_sum "Si O2"
_cell_formula_units_Z 14
_cell_length_a 11.908942
_cell_length_b 4.945577
_cell_length_c 9.544641
_cell_angle_alpha 90.000000
_cell_angle_beta 104.476643
_cell_angle_gamma 90.000000
_cell_volume 544.298435
_symmetry_space_group_name_H-M "P 21"
_symmetry_group_IT_number 4
_symmetry_cell_setting 'monoclinic'
loop_
_space_group_symop_operation_xyz
x,y,z
-x,1/2+y,-z
loop_
_atom_site_type_symbol
_atom_site_label
_atom_site_fract_x
_atom_site_fract_y
_atom_site_fract_z
Si Si1 0.509472 0.522770 0.907668
Si Si2 0.612313 0.778390 0.677988
Si Si3 0.724973 0.942982 0.290927
Si Si4 0.047179 0.537766 0.184738
Si Si5 0.652568 0.282791 0.520330
Si Si6 0.074604 0.284329 0.487109
Si Si7 0.889116 0.043760 0.091161
O O1 0.603121 0.655016 0.831251
O O2 0.408796 0.383136 0.781557
O O3 0.542539 0.281817 0.024013
O O4 0.678080 0.569570 0.596893
O O5 0.478487 0.786279 0.581524
O O6 0.655467 0.074640 0.651615
O O7 0.724312 0.172479 0.410912
O O8 0.811585 0.728052 0.386071
O O9 0.782512 0.008430 0.160810
O O10 0.936888 0.345120 0.121869
O O11 0.094747 0.426318 0.344604
O O12 0.993562 0.837097 0.163887
O O13 0.132105 0.496981 0.079880
O O14 0.999320 0.014841 0.455105
#
# Coordination Sequence:
#
# PCOD9115526 Si02
#       7
#     2   2   2   2   2   2   2
#     4  11  25  44  67  93 131 173 217 266 324 382
#     4   9  18  38  59  88 123 160 199 264 318 368
#     4  11  24  42  70  96 125 174 218 268 317 385
#     4  10  20  40  60  93 129 171 202 264 319 380
#     4   9  19  34  62  89 119 156 207 256 319 370
#     4  12  23  40  66  97 133 164 214 267 319 381
#     4  10  21  38  66  88 130 168 211 255 324 378
#
# _framework density 25.721184000000001
#
# number of rings (size 3 to 8) (size 9 to 14) (size 15 to 20)
#    0.000    1.714    2.857    0.857    0.000    8.000 
#    5.143    0.000    0.000    0.000    0.000    0.000 
#    0.000    0.000    0.000    0.000    0.000    0.000 
#
# Total GULP energy -78316.234936 kJ/mol
# GULP energy per Si atom -5594.016781 kJ/mol
# Density = 2.566264 g / cm^3
# Si number density = 25.721184 Si / 1000 Ang^3
#
#
#
# Elastic Constant Matrix: (Units=GPa)
#
#
# Indices 1 2 3 4 5 6 
#
# 1 66.8532 6.6449 31.7594 0.0000 -21.1193 0.0000
# 2 6.6449 103.2231 13.5089 0.0000 0.2363 0.0000
# 3 31.7594 13.5089 144.9566 0.0000 -25.7504 0.0000
# 4 0.0000 0.0000 0.0000 28.5316 0.0000 -8.5960
# 5 -21.1193 0.2363 -25.7504 0.0000 47.8898 0.0000
# 6 0.0000 0.0000 0.0000 -8.5960 0.0000 18.5991
#
#
#
# Elastic Compliance Matrix: (Units=1/GPa)
#
#
# Indices 1 2 3 4 5 6 
#
# 1 0.018466 -0.000839 -0.002786 0.000000 0.006649 0.000000
# 2 -0.000839 0.009861 -0.000895 0.000000 -0.000900 0.000000
# 3 -0.002786 -0.000895 0.008154 0.000000 0.003160 0.000000
# 4 0.000000 0.000000 0.000000 0.040719 0.000000 0.018819
# 5 0.006649 -0.000900 0.003160 0.000000 0.025517 0.000000
# 6 0.000000 0.000000 0.000000 0.018819 0.000000 0.062464
#
#
# Mechanical properties :
#
#
# Convention : Reuss Voigt Hill
#
# Bulk Modulus (GPa) = 36.44399 46.53993 41.49196
# Shear Modulus (GPa) = 27.26759 36.54540 31.90650
#
# Velocity S-wave (km/s) = 3.25948 3.77348 3.52586
# Velocity P-wave (km/s) = 5.32591 6.09252 5.72207
#
# Compressibility (1/GPa) = 0.02743937
#
# Stress axis : x y z
#
# Youngs Moduli (GPa) = 54.15415 101.40988 122.64147
#
# Poissons Ratio (x) = 0.08511 0.34172
# Poissons Ratio (y) = 0.04545 0.10976
# Poissons Ratio (z) = 0.15089 0.09076
#
# Static dielectric constant tensor:
#      x y z
#    x 2.034050 0.000000 -0.008270 
#    y 0.000000 1.946650 0.000000 
#    z -0.008270 0.000000 2.034760 
# 
# From -- ./inp_files/7387.got.cif
#   From: 2010.05.17/outbox.cif.g08.bks.cpg/sg4_4_cif.got.tgz:7387.got - 2010.06.03 18:43:04.
