data_PCOD9115418
_publ_section_title
;
Structure prediction by ZEFSAII (Michael W. Deem and Ramdas Pophale) SiO2 
 PCOD9115418
Probable space group: P 21
;
_chemical_formula_sum "Si O2"
_cell_formula_units_Z 14
_cell_length_a 8.967430
_cell_length_b 10.244982
_cell_length_c 6.876761
_cell_angle_alpha 90.000000
_cell_angle_beta 123.598202
_cell_angle_gamma 90.000000
_cell_volume 526.230623
_symmetry_space_group_name_H-M "P 21"
_symmetry_group_IT_number 4
_symmetry_cell_setting 'monoclinic'
loop_
_space_group_symop_operation_xyz
x,y,z
-x,1/2+y,-z
loop_
_atom_site_type_symbol
_atom_site_label
_atom_site_fract_x
_atom_site_fract_y
_atom_site_fract_z
Si Si1 0.914523 0.900630 0.481262
Si Si2 0.591917 0.732416 0.239501
Si Si3 0.154719 0.564513 0.210133
Si Si4 0.728344 0.466626 0.448002
Si Si5 0.257179 0.050580 0.122775
Si Si6 0.405201 0.321201 0.300646
Si Si7 0.214242 0.778385 0.955592
O O1 0.732512 0.840816 0.269253
O O2 0.066217 0.929805 0.433569
O O3 0.025254 0.797802 0.705377
O O4 0.861284 0.027658 0.572498
O O5 0.695288 0.596210 0.301725
O O6 0.574695 0.776377 0.457587
O O7 0.392935 0.704596 0.016774
O O8 0.285211 0.452857 0.219096
O O9 0.187624 0.708866 0.146900
O O10 0.953819 0.542072 0.996465
O O11 0.664331 0.509942 0.614873
O O12 0.590325 0.349388 0.324158
O O13 0.314655 0.197347 0.130300
O O14 0.290601 0.926205 0.013080
#
# Coordination Sequence:
#
# PCOD9115418 Si02
#       7
#     2   2   2   2   2   2   2
#     4  10  25  41  60 103 131 158 214 281 315 377
#     4  10  21  42  64  89 125 172 217 252 316 392
#     4  10  20  41  67  87 124 167 215 261 313 389
#     4  11  21  42  61  92 135 162 207 276 320 366
#     4  10  21  37  64  93 122 171 220 253 310 387
#     4  10  20  38  65  92 122 168 218 253 308 396
#     4  11  20  41  65  90 123 172 215 256 312 385
#
# _framework density 26.604305
#
# number of rings (size 3 to 8) (size 9 to 14) (size 15 to 20)
#    0.000    1.714    2.857    3.429    0.000    1.143 
#   10.286    0.000    0.000    0.000    0.000    0.000 
#    0.000    0.000    0.000    0.000    0.000    0.000 
#
# Total GULP energy -78150.779550 kJ/mol
# GULP energy per Si atom -5582.198539 kJ/mol
# Density = 2.654375 g / cm^3
# Si number density = 26.604305 Si / 1000 Ang^3
#
#
#
# Elastic Constant Matrix: (Units=GPa)
#
#
# Indices 1 2 3 4 5 6 
#
# 1 92.9708 19.7596 0.7865 0.0000 6.7087 0.0000
# 2 19.7596 94.1815 18.2659 0.0000 -21.5293 0.0000
# 3 0.7865 18.2659 49.3690 0.0000 1.2614 0.0000
# 4 0.0000 0.0000 0.0000 31.2856 0.0000 -4.9262
# 5 6.7087 -21.5293 1.2614 0.0000 41.4852 0.0000
# 6 0.0000 0.0000 0.0000 -4.9262 0.0000 55.5490
#
#
#
# Elastic Compliance Matrix: (Units=1/GPa)
#
#
# Indices 1 2 3 4 5 6 
#
# 1 0.011781 -0.003580 0.001234 0.000000 -0.003800 0.000000
# 2 -0.003580 0.014289 -0.005438 0.000000 0.008160 0.000000
# 3 0.001234 -0.005438 0.022343 0.000000 -0.003701 0.000000
# 4 0.000000 0.000000 0.000000 0.032416 0.000000 0.002875
# 5 -0.003800 0.008160 -0.003701 0.000000 0.029067 0.000000
# 6 0.000000 0.000000 0.000000 0.002875 0.000000 0.018257
#
#
# Mechanical properties :
#
#
# Convention : Reuss Voigt Hill
#
# Bulk Modulus (GPa) = 30.44683 34.90503 32.67593
# Shear Modulus (GPa) = 32.32738 38.84459 35.58598
#
# Velocity S-wave (km/s) = 3.48964 3.82525 3.66129
# Velocity P-wave (km/s) = 5.26364 5.71477 5.49384
#
# Compressibility (1/GPa) = 0.03284414
#
# Stress axis : x y z
#
# Youngs Moduli (GPa) = 84.88487 69.98519 44.75762
#
# Poissons Ratio (x) = 0.25052 -0.05522
# Poissons Ratio (y) = 0.30386 0.24340
# Poissons Ratio (z) = -0.10473 0.38059
#
# Static dielectric constant tensor:
#      x y z
#    x 2.090270 0.000000 -0.082320 
#    y 0.000000 2.085080 0.000000 
#    z -0.082320 0.000000 2.225200 
# 
# From -- ./inp_files/5228.got.cif
#   From: 2010.05.17/outbox.cif.g08.bks.cpg/sg4_3_cif.got.tgz:5228.got - 2010.06.03 18:43:04.
