data_PCOD9115777
_publ_section_title
;
Structure prediction by ZEFSAII (Michael W. Deem and Ramdas Pophale) SiO2 
 PCOD9115777
Probable space group: P 21
;
_chemical_formula_sum "Si O2"
_cell_formula_units_Z 16
_cell_length_a 12.028483
_cell_length_b 5.647730
_cell_length_c 29.352045
_cell_angle_alpha 90.000000
_cell_angle_beta 21.990869
_cell_angle_gamma 90.000000
_cell_volume 746.667455
_symmetry_space_group_name_H-M "P 21"
_symmetry_group_IT_number 4
_symmetry_cell_setting 'monoclinic'
loop_
_space_group_symop_operation_xyz
x,y,z
-x,1/2+y,-z
loop_
_atom_site_type_symbol
_atom_site_label
_atom_site_fract_x
_atom_site_fract_y
_atom_site_fract_z
Si Si1 0.438130 0.029300 0.633916
Si Si2 0.877816 0.414293 0.496306
Si Si3 0.460888 0.967454 0.728444
Si Si4 0.399431 0.096905 0.094431
Si Si5 0.268242 0.136848 0.537355
Si Si6 0.832878 0.844945 0.332839
Si Si7 0.676350 0.590309 0.985610
Si Si8 0.326089 0.485755 0.774050
O O1 0.747690 0.168224 0.526370
O O2 0.186457 0.188613 0.705634
O O3 0.342960 0.957843 0.720821
O O4 0.518703 0.832381 0.566731
O O5 0.923686 0.562593 0.432951
O O6 0.601330 0.490744 0.633247
O O7 0.181739 0.444128 0.407565
O O8 0.358745 0.725115 0.791088
O O9 0.360556 0.226342 0.783245
O O10 0.582339 0.855277 0.038319
O O11 0.066557 0.050527 0.237587
O O12 0.504916 0.357174 0.069483
O O13 0.386469 0.099876 0.044452
O O14 0.096591 0.215341 0.647037
O O15 0.493889 0.930780 0.466291
O O16 0.015428 0.518904 0.866783
#
# Coordination Sequence:
#
# PCOD9115777 Si02
#       8
#     2   2   2   2   2   2   2   2
#     4  10  21  34  53  78 120 155 182 233 272 360
#     4  10  22  35  54  88 118 151 188 234 289 351
#     4  11  22  34  59  87 121 149 189 231 303 343
#     4  10  22  36  57  78 116 150 199 245 273 344
#     4  11  21  36  55  81 122 151 197 223 282 361
#     4  11  23  37  56  85 116 165 191 230 288 345
#     4  10  21  37  54  84 110 153 196 238 296 329
#     4  11  20  35  56  83 119 150 180 240 293 351
#
# _framework density 21.428547999999999
#
# number of rings (size 3 to 8) (size 9 to 14) (size 15 to 20)
#    0.000    1.500    2.500    4.500    3.500    1.000 
#    0.000    0.000    0.000    0.000    0.000    3.500 
#    0.000    0.000    0.000    0.000    0.000    0.000 
#
# Total GULP energy -89168.645167 kJ/mol
# GULP energy per Si atom -5573.040323 kJ/mol
# Density = 2.137978 g / cm^3
# Si number density = 21.428548 Si / 1000 Ang^3
#
#
#
# Elastic Constant Matrix: (Units=GPa)
#
#
# Indices 1 2 3 4 5 6 
#
# 1 51.9344 10.9398 17.1789 0.0002 -6.0994 -0.0002
# 2 10.9398 110.5530 11.1872 0.0002 -7.8685 -0.0005
# 3 17.1789 11.1872 34.6022 -0.0010 -14.5428 -0.0003
# 4 0.0002 0.0002 -0.0010 30.5734 -0.0001 -5.5661
# 5 -6.0994 -7.8685 -14.5428 -0.0001 24.0987 0.0002
# 6 -0.0002 -0.0005 -0.0003 -5.5661 0.0002 14.0519
#
#
#
# Elastic Compliance Matrix: (Units=1/GPa)
#
#
# Indices 1 2 3 4 5 6 
#
# 1 0.023233 -0.001219 -0.011839 -0.000001 -0.001662 0.000000
# 2 -0.001219 0.009464 -0.001722 0.000000 0.001742 0.000000
# 3 -0.011839 -0.001722 0.045337 0.000002 0.023801 0.000001
# 4 -0.000001 0.000000 0.000002 0.035250 0.000001 0.013963
# 5 -0.001662 0.001742 0.023801 0.000001 0.056007 0.000000
# 6 0.000000 0.000000 0.000001 0.013963 0.000000 0.076696
#
#
# Mechanical properties :
#
#
# Convention : Reuss Voigt Hill
#
# Bulk Modulus (GPa) = 20.62965 30.63350 25.63157
# Shear Modulus (GPa) = 17.14051 24.26369 20.70210
#
# Velocity S-wave (km/s) = 2.83130 3.36863 3.11159
# Velocity P-wave (km/s) = 4.50960 5.42742 4.98966
#
# Compressibility (1/GPa) = 0.04847392
#
# Stress axis : x y z
#
# Youngs Moduli (GPa) = 43.04277 105.65926 22.05682
#
# Poissons Ratio (x) = 0.12883 0.26112
# Poissons Ratio (y) = 0.05248 0.03799
# Poissons Ratio (z) = 0.50957 0.18198
#
# Static dielectric constant tensor:
#      x y z
#    x 1.748290 0.000000 -0.005580 
#    y 0.000000 1.964450 0.000000 
#    z -0.005580 0.000000 1.752140 
# 
# From -- ./inp_files/11526.got.cif
#   From: 2010.05.17/outbox.cif.g08.bks.cpg/sg4_6_cif.got.tgz:11526.got - 2010.06.03 18:43:04.
