data_PCOD9115681
_publ_section_title
;
Structure prediction by ZEFSAII (Michael W. Deem and Ramdas Pophale) SiO2 
 PCOD9115681
Probable space group: P 21
;
_chemical_formula_sum "Si O2"
_cell_formula_units_Z 14
_cell_length_a 5.494096
_cell_length_b 13.276230
_cell_length_c 10.686852
_cell_angle_alpha 90.000000
_cell_angle_beta 125.465133
_cell_angle_gamma 90.000000
_cell_volume 634.885243
_symmetry_space_group_name_H-M "P 21"
_symmetry_group_IT_number 4
_symmetry_cell_setting 'monoclinic'
loop_
_space_group_symop_operation_xyz
x,y,z
-x,1/2+y,-z
loop_
_atom_site_type_symbol
_atom_site_label
_atom_site_fract_x
_atom_site_fract_y
_atom_site_fract_z
Si Si1 0.238958 0.492900 0.666026
Si Si2 0.253208 0.153114 0.902017
Si Si3 0.761244 0.774905 0.858151
Si Si4 0.877874 0.097091 0.122185
Si Si5 0.829200 0.449124 0.958712
Si Si6 0.162866 0.545560 0.369808
Si Si7 0.675190 0.431835 0.370611
O O1 0.191565 0.580280 0.753615
O O2 0.510979 0.428361 0.800950
O O3 0.308789 0.540966 0.551150
O O4 0.934250 0.430949 0.552949
O O5 0.252760 0.242951 0.000981
O O6 0.595321 0.141359 0.961747
O O7 0.984498 0.149065 0.723019
O O8 0.199511 0.048583 0.963728
O O9 0.469027 0.828264 0.717118
O O10 0.854684 0.674669 0.814210
O O11 0.024605 0.856932 0.927391
O O12 0.954102 0.989078 0.086438
O O13 0.404140 0.499882 0.345293
O O14 0.860474 0.480190 0.310282
#
# Coordination Sequence:
#
# PCOD9115681 Si02
#       7
#     2   2   2   2   2   2   2
#     4   9  22  39  74  90 135 181 225 269 353 400
#     4  10  22  37  66 100 130 178 230 282 334 401
#     4  11  23  37  73 100 135 173 240 283 332 406
#     4  10  22  40  67  98 135 180 228 280 340 403
#     4  10  20  42  66  97 131 181 220 285 333 406
#     4  10  21  41  71  95 127 186 216 277 338 408
#     4  10  22  40  73  96 131 181 225 272 344 398
#
# _framework density 22.051227999999998
#
# number of rings (size 3 to 8) (size 9 to 14) (size 15 to 20)
#    0.857    1.143    1.429    1.714    4.000    2.286 
#    0.000    0.000   59.714    0.000    0.000    0.000 
#    0.000    0.000    0.000    0.000    0.000    0.000 
#
# Total GULP energy -78033.128784 kJ/mol
# GULP energy per Si atom -5573.794913 kJ/mol
# Density = 2.200104 g / cm^3
# Si number density = 22.051228 Si / 1000 Ang^3
#
#
#
# Elastic Constant Matrix: (Units=GPa)
#
#
# Indices 1 2 3 4 5 6 
#
# 1 88.9393 6.4600 9.8633 0.0000 6.2778 0.0000
# 2 6.4600 45.4189 10.5241 0.0000 2.9424 0.0000
# 3 9.8633 10.5241 93.9618 0.0000 14.8065 0.0000
# 4 0.0000 0.0000 0.0000 16.5420 0.0000 5.7003
# 5 6.2778 2.9424 14.8065 0.0000 37.1371 0.0000
# 6 0.0000 0.0000 0.0000 5.7003 0.0000 21.1981
#
#
#
# Elastic Compliance Matrix: (Units=1/GPa)
#
#
# Indices 1 2 3 4 5 6 
#
# 1 0.011540 -0.001353 -0.000821 0.000000 -0.001516 0.000000
# 2 -0.001353 0.022787 -0.002307 0.000000 -0.000657 0.000000
# 3 -0.000821 -0.002307 0.011670 0.000000 -0.004331 0.000000
# 4 0.000000 0.000000 0.000000 0.066626 0.000000 -0.017916
# 5 -0.001516 -0.000657 -0.004331 0.000000 0.028962 0.000000
# 6 0.000000 0.000000 0.000000 -0.017916 0.000000 0.051992
#
#
# Mechanical properties :
#
#
# Convention : Reuss Voigt Hill
#
# Bulk Modulus (GPa) = 27.00116 31.33496 29.16806
# Shear Modulus (GPa) = 23.26850 28.40695 25.83772
#
# Velocity S-wave (km/s) = 3.25191 3.59308 3.42674
# Velocity P-wave (km/s) = 5.13529 5.60844 5.37707
#
# Compressibility (1/GPa) = 0.03703544
#
# Stress axis : x y z
#
# Youngs Moduli (GPa) = 86.65545 43.88522 85.69233
#
# Poissons Ratio (x) = 0.05937 0.07034
# Poissons Ratio (y) = 0.11724 0.19766
# Poissons Ratio (z) = 0.07114 0.10123
#
# Static dielectric constant tensor:
#      x y z
#    x 1.871800 0.000000 0.002920 
#    y 0.000000 1.791950 0.000000 
#    z 0.002920 0.000000 1.865470 
# 
# From -- ./inp_files/1503.got.cif
#   From: 2010.05.17/outbox.cif.g08.bks.cpg/sg4_1_cif.got.tgz:1503.got - 2010.06.03 18:43:04.
