data_PCOD9115053
_publ_section_title
;
Structure prediction by ZEFSAII (Michael W. Deem and Ramdas Pophale) SiO2 
 PCOD9115053
Probable space group: P 21
;
_chemical_formula_sum "Si O2"
_cell_formula_units_Z 14
_cell_length_a 8.886970
_cell_length_b 7.857688
_cell_length_c 7.784098
_cell_angle_alpha 90.000000
_cell_angle_beta 109.286928
_cell_angle_gamma 90.000000
_cell_volume 513.064406
_symmetry_space_group_name_H-M "P 21"
_symmetry_group_IT_number 4
_symmetry_cell_setting 'monoclinic'
loop_
_space_group_symop_operation_xyz
x,y,z
-x,1/2+y,-z
loop_
_atom_site_type_symbol
_atom_site_label
_atom_site_fract_x
_atom_site_fract_y
_atom_site_fract_z
Si Si1 0.735136 0.924750 0.552222
Si Si2 0.200451 0.899335 0.093543
Si Si3 0.172377 0.095253 0.539926
Si Si4 0.090668 0.241386 0.878476
Si Si5 0.477428 0.565507 0.812024
Si Si6 0.087757 0.797325 0.696530
Si Si7 0.623246 0.935988 0.868086
O O1 0.707635 0.718091 0.518006
O O2 0.674714 0.018066 0.359244
O O3 0.926894 0.917738 0.654466
O O4 0.539188 0.036407 0.989319
O O5 0.181636 0.796408 0.908311
O O6 0.090447 0.802610 0.186234
O O7 0.382254 0.939464 0.200211
O O8 0.122792 0.082472 0.017461
O O9 0.001848 0.125210 0.384147
O O10 0.190987 0.899042 0.594355
O O11 0.156249 0.188952 0.718104
O O12 0.201650 0.388546 0.996065
O O13 0.532450 0.757585 0.813609
O O14 0.351565 0.501610 0.314728
#
# Coordination Sequence:
#
# PCOD9115053 Si02
#       7
#     2   2   2   2   2   2   2
#     4  10  22  44  67  94 137 174 214 268 338 388
#     4  10  22  39  62  95 122 167 219 263 324 380
#     4   9  19  36  66  92 128 161 217 262 320 381
#     4  10  19  40  65  91 127 169 212 269 321 389
#     4  11  26  44  65 103 130 176 221 274 332 390
#     4   9  19  37  64  90 124 166 209 260 316 386
#     4  11  23  46  69  91 138 179 216 272 335 390
#
# _framework density 27.287019999999998
#
# number of rings (size 3 to 8) (size 9 to 14) (size 15 to 20)
#    0.857    1.143    2.857    0.000    0.000    6.857 
#    7.714    0.000    0.000    0.000    0.000    0.000 
#    0.000    0.000    0.000    0.000    0.000    0.000 
#
# Total GULP energy -78385.079376 kJ/mol
# GULP energy per Si atom -5598.934241 kJ/mol
# Density = 2.722491 g / cm^3
# Si number density = 27.287020 Si / 1000 Ang^3
#
#
#
# Elastic Constant Matrix: (Units=GPa)
#
#
# Indices 1 2 3 4 5 6 
#
# 1 106.4583 29.7571 24.9387 0.0000 10.5955 0.0000
# 2 29.7571 70.5149 9.7882 0.0000 -3.0280 0.0000
# 3 24.9387 9.7882 120.1609 0.0000 -10.2570 0.0000
# 4 0.0000 0.0000 0.0000 24.5885 0.0000 4.3324
# 5 10.5955 -3.0280 -10.2570 0.0000 46.6354 0.0000
# 6 0.0000 0.0000 0.0000 4.3324 0.0000 53.2592
#
#
#
# Elastic Compliance Matrix: (Units=1/GPa)
#
#
# Indices 1 2 3 4 5 6 
#
# 1 0.011600 -0.004721 -0.002317 0.000000 -0.003452 0.000000
# 2 -0.004721 0.016287 -0.000168 0.000000 0.002093 0.000000
# 3 -0.002317 -0.000168 0.009030 0.000000 0.002502 0.000000
# 4 0.000000 0.000000 0.000000 0.041261 0.000000 -0.003356
# 5 -0.003452 0.002093 0.002502 0.000000 0.022913 0.000000
# 6 0.000000 0.000000 0.000000 -0.003356 0.000000 0.019049
#
#
# Mechanical properties :
#
#
# Convention : Reuss Voigt Hill
#
# Bulk Modulus (GPa) = 44.43880 47.34467 45.89174
# Shear Modulus (GPa) = 35.19758 40.40664 37.80211
#
# Velocity S-wave (km/s) = 3.59542 3.85229 3.72607
# Velocity P-wave (km/s) = 5.79285 6.09714 5.94694
#
# Compressibility (1/GPa) = 0.02250286
#
# Stress axis : x y z
#
# Youngs Moduli (GPa) = 86.21057 61.39837 110.73719
#
# Poissons Ratio (x) = 0.28989 0.25663
# Poissons Ratio (y) = 0.40704 0.01862
# Poissons Ratio (z) = 0.19979 0.01032
#
# Static dielectric constant tensor:
#      x y z
#    x 2.140070 0.000000 -0.057630 
#    y 0.000000 2.144340 0.000000 
#    z -0.057630 0.000000 2.088900 
# 
# From -- ./inp_files/6137.got.cif
#   From: 2010.05.17/outbox.cif.g08.bks.cpg/sg4_4_cif.got.tgz:6137.got - 2010.06.03 18:43:04.
