data_PCOD9115277
_publ_section_title
;
Structure prediction by ZEFSAII (Michael W. Deem and Ramdas Pophale) SiO2 
 PCOD9115277
Probable space group: P 21
;
_chemical_formula_sum "Si O2"
_cell_formula_units_Z 16
_cell_length_a 12.436574
_cell_length_b 9.616142
_cell_length_c 15.642797
_cell_angle_alpha 90.000000
_cell_angle_beta 25.235425
_cell_angle_gamma 90.000000
_cell_volume 797.573545
_symmetry_space_group_name_H-M "P 21"
_symmetry_group_IT_number 4
_symmetry_cell_setting 'monoclinic'
loop_
_space_group_symop_operation_xyz
x,y,z
-x,1/2+y,-z
loop_
_atom_site_type_symbol
_atom_site_label
_atom_site_fract_x
_atom_site_fract_y
_atom_site_fract_z
Si Si1 0.136282 0.929260 0.674419
Si Si2 0.887746 0.236498 0.154069
Si Si3 0.416899 0.238057 0.694639
Si Si4 0.503626 0.989619 0.893485
Si Si5 0.965442 0.975615 0.225343
Si Si6 0.652781 0.703421 0.440953
Si Si7 0.263632 0.264689 0.152154
Si Si8 0.811555 0.089084 0.521793
O O1 0.122860 0.873890 0.780346
O O2 0.404663 0.871866 0.446749
O O3 0.907675 0.853192 0.791046
O O4 0.154053 0.094009 0.658735
O O5 0.606880 0.216293 0.319722
O O6 0.941052 0.106280 0.179201
O O7 0.123370 0.254338 0.923301
O O8 0.433468 0.156665 0.592560
O O9 0.554221 0.163790 0.675183
O O10 0.735568 0.008328 0.661322
O O11 0.569979 0.875268 0.916652
O O12 0.421982 0.139879 0.993255
O O13 0.259479 0.938190 0.016953
O O14 0.785302 0.849899 0.330706
O O15 0.894373 0.011528 0.374987
O O16 0.048170 0.191784 0.365788
#
# Coordination Sequence:
#
# PCOD9115277 Si02
#       8
#     2   2   2   2   2   2   2   2
#     4  10  21  41  57  88 127 163 199 258 311 364
#     4  11  19  39  62  85 119 170 210 243 307 370
#     4  10  20  36  65  86 119 168 208 242 308 369
#     4  11  23  43  71  91 123 161 209 258 316 372
#     4  11  22  40  61  90 127 164 205 256 308 361
#     4  11  24  35  59  94 132 158 204 261 299 364
#     4  10  23  42  67  93 119 165 206 258 317 363
#     4  10  20  42  64  89 122 163 203 254 312 367
#
# _framework density 20.060843999999999
#
# number of rings (size 3 to 8) (size 9 to 14) (size 15 to 20)
#    0.000    1.500    6.250    1.500    1.750    5.000 
#    0.000    0.000    0.000    0.000    0.000    0.000 
#    0.000    0.000    0.000    0.000    0.000    0.000 
#
# Total GULP energy -89198.123592 kJ/mol
# GULP energy per Si atom -5574.882724 kJ/mol
# Density = 2.001518 g / cm^3
# Si number density = 20.060844 Si / 1000 Ang^3
#
#
#
# Elastic Constant Matrix: (Units=GPa)
#
#
# Indices 1 2 3 4 5 6 
#
# 1 36.0998 20.4731 8.1386 0.0000 -9.9325 0.0000
# 2 20.4731 45.8765 18.7696 0.0000 -6.9641 0.0000
# 3 8.1386 18.7696 102.5781 0.0000 2.7217 0.0000
# 4 0.0000 0.0000 0.0000 15.0813 0.0000 -15.0135
# 5 -9.9325 -6.9641 2.7217 0.0000 29.0302 0.0000
# 6 0.0000 0.0000 0.0000 -15.0135 0.0000 26.5647
#
#
#
# Elastic Compliance Matrix: (Units=1/GPa)
#
#
# Indices 1 2 3 4 5 6 
#
# 1 0.039549 -0.015977 -0.000473 0.000000 0.009743 0.000000
# 2 -0.015977 0.031134 -0.004494 0.000000 0.002424 0.000000
# 3 -0.000473 -0.004494 0.010668 0.000000 -0.002240 0.000000
# 4 0.000000 0.000000 0.000000 0.151605 0.000000 0.085682
# 5 0.009743 0.002424 -0.002240 0.000000 0.038572 0.000000
# 6 0.000000 0.000000 0.000000 0.085682 0.000000 0.086069
#
#
# Mechanical properties :
#
#
# Convention : Reuss Voigt Hill
#
# Bulk Modulus (GPa) = 25.33939 31.03523 28.18731
# Shear Modulus (GPa) = 12.11714 23.28010 17.69862
#
# Velocity S-wave (km/s) = 2.46035 3.41027 2.97349
# Velocity P-wave (km/s) = 4.55300 5.56873 5.08628
#
# Compressibility (1/GPa) = 0.03946424
#
# Stress axis : x y z
#
# Youngs Moduli (GPa) = 25.28484 32.11918 93.73971
#
# Poissons Ratio (x) = 0.51317 0.04433
# Poissons Ratio (y) = 0.40398 0.42122
# Poissons Ratio (z) = 0.01196 0.14433
#
# Static dielectric constant tensor:
#      x y z
#    x 1.708450 0.000000 -0.011180 
#    y 0.000000 1.725980 0.000000 
#    z -0.011180 0.000000 1.734480 
# 
# From -- ./inp_files/15229.got.cif
#   From: 2010.05.17/outbox.cif.g08.bks.cpg/sg4_8_cif.got.tgz:15229.got - 2010.06.03 18:43:04.
