data_PCOD9115667
_publ_section_title
;
Structure prediction by ZEFSAII (Michael W. Deem and Ramdas Pophale) SiO2 
 PCOD9115667
Probable space group: P 21
;
_chemical_formula_sum "Si O2"
_cell_formula_units_Z 14
_cell_length_a 11.816375
_cell_length_b 7.294763
_cell_length_c 6.941184
_cell_angle_alpha 90.000000
_cell_angle_beta 90.435001
_cell_angle_gamma 90.000000
_cell_volume 598.296541
_symmetry_space_group_name_H-M "P 21"
_symmetry_group_IT_number 4
_symmetry_cell_setting 'monoclinic'
loop_
_space_group_symop_operation_xyz
x,y,z
-x,1/2+y,-z
loop_
_atom_site_type_symbol
_atom_site_label
_atom_site_fract_x
_atom_site_fract_y
_atom_site_fract_z
Si Si1 0.702663 0.084620 0.438191
Si Si2 0.474194 0.529444 0.266336
Si Si3 0.992095 0.005608 0.783553
Si Si4 0.680826 0.484281 0.552040
Si Si5 0.893706 0.718730 0.522675
Si Si6 0.500287 0.456511 0.825788
Si Si7 0.081208 0.617790 0.799088
O O1 0.641822 0.989203 0.621127
O O2 0.734754 0.283181 0.529124
O O3 0.598129 0.068764 0.283628
O O4 0.809811 0.035599 0.305638
O O5 0.577853 0.471007 0.400802
O O6 0.492995 0.747846 0.247130
O O7 0.480391 0.453942 0.052068
O O8 0.903605 0.909481 0.636573
O O9 0.085434 0.842326 0.806066
O O10 0.937616 0.047872 0.986649
O O11 0.044101 0.182276 0.679324
O O12 0.769841 0.638820 0.501828
O O13 0.622698 0.527961 0.756397
O O14 0.967062 0.590991 0.671719
#
# Coordination Sequence:
#
# PCOD9115667 Si02
#       7
#     2   2   2   2   2   2   2
#     4  10  21  43  64  90 129 173 213 272 330 388
#     4  10  22  39  66  93 131 167 221 269 328 395
#     4  10  24  41  68  95 136 169 228 271 336 394
#     4  10  20  42  65  89 127 174 212 273 326 398
#     4  10  23  42  66  97 130 178 218 276 342 394
#     4  10  22  38  61  98 125 169 217 267 332 387
#     4  10  24  43  66  98 130 176 225 274 330 408
#
# _framework density 23.399767000000001
#
# number of rings (size 3 to 8) (size 9 to 14) (size 15 to 20)
#    0.857    1.143    1.429    0.857    2.000    5.714 
#    5.143    0.000    0.000    0.000    0.000    0.000 
#    0.000    0.000    0.000    0.000    0.000    0.000 
#
# Total GULP energy -78124.608860 kJ/mol
# GULP energy per Si atom -5580.329204 kJ/mol
# Density = 2.334651 g / cm^3
# Si number density = 23.399767 Si / 1000 Ang^3
#
#
#
# Elastic Constant Matrix: (Units=GPa)
#
#
# Indices 1 2 3 4 5 6 
#
# 1 98.4431 22.4852 59.5042 0.0000 -36.3873 0.0000
# 2 22.4852 66.7067 22.3597 0.0000 -7.0725 0.0000
# 3 59.5042 22.3597 195.3833 0.0000 -48.3298 0.0000
# 4 0.0000 0.0000 0.0000 33.0685 0.0000 -5.5949
# 5 -36.3873 -7.0725 -48.3298 0.0000 32.7373 0.0000
# 6 0.0000 0.0000 0.0000 -5.5949 0.0000 29.5198
#
#
#
# Elastic Compliance Matrix: (Units=1/GPa)
#
#
# Indices 1 2 3 4 5 6 
#
# 1 0.018302 -0.004021 -0.000467 0.000000 0.018784 0.000000
# 2 -0.004021 0.016500 -0.001398 0.000000 -0.002968 0.000000
# 3 -0.000467 -0.001398 0.008218 0.000000 0.011311 0.000000
# 4 0.000000 0.000000 0.000000 0.031242 0.000000 0.005921
# 5 0.018784 -0.002968 0.011311 0.000000 0.067482 0.000000
# 6 0.000000 0.000000 0.000000 0.005921 0.000000 0.034998
#
#
# Mechanical properties :
#
#
# Convention : Reuss Voigt Hill
#
# Bulk Modulus (GPa) = 32.00187 63.24792 47.62490
# Shear Modulus (GPa) = 25.13427 36.14403 30.63915
#
# Velocity S-wave (km/s) = 3.28094 3.93444 3.62246
# Velocity P-wave (km/s) = 5.29704 6.90853 6.15574
#
# Compressibility (1/GPa) = 0.03124817
#
# Stress axis : x y z
#
# Youngs Moduli (GPa) = 54.63829 60.60513 121.67804
#
# Poissons Ratio (x) = 0.24369 0.05687
# Poissons Ratio (y) = 0.21970 0.17010
# Poissons Ratio (z) = 0.02554 0.08472
#
# Static dielectric constant tensor:
#      x y z
#    x 1.925780 0.000000 0.009150 
#    y 0.000000 2.051760 0.000000 
#    z 0.009150 0.000000 1.835100 
# 
# From -- ./inp_files/2563.got.cif
#   From: 2010.05.17/outbox.cif.g08.bks.cpg/sg4_2_cif.got.tgz:2563.got - 2010.06.03 18:43:04.
