data_PCOD9115775
_publ_section_title
;
Structure prediction by ZEFSAII (Michael W. Deem and Ramdas Pophale) SiO2 
 PCOD9115775
Probable space group: P 21
;
_chemical_formula_sum "Si O2"
_cell_formula_units_Z 14
_cell_length_a 14.689847
_cell_length_b 8.329173
_cell_length_c 9.263292
_cell_angle_alpha 90.000000
_cell_angle_beta 150.532014
_cell_angle_gamma 90.000000
_cell_volume 557.563261
_symmetry_space_group_name_H-M "P 21"
_symmetry_group_IT_number 4
_symmetry_cell_setting 'monoclinic'
loop_
_space_group_symop_operation_xyz
x,y,z
-x,1/2+y,-z
loop_
_atom_site_type_symbol
_atom_site_label
_atom_site_fract_x
_atom_site_fract_y
_atom_site_fract_z
Si Si1 0.373945 0.522180 0.194405
Si Si2 0.598359 0.226230 0.501533
Si Si3 0.020382 0.571226 0.028796
Si Si4 0.749977 0.700335 0.431813
Si Si5 0.905252 0.898107 0.405083
Si Si6 0.745777 0.785417 0.714372
Si Si7 0.731708 0.571614 0.111584
O O1 0.544770 0.407172 0.381226
O O2 0.402385 0.683829 0.327282
O O3 0.309652 0.398396 0.233366
O O4 0.217962 0.524058 0.856414
O O5 0.792843 0.174109 0.705058
O O6 0.141164 0.125937 0.084919
O O7 0.444979 0.102038 0.229600
O O8 0.089546 0.391113 0.131943
O O9 0.923429 0.603051 0.739053
O O10 0.817247 0.859452 0.439664
O O11 0.630975 0.741454 0.410293
O O12 0.668051 0.591196 0.191108
O O13 0.860763 0.729243 0.266277
O O14 0.122058 0.931801 0.708233
#
# Coordination Sequence:
#
# PCOD9115775 Si02
#       7
#     2   2   2   2   2   2   2
#     4  10  21  36  58  85 113 146 199 232 286 338
#     4  10  21  33  58  86 115 141 186 248 282 326
#     4   9  19  36  59  79 112 147 195 229 286 327
#     4   8  19  35  58  73 116 144 189 228 279 334
#     4   9  19  34  57  81 110 152 188 227 278 347
#     4   9  19  35  60  78 109 153 189 229 278 350
#     4   9  18  33  56  82 111 147 188 229 285 328
#
# _framework density 25.109258000000001
#
# number of rings (size 3 to 8) (size 9 to 14) (size 15 to 20)
#    1.714    1.143    0.000    1.714    2.000    3.429 
#    0.000    0.000   18.857    0.000    0.000    0.000 
#    0.000    0.000    0.000    0.000    0.000    0.000 
#
# Total GULP energy -77943.133827 kJ/mol
# GULP energy per Si atom -5567.366702 kJ/mol
# Density = 2.505211 g / cm^3
# Si number density = 25.109258 Si / 1000 Ang^3
#
#
#
# Elastic Constant Matrix: (Units=GPa)
#
#
# Indices 1 2 3 4 5 6 
#
# 1 75.4812 -7.3827 28.5617 0.0000 -16.6220 0.0000
# 2 -7.3827 39.5333 9.3456 0.0000 -4.6972 0.0000
# 3 28.5617 9.3456 118.4982 0.0000 -13.6482 0.0000
# 4 0.0000 0.0000 0.0000 39.2391 0.0000 0.4037
# 5 -16.6220 -4.6972 -13.6482 0.0000 30.2226 0.0000
# 6 0.0000 0.0000 0.0000 0.4037 0.0000 28.0079
#
#
#
# Elastic Compliance Matrix: (Units=1/GPa)
#
#
# Indices 1 2 3 4 5 6 
#
# 1 0.016935 0.005000 -0.003496 0.000000 0.008512 0.000000
# 2 0.005000 0.027560 -0.002710 0.000000 0.005810 0.000000
# 3 -0.003496 -0.002710 0.009731 0.000000 0.002051 0.000000
# 4 0.000000 0.000000 0.000000 0.025489 0.000000 -0.000367
# 5 0.008512 0.005810 0.002051 0.000000 0.039599 0.000000
# 6 0.000000 0.000000 0.000000 -0.000367 0.000000 0.035710
#
#
# Mechanical properties :
#
#
# Convention : Reuss Voigt Hill
#
# Bulk Modulus (GPa) = 19.29911 32.72908 26.01409
# Shear Modulus (GPa) = 28.61970 33.02644 30.82307
#
# Velocity S-wave (km/s) = 3.37977 3.63065 3.50745
# Velocity P-wave (km/s) = 4.78886 5.53520 5.17550
#
# Compressibility (1/GPa) = 0.05181587
#
# Stress axis : x y z
#
# Youngs Moduli (GPa) = 59.05030 36.28476 102.75973
#
# Poissons Ratio (x) = -0.18143 0.35922
# Poissons Ratio (y) = -0.29527 0.27844
# Poissons Ratio (z) = 0.20642 0.09832
#
# Static dielectric constant tensor:
#      x y z
#    x 2.159600 0.000000 0.064380 
#    y 0.000000 2.074670 0.000000 
#    z 0.064380 0.000000 2.015630 
# 
# From -- ./inp_files/9279.got.cif
#   From: 2010.05.17/outbox.cif.g08.bks.cpg/sg4_5_cif.got.tgz:9279.got - 2010.06.03 18:43:04.
