data_PCOD9115527
_publ_section_title
;
Structure prediction by ZEFSAII (Michael W. Deem and Ramdas Pophale) SiO2 
 PCOD9115527
Probable space group: P 21
;
_chemical_formula_sum "Si O2"
_cell_formula_units_Z 16
_cell_length_a 5.299050
_cell_length_b 13.213071
_cell_length_c 10.653745
_cell_angle_alpha 90.000000
_cell_angle_beta 107.924649
_cell_angle_gamma 90.000000
_cell_volume 709.733937
_symmetry_space_group_name_H-M "P 21"
_symmetry_group_IT_number 4
_symmetry_cell_setting 'monoclinic'
loop_
_space_group_symop_operation_xyz
x,y,z
-x,1/2+y,-z
loop_
_atom_site_type_symbol
_atom_site_label
_atom_site_fract_x
_atom_site_fract_y
_atom_site_fract_z
Si Si1 0.016969 0.371370 0.661174
Si Si2 0.753044 0.752217 0.635398
Si Si3 0.874310 0.781715 0.913222
Si Si4 0.178458 0.973114 0.869723
Si Si5 0.750525 0.381426 0.379177
Si Si6 0.496882 0.732772 0.355381
Si Si7 0.322671 0.441425 0.939930
Si Si8 0.198671 0.625251 0.107886
O O1 0.272966 0.307170 0.657462
O O2 0.129601 0.436896 0.792833
O O3 0.903404 0.428967 0.521376
O O4 0.776539 0.296316 0.664822
O O5 0.767463 0.713921 0.781610
O O6 0.613645 0.688245 0.503531
O O7 0.973409 0.882070 0.858103
O O8 0.042448 0.791054 0.631740
O O9 0.532297 0.841537 0.615845
O O10 0.691679 0.831747 0.992106
O O11 0.105883 0.722530 0.017469
O O12 0.297349 0.946888 0.752214
O O13 0.045508 0.081746 0.848997
O O14 0.365076 0.962283 0.020901
O O15 0.429307 0.653105 0.237942
O O16 0.250602 0.534960 0.019071
#
# Coordination Sequence:
#
# PCOD9115527 Si02
#       8
#     2   2   2   2   2   2   2   2
#     4  10  21  38  66  87 117 163 203 247 309 362
#     4   9  18  36  64  87 110 159 205 240 304 361
#     4  10  20  40  61  85 122 164 200 257 304 372
#     4  10  22  38  61  88 122 164 209 248 314 365
#     4   9  18  37  62  87 113 155 205 247 295 367
#     4  10  21  39  63  89 118 160 205 253 302 365
#     4  11  22  37  60  88 123 165 201 257 309 370
#     4  11  24  37  59  93 125 160 208 259 309 366
#
# _framework density 22.543657
#
# number of rings (size 3 to 8) (size 9 to 14) (size 15 to 20)
#    0.000    2.000    2.500    0.750    3.500    1.000 
#    0.000    2.500    2.750    0.000    0.000    0.000 
#    0.000    0.000    0.000    0.000    0.000    0.000 
#
# Total GULP energy -89132.061335 kJ/mol
# GULP energy per Si atom -5570.753833 kJ/mol
# Density = 2.249235 g / cm^3
# Si number density = 22.543657 Si / 1000 Ang^3
#
#
#
# Elastic Constant Matrix: (Units=GPa)
#
#
# Indices 1 2 3 4 5 6 
#
# 1 73.6055 3.1973 -1.2576 0.0000 17.0643 0.0000
# 2 3.1973 29.8564 12.2379 0.0000 2.2436 0.0000
# 3 -1.2576 12.2379 123.5509 0.0000 7.3263 0.0000
# 4 0.0000 0.0000 0.0000 3.6785 0.0000 6.3964
# 5 17.0643 2.2436 7.3263 0.0000 31.8679 0.0000
# 6 0.0000 0.0000 0.0000 6.3964 0.0000 20.5841
#
#
#
# Elastic Compliance Matrix: (Units=1/GPa)
#
#
# Indices 1 2 3 4 5 6 
#
# 1 0.015618 -0.001363 0.000795 0.000000 -0.008450 0.000000
# 2 -0.001363 0.035120 -0.003436 0.000000 -0.000953 0.000000
# 3 0.000795 -0.003436 0.008570 0.000000 -0.002154 0.000000
# 4 0.000000 0.000000 0.000000 0.591391 0.000000 -0.183770
# 5 -0.008450 -0.000953 -0.002154 0.000000 0.036466 0.000000
# 6 0.000000 0.000000 0.000000 -0.183770 0.000000 0.105686
#
#
# Mechanical properties :
#
#
# Convention : Reuss Voigt Hill
#
# Bulk Modulus (GPa) = 19.49373 28.37421 23.93397
# Shear Modulus (GPa) = 6.11277 25.41512 15.76395
#
# Velocity S-wave (km/s) = 1.64846 3.36128 2.64723
# Velocity P-wave (km/s) = 3.50558 5.26098 4.47029
#
# Compressibility (1/GPa) = 0.05129855
#
# Stress axis : x y z
#
# Youngs Moduli (GPa) = 64.03006 28.47410 116.68614
#
# Poissons Ratio (x) = 0.03882 -0.09277
# Poissons Ratio (y) = 0.08730 0.40094
# Poissons Ratio (z) = -0.05091 0.09784
#
# Static dielectric constant tensor:
#      x y z
#    x 2.002070 0.000000 -0.023210 
#    y 0.000000 1.815780 0.000000 
#    z -0.023210 0.000000 1.924100 
# 
# From -- ./inp_files/10606.got.cif
#   From: 2010.05.17/outbox.cif.g08.bks.cpg/sg4_6_cif.got.tgz:10606.got - 2010.06.03 18:43:04.
