data_PCOD9115606
_publ_section_title
;
Structure prediction by ZEFSAII (Michael W. Deem and Ramdas Pophale) SiO2 
 PCOD9115606
Probable space group: P 21
;
_chemical_formula_sum "Si O2"
_cell_formula_units_Z 16
_cell_length_a 11.200017
_cell_length_b 10.273690
_cell_length_c 11.198493
_cell_angle_alpha 90.000000
_cell_angle_beta 27.841654
_cell_angle_gamma 90.000000
_cell_volume 601.795776
_symmetry_space_group_name_H-M "P 21"
_symmetry_group_IT_number 4
_symmetry_cell_setting 'monoclinic'
loop_
_space_group_symop_operation_xyz
x,y,z
-x,1/2+y,-z
loop_
_atom_site_type_symbol
_atom_site_label
_atom_site_fract_x
_atom_site_fract_y
_atom_site_fract_z
Si Si1 0.649832 0.850330 0.979429
Si Si2 0.270775 0.873662 0.092815
Si Si3 0.016820 0.523364 0.455447
Si Si4 0.626481 0.578290 0.627709
Si Si5 0.419207 0.602129 0.264150
Si Si6 0.836744 0.255706 0.037178
Si Si7 0.317024 0.939247 0.650213
Si Si8 0.736538 0.147031 0.348902
O O1 0.471916 0.833933 0.018518
O O2 0.626890 0.716816 0.070989
O O3 0.544685 0.964454 0.159496
O O4 0.914319 0.903660 0.692916
O O5 0.086063 0.962949 0.332969
O O6 0.103086 0.780705 0.154723
O O7 0.439861 0.964234 0.855703
O O8 0.268291 0.597508 0.272321
O O9 0.812555 0.612933 0.571306
O O10 0.445145 0.690955 0.737785
O O11 0.779172 0.515408 0.381393
O O12 0.226461 0.630090 0.543119
O O13 0.858322 0.395582 0.084001
O O14 0.932910 0.164352 0.062847
O O15 0.394209 0.791672 0.542943
O O16 0.551785 0.027303 0.482883
#
# Coordination Sequence:
#
# PCOD9115606 Si02
#       8
#     2   2   2   2   2   2   2   2
#     4  10  22  39  62  89 126 170 209 264 333 384
#     4  10  22  38  58  91 127 165 211 262 326 387
#     4  10  25  40  62  98 129 167 218 278 323 396
#     4  10  20  41  63  95 129 167 218 268 331 391
#     4  11  20  41  64  91 124 167 218 266 333 387
#     4   9  19  35  65  89 126 173 207 267 326 386
#     4   9  17  34  66  90 123 171 217 264 330 392
#     4   9  17  34  64  93 118 174 212 263 334 393
#
# _framework density 26.587094
#
# number of rings (size 3 to 8) (size 9 to 14) (size 15 to 20)
#    0.750    1.500    2.500    0.000    5.250    2.000 
#    4.500    0.000    5.500    7.500    0.000    0.000 
#    0.000    0.000    0.000    0.000    0.000    0.000 
#
# Total GULP energy -89155.817410 kJ/mol
# GULP energy per Si atom -5572.238588 kJ/mol
# Density = 2.652658 g / cm^3
# Si number density = 26.587094 Si / 1000 Ang^3
#
#
#
# Elastic Constant Matrix: (Units=GPa)
#
#
# Indices 1 2 3 4 5 6 
#
# 1 83.3839 26.5902 14.7448 0.0000 25.2168 0.0000
# 2 26.5902 87.0346 5.2708 0.0000 -4.8736 0.0000
# 3 14.7448 5.2708 49.7797 0.0000 19.1476 0.0000
# 4 0.0000 0.0000 0.0000 35.5224 0.0000 16.4805
# 5 25.2168 -4.8736 19.1476 0.0000 35.6600 0.0000
# 6 0.0000 0.0000 0.0000 16.4805 0.0000 23.9264
#
#
#
# Elastic Compliance Matrix: (Units=1/GPa)
#
#
# Indices 1 2 3 4 5 6 
#
# 1 0.018167 -0.006384 0.000721 0.000000 -0.014106 0.000000
# 2 -0.006384 0.014037 -0.002608 0.000000 0.007833 0.000000
# 3 0.000721 -0.002608 0.025816 0.000000 -0.014728 0.000000
# 4 0.000000 0.000000 0.000000 0.041373 0.000000 -0.028497
# 5 -0.014106 0.007833 -0.014728 0.000000 0.046997 0.000000
# 6 0.000000 0.000000 0.000000 -0.028497 0.000000 0.061424
#
#
# Mechanical properties :
#
#
# Convention : Reuss Voigt Hill
#
# Bulk Modulus (GPa) = 24.10969 34.82331 29.46650
# Shear Modulus (GPa) = 20.99241 30.59458 25.79349
#
# Velocity S-wave (km/s) = 2.81298 3.39592 3.11810
# Velocity P-wave (km/s) = 4.43152 5.33879 4.90617
#
# Compressibility (1/GPa) = 0.04147710
#
# Stress axis : x y z
#
# Youngs Moduli (GPa) = 55.04496 71.24231 38.73521
#
# Poissons Ratio (x) = 0.45480 -0.02792
# Poissons Ratio (y) = 0.35139 0.10103
# Poissons Ratio (z) = -0.03967 0.18582
#
# Static dielectric constant tensor:
#      x y z
#    x 2.087180 0.000000 0.046390 
#    y 0.000000 2.085510 0.000000 
#    z 0.046390 0.000000 2.110800 
# 
# From -- ./inp_files/12277.got.cif
#   From: 2010.05.17/outbox.cif.g08.bks.cpg/sg4_7_cif.got.tgz:12277.got - 2010.06.03 18:43:04.
