data_PCOD9115961
_publ_section_title
;
Structure prediction by ZEFSAII (Michael W. Deem and Ramdas Pophale) SiO2 
 PCOD9115961
Probable space group: P 21
;
_chemical_formula_sum "Si O2"
_cell_formula_units_Z 16
_cell_length_a 11.624573
_cell_length_b 11.453153
_cell_length_c 6.154440
_cell_angle_alpha 90.000000
_cell_angle_beta 127.164155
_cell_angle_gamma 90.000000
_cell_volume 652.978383
_symmetry_space_group_name_H-M "P 21"
_symmetry_group_IT_number 4
_symmetry_cell_setting 'monoclinic'
loop_
_space_group_symop_operation_xyz
x,y,z
-x,1/2+y,-z
loop_
_atom_site_type_symbol
_atom_site_label
_atom_site_fract_x
_atom_site_fract_y
_atom_site_fract_z
Si Si1 0.565534 0.828450 0.996748
Si Si2 0.293394 0.839172 0.993468
Si Si3 0.881118 0.821849 0.890543
Si Si4 0.522652 0.474196 0.478336
Si Si5 0.087045 0.934395 0.426427
Si Si6 0.181810 0.734822 0.261202
Si Si7 0.717273 0.645145 0.438121
Si Si8 0.729331 0.007191 0.470804
O O1 0.419546 0.812238 0.968051
O O2 0.664356 0.718400 0.168788
O O3 0.649231 0.942595 0.184767
O O4 0.521979 0.857076 0.703260
O O5 0.358336 0.946743 0.204153
O O6 0.266745 0.735952 0.133756
O O7 0.144081 0.879475 0.714556
O O8 0.927915 0.891177 0.166669
O O9 0.012879 0.731969 0.014971
O O10 0.749746 0.738997 0.667014
O O11 0.863592 0.927690 0.700305
O O12 0.589556 0.563420 0.382055
O O13 0.381825 0.508631 0.453532
O O14 0.187003 0.864253 0.366910
O O15 0.144575 0.065751 0.469925
O O16 0.220991 0.639901 0.485127
#
# Coordination Sequence:
#
# PCOD9115961 Si02
#       8
#     2   2   2   2   2   2   2   2
#     4  10  23  39  65  97 130 169 217 274 326 384
#     4  11  20  41  60  98 126 172 221 256 331 382
#     4   9  22  43  65  89 129 164 216 266 325 379
#     4  11  22  41  65  95 134 168 216 275 316 390
#     4  10  22  41  65  92 132 170 215 268 325 385
#     4  10  21  38  67  86 130 170 212 265 321 391
#     4  11  20  44  67  92 131 172 209 271 329 376
#     4  10  22  41  64  97 126 165 220 271 329 383
#
# _framework density 24.503108000000001
#
# number of rings (size 3 to 8) (size 9 to 14) (size 15 to 20)
#    0.750    1.000    2.500    1.500    0.000    3.000 
#   11.250    1.250    0.000    0.000    0.000    0.000 
#    0.000    0.000    0.000    0.000    0.000    0.000 
#
# Total GULP energy -89221.696558 kJ/mol
# GULP energy per Si atom -5576.356035 kJ/mol
# Density = 2.444734 g / cm^3
# Si number density = 24.503108 Si / 1000 Ang^3
#
#
#
# Elastic Constant Matrix: (Units=GPa)
#
#
# Indices 1 2 3 4 5 6 
#
# 1 39.8177 -0.8393 -5.5799 0.0000 -1.2825 0.0000
# 2 -0.8393 85.2077 23.9258 0.0000 9.0275 0.0000
# 3 -5.5799 23.9258 128.7140 0.0000 23.5038 0.0000
# 4 0.0000 0.0000 0.0000 28.0269 0.0000 9.2059
# 5 -1.2825 9.0275 23.5038 0.0000 19.1669 0.0000
# 6 0.0000 0.0000 0.0000 9.2059 0.0000 24.6117
#
#
#
# Elastic Compliance Matrix: (Units=1/GPa)
#
#
# Indices 1 2 3 4 5 6 
#
# 1 0.025272 -0.000089 0.001025 0.000000 0.000476 0.000000
# 2 -0.000089 0.012610 -0.001626 0.000000 -0.003951 0.000000
# 3 0.001025 -0.001626 0.010261 0.000000 -0.011748 0.000000
# 4 0.000000 0.000000 0.000000 0.040678 0.000000 -0.015215
# 5 0.000476 -0.003951 -0.011748 0.000000 0.068473 0.000000
# 6 0.000000 0.000000 0.000000 -0.015215 0.000000 0.046322
#
#
# Mechanical properties :
#
#
# Convention : Reuss Voigt Hill
#
# Bulk Modulus (GPa) = 21.38483 32.08362 26.73423
# Shear Modulus (GPa) = 22.66704 30.10996 26.38850
#
# Velocity S-wave (km/s) = 3.04479 3.50926 3.28524
# Velocity P-wave (km/s) = 4.59427 5.43525 5.03236
#
# Compressibility (1/GPa) = 0.04676212
#
# Stress axis : x y z
#
# Youngs Moduli (GPa) = 39.57019 79.29935 97.45385
#
# Poissons Ratio (x) = 0.00709 -0.09992
# Poissons Ratio (y) = 0.00354 0.15851
# Poissons Ratio (z) = -0.04057 0.12898
#
# Static dielectric constant tensor:
#      x y z
#    x 1.977340 0.000000 0.020220 
#    y 0.000000 1.968210 0.000000 
#    z 0.020220 0.000000 1.970810 
# 
# From -- ./inp_files/3815.got.cif
#   From: 2010.05.17/outbox.cif.g08.bks.cpg/sg4_2_cif.got.tgz:3815.got - 2010.06.03 18:43:04.
