data_PCOD9115152
_publ_section_title
;
Structure prediction by ZEFSAII (Michael W. Deem and Ramdas Pophale) SiO2 
 PCOD9115152
Probable space group: P 21
;
_chemical_formula_sum "Si O2"
_cell_formula_units_Z 14
_cell_length_a 9.348096
_cell_length_b 6.980130
_cell_length_c 7.406247
_cell_angle_alpha 90.000000
_cell_angle_beta 86.834065
_cell_angle_gamma 90.000000
_cell_volume 482.526900
_symmetry_space_group_name_H-M "P 21"
_symmetry_group_IT_number 4
_symmetry_cell_setting 'monoclinic'
loop_
_space_group_symop_operation_xyz
x,y,z
-x,1/2+y,-z
loop_
_atom_site_type_symbol
_atom_site_label
_atom_site_fract_x
_atom_site_fract_y
_atom_site_fract_z
Si Si1 0.878426 0.876640 0.291113
Si Si2 0.162261 0.933987 0.121227
Si Si3 0.948681 0.442183 0.280576
Si Si4 0.411838 0.255241 0.632072
Si Si5 0.338611 0.810903 0.659339
Si Si6 0.773515 0.983166 0.891470
Si Si7 0.540153 0.397840 0.996009
O O1 0.925260 0.660643 0.343499
O O2 0.722639 0.896165 0.398725
O O3 0.034848 0.979326 0.271124
O O4 0.824048 0.906450 0.085828
O O5 0.192626 0.707589 0.140763
O O6 0.322554 0.022139 0.088878
O O7 0.095939 0.958318 0.927763
O O8 0.831051 0.291610 0.364135
O O9 0.115669 0.388116 0.259087
O O10 0.540286 0.244570 0.482995
O O11 0.352764 0.041958 0.656973
O O12 0.478532 0.315441 0.816773
O O13 0.384500 0.759237 0.859843
O O14 0.604094 0.955744 0.886549
#
# Coordination Sequence:
#
# PCOD9115152 Si02
#       7
#     2   2   2   2   2   2   2
#     4   8  16  31  50  75 106 139 176 219 269 323
#     4   9  16  29  52  77 103 138 178 221 269 322
#     4   8  16  31  50  75 106 139 176 219 269 323
#     4  10  21  36  55  80 111 146 184 227 274 327
#     4  10  21  36  55  80 111 146 184 227 274 327
#     4   9  16  29  52  77 103 138 178 221 269 322
#     4  10  20  34  56  82 106 138 182 228 272 320
#
# _framework density 29.013926999999999
#
# number of rings (size 3 to 8) (size 9 to 14) (size 15 to 20)
#    0.000    2.857    0.000    0.857    0.000    6.857 
#    0.000    1.429    0.000    0.000    0.000    0.000 
#    0.000    0.000    0.000    0.000    0.000    0.000 
#
# Total GULP energy -78182.028666 kJ/mol
# GULP energy per Si atom -5584.430619 kJ/mol
# Density = 2.894789 g / cm^3
# Si number density = 29.013927 Si / 1000 Ang^3
#
#
#
# Elastic Constant Matrix: (Units=GPa)
#
#
# Indices 1 2 3 4 5 6 
#
# 1 294.8389 44.2119 99.3864 0.0000 -72.3601 0.0000
# 2 44.2119 79.6926 19.8835 0.0000 -15.1775 0.0000
# 3 99.3864 19.8835 85.4431 0.0000 -30.1698 0.0000
# 4 0.0000 0.0000 0.0000 25.7417 0.0000 -22.1771
# 5 -72.3601 -15.1775 -30.1698 0.0000 77.8327 0.0000
# 6 0.0000 0.0000 0.0000 -22.1771 0.0000 37.4259
#
#
#
# Elastic Compliance Matrix: (Units=1/GPa)
#
#
# Indices 1 2 3 4 5 6 
#
# 1 0.006457 -0.001444 -0.005972 0.000000 0.003407 0.000000
# 2 -0.001444 0.013822 -0.001228 0.000000 0.000878 0.000000
# 3 -0.005972 -0.001228 0.019570 0.000000 0.001794 0.000000
# 4 0.000000 0.000000 0.000000 0.079362 0.000000 0.047027
# 5 0.003407 0.000878 0.001794 0.000000 0.016882 0.000000
# 6 0.000000 0.000000 0.000000 0.047027 0.000000 0.054586
#
#
# Mechanical properties :
#
#
# Convention : Reuss Voigt Hill
#
# Bulk Modulus (GPa) = 44.32116 87.43757 65.87936
# Shear Modulus (GPa) = 23.20319 47.96626 35.58472
#
# Velocity S-wave (km/s) = 2.83101 4.07039 3.50590
# Velocity P-wave (km/s) = 5.09854 7.23136 6.25650
#
# Compressibility (1/GPa) = 0.02256259
#
# Stress axis : x y z
#
# Youngs Moduli (GPa) = 154.85890 72.34593 51.09908
#
# Poissons Ratio (x) = 0.10443 0.30518
# Poissons Ratio (y) = 0.22354 0.06273
# Poissons Ratio (z) = 0.92488 0.08882
#
# Static dielectric constant tensor:
#      x y z
#    x 2.323110 0.000000 -0.079870 
#    y 0.000000 2.477700 0.000000 
#    z -0.079870 0.000000 2.224190 
# 
# From -- ./inp_files/5562.got.cif
#   From: 2010.05.17/outbox.cif.g08.bks.cpg/sg4_3_cif.got.tgz:5562.got - 2010.06.03 18:43:04.
