data_PCOD9115543
_publ_section_title
;
Structure prediction by ZEFSAII (Michael W. Deem and Ramdas Pophale) SiO2 
 PCOD9115543
Probable space group: P 21
;
_chemical_formula_sum "Si O2"
_cell_formula_units_Z 12
_cell_length_a 15.428616
_cell_length_b 5.035734
_cell_length_c 15.228000
_cell_angle_alpha 90.000000
_cell_angle_beta 29.932863
_cell_angle_gamma 90.000000
_cell_volume 590.364191
_symmetry_space_group_name_H-M "P 21"
_symmetry_group_IT_number 4
_symmetry_cell_setting 'monoclinic'
loop_
_space_group_symop_operation_xyz
x,y,z
-x,1/2+y,-z
loop_
_atom_site_type_symbol
_atom_site_label
_atom_site_fract_x
_atom_site_fract_y
_atom_site_fract_z
Si Si1 0.539920 0.459070 0.406764
Si Si2 0.791190 0.916662 0.398642
Si Si3 0.088416 0.914104 0.607090
Si Si4 0.099048 0.208219 0.888389
Si Si5 0.286674 0.406461 0.140098
Si Si6 0.321293 0.904918 0.232109
O O1 0.450387 0.686352 0.546533
O O2 0.416845 0.413375 0.431618
O O3 0.728219 0.576763 0.223000
O O4 0.862009 0.710820 0.407570
O O5 0.860526 0.815182 0.244161
O O6 0.851256 0.209609 0.371135
O O7 0.198688 0.856224 0.422459
O O8 0.884813 0.878970 0.767262
O O9 0.035196 0.465133 0.996838
O O10 0.282414 0.690276 0.191150
O O11 0.287123 0.188949 0.217454
O O12 0.472645 0.381727 0.928288
#
# Coordination Sequence:
#
# PCOD9115543 Si02
#       6
#     2   2   2   2   2   2
#     4  10  20  40  64  81 117 162 206 245 298 375
#     4  11  24  40  60  90 126 155 200 259 309 367
#     4  12  22  39  61  93 129 157 198 258 322 352
#     4  11  22  41  65  89 116 163 216 252 303 373
#     4  10  21  39  63  88 120 164 207 251 283 383
#     4  10  21  39  63  87 120 165 211 237 305 368
#
# _framework density 20.326435
#
# number of rings (size 3 to 8) (size 9 to 14) (size 15 to 20)
#    0.000    1.333    0.000    8.000    0.000    0.000 
#    9.000    0.000    0.000    0.000    0.000    0.000 
#    0.000    0.000    0.000    0.000    0.000    0.000 
#
# Total GULP energy -67072.203492 kJ/mol
# GULP energy per Si atom -5589.350291 kJ/mol
# Density = 2.028017 g / cm^3
# Si number density = 20.326435 Si / 1000 Ang^3
#
#
#
# Elastic Constant Matrix: (Units=GPa)
#
#
# Indices 1 2 3 4 5 6 
#
# 1 61.5962 -12.1358 19.6139 0.0000 -28.0586 0.0000
# 2 -12.1358 63.8713 0.9538 0.0000 -0.0655 0.0000
# 3 19.6139 0.9538 48.4919 0.0000 -20.4584 0.0000
# 4 0.0000 0.0000 0.0000 34.9610 0.0000 -1.2580
# 5 -28.0586 -0.0655 -20.4584 0.0000 21.4807 0.0000
# 6 0.0000 0.0000 0.0000 -1.2580 0.0000 33.4713
#
#
#
# Elastic Compliance Matrix: (Units=1/GPa)
#
#
# Indices 1 2 3 4 5 6 
#
# 1 0.047741 0.008976 0.011425 0.000000 0.073269 0.000000
# 2 0.008976 0.017351 0.001667 0.000000 0.013364 0.000000
# 3 0.011425 0.001667 0.037223 0.000000 0.050380 0.000000
# 4 0.000000 0.000000 0.000000 0.028642 0.000000 0.001076
# 5 0.073269 0.013364 0.050380 0.000000 0.190283 0.000000
# 6 0.000000 0.000000 0.000000 0.001076 0.000000 0.029917
#
#
# Mechanical properties :
#
#
# Convention : Reuss Voigt Hill
#
# Bulk Modulus (GPa) = 6.82830 21.20258 14.01544
# Shear Modulus (GPa) = 14.05128 29.01776 21.53452
#
# Velocity S-wave (km/s) = 2.63207 3.78244 3.25843
# Velocity P-wave (km/s) = 3.55017 5.43411 4.58984
#
# Compressibility (1/GPa) = 0.14644932
#
# Stress axis : x y z
#
# Youngs Moduli (GPa) = 20.94625 57.63462 26.86499
#
# Poissons Ratio (x) = -0.51730 -0.30693
# Poissons Ratio (y) = -0.18800 -0.04477
# Poissons Ratio (z) = -0.23931 -0.09605
#
# Static dielectric constant tensor:
#      x y z
#    x 1.689570 0.000000 -0.025040 
#    y 0.000000 1.690550 0.000000 
#    z -0.025040 0.000000 1.750430 
# 
# From -- ./inp_files/14033.got.cif
#   From: 2010.05.17/outbox.cif.g08.bks.cpg/sg4_8_cif.got.tgz:14033.got - 2010.06.03 18:43:04.
