data_PCOD9115190
_publ_section_title
;
Structure prediction by ZEFSAII (Michael W. Deem and Ramdas Pophale) SiO2 
 PCOD9115190
Probable space group: P 21
;
_chemical_formula_sum "Si O2"
_cell_formula_units_Z 16
_cell_length_a 10.993522
_cell_length_b 5.942187
_cell_length_c 19.251001
_cell_angle_alpha 90.000000
_cell_angle_beta 149.083470
_cell_angle_gamma 90.000000
_cell_volume 646.131779
_symmetry_space_group_name_H-M "P 21"
_symmetry_group_IT_number 4
_symmetry_cell_setting 'monoclinic'
loop_
_space_group_symop_operation_xyz
x,y,z
-x,1/2+y,-z
loop_
_atom_site_type_symbol
_atom_site_label
_atom_site_fract_x
_atom_site_fract_y
_atom_site_fract_z
Si Si1 0.613734 0.108820 0.177123
Si Si2 0.926256 0.448742 0.265814
Si Si3 0.524608 0.368487 0.267258
Si Si4 0.311164 0.085251 0.445287
Si Si5 0.159808 0.018028 0.144439
Si Si6 0.051313 0.819086 0.430050
Si Si7 0.169170 0.739573 0.275933
Si Si8 0.298208 0.766512 0.082623
O O1 0.710384 0.269211 0.163078
O O2 0.495949 0.263503 0.177080
O O3 0.440607 0.893319 0.091593
O O4 0.850191 0.006469 0.327741
O O5 0.167381 0.307396 0.392301
O O6 0.927130 0.600613 0.336059
O O7 0.960587 0.607131 0.214328
O O8 0.355400 0.220004 0.235965
O O9 0.792518 0.326179 0.424711
O O10 0.464713 0.628219 0.219137
O O11 0.587661 0.121531 0.581868
O O12 0.244174 0.894465 0.467389
O O13 0.198217 0.992245 0.319769
O O14 0.188757 0.791708 0.204547
O O15 0.156491 0.938061 0.063112
O O16 0.908032 0.109479 0.045800
#
# Coordination Sequence:
#
# PCOD9115190 Si02
#       8
#     2   2   2   2   2   2   2   2
#     4  10  24  38  64  97 135 188 222 285 354 414
#     4  10  21  40  58  95 141 176 232 282 349 432
#     4  11  23  38  66  96 139 175 230 292 342 425
#     4  10  20  35  57  95 137 175 210 283 349 420
#     4  11  24  41  67 102 135 184 234 292 357 413
#     4  10  22  37  61  95 136 174 221 278 355 421
#     4  11  21  36  64  99 140 181 225 284 357 419
#     4  11  23  45  63  99 141 181 236 292 345 420
#
# _framework density 24.76275
#
# number of rings (size 3 to 8) (size 9 to 14) (size 15 to 20)
#    0.000    1.500    2.500    2.250    5.250    3.000 
#    0.000    0.000    0.000    0.000   55.250    0.000 
#    0.000    0.000    0.000    0.000    0.000    0.000 
#
# Total GULP energy -89216.075839 kJ/mol
# GULP energy per Si atom -5576.004740 kJ/mol
# Density = 2.470639 g / cm^3
# Si number density = 24.762750 Si / 1000 Ang^3
#
#
#
# Elastic Constant Matrix: (Units=GPa)
#
#
# Indices 1 2 3 4 5 6 
#
# 1 108.4593 41.8440 26.2633 0.0000 18.9218 0.0000
# 2 41.8440 90.3004 26.8861 0.0000 14.7177 0.0000
# 3 26.2633 26.8861 45.6660 0.0000 10.2576 0.0000
# 4 0.0000 0.0000 0.0000 26.2377 0.0000 18.5275
# 5 18.9218 14.7177 10.2576 0.0000 27.5438 0.0000
# 6 0.0000 0.0000 0.0000 18.5275 0.0000 62.1624
#
#
#
# Elastic Compliance Matrix: (Units=1/GPa)
#
#
# Indices 1 2 3 4 5 6 
#
# 1 0.012512 -0.003834 -0.003785 0.000000 -0.005137 0.000000
# 2 -0.003834 0.015163 -0.005996 0.000000 -0.003236 0.000000
# 3 -0.003785 -0.005996 0.028702 0.000000 -0.004885 0.000000
# 4 0.000000 0.000000 0.000000 0.048273 0.000000 -0.014388
# 5 -0.005137 -0.003236 -0.004885 0.000000 0.043383 0.000000
# 6 0.000000 0.000000 0.000000 -0.014388 0.000000 0.020375
#
#
# Mechanical properties :
#
#
# Convention : Reuss Voigt Hill
#
# Bulk Modulus (GPa) = 34.30663 48.26805 41.28734
# Shear Modulus (GPa) = 24.34831 33.15093 28.74962
#
# Velocity S-wave (km/s) = 3.13911 3.66285 3.41105
# Velocity P-wave (km/s) = 5.19835 6.11745 5.67653
#
# Compressibility (1/GPa) = 0.02914888
#
# Stress axis : x y z
#
# Youngs Moduli (GPa) = 79.92456 65.94926 34.84052
#
# Poissons Ratio (x) = 0.25282 0.13186
# Poissons Ratio (y) = 0.30640 0.20890
# Poissons Ratio (z) = 0.30249 0.39542
#
# Static dielectric constant tensor:
#      x y z
#    x 2.064410 0.000000 -0.071030 
#    y 0.000000 2.092620 0.000000 
#    z -0.071030 0.000000 2.028200 
# 
# From -- ./inp_files/11576.got.cif
#   From: 2010.05.17/outbox.cif.g08.bks.cpg/sg4_6_cif.got.tgz:11576.got - 2010.06.03 18:43:04.
