data_PCOD9115728
_publ_section_title
;
Structure prediction by ZEFSAII (Michael W. Deem and Ramdas Pophale) SiO2 
 PCOD9115728
Probable space group: P 21
;
_chemical_formula_sum "Si O2"
_cell_formula_units_Z 16
_cell_length_a 6.983371
_cell_length_b 6.385128
_cell_length_c 22.848681
_cell_angle_alpha 90.000000
_cell_angle_beta 126.587016
_cell_angle_gamma 90.000000
_cell_volume 818.061112
_symmetry_space_group_name_H-M "P 21"
_symmetry_group_IT_number 4
_symmetry_cell_setting 'monoclinic'
loop_
_space_group_symop_operation_xyz
x,y,z
-x,1/2+y,-z
loop_
_atom_site_type_symbol
_atom_site_label
_atom_site_fract_x
_atom_site_fract_y
_atom_site_fract_z
Si Si1 0.641231 0.630920 0.158308
Si Si2 0.730430 0.673641 0.501188
Si Si3 0.469266 0.854272 0.752387
Si Si4 0.873313 0.026104 0.257106
Si Si5 0.409990 0.030892 0.398288
Si Si6 0.250367 0.855675 0.598613
Si Si7 0.026705 0.804981 0.837985
Si Si8 0.592912 0.210928 0.000851
O O1 0.540582 0.471013 0.187472
O O2 0.748957 0.814004 0.216381
O O3 0.855588 0.525806 0.159909
O O4 0.445176 0.702676 0.075542
O O5 0.562597 0.823050 0.432755
O O6 0.600112 0.625183 0.538107
O O7 0.773909 0.480086 0.466356
O O8 0.985731 0.772909 0.562549
O O9 0.298383 0.653701 0.730642
O O10 0.351918 0.970498 0.674912
O O11 0.744246 0.809939 0.790677
O O12 0.137760 0.996449 0.330300
O O13 0.900699 0.154082 0.201833
O O14 0.551678 0.180333 0.379906
O O15 0.154605 0.730532 0.920740
O O16 0.486937 0.458072 0.996694
#
# Coordination Sequence:
#
# PCOD9115728 Si02
#       8
#     2   2   2   2   2   2   2   2
#     4  10  24  42  65 100 133 175 227 277 333 405
#     4  12  26  42  67  93 126 170 222 270 338 407
#     4  11  25  42  65  98 135 170 223 282 333 407
#     4  11  23  42  67  93 132 172 222 272 334 408
#     4  12  25  41  67  95 127 174 215 278 338 403
#     4  12  25  43  64  96 131 166 219 280 335 402
#     4  10  22  43  67  97 135 181 218 275 341 400
#     4  10  20  43  74 102 143 190 234 288 348 416
#
# _framework density 19.558439
#
# number of rings (size 3 to 8) (size 9 to 14) (size 15 to 20)
#    0.000    1.000    6.250    0.000    1.750    4.000 
#    2.250    0.000    0.000    0.000    0.000    0.000 
#    0.000    0.000    0.000    0.000    0.000    0.000 
#
# Total GULP energy -89074.951256 kJ/mol
# GULP energy per Si atom -5567.184453 kJ/mol
# Density = 1.951392 g / cm^3
# Si number density = 19.558439 Si / 1000 Ang^3
#
#
#
# Elastic Constant Matrix: (Units=GPa)
#
#
# Indices 1 2 3 4 5 6 
#
# 1 137.9146 6.0619 102.3493 0.0000 -24.8209 0.0000
# 2 6.0619 41.6995 7.5319 0.0000 -5.1939 0.0000
# 3 102.3493 7.5319 262.2967 0.0000 -35.2721 0.0000
# 4 0.0000 0.0000 0.0000 34.0787 0.0000 -2.0437
# 5 -24.8209 -5.1939 -35.2721 0.0000 39.6999 0.0000
# 6 0.0000 0.0000 0.0000 -2.0437 0.0000 9.0041
#
#
#
# Elastic Compliance Matrix: (Units=1/GPa)
#
#
# Indices 1 2 3 4 5 6 
#
# 1 0.010593 -0.000465 -0.003677 0.000000 0.003295 0.000000
# 2 -0.000465 0.024421 -0.000147 0.000000 0.002774 0.000000
# 3 -0.003677 -0.000147 0.005610 0.000000 0.002666 0.000000
# 4 0.000000 0.000000 0.000000 0.029749 0.000000 0.006752
# 5 0.003295 0.002774 0.002666 0.000000 0.029981 0.000000
# 6 0.000000 0.000000 0.000000 0.006752 0.000000 0.112593
#
#
# Mechanical properties :
#
#
# Convention : Reuss Voigt Hill
#
# Bulk Modulus (GPa) = 31.20528 74.86630 53.03579
# Shear Modulus (GPa) = 21.53251 38.28772 29.91011
#
# Velocity S-wave (km/s) = 3.32163 4.42928 3.91483
# Velocity P-wave (km/s) = 5.54080 8.03240 6.90000
#
# Compressibility (1/GPa) = 0.03204586
#
# Stress axis : x y z
#
# Youngs Moduli (GPa) = 94.40061 40.94878 178.25278
#
# Poissons Ratio (x) = 0.01906 0.65544
# Poissons Ratio (y) = 0.04393 0.02615
# Poissons Ratio (z) = 0.34711 0.00601
#
# Static dielectric constant tensor:
#      x y z
#    x 1.648630 0.000000 -0.015810 
#    y 0.000000 1.593690 0.000000 
#    z -0.015810 0.000000 1.660790 
# 
# From -- ./inp_files/4001.got.cif
#   From: 2010.05.17/outbox.cif.g08.bks.cpg/sg4_3_cif.got.tgz:4001.got - 2010.06.03 18:43:04.
