data_PCOD9115333
_publ_section_title
;
Structure prediction by ZEFSAII (Michael W. Deem and Ramdas Pophale) SiO2 
 PCOD9115333
Probable space group: P 21
;
_chemical_formula_sum "Si O2"
_cell_formula_units_Z 16
_cell_length_a 13.478808
_cell_length_b 5.357673
_cell_length_c 24.302774
_cell_angle_alpha 90.000000
_cell_angle_beta 24.133793
_cell_angle_gamma 90.000000
_cell_volume 717.575310
_symmetry_space_group_name_H-M "P 21"
_symmetry_group_IT_number 4
_symmetry_cell_setting 'monoclinic'
loop_
_space_group_symop_operation_xyz
x,y,z
-x,1/2+y,-z
loop_
_atom_site_type_symbol
_atom_site_label
_atom_site_fract_x
_atom_site_fract_y
_atom_site_fract_z
Si Si1 0.396321 0.528500 0.677826
Si Si2 0.690835 0.478662 0.158727
Si Si3 0.047834 0.313395 0.064019
Si Si4 0.310723 0.826755 0.367632
Si Si5 0.524706 0.092371 0.159949
Si Si6 0.624008 0.750484 0.419739
Si Si7 0.865795 0.828562 0.401110
Si Si8 0.074508 0.338997 0.347703
O O1 0.494893 0.450985 0.687992
O O2 0.386712 0.301700 0.639545
O O3 0.596916 0.731664 0.556355
O O4 0.122557 0.628737 0.816464
O O5 0.412696 0.546642 0.312352
O O6 0.683743 0.233395 0.125483
O O7 0.842647 0.473819 0.137203
O O8 0.813772 0.677786 0.056327
O O9 0.272898 0.450960 0.978166
O O10 0.057090 0.858176 0.526082
O O11 0.339964 0.930377 0.291232
O O12 0.355987 0.278231 0.212096
O O13 0.564873 0.464332 0.463416
O O14 0.854717 0.824236 0.340278
O O15 0.029884 0.601193 0.340298
O O16 0.944895 0.099112 0.383933
#
# Coordination Sequence:
#
# PCOD9115333 Si02
#       8
#     2   2   2   2   2   2   2   2
#     4  10  20  37  63  96 120 160 200 259 327 385
#     4  11  20  36  53  79 124 161 202 260 304 352
#     4  11  20  36  55  85 124 162 212 253 311 369
#     4  10  22  34  57  84 126 159 212 256 303 368
#     4  11  25  36  55  84 124 177 209 251 302 369
#     4  10  20  38  65  98 130 153 197 265 340 384
#     4  10  22  42  61  93 127 156 205 267 319 374
#     4  11  25  39  61  87 125 174 213 249 306 375
#
# _framework density 22.297314
#
# number of rings (size 3 to 8) (size 9 to 14) (size 15 to 20)
#    0.000    1.500    2.500    3.750    7.000    1.000 
#    0.000    0.000    0.000    0.000    3.250    0.000 
#    0.000    0.000    0.000    0.000    0.000    0.000 
#
# Total GULP energy -89261.047951 kJ/mol
# GULP energy per Si atom -5578.815497 kJ/mol
# Density = 2.224656 g / cm^3
# Si number density = 22.297314 Si / 1000 Ang^3
#
#
#
# Elastic Constant Matrix: (Units=GPa)
#
#
# Indices 1 2 3 4 5 6 
#
# 1 63.2697 12.2939 19.4353 0.0000 -6.2664 0.0000
# 2 12.2939 60.5511 6.6713 0.0000 -1.5108 0.0000
# 3 19.4353 6.6713 61.2139 0.0000 -23.8004 0.0000
# 4 0.0000 0.0000 0.0000 32.4020 0.0000 -12.1461
# 5 -6.2664 -1.5108 -23.8004 0.0000 17.9280 0.0000
# 6 0.0000 0.0000 0.0000 -12.1461 0.0000 40.3466
#
#
#
# Elastic Compliance Matrix: (Units=1/GPa)
#
#
# Indices 1 2 3 4 5 6 
#
# 1 0.018107 -0.003038 -0.006318 0.000000 -0.002314 0.000000
# 2 -0.003038 0.017263 -0.001579 0.000000 -0.001704 0.000000
# 3 -0.006318 -0.001579 0.036384 0.000000 0.045960 0.000000
# 4 0.000000 0.000000 0.000000 0.034788 0.000000 0.010473
# 5 -0.002314 -0.001704 0.045960 0.000000 0.115841 0.000000
# 6 0.000000 0.000000 0.000000 0.010473 0.000000 0.027938
#
#
# Mechanical properties :
#
#
# Convention : Reuss Voigt Hill
#
# Bulk Modulus (GPa) = 20.04627 29.09287 24.56957
# Shear Modulus (GPa) = 17.31188 27.91094 22.61141
#
# Velocity S-wave (km/s) = 2.78944 3.54186 3.18793
# Velocity P-wave (km/s) = 4.40279 5.45916 4.95918
#
# Compressibility (1/GPa) = 0.04988458
#
# Stress axis : x y z
#
# Youngs Moduli (GPa) = 55.22683 57.92636 27.48483
#
# Poissons Ratio (x) = 0.17598 0.17364
# Poissons Ratio (y) = 0.16778 0.04340
# Poissons Ratio (z) = 0.34890 0.09148
#
# Static dielectric constant tensor:
#      x y z
#    x 1.858090 0.000000 -0.005460 
#    y 0.000000 1.925050 0.000000 
#    z -0.005460 0.000000 1.847680 
# 
# From -- ./inp_files/13850.got.cif
#   From: 2010.05.17/outbox.cif.g08.bks.cpg/sg4_7_cif.got.tgz:13850.got - 2010.06.03 18:43:04.
