data_PCOD9115809
_publ_section_title
;
Structure prediction by ZEFSAII (Michael W. Deem and Ramdas Pophale) SiO2 
 PCOD9115809
Probable space group: P 21
;
_chemical_formula_sum "Si O2"
_cell_formula_units_Z 16
_cell_length_a 18.367784
_cell_length_b 9.561455
_cell_length_c 9.205635
_cell_angle_alpha 90.000000
_cell_angle_beta 29.672831
_cell_angle_gamma 90.000000
_cell_volume 800.351357
_symmetry_space_group_name_H-M "P 21"
_symmetry_group_IT_number 4
_symmetry_cell_setting 'monoclinic'
loop_
_space_group_symop_operation_xyz
x,y,z
-x,1/2+y,-z
loop_
_atom_site_type_symbol
_atom_site_label
_atom_site_fract_x
_atom_site_fract_y
_atom_site_fract_z
Si Si1 0.914512 0.290060 0.608041
Si Si2 0.207356 0.977151 0.703826
Si Si3 0.799223 0.191182 0.101485
Si Si4 0.487928 0.423080 0.907126
Si Si5 0.361760 0.624623 0.361822
Si Si6 0.932337 0.090260 0.302479
Si Si7 0.188331 0.328513 0.338593
Si Si8 0.110807 0.036575 0.560014
O O1 0.921067 0.177756 0.468717
O O2 0.873819 0.436629 0.604791
O O3 0.076398 0.308634 0.399252
O O4 0.803937 0.236546 0.924669
O O5 0.191906 0.838116 0.827100
O O6 0.380121 0.009536 0.395171
O O7 0.154577 0.956502 0.629676
O O8 0.096677 0.094238 0.955659
O O9 0.664611 0.115332 0.418466
O O10 0.944610 0.094817 0.862046
O O11 0.554780 0.269013 0.817301
O O12 0.438181 0.499137 0.141518
O O13 0.345941 0.401729 0.050585
O O14 0.196272 0.632401 0.583952
O O15 0.897421 0.929390 0.402216
O O16 0.208460 0.175088 0.371236
#
# Coordination Sequence:
#
# PCOD9115809 Si02
#       8
#     2   2   2   2   2   2   2   2
#     4  11  22  36  64  96 123 160 210 266 312 363
#     4  11  21  38  63  93 121 163 206 264 302 367
#     4  10  21  36  60  92 128 158 202 265 311 357
#     4  10  22  38  63  89 133 166 202 252 325 376
#     4  10  21  42  64  92 123 172 206 264 314 364
#     4  11  21  39  67  90 127 158 215 268 307 361
#     4  10  21  38  61  88 126 168 200 253 318 374
#     4  11  21  35  64  96 119 159 217 262 305 362
#
# _framework density 19.991220999999999
#
# number of rings (size 3 to 8) (size 9 to 14) (size 15 to 20)
#    0.000    1.500    3.750    3.750    0.000    0.000 
#    2.250    0.000   16.500    6.000    0.000    0.000 
#    0.000    0.000    0.000    0.000    0.000    0.000 
#
# Total GULP energy -89199.650249 kJ/mol
# GULP energy per Si atom -5574.978141 kJ/mol
# Density = 1.994572 g / cm^3
# Si number density = 19.991221 Si / 1000 Ang^3
#
#
#
# Elastic Constant Matrix: (Units=GPa)
#
#
# Indices 1 2 3 4 5 6 
#
# 1 54.4930 17.0613 31.6078 0.0000 23.4151 0.0000
# 2 17.0613 58.4228 38.5282 0.0000 9.0721 0.0000
# 3 31.6078 38.5282 145.8490 0.0000 7.7795 0.0000
# 4 0.0000 0.0000 0.0000 36.0141 0.0000 5.1262
# 5 23.4151 9.0721 7.7795 0.0000 24.3933 0.0000
# 6 0.0000 0.0000 0.0000 5.1262 0.0000 12.9442
#
#
#
# Elastic Compliance Matrix: (Units=1/GPa)
#
#
# Indices 1 2 3 4 5 6 
#
# 1 0.035930 -0.001830 -0.005595 0.000000 -0.032024 0.000000
# 2 -0.001830 0.021742 -0.005096 0.000000 -0.004704 0.000000
# 3 -0.005595 -0.005096 0.009184 0.000000 0.004337 0.000000
# 4 0.000000 0.000000 0.000000 0.029426 0.000000 -0.011653
# 5 -0.032024 -0.004704 0.004337 0.000000 0.072101 0.000000
# 6 0.000000 0.000000 0.000000 -0.011653 0.000000 0.081870
#
#
# Mechanical properties :
#
#
# Convention : Reuss Voigt Hill
#
# Bulk Modulus (GPa) = 23.91569 48.12883 36.02226
# Shear Modulus (GPa) = 17.28717 26.10813 21.69765
#
# Velocity S-wave (km/s) = 2.94383 3.61775 3.29805
# Velocity P-wave (km/s) = 4.85221 6.44811 5.70623
#
# Compressibility (1/GPa) = 0.04181355
#
# Stress axis : x y z
#
# Youngs Moduli (GPa) = 27.83223 45.99345 108.88760
#
# Poissons Ratio (x) = 0.08417 0.60922
# Poissons Ratio (y) = 0.05093 0.55489
# Poissons Ratio (z) = 0.15572 0.23438
#
# Static dielectric constant tensor:
#      x y z
#    x 1.706150 0.000000 -0.004670 
#    y 0.000000 1.733840 0.000000 
#    z -0.004670 0.000000 1.760470 
# 
# From -- ./inp_files/9632.got.cif
#   From: 2010.05.17/outbox.cif.g08.bks.cpg/sg4_5_cif.got.tgz:9632.got - 2010.06.03 18:43:04.
