data_PCOD9115762
_publ_section_title
;
Structure prediction by ZEFSAII (Michael W. Deem and Ramdas Pophale) SiO2 
 PCOD9115762
Probable space group: P 21
;
_chemical_formula_sum "Si O2"
_cell_formula_units_Z 14
_cell_length_a 5.064280
_cell_length_b 20.570215
_cell_length_c 5.140741
_cell_angle_alpha 90.000000
_cell_angle_beta 89.956801
_cell_angle_gamma 90.000000
_cell_volume 535.527948
_symmetry_space_group_name_H-M "P 21"
_symmetry_group_IT_number 4
_symmetry_cell_setting 'monoclinic'
loop_
_space_group_symop_operation_xyz
x,y,z
-x,1/2+y,-z
loop_
_atom_site_type_symbol
_atom_site_label
_atom_site_fract_x
_atom_site_fract_y
_atom_site_fract_z
Si Si1 0.077128 0.476560 0.495289
Si Si2 0.448271 0.248526 0.464686
Si Si3 0.147597 0.356889 0.195627
Si Si4 0.401154 0.630685 0.890622
Si Si5 0.421292 0.996873 0.216509
Si Si6 0.129862 0.080570 0.840483
Si Si7 0.943085 0.291350 0.676711
O O1 0.179981 0.432603 0.257910
O O2 0.296627 0.467085 0.718908
O O3 0.793928 0.460450 0.615333
O O4 0.026494 0.551162 0.404269
O O5 0.392804 0.312869 0.288913
O O6 0.567975 0.194913 0.275883
O O7 0.654349 0.262328 0.694557
O O8 0.159558 0.237407 0.591428
O O9 0.942728 0.335613 0.420273
O O10 0.046798 0.331376 0.921029
O O11 0.518602 0.572251 0.711365
O O12 0.107770 0.611345 0.985781
O O13 0.614419 0.626805 0.128389
O O14 0.271444 0.013041 0.947386
#
# Coordination Sequence:
#
# PCOD9115762 Si02
#       7
#     2   2   2   2   2   2   2
#     4  12  24  40  68  93 135 175 227 272 343 397
#     4  10  24  45  67 101 137 183 223 290 331 416
#     4  10  28  44  70 103 134 185 224 284 336 414
#     4  10  20  46  66  92 141 165 230 274 343 395
#     4  10  23  41  59  97 125 174 215 277 329 401
#     4  10  22  40  61  97 129 169 221 276 332 399
#     4  10  25  44  69 101 135 173 232 265 352 388
#
# _framework density 26.142426
#
# number of rings (size 3 to 8) (size 9 to 14) (size 15 to 20)
#    1.714    0.000    1.429    1.714    6.000    0.000 
#    7.714    0.000    0.000    0.000    0.000    0.000 
#    0.000    0.000    0.000    0.000    0.000    0.000 
#
# Total GULP energy -77998.398158 kJ/mol
# GULP energy per Si atom -5571.314154 kJ/mol
# Density = 2.608292 g / cm^3
# Si number density = 26.142426 Si / 1000 Ang^3
#
#
#
# Elastic Constant Matrix: (Units=GPa)
#
#
# Indices 1 2 3 4 5 6 
#
# 1 176.3179 23.9125 39.4943 0.0000 36.7733 0.0000
# 2 23.9125 40.1447 10.0314 0.0000 8.1544 0.0000
# 3 39.4943 10.0314 84.0029 0.0000 18.6045 0.0000
# 4 0.0000 0.0000 0.0000 33.4571 0.0000 -0.4472
# 5 36.7733 8.1544 18.6045 0.0000 35.2904 0.0000
# 6 0.0000 0.0000 0.0000 -0.4472 0.0000 16.7723
#
#
#
# Elastic Compliance Matrix: (Units=1/GPa)
#
#
# Indices 1 2 3 4 5 6 
#
# 1 0.007845 -0.002876 -0.001904 0.000000 -0.006507 0.000000
# 2 -0.002876 0.027497 -0.001345 0.000000 -0.002648 0.000000
# 3 -0.001904 -0.001345 0.014098 0.000000 -0.005137 0.000000
# 4 0.000000 0.000000 0.000000 0.029900 0.000000 0.000797
# 5 -0.006507 -0.002648 -0.005137 0.000000 0.038436 0.000000
# 6 0.000000 0.000000 0.000000 0.000797 0.000000 0.059643
#
#
# Mechanical properties :
#
#
# Convention : Reuss Voigt Hill
#
# Bulk Modulus (GPa) = 26.88867 49.70466 38.29666
# Shear Modulus (GPa) = 24.74448 32.23912 28.49180
#
# Velocity S-wave (km/s) = 3.07990 3.51552 3.30490
# Velocity P-wave (km/s) = 4.79119 5.96094 5.40779
#
# Compressibility (1/GPa) = 0.03719039
#
# Stress axis : x y z
#
# Youngs Moduli (GPa) = 127.46892 36.36793 70.93227
#
# Poissons Ratio (x) = 0.10458 0.13505
# Poissons Ratio (y) = 0.36654 0.09542
# Poissons Ratio (z) = 0.24270 0.04892
#
# Static dielectric constant tensor:
#      x y z
#    x 2.037930 0.000000 -0.003690 
#    y 0.000000 2.215610 0.000000 
#    z -0.003690 0.000000 2.069800 
# 
# From -- ./inp_files/765.got.cif
#   From: 2010.05.17/outbox.cif.g08.bks.cpg/sg4_1_cif.got.tgz:765.got - 2010.06.03 18:43:04.
