data_PCOD9115042
_publ_section_title
;
Structure prediction by ZEFSAII (Michael W. Deem and Ramdas Pophale) SiO2 
 PCOD9115042
Probable space group: P 21
;
_chemical_formula_sum "Si O2"
_cell_formula_units_Z 12
_cell_length_a 5.401954
_cell_length_b 10.468869
_cell_length_c 9.074659
_cell_angle_alpha 90.000000
_cell_angle_beta 54.303246
_cell_angle_gamma 90.000000
_cell_volume 416.772775
_symmetry_space_group_name_H-M "P 21"
_symmetry_group_IT_number 4
_symmetry_cell_setting 'monoclinic'
loop_
_space_group_symop_operation_xyz
x,y,z
-x,1/2+y,-z
loop_
_atom_site_type_symbol
_atom_site_label
_atom_site_fract_x
_atom_site_fract_y
_atom_site_fract_z
Si Si1 0.256044 0.570880 0.167427
Si Si2 0.570029 0.962913 0.372652
Si Si3 0.122759 0.333303 0.970341
Si Si4 0.555822 0.746602 0.854716
Si Si5 0.011556 0.308608 0.550951
Si Si6 0.628426 0.586812 0.296405
O O1 0.132034 0.702165 0.290977
O O2 0.944099 0.514138 0.213938
O O3 0.489148 0.612675 0.960628
O O4 0.422138 0.512402 0.249937
O O5 0.808951 0.956215 0.156151
O O6 0.734310 0.878081 0.440014
O O7 0.253217 0.903667 0.419302
O O8 0.515658 0.090135 0.489879
O O9 0.320994 0.330917 0.050940
O O10 0.275043 0.217060 0.818080
O O11 0.771815 0.289761 0.094400
O O12 0.821042 0.740466 0.643333
#
# Coordination Sequence:
#
# PCOD9115042 Si02
#       6
#     2   2   2   2   2   2
#     4  10  19  40  59  85 116 157 196 236 301 348
#     4  12  21  37  65  89 117 160 197 245 297 345
#     4  10  19  40  59  82 120 158 190 236 305 340
#     4  10  20  35  64  81 115 156 190 239 291 347
#     4  12  21  37  65  88 113 157 202 241 296 351
#     4  10  20  35  64  83 119 158 195 241 294 351
#
# _framework density 28.792667999999999
#
# number of rings (size 3 to 8) (size 9 to 14) (size 15 to 20)
#    0.000    1.333    6.667    2.000    0.000    0.000 
#    0.000    0.000   44.000    0.000    0.000    0.000 
#    0.000    0.000    0.000    0.000    0.000    0.000 
#
# Total GULP energy -67228.190390 kJ/mol
# GULP energy per Si atom -5602.349199 kJ/mol
# Density = 2.872713 g / cm^3
# Si number density = 28.792668 Si / 1000 Ang^3
#
#
#
# Elastic Constant Matrix: (Units=GPa)
#
#
# Indices 1 2 3 4 5 6 
#
# 1 257.9579 26.1683 22.1675 0.0000 16.7603 0.0000
# 2 26.1683 47.8443 5.3687 0.0000 0.8891 0.0000
# 3 22.1675 5.3687 115.3817 0.0000 17.8953 0.0000
# 4 0.0000 0.0000 0.0000 45.7638 0.0000 6.4632
# 5 16.7603 0.8891 17.8953 0.0000 43.6276 0.0000
# 6 0.0000 0.0000 0.0000 6.4632 0.0000 51.1505
#
#
#
# Elastic Compliance Matrix: (Units=1/GPa)
#
#
# Indices 1 2 3 4 5 6 
#
# 1 0.004236 -0.002235 -0.000496 0.000000 -0.001378 0.000000
# 2 -0.002235 0.022191 -0.000711 0.000000 0.000698 0.000000
# 3 -0.000496 -0.000711 0.009359 0.000000 -0.003634 0.000000
# 4 0.000000 0.000000 0.000000 0.022248 0.000000 -0.002811
# 5 -0.001378 0.000698 -0.003634 0.000000 0.024927 0.000000
# 6 0.000000 0.000000 0.000000 -0.002811 0.000000 0.019905
#
#
# Mechanical properties :
#
#
# Convention : Reuss Voigt Hill
#
# Bulk Modulus (GPa) = 34.60258 58.73255 46.66756
# Shear Modulus (GPa) = 41.88155 52.60701 47.24428
#
# Velocity S-wave (km/s) = 3.81805 4.27909 4.05513
# Velocity P-wave (km/s) = 5.61076 6.69753 6.17809
#
# Compressibility (1/GPa) = 0.02889958
#
# Stress axis : x y z
#
# Youngs Moduli (GPa) = 236.09808 45.06417 106.85053
#
# Poissons Ratio (x) = 0.10073 0.05300
# Poissons Ratio (y) = 0.52776 0.07601
# Poissons Ratio (z) = 0.11710 0.03206
#
# Static dielectric constant tensor:
#      x y z
#    x 2.250630 0.000000 -0.005590 
#    y 0.000000 2.454580 0.000000 
#    z -0.005590 0.000000 2.301750 
# 
# From -- ./inp_files/1461.got.cif
#   From: 2010.05.17/outbox.cif.g08.bks.cpg/sg4_1_cif.got.tgz:1461.got - 2010.06.03 18:43:04.
