data_PCOD9115442
_publ_section_title
;
Structure prediction by ZEFSAII (Michael W. Deem and Ramdas Pophale) SiO2 
 PCOD9115442
Probable space group: P 21
;
_chemical_formula_sum "Si O2"
_cell_formula_units_Z 16
_cell_length_a 9.627734
_cell_length_b 5.429658
_cell_length_c 17.548642
_cell_angle_alpha 90.000000
_cell_angle_beta 125.541758
_cell_angle_gamma 90.000000
_cell_volume 746.449033
_symmetry_space_group_name_H-M "P 21"
_symmetry_group_IT_number 4
_symmetry_cell_setting 'monoclinic'
loop_
_space_group_symop_operation_xyz
x,y,z
-x,1/2+y,-z
loop_
_atom_site_type_symbol
_atom_site_label
_atom_site_fract_x
_atom_site_fract_y
_atom_site_fract_z
Si Si1 0.282133 0.425690 0.284338
Si Si2 0.447814 0.943805 0.021258
Si Si3 0.913026 0.629299 0.329306
Si Si4 0.735714 0.027902 0.207381
Si Si5 0.364343 0.926085 0.401539
Si Si6 0.726016 0.117749 0.492434
Si Si7 0.626771 0.352703 0.307382
Si Si8 0.100247 0.880447 0.844148
O O1 0.300089 0.684308 0.335121
O O2 0.437125 0.416121 0.273867
O O3 0.092475 0.404774 0.190105
O O4 0.302318 0.182020 0.344407
O O5 0.572909 0.863354 0.130283
O O6 0.506231 0.224566 0.023194
O O7 0.243091 0.957103 0.950934
O O8 0.757638 0.573592 0.336482
O O9 0.893780 0.521259 0.236692
O O10 0.087563 0.538929 0.421562
O O11 0.888569 0.916551 0.306168
O O12 0.641515 0.222953 0.230809
O O13 0.837284 0.112641 0.164369
O O14 0.310044 0.867543 0.470309
O O15 0.569796 0.939626 0.463751
O O16 0.705074 0.180275 0.397857
#
# Coordination Sequence:
#
# PCOD9115442 Si02
#       8
#     2   2   2   2   2   2   2   2
#     4  11  24  44  66  93 128 170 217 264 318 370
#     4  10  20  38  69  98 124 157 210 269 324 368
#     4  11  22  40  62  91 126 166 212 260 313 379
#     4  10  22  42  63  94 130 163 213 264 324 374
#     4  11  24  42  63  92 126 169 221 269 302 360
#     4  11  23  40  61  92 127 172 215 258 311 373
#     4  10  26  38  58  89 132 175 200 258 316 380
#     4  10  21  40  68  97 119 162 216 270 314 376
#
# _framework density 21.434819999999998
#
# number of rings (size 3 to 8) (size 9 to 14) (size 15 to 20)
#    0.000    1.500    2.500    2.250    5.250    0.000 
#    6.750    0.000    2.750    0.000    0.000    0.000 
#    0.000    0.000    0.000    0.000    0.000    0.000 
#
# Total GULP energy -89103.210871 kJ/mol
# GULP energy per Si atom -5568.950679 kJ/mol
# Density = 2.138603 g / cm^3
# Si number density = 21.434820 Si / 1000 Ang^3
#
#
#
# Elastic Constant Matrix: (Units=GPa)
#
#
# Indices 1 2 3 4 5 6 
#
# 1 88.3336 6.5152 35.9295 0.0000 31.4241 0.0000
# 2 6.5152 56.5498 12.6538 0.0000 10.4977 0.0000
# 3 35.9295 12.6538 80.7253 0.0000 48.0533 0.0000
# 4 0.0000 0.0000 0.0000 23.3735 0.0000 0.5458
# 5 31.4241 10.4977 48.0533 0.0000 48.3934 0.0000
# 6 0.0000 0.0000 0.0000 0.5458 0.0000 23.8307
#
#
#
# Elastic Compliance Matrix: (Units=1/GPa)
#
#
# Indices 1 2 3 4 5 6 
#
# 1 0.014871 0.000171 -0.002141 0.000000 -0.007568 0.000000
# 2 0.000171 0.018479 -0.001273 0.000000 -0.002855 0.000000
# 3 -0.002141 -0.001273 0.030687 0.000000 -0.028805 0.000000
# 4 0.000000 0.000000 0.000000 0.042806 0.000000 -0.000980
# 5 -0.007568 -0.002855 -0.028805 0.000000 0.054800 0.000000
# 6 0.000000 0.000000 0.000000 -0.000980 0.000000 0.041985
#
#
# Mechanical properties :
#
#
# Convention : Reuss Voigt Hill
#
# Bulk Modulus (GPa) = 17.37596 37.31172 27.34384
# Shear Modulus (GPa) = 21.80576 30.48687 26.14631
#
# Velocity S-wave (km/s) = 3.19298 3.77544 3.49636
# Velocity P-wave (km/s) = 4.66021 6.03739 5.39294
#
# Compressibility (1/GPa) = 0.05755078
#
# Stress axis : x y z
#
# Youngs Moduli (GPa) = 67.24463 54.11624 32.58747
#
# Poissons Ratio (x) = -0.00923 0.06976
# Poissons Ratio (y) = -0.01147 0.04147
# Poissons Ratio (z) = 0.14395 0.06887
#
# Static dielectric constant tensor:
#      x y z
#    x 1.786590 0.000000 0.030330 
#    y 0.000000 1.947000 0.000000 
#    z 0.030330 0.000000 1.846890 
# 
# From -- ./inp_files/8669.got.cif
#   From: 2010.05.17/outbox.cif.g08.bks.cpg/sg4_5_cif.got.tgz:8669.got - 2010.06.03 18:43:04.
