data_PCOD9115211
_publ_section_title
;
Structure prediction by ZEFSAII (Michael W. Deem and Ramdas Pophale) SiO2 
 PCOD9115211
Probable space group: P 21
;
_chemical_formula_sum "Si O2"
_cell_formula_units_Z 16
_cell_length_a 11.308849
_cell_length_b 8.714066
_cell_length_c 9.539576
_cell_angle_alpha 90.000000
_cell_angle_beta 58.124684
_cell_angle_gamma 90.000000
_cell_volume 798.321700
_symmetry_space_group_name_H-M "P 21"
_symmetry_group_IT_number 4
_symmetry_cell_setting 'monoclinic'
loop_
_space_group_symop_operation_xyz
x,y,z
-x,1/2+y,-z
loop_
_atom_site_type_symbol
_atom_site_label
_atom_site_fract_x
_atom_site_fract_y
_atom_site_fract_z
Si Si1 0.813216 0.372090 0.851134
Si Si2 0.123568 0.072141 0.921377
Si Si3 0.042594 0.154673 0.569723
Si Si4 0.840581 0.902892 0.030450
Si Si5 0.380514 0.658843 0.830178
Si Si6 0.001139 0.304949 0.310061
Si Si7 0.714536 0.345420 0.365207
Si Si8 0.678684 0.533327 0.660826
O O1 0.859181 0.502196 0.933454
O O2 0.742305 0.448224 0.758049
O O3 0.945213 0.267851 0.720384
O O4 0.705254 0.263335 0.004908
O O5 0.138999 0.252625 0.889631
O O6 0.972057 0.015399 0.967059
O O7 0.240842 0.991451 0.754878
O O8 0.004153 0.188387 0.433815
O O9 0.210196 0.159040 0.466779
O O10 0.018668 0.976757 0.618945
O O11 0.703795 0.000274 0.132415
O O12 0.859470 0.825939 0.865952
O O13 0.376511 0.740876 0.680121
O O14 0.534842 0.617810 0.781390
O O15 0.866309 0.267480 0.299380
O O16 0.659402 0.406610 0.548494
#
# Coordination Sequence:
#
# PCOD9115211 Si02
#       8
#     2   2   2   2   2   2   2   2
#     4  11  22  44  66  95 131 168 221 271 318 385
#     4  10  22  36  67  97 125 167 221 273 312 380
#     4  11  20  39  64  93 130 162 213 269 319 369
#     4  11  21  37  63  92 130 169 219 262 330 375
#     4  11  25  44  65  93 133 175 211 267 327 394
#     4  10  20  35  64  93 122 166 214 267 313 375
#     4   9  21  43  61  89 132 169 214 264 316 385
#     4  11  25  42  68  94 135 168 215 269 327 389
#
# _framework density 20.042044000000001
#
# number of rings (size 3 to 8) (size 9 to 14) (size 15 to 20)
#    0.000    1.500    3.750    3.000    3.500    3.000 
#    0.000    1.250    0.000    0.000    0.000    0.000 
#    0.000    0.000    0.000    0.000    0.000    0.000 
#
# Total GULP energy -89250.911895 kJ/mol
# GULP energy per Si atom -5578.181993 kJ/mol
# Density = 1.999643 g / cm^3
# Si number density = 20.042044 Si / 1000 Ang^3
#
#
#
# Elastic Constant Matrix: (Units=GPa)
#
#
# Indices 1 2 3 4 5 6 
#
# 1 94.8338 48.2173 41.1061 0.0000 -3.6550 0.0000
# 2 48.2173 79.9348 20.8262 0.0000 -6.0925 0.0000
# 3 41.1061 20.8262 87.7886 0.0000 14.6446 0.0000
# 4 0.0000 0.0000 0.0000 20.8414 0.0000 3.2948
# 5 -3.6550 -6.0925 14.6446 0.0000 39.9949 0.0000
# 6 0.0000 0.0000 0.0000 3.2948 0.0000 26.0046
#
#
#
# Elastic Compliance Matrix: (Units=1/GPa)
#
#
# Indices 1 2 3 4 5 6 
#
# 1 0.018185 -0.008969 -0.006855 0.000000 0.002806 0.000000
# 2 -0.008969 0.018206 -0.000474 0.000000 0.002127 0.000000
# 3 -0.006855 -0.000474 0.015795 0.000000 -0.006482 0.000000
# 4 0.000000 0.000000 0.000000 0.048962 0.000000 -0.006203
# 5 0.002806 0.002127 -0.006482 0.000000 0.027957 0.000000
# 6 0.000000 0.000000 0.000000 -0.006203 0.000000 0.039241
#
#
# Mechanical properties :
#
#
# Convention : Reuss Voigt Hill
#
# Bulk Modulus (GPa) = 51.05029 53.65072 52.35050
# Shear Modulus (GPa) = 24.09972 27.52871 25.81421
#
# Velocity S-wave (km/s) = 3.47141 3.71016 3.59277
# Velocity P-wave (km/s) = 6.44938 6.72168 6.58693
#
# Compressibility (1/GPa) = 0.01958853
#
# Stress axis : x y z
#
# Youngs Moduli (GPa) = 54.99188 54.92639 63.31287
#
# Poissons Ratio (x) = 0.49265 0.43401
# Poissons Ratio (y) = 0.49323 0.03002
# Poissons Ratio (z) = 0.37697 0.02605
#
# Static dielectric constant tensor:
#      x y z
#    x 1.700700 0.000000 0.021400 
#    y 0.000000 1.728710 0.000000 
#    z 0.021400 0.000000 1.777500 
# 
# From -- ./inp_files/8010.got.cif
#   From: 2010.05.17/outbox.cif.g08.bks.cpg/sg4_5_cif.got.tgz:8010.got - 2010.06.03 18:43:04.
