data_PCOD9115915
_publ_section_title
;
Structure prediction by ZEFSAII (Michael W. Deem and Ramdas Pophale) SiO2 
 PCOD9115915
Probable space group: P 21
;
_chemical_formula_sum "Si O2"
_cell_formula_units_Z 16
_cell_length_a 14.521422
_cell_length_b 8.298118
_cell_length_c 18.911971
_cell_angle_alpha 90.000000
_cell_angle_beta 162.747040
_cell_angle_gamma 90.000000
_cell_volume 675.901463
_symmetry_space_group_name_H-M "P 21"
_symmetry_group_IT_number 4
_symmetry_cell_setting 'monoclinic'
loop_
_space_group_symop_operation_xyz
x,y,z
-x,1/2+y,-z
loop_
_atom_site_type_symbol
_atom_site_label
_atom_site_fract_x
_atom_site_fract_y
_atom_site_fract_z
Si Si1 0.378951 0.012050 0.497151
Si Si2 0.249358 0.635573 0.912992
Si Si3 0.490454 0.459607 0.209544
Si Si4 0.762696 0.214568 0.690988
Si Si5 0.369850 0.111621 0.183161
Si Si6 0.992146 0.501662 0.952182
Si Si7 0.867564 0.146404 0.329089
Si Si8 0.341990 0.403345 0.711330
O O1 0.461289 0.111070 0.486197
O O2 0.120101 0.113846 0.347552
O O3 0.259698 0.835727 0.389854
O O4 0.711331 0.988910 0.777563
O O5 0.313937 0.657913 0.877611
O O6 0.395642 0.476745 0.057894
O O7 0.407019 0.780817 0.071930
O O8 0.498891 0.285687 0.253609
O O9 0.199197 0.551385 0.035140
O O10 0.822292 0.541099 0.460417
O O11 0.059013 0.100249 0.906538
O O12 0.836014 0.334064 0.811757
O O13 0.581332 0.967872 0.310585
O O14 0.260362 0.091421 0.183836
O O15 0.015867 0.310108 0.467185
O O16 0.685305 0.054060 0.256354
#
# Coordination Sequence:
#
# PCOD9115915 Si02
#       8
#     2   2   2   2   2   2   2   2
#     4  11  22  40  65  95 133 182 216 268 336 382
#     4  11  24  42  69  99 129 171 221 281 331 397
#     4  10  21  43  68  95 136 173 221 274 325 398
#     4  10  24  39  62  97 138 178 222 268 320 404
#     4  10  22  41  64  97 134 177 218 275 323 382
#     4  10  21  38  61  97 138 175 214 262 317 392
#     4  11  25  48  70  97 127 176 218 276 344 388
#     4  11  27  45  71  97 131 170 226 282 326 405
#
# _framework density 23.672091000000002
#
# number of rings (size 3 to 8) (size 9 to 14) (size 15 to 20)
#    0.000    1.500    3.750    0.750    5.250    9.000 
#    0.000    3.750    0.000    0.000    0.000    0.000 
#    0.000    0.000    0.000    0.000    0.000    0.000 
#
# Total GULP energy -89270.735820 kJ/mol
# GULP energy per Si atom -5579.420989 kJ/mol
# Density = 2.361821 g / cm^3
# Si number density = 23.672091 Si / 1000 Ang^3
#
#
#
# Elastic Constant Matrix: (Units=GPa)
#
#
# Indices 1 2 3 4 5 6 
#
# 1 88.9830 26.8254 12.6681 0.0000 -10.4434 0.0000
# 2 26.8254 66.5892 15.1680 0.0000 0.8126 0.0000
# 3 12.6681 15.1680 47.9731 0.0000 -3.7025 0.0000
# 4 0.0000 0.0000 0.0000 33.2174 0.0000 7.7882
# 5 -10.4434 0.8126 -3.7025 0.0000 42.5476 0.0000
# 6 0.0000 0.0000 0.0000 7.7882 0.0000 44.9043
#
#
#
# Elastic Compliance Matrix: (Units=1/GPa)
#
#
# Indices 1 2 3 4 5 6 
#
# 1 0.013379 -0.005044 -0.001688 0.000000 0.003233 0.000000
# 2 -0.005044 0.018109 -0.004546 0.000000 -0.001980 0.000000
# 3 -0.001688 -0.004546 0.022857 0.000000 0.001661 0.000000
# 4 0.000000 0.000000 0.000000 0.031381 0.000000 -0.005443
# 5 0.003233 -0.001980 0.001661 0.000000 0.024479 0.000000
# 6 0.000000 0.000000 0.000000 -0.005443 0.000000 0.023214
#
#
# Mechanical properties :
#
#
# Convention : Reuss Voigt Hill
#
# Bulk Modulus (GPa) = 31.46040 34.76314 33.11177
# Shear Modulus (GPa) = 30.01703 34.05944 32.03823
#
# Velocity S-wave (km/s) = 3.56481 3.79727 3.68287
# Velocity P-wave (km/s) = 5.50116 5.82605 5.66593
#
# Compressibility (1/GPa) = 0.03178599
#
# Stress axis : x y z
#
# Youngs Moduli (GPa) = 74.74580 55.21992 43.75103
#
# Poissons Ratio (x) = 0.27856 0.07387
# Poissons Ratio (y) = 0.37705 0.19891
# Poissons Ratio (z) = 0.12620 0.25106
#
# Static dielectric constant tensor:
#      x y z
#    x 1.936910 0.000000 -0.032380 
#    y 0.000000 1.925460 0.000000 
#    z -0.032380 0.000000 1.931930 
# 
# From -- ./inp_files/15264.got.cif
#   From: 2010.05.17/outbox.cif.g08.bks.cpg/sg4_8_cif.got.tgz:15264.got - 2010.06.03 18:43:04.
