data_PCOD9115997
_publ_section_title
;
Structure prediction by ZEFSAII (Michael W. Deem and Ramdas Pophale) SiO2 
 PCOD9115997
Probable space group: P 21
;
_chemical_formula_sum "Si O2"
_cell_formula_units_Z 12
_cell_length_a 16.869330
_cell_length_b 5.451609
_cell_length_c 11.161800
_cell_angle_alpha 90.000000
_cell_angle_beta 25.533789
_cell_angle_gamma 90.000000
_cell_volume 442.463726
_symmetry_space_group_name_H-M "P 21"
_symmetry_group_IT_number 4
_symmetry_cell_setting 'monoclinic'
loop_
_space_group_symop_operation_xyz
x,y,z
-x,1/2+y,-z
loop_
_atom_site_type_symbol
_atom_site_label
_atom_site_fract_x
_atom_site_fract_y
_atom_site_fract_z
Si Si1 0.753351 0.836450 0.647214
Si Si2 0.812488 0.976213 0.325714
Si Si3 0.078590 0.906501 0.334126
Si Si4 0.206997 0.981181 0.578270
Si Si5 0.619258 0.045886 0.081415
Si Si6 0.615873 0.932543 0.340356
O O1 0.967099 0.918902 0.362582
O O2 0.752749 0.546764 0.615271
O O3 0.670984 0.951333 0.636811
O O4 0.666843 0.929699 0.887067
O O5 0.892147 0.235229 0.254864
O O6 0.725704 0.972506 0.313571
O O7 0.906317 0.715059 0.221376
O O8 0.976328 0.662142 0.529214
O O9 0.288755 0.818154 0.042786
O O10 0.400884 0.998033 0.383918
O O11 0.706384 0.927583 0.083508
O O12 0.489900 0.175925 0.503761
#
# Coordination Sequence:
#
# PCOD9115997 Si02
#       6
#     2   2   2   2   2   2
#     4   9  24  39  64  88 130 160 208 265 317 371
#     4  10  21  39  61  86 128 161 199 260 320 367
#     4  10  24  41  61  92 130 165 210 263 319 378
#     4  10  22  36  63  90 123 154 211 253 322 359
#     4  11  23  39  67  94 122 168 214 261 313 387
#     4  12  22  40  60  94 131 164 208 266 321 378
#
# _framework density 27.120865999999999
#
# number of rings (size 3 to 8) (size 9 to 14) (size 15 to 20)
#    1.000    0.667    3.333    0.000    7.000    5.333 
#    0.000    0.000    3.667    0.000    0.000    0.000 
#    0.000    0.000    0.000    0.000    0.000    0.000 
#
# Total GULP energy -66833.954423 kJ/mol
# GULP energy per Si atom -5569.496202 kJ/mol
# Density = 2.705914 g / cm^3
# Si number density = 27.120866 Si / 1000 Ang^3
#
#
#
# Elastic Constant Matrix: (Units=GPa)
#
#
# Indices 1 2 3 4 5 6 
#
# 1 196.5375 38.9674 41.1951 0.0000 41.2491 0.0000
# 2 38.9674 172.2281 19.6287 0.0000 10.5732 0.0000
# 3 41.1951 19.6287 90.5618 0.0000 20.6925 0.0000
# 4 0.0000 0.0000 0.0000 -11.2733 0.0000 -12.1689
# 5 41.2491 10.5732 20.6925 0.0000 57.6475 0.0000
# 6 0.0000 0.0000 0.0000 -12.1689 0.0000 44.9930
#
#
#
# Elastic Compliance Matrix: (Units=1/GPa)
#
#
# Indices 1 2 3 4 5 6 
#
# 1 0.006473 -0.001021 -0.001860 0.000000 -0.003777 0.000000
# 2 -0.001021 0.006139 -0.000845 0.000000 -0.000092 0.000000
# 3 -0.001860 -0.000845 0.012780 0.000000 -0.003101 0.000000
# 4 0.000000 0.000000 0.000000 -0.068660 0.000000 -0.018570
# 5 -0.003777 -0.000092 -0.003101 0.000000 0.021179 0.000000
# 6 0.000000 0.000000 0.000000 -0.018570 0.000000 0.017203
#
#
# Mechanical properties :
#
#
# Convention : Reuss Voigt Hill
#
# Bulk Modulus (GPa) = 55.74148 73.21221 64.47685
# Shear Modulus (GPa) = 584.96682 42.24253 313.60467
#
# Velocity S-wave (km/s) = 14.70228 3.95088 10.76491
# Velocity P-wave (km/s) = 17.57291 6.91853 13.35427
#
# Compressibility (1/GPa) = 0.01793996
#
# Stress axis : x y z
#
# Youngs Moduli (GPa) = 154.48676 162.88808 78.24587
#
# Poissons Ratio (x) = 0.16626 0.14556
# Poissons Ratio (y) = 0.15768 0.06614
# Poissons Ratio (z) = 0.28739 0.13768
#
# Static dielectric constant tensor:
#      x y z
#    x 2.243420 0.000000 0.053560 
#    y 0.000000 2.350700 0.000000 
#    z 0.053560 0.000000 2.329920 
# 
# From -- ./inp_files/12784.got.cif
#   From: 2010.05.17/outbox.cif.g08.bks.cpg/sg4_7_cif.got.tgz:12784.got - 2010.06.03 18:43:04.
