data_PCOD9115028
_publ_section_title
;
Structure prediction by ZEFSAII (Michael W. Deem and Ramdas Pophale) SiO2 
 PCOD9115028
Probable space group: P 21
;
_chemical_formula_sum "Si O2"
_cell_formula_units_Z 16
_cell_length_a 8.428443
_cell_length_b 5.467287
_cell_length_c 29.091479
_cell_angle_alpha 90.000000
_cell_angle_beta 149.743380
_cell_angle_gamma 90.000000
_cell_volume 675.471126
_symmetry_space_group_name_H-M "P 21"
_symmetry_group_IT_number 4
_symmetry_cell_setting 'monoclinic'
loop_
_space_group_symop_operation_xyz
x,y,z
-x,1/2+y,-z
loop_
_atom_site_type_symbol
_atom_site_label
_atom_site_fract_x
_atom_site_fract_y
_atom_site_fract_z
Si Si1 0.888974 0.729160 0.113587
Si Si2 0.858134 0.102466 0.292639
Si Si3 0.325207 0.384682 0.182559
Si Si4 0.680747 0.316922 0.532907
Si Si5 0.260051 0.767127 0.291846
Si Si6 0.552226 0.773753 0.618789
Si Si7 0.409956 0.224211 0.827140
Si Si8 0.765834 0.091351 0.004796
O O1 0.090196 0.481014 0.162415
O O2 0.110667 0.864225 0.206025
O O3 0.853275 0.843299 0.053979
O O4 0.537812 0.697135 0.043957
O O5 0.629507 0.229789 0.271869
O O6 0.026687 0.883060 0.361646
O O7 0.129377 0.253875 0.334321
O O8 0.618974 0.009984 0.193115
O O9 0.489175 0.598396 0.194666
O O10 0.072815 0.251254 0.087592
O O11 0.537063 0.057399 0.512401
O O12 0.719316 0.303157 0.487655
O O13 0.442303 0.509044 0.346024
O O14 0.939205 0.698558 0.239408
O O15 0.440434 0.002952 0.357169
O O16 0.648210 0.113338 0.923682
#
# Coordination Sequence:
#
# PCOD9115028 Si02
#       8
#     2   2   2   2   2   2   2   2
#     4  11  25  43  63  90 125 181 233 276 327 397
#     4  10  22  38  62 104 136 165 213 273 349 393
#     4  12  24  40  65  90 133 168 222 278 339 383
#     4  10  20  35  66 102 146 171 207 269 343 413
#     4  10  22  40  68  94 135 168 226 270 326 392
#     4  10  19  39  64 101 132 172 210 270 331 402
#     4  10  23  40  61  94 128 168 216 279 333 393
#     4  11  25  43  61  87 125 175 229 279 328 395
#
# _framework density 23.687169000000001
#
# number of rings (size 3 to 8) (size 9 to 14) (size 15 to 20)
#    0.000    1.500    2.500    3.000    7.000    0.000 
#    0.000    0.000    0.000    0.000    6.500    0.000 
#    0.000    0.000    0.000    0.000    0.000    0.000 
#
# Total GULP energy -89067.726365 kJ/mol
# GULP energy per Si atom -5566.732898 kJ/mol
# Density = 2.363326 g / cm^3
# Si number density = 23.687169 Si / 1000 Ang^3
#
#
#
# Elastic Constant Matrix: (Units=GPa)
#
#
# Indices 1 2 3 4 5 6 
#
# 1 14.0058 -0.3066 26.1111 0.0000 11.8710 0.0000
# 2 -0.3066 90.8697 42.8622 0.0000 1.3102 0.0000
# 3 26.1111 42.8622 74.7167 0.0000 -28.6126 0.0000
# 4 0.0000 0.0000 0.0000 37.1561 0.0000 5.5299
# 5 11.8710 1.3102 -28.6126 0.0000 18.4940 0.0000
# 6 0.0000 0.0000 0.0000 5.5299 0.0000 23.0615
#
#
#
# Elastic Compliance Matrix: (Units=1/GPa)
#
#
# Indices 1 2 3 4 5 6 
#
# 1 -0.004175 -0.011323 0.022791 0.000000 0.038742 0.000000
# 2 -0.011323 0.009942 0.001882 0.000000 0.009476 0.000000
# 3 0.022791 0.001882 -0.003224 0.000000 -0.019750 0.000000
# 4 0.000000 0.000000 0.000000 0.027910 0.000000 -0.006692
# 5 0.038742 0.009476 -0.019750 0.000000 -0.002023 0.000000
# 6 0.000000 0.000000 0.000000 -0.006692 0.000000 0.044967
#
#
# Mechanical properties :
#
#
# Convention : Reuss Voigt Hill
#
# Bulk Modulus (GPa) = 34.19526 35.21396 34.70461
# Shear Modulus (GPa) = 88.58310 23.13734 55.86022
#
# Velocity S-wave (km/s) = 6.12195 3.12875 4.86145
# Velocity P-wave (km/s) = 8.02736 5.28684 6.79666
#
# Compressibility (1/GPa) = 0.02924382
#
# Stress axis : x y z
#
# Youngs Moduli (GPa) = -239.52539 100.58250 -310.19658
#
# Poissons Ratio (x) = 1.13888 7.06963
# Poissons Ratio (y) = -2.71212 0.58388
# Poissons Ratio (z) = 5.45898 -0.18932
#
# Static dielectric constant tensor:
#      x y z
#    x 1.952260 0.000000 -0.082410 
#    y 0.000000 2.017010 0.000000 
#    z -0.082410 0.000000 1.942500 
# 
# From -- ./inp_files/16525.got.cif
#   From: 2010.05.17/outbox.cif.g08.bks.cpg/sg4_9_cif.got.tgz:16525.got - 2010.06.03 18:43:04.
