data_PCOD9115187
_publ_section_title
;
Structure prediction by ZEFSAII (Michael W. Deem and Ramdas Pophale) SiO2 
 PCOD9115187
Probable space group: P 21
;
_chemical_formula_sum "Si O2"
_cell_formula_units_Z 16
_cell_length_a 9.180385
_cell_length_b 8.010961
_cell_length_c 11.615070
_cell_angle_alpha 90.000000
_cell_angle_beta 64.299378
_cell_angle_gamma 90.000000
_cell_volume 769.709753
_symmetry_space_group_name_H-M "P 21"
_symmetry_group_IT_number 4
_symmetry_cell_setting 'monoclinic'
loop_
_space_group_symop_operation_xyz
x,y,z
-x,1/2+y,-z
loop_
_atom_site_type_symbol
_atom_site_label
_atom_site_fract_x
_atom_site_fract_y
_atom_site_fract_z
Si Si1 0.029650 0.517350 0.347849
Si Si2 0.529680 0.177648 0.170293
Si Si3 0.307177 0.643771 0.112498
Si Si4 0.585865 0.220048 0.412226
Si Si5 0.294100 0.103048 0.654551
Si Si6 0.205626 0.023203 0.174285
Si Si7 0.636330 0.568317 0.110432
Si Si8 0.093378 0.643365 0.580323
O O1 0.884497 0.617371 0.336352
O O2 0.958669 0.335694 0.394604
O O3 0.185546 0.514840 0.212527
O O4 0.080739 0.589774 0.452876
O O5 0.561199 0.144380 0.293413
O O6 0.350869 0.113851 0.196085
O O7 0.569961 0.375921 0.141510
O O8 0.649143 0.098631 0.033824
O O9 0.477258 0.659873 0.119767
O O10 0.230530 0.825295 0.155124
O O11 0.420690 0.211462 0.539617
O O12 0.645170 0.410948 0.380389
O O13 0.726512 0.125492 0.433106
O O14 0.303676 0.131855 0.787568
O O15 0.037362 0.053839 0.294317
O O16 0.228790 0.083707 0.034779
#
# Coordination Sequence:
#
# PCOD9115187 Si02
#       8
#     2   2   2   2   2   2   2   2
#     4  11  23  38  56  80 110 143 181 224 270 321
#     4   9  19  37  58  80 110 145 180 221 268 318
#     4  10  20  35  57  84 111 142 180 220 267 322
#     4  10  22  38  56  79 107 141 181 224 269 319
#     4  10  22  38  56  79 107 141 181 224 269 319
#     4  10  20  35  57  84 111 142 180 220 267 322
#     4   9  19  37  58  80 110 145 180 221 268 318
#     4  11  23  38  56  80 110 143 181 224 270 321
#
# _framework density 20.787057999999998
#
# number of rings (size 3 to 8) (size 9 to 14) (size 15 to 20)
#    0.000    2.000    0.000    3.000    0.000    9.000 
#    0.000    0.000    0.000    0.000    0.000    0.000 
#    0.000    0.000    0.000    0.000    0.000    0.000 
#
# Total GULP energy -89386.551134 kJ/mol
# GULP energy per Si atom -5586.659446 kJ/mol
# Density = 2.073975 g / cm^3
# Si number density = 20.787058 Si / 1000 Ang^3
#
#
#
# Elastic Constant Matrix: (Units=GPa)
#
#
# Indices 1 2 3 4 5 6 
#
# 1 47.2032 1.0355 28.5093 0.0000 25.3568 0.0000
# 2 1.0355 16.7434 2.2677 0.0000 7.3606 0.0000
# 3 28.5093 2.2677 96.7211 0.0000 25.3314 0.0000
# 4 0.0000 0.0000 0.0000 29.9441 0.0000 -5.7969
# 5 25.3568 7.3606 25.3314 0.0000 40.4565 0.0000
# 6 0.0000 0.0000 0.0000 -5.7969 0.0000 26.2117
#
#
#
# Elastic Compliance Matrix: (Units=1/GPa)
#
#
# Indices 1 2 3 4 5 6 
#
# 1 0.034887 0.007307 -0.005239 0.000000 -0.019915 0.000000
# 2 0.007307 0.066735 0.000791 0.000000 -0.017216 0.000000
# 3 -0.005239 0.000791 0.013208 0.000000 -0.005131 0.000000
# 4 0.000000 0.000000 0.000000 0.034889 0.000000 0.007716
# 5 -0.019915 -0.017216 -0.005131 0.000000 0.043545 0.000000
# 6 0.000000 0.000000 0.000000 0.007716 0.000000 0.039857
#
#
# Mechanical properties :
#
#
# Convention : Reuss Voigt Hill
#
# Bulk Modulus (GPa) = 8.29548 24.92142 16.60845
# Shear Modulus (GPa) = 18.68555 27.91279 23.29917
#
# Velocity S-wave (km/s) = 3.00142 3.66839 3.35154
# Velocity P-wave (km/s) = 4.00134 5.47337 4.79419
#
# Compressibility (1/GPa) = 0.12054764
#
# Stress axis : x y z
#
# Youngs Moduli (GPa) = 28.66410 14.98470 75.70976
#
# Poissons Ratio (x) = -0.10949 0.39662
# Poissons Ratio (y) = -0.20945 -0.05985
# Poissons Ratio (z) = 0.15016 -0.01185
#
# Static dielectric constant tensor:
#      x y z
#    x 1.708920 0.000000 0.008250 
#    y 0.000000 1.790710 0.000000 
#    z 0.008250 0.000000 1.719060 
# 
# From -- ./inp_files/7666.got.cif
#   From: 2010.05.17/outbox.cif.g08.bks.cpg/sg4_4_cif.got.tgz:7666.got - 2010.06.03 18:43:04.
