data_PCOD9115674
_publ_section_title
;
Structure prediction by ZEFSAII (Michael W. Deem and Ramdas Pophale) SiO2 
 PCOD9115674
Probable space group: P 21
;
_chemical_formula_sum "Si O2"
_cell_formula_units_Z 16
_cell_length_a 15.015492
_cell_length_b 8.794759
_cell_length_c 11.492045
_cell_angle_alpha 90.000000
_cell_angle_beta 155.197528
_cell_angle_gamma 90.000000
_cell_volume 636.625063
_symmetry_space_group_name_H-M "P 21"
_symmetry_group_IT_number 4
_symmetry_cell_setting 'monoclinic'
loop_
_space_group_symop_operation_xyz
x,y,z
-x,1/2+y,-z
loop_
_atom_site_type_symbol
_atom_site_label
_atom_site_fract_x
_atom_site_fract_y
_atom_site_fract_z
Si Si1 0.016530 0.211900 0.326309
Si Si2 0.430130 0.727950 0.548448
Si Si3 0.847852 0.386592 0.592755
Si Si4 0.097262 0.502748 0.197521
Si Si5 0.212124 0.240854 0.180719
Si Si6 0.752912 0.482730 0.040726
Si Si7 0.154357 0.663633 0.621477
Si Si8 0.368073 0.442785 0.741127
O O1 0.859663 0.346178 0.092196
O O2 0.896854 0.178280 0.304671
O O3 0.239571 0.293259 0.620170
O O4 0.081464 0.060856 0.335998
O O5 0.346736 0.843998 0.549544
O O6 0.233245 0.621286 0.280872
O O7 0.553074 0.785589 0.580829
O O8 0.610688 0.612132 0.811555
O O9 0.822799 0.310765 0.435209
O O10 0.049018 0.305757 0.891606
O O11 0.218105 0.522710 0.463869
O O12 0.859820 0.564778 0.898402
O O13 0.151894 0.333741 0.224028
O O14 0.949084 0.567958 0.333382
O O15 0.590944 0.418115 0.945102
O O16 0.358250 0.558090 0.836436
#
# Coordination Sequence:
#
# PCOD9115674 Si02
#       8
#     2   2   2   2   2   2   2   2
#     4  11  25  37  64 102 127 158 224 273 305 374
#     4  10  21  44  67  87 130 172 210 253 333 388
#     4  11  22  41  65  96 130 164 212 271 313 381
#     4  10  23  41  67  92 122 166 209 259 312 394
#     4  11  22  42  67  92 123 167 206 258 328 374
#     4  10  20  42  66  83 124 181 197 258 329 377
#     4  11  20  43  65  88 128 174 210 258 324 384
#     4  10  21  44  61  90 130 166 208 258 326 386
#
# _framework density 25.132532999999999
#
# number of rings (size 3 to 8) (size 9 to 14) (size 15 to 20)
#    0.000    1.500    5.000    2.250    1.750    4.000 
#    6.750    0.000    0.000    0.000    0.000    0.000 
#    0.000    0.000    0.000    0.000    0.000    0.000 
#
# Total GULP energy -89346.978543 kJ/mol
# GULP energy per Si atom -5584.186159 kJ/mol
# Density = 2.507533 g / cm^3
# Si number density = 25.132533 Si / 1000 Ang^3
#
#
#
# Elastic Constant Matrix: (Units=GPa)
#
#
# Indices 1 2 3 4 5 6 
#
# 1 136.3222 54.3449 28.8365 0.0000 47.0331 0.0000
# 2 54.3449 131.6157 23.0699 0.0000 16.4143 0.0000
# 3 28.8365 23.0699 57.5102 0.0000 24.3836 0.0000
# 4 0.0000 0.0000 0.0000 30.9021 0.0000 9.1038
# 5 47.0331 16.4143 24.3836 0.0000 51.1335 0.0000
# 6 0.0000 0.0000 0.0000 9.1038 0.0000 54.3175
#
#
#
# Elastic Compliance Matrix: (Units=1/GPa)
#
#
# Indices 1 2 3 4 5 6 
#
# 1 0.012375 -0.003787 -0.000470 0.000000 -0.009943 0.000000
# 2 -0.003787 0.009404 -0.002595 0.000000 0.001702 0.000000
# 3 -0.000470 -0.002595 0.022723 0.000000 -0.009570 0.000000
# 4 0.000000 0.000000 0.000000 0.034041 0.000000 -0.005705
# 5 -0.009943 0.001702 -0.009570 0.000000 0.032719 0.000000
# 6 0.000000 0.000000 0.000000 -0.005705 0.000000 0.019367
#
#
# Mechanical properties :
#
#
# Convention : Reuss Voigt Hill
#
# Bulk Modulus (GPa) = 32.47115 59.77228 46.12172
# Shear Modulus (GPa) = 32.34146 41.88375 37.11260
#
# Velocity S-wave (km/s) = 3.59114 4.08673 3.84692
# Velocity P-wave (km/s) = 5.49027 6.78991 6.17438
#
# Compressibility (1/GPa) = 0.03079657
#
# Stress axis : x y z
#
# Youngs Moduli (GPa) = 80.80584 106.33434 44.00916
#
# Poissons Ratio (x) = 0.40273 0.02069
# Poissons Ratio (y) = 0.30604 0.11421
# Poissons Ratio (z) = 0.03799 0.27596
#
# Static dielectric constant tensor:
#      x y z
#    x 2.147910 0.000000 0.003880 
#    y 0.000000 2.108500 0.000000 
#    z 0.003880 0.000000 1.965190 
# 
# From -- ./inp_files/12593.got.cif
#   From: 2010.05.17/outbox.cif.g08.bks.cpg/sg4_7_cif.got.tgz:12593.got - 2010.06.03 18:43:04.
