data_PCOD9115059
_publ_section_title
;
Structure prediction by ZEFSAII (Michael W. Deem and Ramdas Pophale) SiO2 
 PCOD9115059
Probable space group: P 21
;
_chemical_formula_sum "Si O2"
_cell_formula_units_Z 16
_cell_length_a 10.000174
_cell_length_b 9.713728
_cell_length_c 7.203203
_cell_angle_alpha 90.000000
_cell_angle_beta 100.293857
_cell_angle_gamma 90.000000
_cell_volume 688.449303
_symmetry_space_group_name_H-M "P 21"
_symmetry_group_IT_number 4
_symmetry_cell_setting 'monoclinic'
loop_
_space_group_symop_operation_xyz
x,y,z
-x,1/2+y,-z
loop_
_atom_site_type_symbol
_atom_site_label
_atom_site_fract_x
_atom_site_fract_y
_atom_site_fract_z
Si Si1 0.387212 0.788780 0.711318
Si Si2 0.822853 0.855294 0.287411
Si Si3 0.649428 0.660132 0.822197
Si Si4 0.469054 0.302863 0.901625
Si Si5 0.710850 0.364607 0.705031
Si Si6 0.046840 0.660643 0.270217
Si Si7 0.110093 0.649811 0.726980
Si Si8 0.119998 0.353124 0.255658
O O1 0.508746 0.686995 0.673786
O O2 0.325426 0.868811 0.522755
O O3 0.262984 0.706846 0.773896
O O4 0.462302 0.868304 0.896676
O O5 0.663657 0.873308 0.212876
O O6 0.845697 0.850663 0.514810
O O7 0.895811 0.722194 0.217203
O O8 0.895516 0.990263 0.224179
O O9 0.719322 0.519414 0.782193
O O10 0.749543 0.788570 0.812530
O O11 0.592904 0.666340 0.017831
O O12 0.584791 0.293783 0.778778
O O13 0.843130 0.272352 0.768060
O O14 0.072500 0.652440 0.498876
O O15 0.077539 0.509321 0.200884
O O16 0.005640 0.749331 0.803062
#
# Coordination Sequence:
#
# PCOD9115059 Si02
#       8
#     2   2   2   2   2   2   2   2
#     4   9  22  41  62 100 127 171 211 263 324 388
#     4  10  19  40  66  93 132 172 213 274 320 381
#     4  10  23  41  61 101 128 166 221 260 322 392
#     4  10  24  42  61 101 128 167 218 265 324 384
#     4  11  21  45  69  92 134 173 211 272 322 382
#     4   9  21  37  65  98 125 175 219 254 332 383
#     4   9  18  38  66  92 129 169 217 267 318 382
#     4  10  20  40  64  97 131 171 220 267 320 388
#
# _framework density 23.240637
#
# number of rings (size 3 to 8) (size 9 to 14) (size 15 to 20)
#    0.750    1.500    0.000    2.250    0.000    6.000 
#    9.000    0.000    0.000    0.000    0.000    0.000 
#    0.000    0.000    0.000    0.000    0.000    0.000 
#
# Total GULP energy -89314.886274 kJ/mol
# GULP energy per Si atom -5582.180392 kJ/mol
# Density = 2.318774 g / cm^3
# Si number density = 23.240637 Si / 1000 Ang^3
#
#
#
# Elastic Constant Matrix: (Units=GPa)
#
#
# Indices 1 2 3 4 5 6 
#
# 1 101.9878 9.2580 12.1570 0.0000 -1.9376 0.0000
# 2 9.2580 72.8216 -4.4732 0.0000 -1.7505 0.0000
# 3 12.1570 -4.4732 81.4972 0.0000 9.3647 0.0000
# 4 0.0000 0.0000 0.0000 -1.0167 0.0000 -20.9975
# 5 -1.9376 -1.7505 9.3647 0.0000 27.4373 0.0000
# 6 0.0000 0.0000 0.0000 -20.9975 0.0000 10.6231
#
#
#
# Elastic Compliance Matrix: (Units=1/GPa)
#
#
# Indices 1 2 3 4 5 6 
#
# 1 0.010159 -0.001368 -0.001731 0.000000 0.001221 0.000000
# 2 -0.001368 0.013974 0.000916 0.000000 0.000482 0.000000
# 3 -0.001731 0.000916 0.013100 0.000000 -0.004535 0.000000
# 4 0.000000 0.000000 0.000000 -0.023518 0.000000 -0.046486
# 5 0.001221 0.000482 -0.004535 0.000000 0.038112 0.000000
# 6 0.000000 0.000000 0.000000 -0.046486 0.000000 0.002251
#
#
# Mechanical properties :
#
#
# Convention : Reuss Voigt Hill
#
# Bulk Modulus (GPa) = 30.42696 32.24337 31.33516
# Shear Modulus (GPa) = 72.04672 23.36637 47.70654
#
# Velocity S-wave (km/s) = 5.57383 3.17426 4.53561
# Velocity P-wave (km/s) = 7.38539 5.22861 6.39853
#
# Compressibility (1/GPa) = 0.03286559
#
# Stress axis : x y z
#
# Youngs Moduli (GPa) = 98.43657 71.56146 76.33637
#
# Poissons Ratio (x) = 0.09793 0.13212
# Poissons Ratio (y) = 0.13471 -0.06990
# Poissons Ratio (z) = 0.17037 -0.06553
#
# Static dielectric constant tensor:
#      x y z
#    x 1.846580 0.000000 0.014270 
#    y 0.000000 1.865080 0.000000 
#    z 0.014270 0.000000 1.922870 
# 
# From -- ./inp_files/7569.got.cif
#   From: 2010.05.17/outbox.cif.g08.bks.cpg/sg4_4_cif.got.tgz:7569.got - 2010.06.03 18:43:04.
