data_PCOD9115879
_publ_section_title
;
Structure prediction by ZEFSAII (Michael W. Deem and Ramdas Pophale) SiO2 
 PCOD9115879
Probable space group: P 21
;
_chemical_formula_sum "Si O2"
_cell_formula_units_Z 16
_cell_length_a 13.101639
_cell_length_b 6.349913
_cell_length_c 8.370719
_cell_angle_alpha 90.000000
_cell_angle_beta 100.065859
_cell_angle_gamma 90.000000
_cell_volume 685.676566
_symmetry_space_group_name_H-M "P 21"
_symmetry_group_IT_number 4
_symmetry_cell_setting 'monoclinic'
loop_
_space_group_symop_operation_xyz
x,y,z
-x,1/2+y,-z
loop_
_atom_site_type_symbol
_atom_site_label
_atom_site_fract_x
_atom_site_fract_y
_atom_site_fract_z
Si Si1 0.331817 0.992780 0.712581
Si Si2 0.378180 0.611164 0.503261
Si Si3 0.511075 0.300309 0.755278
Si Si4 0.726236 0.479920 0.856086
Si Si5 0.211679 0.256871 0.436577
Si Si6 0.120894 0.280862 0.912727
Si Si7 0.801702 0.201719 0.105440
Si Si8 0.983789 0.924292 0.785985
O O1 0.371474 0.840510 0.581081
O O2 0.286544 0.822231 0.821879
O O3 0.421456 0.149062 0.803312
O O4 0.240557 0.131325 0.605764
O O5 0.449277 0.466999 0.632703
O O6 0.427290 0.643075 0.344119
O O7 0.274443 0.475939 0.456344
O O8 0.604813 0.437860 0.855171
O O9 0.747744 0.599299 0.694940
O O10 0.794293 0.618988 0.996459
O O11 0.778557 0.252862 0.911864
O O12 0.095645 0.329352 0.363468
O O13 0.189642 0.459028 0.851110
O O14 0.066614 0.388285 0.052420
O O15 0.030025 0.161279 0.792240
O O16 0.912772 0.287097 0.186839
#
# Coordination Sequence:
#
# PCOD9115879 Si02
#       8
#     2   2   2   2   2   2   2   2
#     4  11  25  44  66 100 142 178 223 285 349 394
#     4  11  21  38  66  97 132 178 229 285 323 404
#     4  11  21  40  67  97 134 182 231 274 337 398
#     4  10  23  40  70 102 129 177 234 281 326 412
#     4  10  23  40  72 104 130 175 238 276 330 410
#     4  10  21  37  69 104 137 176 226 279 343 398
#     4  11  25  45  66  99 145 175 221 292 341 402
#     4  10  21  40  68 101 135 179 226 274 339 408
#
# _framework density 23.334619
#
# number of rings (size 3 to 8) (size 9 to 14) (size 15 to 20)
#    0.000    1.500    3.750    0.750    3.500    5.000 
#    4.500    0.000    0.000    0.000    0.000    0.000 
#    0.000    0.000    0.000    0.000    0.000    0.000 
#
# Total GULP energy -89251.843066 kJ/mol
# GULP energy per Si atom -5578.240192 kJ/mol
# Density = 2.328151 g / cm^3
# Si number density = 23.334619 Si / 1000 Ang^3
#
#
#
# Elastic Constant Matrix: (Units=GPa)
#
#
# Indices 1 2 3 4 5 6 
#
# 1 111.9935 32.8866 37.6084 0.0000 30.2817 0.0000
# 2 32.8866 102.7049 26.1578 0.0000 4.6765 0.0000
# 3 37.6084 26.1578 47.9983 0.0000 18.3847 0.0000
# 4 0.0000 0.0000 0.0000 25.5097 0.0000 -3.4760
# 5 30.2817 4.6765 18.3847 0.0000 41.6436 0.0000
# 6 0.0000 0.0000 0.0000 -3.4760 0.0000 55.9998
#
#
#
# Elastic Compliance Matrix: (Units=1/GPa)
#
#
# Indices 1 2 3 4 5 6 
#
# 1 0.013750 -0.002329 -0.006950 0.000000 -0.006669 0.000000
# 2 -0.002329 0.011807 -0.005717 0.000000 0.002892 0.000000
# 3 -0.006950 -0.005717 0.032752 0.000000 -0.008763 0.000000
# 4 0.000000 0.000000 0.000000 0.039535 0.000000 0.002454
# 5 -0.006669 0.002892 -0.008763 0.000000 0.032407 0.000000
# 6 0.000000 0.000000 0.000000 0.002454 0.000000 0.018010
#
#
# Mechanical properties :
#
#
# Convention : Reuss Voigt Hill
#
# Bulk Modulus (GPa) = 35.31529 50.66692 42.99110
# Shear Modulus (GPa) = 26.63948 35.70021 31.16985
#
# Velocity S-wave (km/s) = 3.38247 3.91567 3.65879
# Velocity P-wave (km/s) = 5.51561 6.49643 6.02601
#
# Compressibility (1/GPa) = 0.02831635
#
# Stress axis : x y z
#
# Youngs Moduli (GPa) = 72.72703 84.69686 30.53253
#
# Poissons Ratio (x) = 0.19727 0.21220
# Poissons Ratio (y) = 0.16939 0.17456
# Poissons Ratio (z) = 0.50546 0.48422
#
# Static dielectric constant tensor:
#      x y z
#    x 1.893880 0.000000 -0.054530 
#    y 0.000000 1.942950 0.000000 
#    z -0.054530 0.000000 1.967270 
# 
# From -- ./inp_files/8733.got.cif
#   From: 2010.05.17/outbox.cif.g08.bks.cpg/sg4_5_cif.got.tgz:8733.got - 2010.06.03 18:43:04.
