data_PCOD9115342
_publ_section_title
;
Structure prediction by ZEFSAII (Michael W. Deem and Ramdas Pophale) SiO2 
 PCOD9115342
Probable space group: P 21
;
_chemical_formula_sum "Si O2"
_cell_formula_units_Z 16
_cell_length_a 19.958523
_cell_length_b 7.826904
_cell_length_c 9.653953
_cell_angle_alpha 90.000000
_cell_angle_beta 28.145567
_cell_angle_gamma 90.000000
_cell_volume 711.380066
_symmetry_space_group_name_H-M "P 21"
_symmetry_group_IT_number 4
_symmetry_cell_setting 'monoclinic'
loop_
_space_group_symop_operation_xyz
x,y,z
-x,1/2+y,-z
loop_
_atom_site_type_symbol
_atom_site_label
_atom_site_fract_x
_atom_site_fract_y
_atom_site_fract_z
Si Si1 0.769042 0.863810 0.651057
Si Si2 0.844966 0.331121 0.637155
Si Si3 0.059713 0.678666 0.783483
Si Si4 0.525940 0.215501 0.794750
Si Si5 0.548534 0.310275 0.070601
Si Si6 0.185024 0.628724 0.840344
Si Si7 0.029004 0.170002 0.521796
Si Si8 0.240043 0.240163 0.638122
O O1 0.767712 0.744696 0.515400
O O2 0.872624 0.811314 0.585673
O O3 0.833235 0.037613 0.472328
O O4 0.605751 0.841596 0.996166
O O5 0.899508 0.345278 0.379598
O O6 0.957049 0.210134 0.508155
O O7 0.868101 0.508234 0.671455
O O8 0.682420 0.276284 0.924203
O O9 0.090148 0.704271 0.888805
O O10 0.894321 0.633045 0.065782
O O11 0.662584 0.221668 0.446403
O O12 0.476673 0.016026 0.882244
O O13 0.575281 0.258768 0.861769
O O14 0.404152 0.211567 0.375179
O O15 0.210750 0.431649 0.749143
O O16 0.101748 0.639423 0.134730
#
# Coordination Sequence:
#
# PCOD9115342 Si02
#       8
#     2   2   2   2   2   2   2   2
#     4  10  21  37  64  97 133 171 217 272 344 396
#     4  12  25  42  65  91 137 180 227 270 345 408
#     4  11  20  39  65 100 129 167 224 284 330 406
#     4  10  20  39  66  98 133 170 221 281 343 402
#     4  10  21  39  65  97 134 173 218 282 347 393
#     4  10  20  37  66  96 126 168 224 276 337 387
#     4  12  24  43  62  92 130 184 222 278 331 410
#     4   9  19  36  65  97 126 165 217 283 331 396
#
# _framework density 22.491492000000001
#
# number of rings (size 3 to 8) (size 9 to 14) (size 15 to 20)
#    0.000    1.500    5.000    1.500    0.000    0.000 
#    4.500    1.250    5.500    0.000    0.000    0.000 
#    0.000    0.000    0.000    0.000    0.000    0.000 
#
# Total GULP energy -89339.016884 kJ/mol
# GULP energy per Si atom -5583.688555 kJ/mol
# Density = 2.244030 g / cm^3
# Si number density = 22.491492 Si / 1000 Ang^3
#
#
#
# Elastic Constant Matrix: (Units=GPa)
#
#
# Indices 1 2 3 4 5 6 
#
# 1 82.8133 11.5370 28.1754 0.0000 -29.5190 0.0000
# 2 11.5370 44.9835 14.5626 0.0000 -17.5721 0.0000
# 3 28.1754 14.5626 137.4780 0.0000 -42.1780 0.0000
# 4 0.0000 0.0000 0.0000 25.4500 0.0000 -8.0669
# 5 -29.5190 -17.5721 -42.1780 0.0000 41.0558 0.0000
# 6 0.0000 0.0000 0.0000 -8.0669 0.0000 26.6560
#
#
#
# Elastic Compliance Matrix: (Units=1/GPa)
#
#
# Indices 1 2 3 4 5 6 
#
# 1 0.016259 0.000513 0.000390 0.000000 0.012311 0.000000
# 2 0.000513 0.026802 0.001005 0.000000 0.012873 0.000000
# 3 0.000390 0.001005 0.010668 0.000000 0.011670 0.000000
# 4 0.000000 0.000000 0.000000 0.043462 0.000000 0.013153
# 5 0.012311 0.012873 0.011670 0.000000 0.050707 0.000000
# 6 0.000000 0.000000 0.000000 0.013153 0.000000 0.041495
#
#
# Mechanical properties :
#
#
# Convention : Reuss Voigt Hill
#
# Bulk Modulus (GPa) = 17.37756 41.53608 29.45682
# Shear Modulus (GPa) = 24.41891 32.69901 28.55896
#
# Velocity S-wave (km/s) = 3.29856 3.81706 3.56724
# Velocity P-wave (km/s) = 4.71703 6.15907 5.48564
#
# Compressibility (1/GPa) = 0.05754549
#
# Stress axis : x y z
#
# Youngs Moduli (GPa) = 61.50309 37.31069 93.73963
#
# Poissons Ratio (x) = -0.01913 -0.03659
# Poissons Ratio (y) = -0.03153 -0.09423
# Poissons Ratio (z) = -0.02401 -0.03750
#
# Static dielectric constant tensor:
#      x y z
#    x 1.799080 0.000000 -0.037140 
#    y 0.000000 1.931740 0.000000 
#    z -0.037140 0.000000 1.865930 
# 
# From -- ./inp_files/5432.got.cif
#   From: 2010.05.17/outbox.cif.g08.bks.cpg/sg4_3_cif.got.tgz:5432.got - 2010.06.03 18:43:04.
