data_PCOD9115659
_publ_section_title
;
Structure prediction by ZEFSAII (Michael W. Deem and Ramdas Pophale) SiO2 
 PCOD9115659
Probable space group: P 21
;
_chemical_formula_sum "Si O2"
_cell_formula_units_Z 16
_cell_length_a 17.805415
_cell_length_b 8.736365
_cell_length_c 5.302962
_cell_angle_alpha 90.000000
_cell_angle_beta 65.840397
_cell_angle_gamma 90.000000
_cell_volume 752.646252
_symmetry_space_group_name_H-M "P 21"
_symmetry_group_IT_number 4
_symmetry_cell_setting 'monoclinic'
loop_
_space_group_symop_operation_xyz
x,y,z
-x,1/2+y,-z
loop_
_atom_site_type_symbol
_atom_site_label
_atom_site_fract_x
_atom_site_fract_y
_atom_site_fract_z
Si Si1 0.111647 0.524330 0.016448
Si Si2 0.879736 0.373363 0.132577
Si Si3 0.045612 0.021154 0.468780
Si Si4 0.260359 0.372613 0.054588
Si Si5 0.870447 0.792378 0.398994
Si Si6 0.562469 0.646284 0.674357
Si Si7 0.253375 0.085512 0.735872
Si Si8 0.551880 0.850085 0.188290
O O1 0.106670 0.693510 0.916926
O O2 0.205151 0.472360 0.941567
O O3 0.051623 0.517555 0.340652
O O4 0.080812 0.398035 0.860040
O O5 0.925025 0.461918 0.840399
O O6 0.911222 0.422693 0.366535
O O7 0.783083 0.415357 0.208805
O O8 0.076330 0.195413 0.476092
O O9 0.204870 0.385092 0.376810
O O10 0.260134 0.191464 0.976182
O O11 0.354795 0.415868 0.942251
O O12 0.821208 0.666905 0.306455
O O13 0.659532 0.605159 0.519813
O O14 0.542604 0.751594 0.457528
O O15 0.511060 0.490141 0.736729
O O16 0.545313 0.740439 0.953265
#
# Coordination Sequence:
#
# PCOD9115659 Si02
#       8
#     2   2   2   2   2   2   2   2
#     4  11  26  37  64  96 129 166 226 279 320 378
#     4  11  25  42  62  97 126 168 220 281 319 377
#     4  11  25  42  64  88 133 173 220 265 335 385
#     4  10  21  41  66  89 130 176 215 253 335 392
#     4  10  20  42  63  88 122 182 208 262 320 399
#     4  11  23  43  69 101 134 171 222 265 334 391
#     4   9  20  41  66  88 127 174 214 256 326 405
#     4  11  24  44  70 101 135 174 217 273 325 405
#
# _framework density 21.258327000000001
#
# number of rings (size 3 to 8) (size 9 to 14) (size 15 to 20)
#    0.000    1.500    2.500    1.500    5.250    1.000 
#    2.250    0.000    0.000    0.000    0.000    0.000 
#    0.000    0.000    0.000    0.000    0.000    0.000 
#
# Total GULP energy -89350.986461 kJ/mol
# GULP energy per Si atom -5584.436654 kJ/mol
# Density = 2.120994 g / cm^3
# Si number density = 21.258327 Si / 1000 Ang^3
#
#
#
# Elastic Constant Matrix: (Units=GPa)
#
#
# Indices 1 2 3 4 5 6 
#
# 1 94.2988 53.0555 45.8353 0.0000 -5.3546 0.0000
# 2 53.0555 94.0927 26.8015 0.0000 -12.3723 0.0000
# 3 45.8353 26.8015 99.9696 0.0000 3.8260 0.0000
# 4 0.0000 0.0000 0.0000 26.3221 0.0000 -0.5966
# 5 -5.3546 -12.3723 3.8260 0.0000 32.5975 0.0000
# 6 0.0000 0.0000 0.0000 -0.5966 0.0000 28.6365
#
#
#
# Elastic Compliance Matrix: (Units=1/GPa)
#
#
# Indices 1 2 3 4 5 6 
#
# 1 0.018471 -0.008587 -0.006186 0.000000 0.000501 0.000000
# 2 -0.008587 0.016281 -0.000613 0.000000 0.004841 0.000000
# 3 -0.006186 -0.000613 0.013110 0.000000 -0.002788 0.000000
# 4 0.000000 0.000000 0.000000 0.038009 0.000000 0.000792
# 5 0.000501 0.004841 -0.002788 0.000000 0.032924 0.000000
# 6 0.000000 0.000000 0.000000 0.000792 0.000000 0.034937
#
#
# Mechanical properties :
#
#
# Convention : Reuss Voigt Hill
#
# Bulk Modulus (GPa) = 58.51309 59.97175 59.24242
# Shear Modulus (GPa) = 26.28789 28.35579 27.32184
#
# Velocity S-wave (km/s) = 3.52034 3.65618 3.58890
# Velocity P-wave (km/s) = 6.64140 6.78938 6.71580
#
# Compressibility (1/GPa) = 0.01709019
#
# Stress axis : x y z
#
# Youngs Moduli (GPa) = 54.13788 61.42102 76.27645
#
# Poissons Ratio (x) = 0.52745 0.47184
# Poissons Ratio (y) = 0.46491 0.04675
# Poissons Ratio (z) = 0.33489 0.03764
#
# Static dielectric constant tensor:
#      x y z
#    x 1.791760 0.000000 0.029490 
#    y 0.000000 1.818970 0.000000 
#    z 0.029490 0.000000 1.773850 
# 
# From -- ./inp_files/3446.got.cif
#   From: 2010.05.17/outbox.cif.g08.bks.cpg/sg4_2_cif.got.tgz:3446.got - 2010.06.03 18:43:04.
