data_PCOD9115292
_publ_section_title
;
Structure prediction by ZEFSAII (Michael W. Deem and Ramdas Pophale) SiO2 
 PCOD9115292
Probable space group: P 21
;
_chemical_formula_sum "Si O2"
_cell_formula_units_Z 16
_cell_length_a 8.223490
_cell_length_b 12.270119
_cell_length_c 13.892124
_cell_angle_alpha 90.000000
_cell_angle_beta 27.382573
_cell_angle_gamma 90.000000
_cell_volume 644.710992
_symmetry_space_group_name_H-M "P 21"
_symmetry_group_IT_number 4
_symmetry_cell_setting 'monoclinic'
loop_
_space_group_symop_operation_xyz
x,y,z
-x,1/2+y,-z
loop_
_atom_site_type_symbol
_atom_site_label
_atom_site_fract_x
_atom_site_fract_y
_atom_site_fract_z
Si Si1 0.398496 0.621480 0.860036
Si Si2 0.443432 0.933282 0.744573
Si Si3 0.999213 0.574786 0.890976
Si Si4 0.331245 0.215513 0.096764
Si Si5 0.998208 0.245186 0.551588
Si Si6 0.611786 0.176688 0.590938
Si Si7 0.232094 0.122590 0.606972
Si Si8 0.136409 0.425352 0.100841
O O1 0.405688 0.687214 0.955515
O O2 0.765958 0.647350 0.617134
O O3 0.090808 0.639066 0.943100
O O4 0.371581 0.496617 0.905253
O O5 0.762989 0.850974 0.593108
O O6 0.194330 0.885485 0.790145
O O7 0.595232 0.048511 0.627186
O O8 0.191640 0.965787 0.967406
O O9 0.733363 0.628154 0.954313
O O10 0.387335 0.580330 0.636638
O O11 0.957767 0.213899 0.350406
O O12 0.355779 0.332315 0.035423
O O13 0.020612 0.206334 0.649692
O O14 0.643773 0.242553 0.674563
O O15 0.322258 0.182836 0.659715
O O16 0.018802 0.012228 0.741676
#
# Coordination Sequence:
#
# PCOD9115292 Si02
#       8
#     2   2   2   2   2   2   2   2
#     4   9  20  36  55  84 115 145 188 235 276 336
#     4  10  20  38  62  85 115 153 191 235 286 338
#     4   9  19  38  59  83 116 149 189 238 282 335
#     4  10  20  37  58  81 116 152 186 233 286 335
#     4  10  20  37  58  81 116 152 186 233 286 335
#     4   9  20  36  55  84 115 145 188 235 276 336
#     4   9  19  38  59  83 116 149 189 238 282 335
#     4  10  20  38  62  85 115 153 191 235 286 338
#
# _framework density 24.817319999999999
#
# number of rings (size 3 to 8) (size 9 to 14) (size 15 to 20)
#    0.000    2.500    0.000    2.250    0.000    5.000 
#    0.000   18.750    0.000    0.000    0.000    0.000 
#    0.000    0.000    0.000    0.000    0.000    0.000 
#
# Total GULP energy -89327.325785 kJ/mol
# GULP energy per Si atom -5582.957862 kJ/mol
# Density = 2.476083 g / cm^3
# Si number density = 24.817320 Si / 1000 Ang^3
#
#
#
# Elastic Constant Matrix: (Units=GPa)
#
#
# Indices 1 2 3 4 5 6 
#
# 1 193.1652 46.0851 29.0819 0.0000 -6.9418 0.0000
# 2 46.0851 57.8784 13.1663 0.0000 -14.8054 0.0000
# 3 29.0819 13.1663 71.0342 0.0000 1.4101 0.0000
# 4 0.0000 0.0000 0.0000 41.2025 0.0000 -5.7538
# 5 -6.9418 -14.8054 1.4101 0.0000 42.0261 0.0000
# 6 0.0000 0.0000 0.0000 -5.7538 0.0000 36.0020
#
#
#
# Elastic Compliance Matrix: (Units=1/GPa)
#
#
# Indices 1 2 3 4 5 6 
#
# 1 0.006620 -0.005028 -0.001766 0.000000 -0.000618 0.000000
# 2 -0.005028 0.023805 -0.002506 0.000000 0.007640 0.000000
# 3 -0.001766 -0.002506 0.015299 0.000000 -0.001688 0.000000
# 4 0.000000 0.000000 0.000000 0.024824 0.000000 0.003967
# 5 -0.000618 0.007640 -0.001688 0.000000 0.026441 0.000000
# 6 0.000000 0.000000 0.000000 0.003967 0.000000 0.028410
#
#
# Mechanical properties :
#
#
# Convention : Reuss Voigt Hill
#
# Bulk Modulus (GPa) = 36.86623 55.41605 46.14114
# Shear Modulus (GPa) = 32.67125 39.42908 36.05016
#
# Velocity S-wave (km/s) = 3.63225 3.99027 3.81546
# Velocity P-wave (km/s) = 5.69898 6.60361 6.16790
#
# Compressibility (1/GPa) = 0.02712509
#
# Stress axis : x y z
#
# Youngs Moduli (GPa) = 151.05578 42.00785 65.36485
#
# Poissons Ratio (x) = 0.21120 0.11544
# Poissons Ratio (y) = 0.75945 0.16378
# Poissons Ratio (z) = 0.26679 0.10526
#
# Static dielectric constant tensor:
#      x y z
#    x 2.056930 0.000000 0.023250 
#    y 0.000000 1.917010 0.000000 
#    z 0.023250 0.000000 2.080810 
# 
# From -- ./inp_files/13761.got.cif
#   From: 2010.05.17/outbox.cif.g08.bks.cpg/sg4_7_cif.got.tgz:13761.got - 2010.06.03 18:43:04.
