data_PCOD9115159
_publ_section_title
;
Structure prediction by ZEFSAII (Michael W. Deem and Ramdas Pophale) SiO2 
 PCOD9115159
Probable space group: P 21
;
_chemical_formula_sum "Si O2"
_cell_formula_units_Z 16
_cell_length_a 7.469578
_cell_length_b 9.784434
_cell_length_c 9.722924
_cell_angle_alpha 90.000000
_cell_angle_beta 123.449502
_cell_angle_gamma 90.000000
_cell_volume 592.909436
_symmetry_space_group_name_H-M "P 21"
_symmetry_group_IT_number 4
_symmetry_cell_setting 'monoclinic'
loop_
_space_group_symop_operation_xyz
x,y,z
-x,1/2+y,-z
loop_
_atom_site_type_symbol
_atom_site_label
_atom_site_fract_x
_atom_site_fract_y
_atom_site_fract_z
Si Si1 0.212111 0.315440 0.053687
Si Si2 0.306300 0.739186 0.768115
Si Si3 0.108732 0.676866 0.231795
Si Si4 0.297271 0.405478 0.369656
Si Si5 0.265943 0.998160 0.607472
Si Si6 0.897685 0.473139 0.735351
Si Si7 0.439762 0.707782 0.119694
Si Si8 0.460191 0.465930 0.706681
O O1 0.460345 0.312475 0.132870
O O2 0.180558 0.317169 0.204409
O O3 0.117839 0.183406 0.939094
O O4 0.087701 0.440721 0.926388
O O5 0.172712 0.865184 0.648823
O O6 0.337033 0.604399 0.688796
O O7 0.300095 0.689169 0.922640
O O8 0.158537 0.540955 0.329238
O O9 0.127951 0.814284 0.326832
O O10 0.277873 0.693726 0.179436
O O11 0.520816 0.452990 0.391279
O O12 0.357161 0.365379 0.547622
O O13 0.111410 0.050348 0.415618
O O14 0.360644 0.108478 0.756953
O O15 0.688945 0.508299 0.737567
O O16 0.513837 0.866287 0.153902
#
# Coordination Sequence:
#
# PCOD9115159 Si02
#       8
#     2   2   2   2   2   2   2   2
#     4   9  20  32  56  83 107 140 181 236 277 324
#     4  11  21  34  58  83 109 151 189 224 276 338
#     4   8  17  32  53  77 108 141 178 230 274 323
#     4   9  17  32  53  82 107 138 186 231 277 316
#     4   9  18  34  55  80 109 148 185 232 271 330
#     4   8  17  32  54  82 104 139 183 232 278 311
#     4  10  20  36  55  81 113 149 190 220 274 341
#     4  10  20  34  58  84 111 144 190 235 267 331
#
# _framework density 26.985572000000001
#
# number of rings (size 3 to 8) (size 9 to 14) (size 15 to 20)
#    0.750    2.000    0.000    1.500    1.750    6.000 
#    0.000    0.000    5.500    0.000    0.000    0.000 
#    0.000    0.000    0.000    0.000    0.000    0.000 
#
# Total GULP energy -89262.394974 kJ/mol
# GULP energy per Si atom -5578.899686 kJ/mol
# Density = 2.692415 g / cm^3
# Si number density = 26.985572 Si / 1000 Ang^3
#
#
#
# Elastic Constant Matrix: (Units=GPa)
#
#
# Indices 1 2 3 4 5 6 
#
# 1 55.5631 12.6322 18.0246 0.0000 4.7755 0.0000
# 2 12.6322 83.1138 23.9165 0.0000 -16.5601 0.0000
# 3 18.0246 23.9165 170.7959 0.0000 -18.4555 0.0000
# 4 0.0000 0.0000 0.0000 42.7006 0.0000 -3.3817
# 5 4.7755 -16.5601 -18.4555 0.0000 29.1345 0.0000
# 6 0.0000 0.0000 0.0000 -3.3817 0.0000 24.7504
#
#
#
# Elastic Compliance Matrix: (Units=1/GPa)
#
#
# Indices 1 2 3 4 5 6 
#
# 1 0.020219 -0.003781 -0.002356 0.000000 -0.006956 0.000000
# 2 -0.003781 0.014487 -0.000722 0.000000 0.008397 0.000000
# 3 -0.002356 -0.000722 0.006658 0.000000 0.004193 0.000000
# 4 0.000000 0.000000 0.000000 0.023675 0.000000 0.003235
# 5 -0.006956 0.008397 0.004193 0.000000 0.042892 0.000000
# 6 0.000000 0.000000 0.000000 0.003235 0.000000 0.040845
#
#
# Mechanical properties :
#
#
# Convention : Reuss Voigt Hill
#
# Bulk Modulus (GPa) = 36.17191 46.51327 41.34259
# Shear Modulus (GPa) = 29.11871 36.31040 32.71456
#
# Velocity S-wave (km/s) = 3.28845 3.67215 3.48558
# Velocity P-wave (km/s) = 5.27748 5.93745 5.61717
#
# Compressibility (1/GPa) = 0.02764576
#
# Stress axis : x y z
#
# Youngs Moduli (GPa) = 49.45785 69.02630 150.19974
#
# Poissons Ratio (x) = 0.26099 0.35386
# Poissons Ratio (y) = 0.18700 0.10849
# Poissons Ratio (z) = 0.11652 0.04986
#
# Static dielectric constant tensor:
#      x y z
#    x 2.177640 0.000000 0.064020 
#    y 0.000000 2.149860 0.000000 
#    z 0.064020 0.000000 2.273220 
# 
# From -- ./inp_files/8363.got.cif
#   From: 2010.05.17/outbox.cif.g08.bks.cpg/sg4_5_cif.got.tgz:8363.got - 2010.06.03 18:43:04.
