data_PCOD9115145
_publ_section_title
;
Structure prediction by ZEFSAII (Michael W. Deem and Ramdas Pophale) SiO2 
 PCOD9115145
Probable space group: P 21
;
_chemical_formula_sum "Si O2"
_cell_formula_units_Z 16
_cell_length_a 13.614469
_cell_length_b 4.969081
_cell_length_c 9.013864
_cell_angle_alpha 90.000000
_cell_angle_beta 101.606015
_cell_angle_gamma 90.000000
_cell_volume 597.332613
_symmetry_space_group_name_H-M "P 21"
_symmetry_group_IT_number 4
_symmetry_cell_setting 'monoclinic'
loop_
_space_group_symop_operation_xyz
x,y,z
-x,1/2+y,-z
loop_
_atom_site_type_symbol
_atom_site_label
_atom_site_fract_x
_atom_site_fract_y
_atom_site_fract_z
Si Si1 0.696922 0.387970 0.056423
Si Si2 0.699215 0.872506 0.870379
Si Si3 0.287742 0.733873 0.529694
Si Si4 0.022082 0.292467 0.800860
Si Si5 0.538660 0.352686 0.597115
Si Si6 0.532287 0.481619 0.211759
Si Si7 0.899861 0.795098 0.839120
Si Si8 0.807259 0.697831 0.360666
O O1 0.581988 0.441484 0.068410
O O2 0.762728 0.533302 0.203650
O O3 0.718915 0.564835 0.920940
O O4 0.713614 0.081299 0.013091
O O5 0.580877 0.881244 0.805889
O O6 0.788206 0.903704 0.779568
O O7 0.254601 0.446386 0.585847
O O8 0.346606 0.762191 0.391239
O O9 0.380452 0.842166 0.662907
O O10 0.200138 0.954366 0.523165
O O11 0.932707 0.503934 0.794828
O O12 0.091839 0.322465 0.677925
O O13 0.081285 0.318521 0.976573
O O14 0.522973 0.642325 0.524109
O O15 0.486060 0.288092 0.737285
O O16 0.977079 0.995667 0.784800
#
# Coordination Sequence:
#
# PCOD9115145 Si02
#       8
#     2   2   2   2   2   2   2   2
#     4  11  22  34  51  76 113 150 184 211 254 321
#     4  12  23  36  51  78 114 151 184 214 255 326
#     4  10  21  35  56  84 108 138 183 228 272 323
#     4  10  20  34  54  74 105 142 178 223 270 302
#     4  10  20  37  56  77 109 142 184 231 269 312
#     4  10  23  36  55  78 112 151 179 217 269 318
#     4  10  21  33  51  75 105 146 180 217 259 313
#     4  11  20  35  58  82 108 142 180 227 276 319
#
# _framework density 26.785747000000001
#
# number of rings (size 3 to 8) (size 9 to 14) (size 15 to 20)
#    0.000    1.500    1.250    6.000    3.500    5.000 
#    0.000    0.000    0.000    0.000    0.000    3.500 
#    0.000    0.000    0.000    0.000    0.000    0.000 
#
# Total GULP energy -89365.995505 kJ/mol
# GULP energy per Si atom -5585.374719 kJ/mol
# Density = 2.672478 g / cm^3
# Si number density = 26.785747 Si / 1000 Ang^3
#
#
#
# Elastic Constant Matrix: (Units=GPa)
#
#
# Indices 1 2 3 4 5 6 
#
# 1 117.2816 3.1833 34.0642 0.0000 -29.0616 0.0000
# 2 3.1833 95.9956 35.2332 0.0000 -5.2721 0.0000
# 3 34.0642 35.2332 69.5128 0.0000 -15.7208 0.0000
# 4 0.0000 0.0000 0.0000 39.7938 0.0000 -19.7760
# 5 -29.0616 -5.2721 -15.7208 0.0000 53.0156 0.0000
# 6 0.0000 0.0000 0.0000 -19.7760 0.0000 41.2696
#
#
#
# Elastic Compliance Matrix: (Units=1/GPa)
#
#
# Indices 1 2 3 4 5 6 
#
# 1 0.011207 0.001856 -0.005361 0.000000 0.004738 0.000000
# 2 0.001856 0.013130 -0.007545 0.000000 0.000086 0.000000
# 3 -0.005361 -0.007545 0.021441 0.000000 0.002669 0.000000
# 4 0.000000 0.000000 0.000000 0.032984 0.000000 0.015806
# 5 0.004738 0.000086 0.002669 0.000000 0.022260 0.000000
# 6 0.000000 0.000000 0.000000 0.015806 0.000000 0.031805
#
#
# Mechanical properties :
#
#
# Convention : Reuss Voigt Hill
#
# Bulk Modulus (GPa) = 42.23386 47.52796 44.88091
# Shear Modulus (GPa) = 30.70874 40.83642 35.77258
#
# Velocity S-wave (km/s) = 3.38961 3.90879 3.65842
# Velocity P-wave (km/s) = 5.57860 6.17688 5.88535
#
# Compressibility (1/GPa) = 0.02367768
#
# Stress axis : x y z
#
# Youngs Moduli (GPa) = 89.22634 76.16385 46.63953
#
# Poissons Ratio (x) = -0.14139 0.25006
# Poissons Ratio (y) = -0.16564 0.35190
# Poissons Ratio (z) = 0.47838 0.57467
#
# Static dielectric constant tensor:
#      x y z
#    x 2.162420 0.000000 0.050720 
#    y 0.000000 2.072640 0.000000 
#    z 0.050720 0.000000 2.331180 
# 
# From -- ./inp_files/11692.got.cif
#   From: 2010.05.17/outbox.cif.g08.bks.cpg/sg4_6_cif.got.tgz:11692.got - 2010.06.03 18:43:04.
