data_PCOD9115553
_publ_section_title
;
Structure prediction by ZEFSAII (Michael W. Deem and Ramdas Pophale) SiO2 
 PCOD9115553
Probable space group: P 21
;
_chemical_formula_sum "Si O2"
_cell_formula_units_Z 14
_cell_length_a 14.686748
_cell_length_b 5.269145
_cell_length_c 20.295464
_cell_angle_alpha 90.000000
_cell_angle_beta 157.266579
_cell_angle_gamma 90.000000
_cell_volume 606.947963
_symmetry_space_group_name_H-M "P 21"
_symmetry_group_IT_number 4
_symmetry_cell_setting 'monoclinic'
loop_
_space_group_symop_operation_xyz
x,y,z
-x,1/2+y,-z
loop_
_atom_site_type_symbol
_atom_site_label
_atom_site_fract_x
_atom_site_fract_y
_atom_site_fract_z
Si Si1 0.215909 0.876860 0.288722
Si Si2 0.737480 0.094960 0.999033
Si Si3 0.011591 0.573617 0.401634
Si Si4 0.580698 0.631251 0.455199
Si Si5 0.492355 0.896705 0.951343
Si Si6 0.305780 0.055884 0.612505
Si Si7 0.982297 0.500035 0.231440
O O1 0.355961 0.810850 0.316348
O O2 0.095127 0.644205 0.245679
O O3 0.408086 0.962434 0.471578
O O4 0.989590 0.059325 0.131572
O O5 0.688008 0.891682 0.024431
O O6 0.525554 0.077069 0.807449
O O7 0.755016 0.353606 0.052357
O O8 0.174918 0.328081 0.522628
O O9 0.979228 0.627949 0.301375
O O10 0.747554 0.492669 0.244101
O O11 0.125563 0.826416 0.507971
O O12 0.588840 0.499149 0.390281
O O13 0.827132 0.778254 0.624679
O O14 0.550710 0.125949 0.041946
#
# Coordination Sequence:
#
# PCOD9115553 Si02
#       7
#     2   2   2   2   2   2   2
#     4  11  20  40  67  93 128 178 232 285 328 411
#     4  11  27  42  65 101 139 180 228 291 354 410
#     4  11  23  44  70  97 136 182 224 277 347 414
#     4  10  21  38  65  96 124 172 232 276 338 401
#     4  12  25  43  74 105 132 176 234 289 336 414
#     4  11  26  45  66 100 143 180 217 288 352 417
#     4  10  20  40  65  92 128 170 227 280 333 397
#
# _framework density 23.066227999999999
#
# number of rings (size 3 to 8) (size 9 to 14) (size 15 to 20)
#    0.000    1.143    4.286    1.714    4.000    1.143 
#    2.571    0.000    0.000    0.000    0.000    0.000 
#    0.000    0.000    0.000    0.000    0.000    0.000 
#
# Total GULP energy -78162.610808 kJ/mol
# GULP energy per Si atom -5583.043629 kJ/mol
# Density = 2.301373 g / cm^3
# Si number density = 23.066228 Si / 1000 Ang^3
#
#
#
# Elastic Constant Matrix: (Units=GPa)
#
#
# Indices 1 2 3 4 5 6 
#
# 1 52.3406 -4.3516 22.1531 0.0000 16.8364 0.0000
# 2 -4.3516 86.4199 28.5129 0.0000 -17.0409 0.0000
# 3 22.1531 28.5129 134.0018 0.0000 -9.5129 0.0000
# 4 0.0000 0.0000 0.0000 36.7660 0.0000 8.8693
# 5 16.8364 -17.0409 -9.5129 0.0000 28.8430 0.0000
# 6 0.0000 0.0000 0.0000 8.8693 0.0000 21.1808
#
#
#
# Elastic Compliance Matrix: (Units=1/GPa)
#
#
# Indices 1 2 3 4 5 6 
#
# 1 0.027293 -0.000283 -0.005729 0.000000 -0.017988 0.000000
# 2 -0.000283 0.013825 -0.002359 0.000000 0.007555 0.000000
# 3 -0.005729 -0.002359 0.009267 0.000000 0.005007 0.000000
# 4 0.000000 0.000000 0.000000 0.030255 0.000000 -0.012669
# 5 -0.017988 0.007555 0.005007 0.000000 0.051286 0.000000
# 6 0.000000 0.000000 0.000000 -0.012669 0.000000 0.052518
#
#
# Mechanical properties :
#
#
# Convention : Reuss Voigt Hill
#
# Bulk Modulus (GPa) = 29.72209 40.59901 35.16055
# Shear Modulus (GPa) = 23.54056 32.45449 27.99752
#
# Velocity S-wave (km/s) = 3.19809 3.75509 3.48773
# Velocity P-wave (km/s) = 5.15272 6.03657 5.61207
#
# Compressibility (1/GPa) = 0.03364501
#
# Stress axis : x y z
#
# Youngs Moduli (GPa) = 36.63919 72.33192 107.90957
#
# Poissons Ratio (x) = 0.02044 0.61821
# Poissons Ratio (y) = 0.01035 0.25452
# Poissons Ratio (z) = 0.20990 0.17061
#
# Static dielectric constant tensor:
#      x y z
#    x 1.906810 0.000000 0.053110 
#    y 0.000000 2.001800 0.000000 
#    z 0.053110 0.000000 1.878190 
# 
# From -- ./inp_files/10042.got.cif
#   From: 2010.05.17/outbox.cif.g08.bks.cpg/sg4_6_cif.got.tgz:10042.got - 2010.06.03 18:43:04.
