data_PCOD9115582
_publ_section_title
;
Structure prediction by ZEFSAII (Michael W. Deem and Ramdas Pophale) SiO2 
 PCOD9115582
Probable space group: P 21
;
_chemical_formula_sum "Si O2"
_cell_formula_units_Z 16
_cell_length_a 16.514045
_cell_length_b 5.338938
_cell_length_c 9.338518
_cell_angle_alpha 90.000000
_cell_angle_beta 58.271202
_cell_angle_gamma 90.000000
_cell_volume 700.300703
_symmetry_space_group_name_H-M "P 21"
_symmetry_group_IT_number 4
_symmetry_cell_setting 'monoclinic'
loop_
_space_group_symop_operation_xyz
x,y,z
-x,1/2+y,-z
loop_
_atom_site_type_symbol
_atom_site_label
_atom_site_fract_x
_atom_site_fract_y
_atom_site_fract_z
Si Si1 0.279340 0.870260 0.179981
Si Si2 0.360753 0.575766 0.371770
Si Si3 0.005424 0.311069 0.088070
Si Si4 0.198544 0.820612 0.711609
Si Si5 0.141071 0.681036 0.083802
Si Si6 0.211607 0.207770 0.474062
Si Si7 0.469024 0.119922 0.943823
Si Si8 0.016867 0.427703 0.575489
O O1 0.332537 0.720142 0.253832
O O2 0.224488 0.694363 0.121470
O O3 0.205002 0.021008 0.346464
O O4 0.357848 0.048788 0.033814
O O5 0.291395 0.681368 0.560599
O O6 0.320012 0.302702 0.376765
O O7 0.474018 0.601839 0.260863
O O8 0.093817 0.409150 0.098650
O O9 0.905496 0.245956 0.254495
O O10 0.980543 0.572027 0.026402
O O11 0.203413 0.096326 0.640439
O O12 0.185071 0.775606 0.892381
O O13 0.056074 0.855274 0.227462
O O14 0.126685 0.393516 0.519232
O O15 0.486117 0.391744 0.000773
O O16 0.001599 0.698414 0.519454
#
# Coordination Sequence:
#
# PCOD9115582 Si02
#       8
#     2   2   2   2   2   2   2   2
#     4  10  21  42  65 100 126 169 220 279 334 387
#     4  10  22  40  67  95 130 169 222 277 328 399
#     4  10  23  41  59  91 132 180 222 258 312 396
#     4  10  24  39  62  92 133 179 218 264 327 401
#     4  11  23  43  64  96 136 172 222 272 329 392
#     4  11  21  40  63  91 126 172 216 264 321 392
#     4  10  20  40  70 100 128 168 222 281 334 394
#     4  12  26  41  62  93 133 167 212 271 321 375
#
# _framework density 22.847328000000001
#
# number of rings (size 3 to 8) (size 9 to 14) (size 15 to 20)
#    0.000    1.500    3.750    0.750    5.250    2.000 
#    4.500    0.000    2.750    0.000    0.000    0.000 
#    0.000    0.000    0.000    0.000    0.000    0.000 
#
# Total GULP energy -89211.718476 kJ/mol
# GULP energy per Si atom -5575.732405 kJ/mol
# Density = 2.279533 g / cm^3
# Si number density = 22.847328 Si / 1000 Ang^3
#
#
#
# Elastic Constant Matrix: (Units=GPa)
#
#
# Indices 1 2 3 4 5 6 
#
# 1 33.2760 12.2225 25.3552 0.0000 3.5202 0.0000
# 2 12.2225 95.8066 32.5500 0.0000 11.6872 0.0000
# 3 25.3552 32.5500 168.8029 0.0000 -6.2905 0.0000
# 4 0.0000 0.0000 0.0000 44.0832 0.0000 -6.3330
# 5 3.5202 11.6872 -6.2905 0.0000 33.0691 0.0000
# 6 0.0000 0.0000 0.0000 -6.3330 0.0000 26.1481
#
#
#
# Elastic Compliance Matrix: (Units=1/GPa)
#
#
# Indices 1 2 3 4 5 6 
#
# 1 0.035098 -0.002318 -0.004969 0.000000 -0.003862 0.000000
# 2 -0.002318 0.011993 -0.002128 0.000000 -0.004397 0.000000
# 3 -0.004969 -0.002128 0.007179 0.000000 0.002647 0.000000
# 4 0.000000 0.000000 0.000000 0.023502 0.000000 0.005692
# 5 -0.003862 -0.004397 0.002647 0.000000 0.032708 0.000000
# 6 0.000000 0.000000 0.000000 0.005692 0.000000 0.039622
#
#
# Mechanical properties :
#
#
# Convention : Reuss Voigt Hill
#
# Bulk Modulus (GPa) = 28.21715 48.68235 38.44975
# Shear Modulus (GPa) = 27.66307 35.84393 31.75350
#
# Velocity S-wave (km/s) = 3.48340 3.96516 3.73206
# Velocity P-wave (km/s) = 5.34377 6.50517 5.95286
#
# Compressibility (1/GPa) = 0.03543944
#
# Stress axis : x y z
#
# Youngs Moduli (GPa) = 28.49180 83.38327 139.28714
#
# Poissons Ratio (x) = 0.19331 0.69209
# Poissons Ratio (y) = 0.06605 0.29643
# Poissons Ratio (z) = 0.14157 0.17745
#
# Static dielectric constant tensor:
#      x y z
#    x 1.946790 0.000000 -0.056520 
#    y 0.000000 1.978330 0.000000 
#    z -0.056520 0.000000 1.978650 
# 
# From -- ./inp_files/9438.got.cif
#   From: 2010.05.17/outbox.cif.g08.bks.cpg/sg4_5_cif.got.tgz:9438.got - 2010.06.03 18:43:04.
