data_PCOD9115692
_publ_section_title
;
Structure prediction by ZEFSAII (Michael W. Deem and Ramdas Pophale) SiO2 
 PCOD9115692
Probable space group: P 21
;
_chemical_formula_sum "Si O2"
_cell_formula_units_Z 16
_cell_length_a 8.255805
_cell_length_b 13.156431
_cell_length_c 9.934315
_cell_angle_alpha 90.000000
_cell_angle_beta 44.254010
_cell_angle_gamma 90.000000
_cell_volume 752.994272
_symmetry_space_group_name_H-M "P 21"
_symmetry_group_IT_number 4
_symmetry_cell_setting 'monoclinic'
loop_
_space_group_symop_operation_xyz
x,y,z
-x,1/2+y,-z
loop_
_atom_site_type_symbol
_atom_site_label
_atom_site_fract_x
_atom_site_fract_y
_atom_site_fract_z
Si Si1 0.071431 0.889420 0.099637
Si Si2 0.469197 0.389403 0.608467
Si Si3 0.485947 0.259936 0.851222
Si Si4 0.985314 0.246198 0.612820
Si Si5 0.237493 0.765737 0.744457
Si Si6 0.094292 0.101296 0.996673
Si Si7 0.868208 0.852734 0.747411
Si Si8 0.130002 0.047212 0.662867
O O1 0.802834 0.905777 0.219115
O O2 0.062689 0.829279 0.243225
O O3 0.193433 0.822950 0.911276
O O4 0.166666 0.003527 0.040599
O O5 0.545588 0.345126 0.705980
O O6 0.522972 0.303190 0.463195
O O7 0.626326 0.486875 0.484714
O O8 0.727109 0.204380 0.734055
O O9 0.291151 0.186679 0.902761
O O10 0.375545 0.316315 0.045646
O O11 0.094044 0.301746 0.419331
O O12 0.131903 0.151847 0.580384
O O13 0.056052 0.807660 0.741280
O O14 0.152696 0.650774 0.814403
O O15 0.079293 0.070571 0.849476
O O16 0.934583 0.971464 0.716898
#
# Coordination Sequence:
#
# PCOD9115692 Si02
#       8
#     2   2   2   2   2   2   2   2
#     4  12  24  43  70 105 136 172 241 288 328 421
#     4  11  21  45  73  93 135 188 228 280 345 407
#     4  11  23  45  68  95 143 183 222 284 353 406
#     4  12  26  44  67 105 143 174 228 297 346 419
#     4  10  20  42  69  95 136 177 226 280 335 407
#     4  11  22  44  72 101 134 187 233 284 341 416
#     4  10  22  45  65  96 143 177 222 286 346 404
#     4  11  22  44  72 100 138 184 236 281 346 410
#
# _framework density 21.248501999999998
#
# number of rings (size 3 to 8) (size 9 to 14) (size 15 to 20)
#    0.000    1.000    8.750    0.000    0.000    6.000 
#    6.750    0.000    0.000    0.000    0.000    0.000 
#    0.000    0.000    0.000    0.000    0.000    0.000 
#
# Total GULP energy -89357.271515 kJ/mol
# GULP energy per Si atom -5584.829470 kJ/mol
# Density = 2.120014 g / cm^3
# Si number density = 21.248502 Si / 1000 Ang^3
#
#
#
# Elastic Constant Matrix: (Units=GPa)
#
#
# Indices 1 2 3 4 5 6 
#
# 1 32.0190 15.7995 16.2952 0.0000 -0.0137 0.0000
# 2 15.7995 114.2073 37.7714 0.0000 28.4195 0.0000
# 3 16.2952 37.7714 129.1916 0.0000 36.9581 0.0000
# 4 0.0000 0.0000 0.0000 36.9546 0.0000 4.9212
# 5 -0.0137 28.4195 36.9581 0.0000 29.4832 0.0000
# 6 0.0000 0.0000 0.0000 4.9212 0.0000 26.5121
#
#
#
# Elastic Compliance Matrix: (Units=1/GPa)
#
#
# Indices 1 2 3 4 5 6 
#
# 1 0.038347 -0.006802 -0.007373 0.000000 0.015817 0.000000
# 2 -0.006802 0.012733 0.001009 0.000000 -0.013542 0.000000
# 3 -0.007373 0.001009 0.013493 0.000000 -0.017890 0.000000
# 4 0.000000 0.000000 0.000000 0.027746 0.000000 -0.005150
# 5 0.015817 -0.013542 -0.017890 0.000000 0.069405 0.000000
# 6 0.000000 0.000000 0.000000 -0.005150 0.000000 0.038675
#
#
# Mechanical properties :
#
#
# Convention : Reuss Voigt Hill
#
# Bulk Modulus (GPa) = 26.14962 46.12778 36.13870
# Shear Modulus (GPa) = 20.87877 32.29343 26.58610
#
# Velocity S-wave (km/s) = 3.13805 3.90269 3.54107
# Velocity P-wave (km/s) = 5.04609 6.48566 5.81063
#
# Compressibility (1/GPa) = 0.03824148
#
# Stress axis : x y z
#
# Youngs Moduli (GPa) = 26.07765 78.53560 74.11106
#
# Poissons Ratio (x) = 0.53424 0.54640
# Poissons Ratio (y) = 0.17739 -0.07480
# Poissons Ratio (z) = 0.19226 -0.07926
#
# Static dielectric constant tensor:
#      x y z
#    x 1.807160 0.000000 -0.050850 
#    y 0.000000 1.798770 0.000000 
#    z -0.050850 0.000000 1.757250 
# 
# From -- ./inp_files/6403.got.cif
#   From: 2010.05.17/outbox.cif.g08.bks.cpg/sg4_4_cif.got.tgz:6403.got - 2010.06.03 18:43:04.
