data_PCOD9115094
_publ_section_title
;
Structure prediction by ZEFSAII (Michael W. Deem and Ramdas Pophale) SiO2 
 PCOD9115094
Probable space group: P 21
;
_chemical_formula_sum "Si O2"
_cell_formula_units_Z 10
_cell_length_a 8.169101
_cell_length_b 7.178195
_cell_length_c 12.719416
_cell_angle_alpha 90.000000
_cell_angle_beta 145.616877
_cell_angle_gamma 90.000000
_cell_volume 421.204385
_symmetry_space_group_name_H-M "P 21"
_symmetry_group_IT_number 4
_symmetry_cell_setting 'monoclinic'
loop_
_space_group_symop_operation_xyz
x,y,z
-x,1/2+y,-z
loop_
_atom_site_type_symbol
_atom_site_label
_atom_site_fract_x
_atom_site_fract_y
_atom_site_fract_z
Si Si1 0.417402 0.429360 0.134400
Si Si2 0.821161 0.451575 0.736089
Si Si3 0.339509 0.714695 0.539655
Si Si4 0.869380 0.173739 0.284448
Si Si5 0.749720 0.778814 0.322116
O O1 0.554402 0.362558 0.317077
O O2 0.606662 0.321467 0.145819
O O3 0.471102 0.650677 0.159700
O O4 0.083286 0.377322 0.945398
O O5 0.569769 0.551465 0.666250
O O6 0.672621 0.300031 0.582752
O O7 0.983695 0.597722 0.743275
O O8 0.005421 0.679472 0.389667
O O9 0.119827 0.257584 0.491982
O O10 0.743746 0.988607 0.276729
#
# Coordination Sequence:
#
# PCOD9115094 Si02
#       5
#     2   2   2   2   2
#     4  11  24  45  65  99 131 179 224 264 329 391
#     4  11  25  43  66 100 134 170 223 270 332 394
#     4  10  25  45  62 100 134 177 207 279 338 377
#     4  10  21  40  70  99 126 175 219 271 322 389
#     4  10  19  43  69  92 135 171 219 268 329 385
#
# _framework density 23.741444000000001
#
# number of rings (size 3 to 8) (size 9 to 14) (size 15 to 20)
#    0.000    1.600    6.000    0.000    8.400    1.600 
#   10.800    0.000    0.000    0.000    0.000    0.000 
#    0.000    0.000    0.000    0.000    0.000    0.000 
#
# Total GULP energy -55921.500256 kJ/mol
# GULP energy per Si atom -5592.150026 kJ/mol
# Density = 2.368741 g / cm^3
# Si number density = 23.741444 Si / 1000 Ang^3
#
#
#
# Elastic Constant Matrix: (Units=GPa)
#
#
# Indices 1 2 3 4 5 6 
#
# 1 24.9474 -5.0050 7.5362 0.0000 5.4987 0.0000
# 2 -5.0050 78.9282 17.7009 0.0000 4.6136 0.0000
# 3 7.5362 17.7009 100.4995 0.0000 8.7328 0.0000
# 4 0.0000 0.0000 0.0000 22.7661 0.0000 11.2629
# 5 5.4987 4.6136 8.7328 0.0000 22.6275 0.0000
# 6 0.0000 0.0000 0.0000 11.2629 0.0000 43.2496
#
#
#
# Elastic Compliance Matrix: (Units=1/GPa)
#
#
# Indices 1 2 3 4 5 6 
#
# 1 0.044137 0.004107 -0.003133 0.000000 -0.010354 0.000000
# 2 0.004107 0.013649 -0.002466 0.000000 -0.002829 0.000000
# 3 -0.003133 -0.002466 0.010874 0.000000 -0.002933 0.000000
# 4 0.000000 0.000000 0.000000 0.050421 0.000000 -0.013130
# 5 -0.010354 -0.002829 -0.002933 0.000000 0.048419 0.000000
# 6 0.000000 0.000000 0.000000 -0.013130 0.000000 0.026541
#
#
# Mechanical properties :
#
#
# Convention : Reuss Voigt Hill
#
# Bulk Modulus (GPa) = 15.22659 27.20437 21.21548
# Shear Modulus (GPa) = 22.83967 30.00483 26.42225
#
# Velocity S-wave (km/s) = 3.10500 3.55888 3.33966
# Velocity P-wave (km/s) = 4.39115 5.32644 4.88125
#
# Compressibility (1/GPa) = 0.06567458
#
# Stress axis : x y z
#
# Youngs Moduli (GPa) = 22.65680 73.26766 91.95890
#
# Poissons Ratio (x) = -0.30089 0.28814
# Poissons Ratio (y) = -0.09305 0.22677
# Poissons Ratio (z) = 0.07099 0.18068
#
# Static dielectric constant tensor:
#      x y z
#    x 1.927220 0.000000 -0.019140 
#    y 0.000000 1.932920 0.000000 
#    z -0.019140 0.000000 1.851710 
# 
# From -- ./inp_files/5185.got.cif
#   From: 2010.05.17/outbox.cif.g08.bks.cpg/sg4_3_cif.got.tgz:5185.got - 2010.06.03 18:43:04.
