data_PCOD9115764
_publ_section_title
;
Structure prediction by ZEFSAII (Michael W. Deem and Ramdas Pophale) SiO2 
 PCOD9115764
Probable space group: P 21
;
_chemical_formula_sum "Si O2"
_cell_formula_units_Z 10
_cell_length_a 5.366731
_cell_length_b 13.793230
_cell_length_c 5.258876
_cell_angle_alpha 90.000000
_cell_angle_beta 82.115338
_cell_angle_gamma 90.000000
_cell_volume 385.605733
_symmetry_space_group_name_H-M "P 21"
_symmetry_group_IT_number 4
_symmetry_cell_setting 'monoclinic'
loop_
_space_group_symop_operation_xyz
x,y,z
-x,1/2+y,-z
loop_
_atom_site_type_symbol
_atom_site_label
_atom_site_fract_x
_atom_site_fract_y
_atom_site_fract_z
Si Si1 0.223167 0.776770 0.019863
Si Si2 0.577065 0.459072 0.796599
Si Si3 0.099057 0.412445 0.634072
Si Si4 0.638276 0.737234 0.638585
Si Si5 0.553823 0.628532 0.144426
O O1 0.343849 0.767118 0.725190
O O2 0.429191 0.844785 0.140027
O O3 0.270026 0.671815 0.138800
O O4 0.988232 0.843865 0.114737
O O5 0.327816 0.481927 0.675244
O O6 0.842358 0.469056 0.615274
O O7 0.571448 0.517527 0.060518
O O8 0.199511 0.333015 0.424763
O O9 0.649658 0.665988 0.398104
O O10 0.702707 0.679504 0.887052
#
# Coordination Sequence:
#
# PCOD9115764 Si02
#       5
#     2   2   2   2   2
#     4   8  22  42  70  94 142 180 228 278 354 396
#     4  10  22  44  69 105 135 185 232 285 343 415
#     4  10  20  46  68  99 138 183 229 282 349 405
#     4  10  20  46  68  99 138 183 229 282 349 405
#     4  10  22  44  69 105 135 185 232 285 343 415
#
# _framework density 25.933225
#
# number of rings (size 3 to 8) (size 9 to 14) (size 15 to 20)
#    2.400    0.000    2.000    0.000    0.000    3.200 
#   14.400    2.000    0.000    0.000    0.000    0.000 
#    0.000    0.000    0.000    0.000    0.000    0.000 
#
# Total GULP energy -55714.690900 kJ/mol
# GULP energy per Si atom -5571.469090 kJ/mol
# Density = 2.587420 g / cm^3
# Si number density = 25.933225 Si / 1000 Ang^3
#
#
#
# Elastic Constant Matrix: (Units=GPa)
#
#
# Indices 1 2 3 4 5 6 
#
# 1 125.8301 -0.2933 24.5341 0.0000 -17.7974 0.0000
# 2 -0.2933 33.8126 8.7784 0.0000 4.1772 0.0000
# 3 24.5341 8.7784 127.3360 0.0000 -0.4329 0.0000
# 4 0.0000 0.0000 0.0000 41.9625 0.0000 -2.1128
# 5 -17.7974 4.1772 -0.4329 0.0000 28.7837 0.0000
# 6 0.0000 0.0000 0.0000 -2.1128 0.0000 13.8846
#
#
#
# Elastic Compliance Matrix: (Units=1/GPa)
#
#
# Indices 1 2 3 4 5 6 
#
# 1 0.009075 -0.000168 -0.001718 0.000000 0.005610 0.000000
# 2 -0.000168 0.030685 -0.002099 0.000000 -0.004589 0.000000
# 3 -0.001718 -0.002099 0.008327 0.000000 -0.000632 0.000000
# 4 0.000000 0.000000 0.000000 0.024015 0.000000 0.003654
# 5 0.005610 -0.004589 -0.000632 0.000000 0.038867 0.000000
# 6 0.000000 0.000000 0.000000 0.003654 0.000000 0.072578
#
#
# Mechanical properties :
#
#
# Convention : Reuss Voigt Hill
#
# Bulk Modulus (GPa) = 24.92674 39.22411 32.07543
# Shear Modulus (GPa) = 24.40342 33.85679 29.13011
#
# Velocity S-wave (km/s) = 3.07092 3.61714 3.35516
# Velocity P-wave (km/s) = 4.71241 5.70989 5.23496
#
# Compressibility (1/GPa) = 0.04011756
#
# Stress axis : x y z
#
# Youngs Moduli (GPa) = 110.18980 32.58912 120.09487
#
# Poissons Ratio (x) = 0.00549 0.20631
# Poissons Ratio (y) = 0.01855 0.25203
# Poissons Ratio (z) = 0.18929 0.06839
#
# Static dielectric constant tensor:
#      x y z
#    x 2.171370 0.000000 0.004410 
#    y 0.000000 1.989250 0.000000 
#    z 0.004410 0.000000 2.064700 
# 
# From -- ./inp_files/253.got.cif
#   From: 2010.05.17/outbox.cif.g08.bks.cpg/sg4_1_cif.got.tgz:253.got - 2010.06.03 18:43:04.
