data_PCOD9115214
_publ_section_title
;
Structure prediction by ZEFSAII (Michael W. Deem and Ramdas Pophale) SiO2 
 PCOD9115214
Probable space group: P 21
;
_chemical_formula_sum "Si O2"
_cell_formula_units_Z 14
_cell_length_a 7.688345
_cell_length_b 8.619223
_cell_length_c 12.686992
_cell_angle_alpha 90.000000
_cell_angle_beta 132.071643
_cell_angle_gamma 90.000000
_cell_volume 624.084692
_symmetry_space_group_name_H-M "P 21"
_symmetry_group_IT_number 4
_symmetry_cell_setting 'monoclinic'
loop_
_space_group_symop_operation_xyz
x,y,z
-x,1/2+y,-z
loop_
_atom_site_type_symbol
_atom_site_label
_atom_site_fract_x
_atom_site_fract_y
_atom_site_fract_z
Si Si1 0.356111 0.431660 0.005480
Si Si2 0.493371 0.195194 0.532801
Si Si3 0.586645 0.998802 0.391974
Si Si4 0.997456 0.068089 0.268304
Si Si5 0.500937 0.107785 0.131234
Si Si6 0.343619 0.026389 0.676970
Si Si7 0.002224 0.312299 0.555645
O O1 0.346527 0.250236 0.028171
O O2 0.497598 0.511485 0.156749
O O3 0.104669 0.513554 0.885165
O O4 0.496028 0.466320 0.952298
O O5 0.543806 0.368890 0.590562
O O6 0.489104 0.092466 0.636692
O O7 0.231469 0.167817 0.376764
O O8 0.653084 0.129931 0.504039
O O9 0.803747 0.904830 0.434939
O O10 0.459123 0.058954 0.234785
O O11 0.775315 0.158316 0.228644
O O12 0.006261 0.909559 0.339785
O O13 0.128358 0.146027 0.608794
O O14 0.237674 0.861431 0.599189
#
# Coordination Sequence:
#
# PCOD9115214 Si02
#       7
#     2   2   2   2   2   2   2
#     4  10  20  35  66  87 119 154 199 254 307 355
#     4  10  22  39  59  85 124 165 199 257 292 365
#     4  10  22  36  61  85 126 160 207 244 302 356
#     4   8  19  37  60  85 121 149 201 252 303 354
#     4   9  21  37  62  89 119 156 201 247 307 361
#     4  10  21  33  62  87 117 154 202 252 310 351
#     4   9  19  35  54  90 114 150 201 254 295 360
#
# _framework density 22.432853999999999
#
# number of rings (size 3 to 8) (size 9 to 14) (size 15 to 20)
#    0.857    1.714    0.000    0.857   12.000    1.143 
#    0.000    0.000   12.571    0.000    0.000    0.000 
#    0.000    0.000    0.000    0.000    0.000    0.000 
#
# Total GULP energy -78020.877102 kJ/mol
# GULP energy per Si atom -5572.919793 kJ/mol
# Density = 2.238180 g / cm^3
# Si number density = 22.432854 Si / 1000 Ang^3
#
#
#
# Elastic Constant Matrix: (Units=GPa)
#
#
# Indices 1 2 3 4 5 6 
#
# 1 58.0528 11.7817 20.2091 0.0000 -9.6587 0.0000
# 2 11.7817 86.2929 50.7229 0.0000 -16.0227 0.0000
# 3 20.2091 50.7229 152.9806 0.0000 -19.2808 0.0000
# 4 0.0000 0.0000 0.0000 43.1653 0.0000 -7.0395
# 5 -9.6587 -16.0227 -19.2808 0.0000 30.8229 0.0000
# 6 0.0000 0.0000 0.0000 -7.0395 0.0000 31.9750
#
#
#
# Elastic Compliance Matrix: (Units=1/GPa)
#
#
# Indices 1 2 3 4 5 6 
#
# 1 0.018694 -0.000754 -0.001662 0.000000 0.004427 0.000000
# 2 -0.000754 0.015134 -0.004295 0.000000 0.004944 0.000000
# 3 -0.001662 -0.004295 0.008504 0.000000 0.002566 0.000000
# 4 0.000000 0.000000 0.000000 0.024029 0.000000 0.005290
# 5 0.004427 0.004944 0.002566 0.000000 0.038006 0.000000
# 6 0.000000 0.000000 0.000000 0.005290 0.000000 0.032439
#
#
# Mechanical properties :
#
#
# Convention : Reuss Voigt Hill
#
# Bulk Modulus (GPa) = 34.58955 51.41709 43.00332
# Shear Modulus (GPa) = 31.27662 35.50015 33.38838
#
# Velocity S-wave (km/s) = 3.73799 3.98239 3.86213
# Velocity P-wave (km/s) = 5.83804 6.64200 6.25295
#
# Compressibility (1/GPa) = 0.02891047
#
# Stress axis : x y z
#
# Youngs Moduli (GPa) = 53.49428 66.07602 117.59396
#
# Poissons Ratio (x) = 0.04979 0.19541
# Poissons Ratio (y) = 0.04031 0.50509
# Poissons Ratio (z) = 0.08889 0.28381
#
# Static dielectric constant tensor:
#      x y z
#    x 1.936840 0.000000 -0.001030 
#    y 0.000000 1.906250 0.000000 
#    z -0.001030 0.000000 1.847600 
# 
# From -- ./inp_files/10895.got.cif
#   From: 2010.05.17/outbox.cif.g08.bks.cpg/sg4_6_cif.got.tgz:10895.got - 2010.06.03 18:43:04.
