data_PCOD9115200
_publ_section_title
;
Structure prediction by ZEFSAII (Michael W. Deem and Ramdas Pophale) SiO2 
 PCOD9115200
Probable space group: P 21
;
_chemical_formula_sum "Si O2"
_cell_formula_units_Z 16
_cell_length_a 20.464596
_cell_length_b 8.286500
_cell_length_c 10.476849
_cell_angle_alpha 90.000000
_cell_angle_beta 27.695334
_cell_angle_gamma 90.000000
_cell_volume 825.739436
_symmetry_space_group_name_H-M "P 21"
_symmetry_group_IT_number 4
_symmetry_cell_setting 'monoclinic'
loop_
_space_group_symop_operation_xyz
x,y,z
-x,1/2+y,-z
loop_
_atom_site_type_symbol
_atom_site_label
_atom_site_fract_x
_atom_site_fract_y
_atom_site_fract_z
Si Si1 0.704206 0.480280 0.791086
Si Si2 0.394916 0.611698 0.036168
Si Si3 0.885239 0.993489 0.568775
Si Si4 0.691944 0.481832 0.511540
Si Si5 0.133368 0.500331 0.891028
Si Si6 0.031586 0.132429 0.065581
Si Si7 0.592412 0.113104 0.685213
Si Si8 0.012672 0.126126 0.606539
O O1 0.656610 0.295282 0.886967
O O2 0.730237 0.510357 0.594721
O O3 0.845313 0.521459 0.621406
O O4 0.570671 0.586983 0.063770
O O5 0.282652 0.502224 0.157435
O O6 0.393165 0.567438 0.189852
O O7 0.555094 0.588227 0.716772
O O8 0.935638 0.079944 0.609745
O O9 0.940573 0.811481 0.472471
O O10 0.949993 0.084709 0.334315
O O11 0.826915 0.527842 0.196104
O O12 0.642595 0.297226 0.584116
O O13 0.066381 0.593598 0.886152
O O14 0.085375 0.585691 0.103388
O O15 0.074367 0.319183 0.991978
O O16 0.300428 0.505575 0.581064
#
# Coordination Sequence:
#
# PCOD9115200 Si02
#       8
#     2   2   2   2   2   2   2   2
#     4  10  20  36  59  88 123 159 200 246 300 358
#     4  10  20  36  59  88 123 159 200 246 300 358
#     4  12  25  42  63  88 123 163 203 248 303 363
#     4  10  20  35  59  90 123 157 199 249 301 353
#     4  12  23  38  61  91 123 158 203 252 301 353
#     4  12  23  38  61  91 123 158 203 252 301 353
#     4  10  20  35  59  90 123 157 199 249 301 353
#     4  12  25  42  63  88 123 163 203 248 303 363
#
# _framework density 19.376573
#
# number of rings (size 3 to 8) (size 9 to 14) (size 15 to 20)
#    0.000    1.000    2.500    6.000    0.000    2.000 
#    0.000    1.250    0.000    0.000    0.000    0.000 
#    0.000    0.000    0.000    0.000    0.000    0.000 
#
# Total GULP energy -89523.907625 kJ/mol
# GULP energy per Si atom -5595.244227 kJ/mol
# Density = 1.933247 g / cm^3
# Si number density = 19.376573 Si / 1000 Ang^3
#
#
#
# Elastic Constant Matrix: (Units=GPa)
#
#
# Indices 1 2 3 4 5 6 
#
# 1 83.4003 2.9853 34.0685 0.0000 6.9226 0.0000
# 2 2.9853 44.7979 -12.1200 0.0000 9.0178 0.0000
# 3 34.0685 -12.1200 83.8391 0.0000 -5.9908 0.0000
# 4 0.0000 0.0000 0.0000 33.4969 0.0000 -9.4437
# 5 6.9226 9.0178 -5.9908 0.0000 27.6001 0.0000
# 6 0.0000 0.0000 0.0000 -9.4437 0.0000 21.9085
#
#
#
# Elastic Compliance Matrix: (Units=1/GPa)
#
#
# Indices 1 2 3 4 5 6 
#
# 1 0.015222 -0.001913 -0.006796 0.000000 -0.004668 0.000000
# 2 -0.001913 0.024871 0.003887 0.000000 -0.006803 0.000000
# 3 -0.006796 0.003887 0.015523 0.000000 0.003804 0.000000
# 4 0.000000 0.000000 0.000000 0.033983 0.000000 0.014649
# 5 -0.004668 -0.006803 0.003804 0.000000 0.040451 0.000000
# 6 0.000000 0.000000 0.000000 0.014649 0.000000 0.051959
#
#
# Mechanical properties :
#
#
# Convention : Reuss Voigt Hill
#
# Bulk Modulus (GPa) = 21.75268 29.10055 25.42661
# Shear Modulus (GPa) = 24.15721 29.07466 26.61594
#
# Velocity S-wave (km/s) = 3.53473 3.87784 3.71025
# Velocity P-wave (km/s) = 5.28296 5.92463 5.61297
#
# Compressibility (1/GPa) = 0.04597135
#
# Stress axis : x y z
#
# Youngs Moduli (GPa) = 65.69276 40.20762 64.42118
#
# Poissons Ratio (x) = 0.07693 0.43780
# Poissons Ratio (y) = 0.12569 -0.25039
# Poissons Ratio (z) = 0.44644 -0.15628
#
# Static dielectric constant tensor:
#      x y z
#    x 1.643280 0.000000 -0.015840 
#    y 0.000000 1.692750 0.000000 
#    z -0.015840 0.000000 1.669650 
# 
# From -- ./inp_files/5814.got.cif
#   From: 2010.05.17/outbox.cif.g08.bks.cpg/sg4_3_cif.got.tgz:5814.got - 2010.06.03 18:43:04.
