data_PCOD9115071
_publ_section_title
;
Structure prediction by ZEFSAII (Michael W. Deem and Ramdas Pophale) SiO2 
 PCOD9115071
Probable space group: P 21
;
_chemical_formula_sum "Si O2"
_cell_formula_units_Z 14
_cell_length_a 12.462609
_cell_length_b 8.691303
_cell_length_c 9.101241
_cell_angle_alpha 90.000000
_cell_angle_beta 146.241929
_cell_angle_gamma 90.000000
_cell_volume 547.803733
_symmetry_space_group_name_H-M "P 21"
_symmetry_group_IT_number 4
_symmetry_cell_setting 'monoclinic'
loop_
_space_group_symop_operation_xyz
x,y,z
-x,1/2+y,-z
loop_
_atom_site_type_symbol
_atom_site_label
_atom_site_fract_x
_atom_site_fract_y
_atom_site_fract_z
Si Si1 0.931127 0.899810 0.447439
Si Si2 0.819939 0.209856 0.044298
Si Si3 0.385007 0.392698 0.122402
Si Si4 0.346473 0.506105 0.630098
Si Si5 0.322465 0.987284 0.749780
Si Si6 0.563240 0.480089 0.612717
Si Si7 0.208867 0.186795 0.360133
O O1 0.820894 0.018155 0.434046
O O2 0.043859 0.782420 0.678295
O O3 0.104940 0.962645 0.548409
O O4 0.781038 0.816588 0.165478
O O5 0.699264 0.070669 0.976429
O O6 0.978493 0.157214 0.104048
O O7 0.685824 0.346350 0.831435
O O8 0.580822 0.364979 0.252586
O O9 0.427052 0.391979 0.341286
O O10 0.450890 0.582729 0.606329
O O11 0.255677 0.365708 0.429943
O O12 0.531919 0.487402 0.948631
O O13 0.311715 0.131003 0.628506
O O14 0.698571 0.588695 0.665875
#
# Coordination Sequence:
#
# PCOD9115071 Si02
#       7
#     2   2   2   2   2   2   2
#     4  10  21  41  71  96 123 176 223 272 322 395
#     4  11  22  43  71  96 137 176 216 274 334 384
#     4  10  23  42  67  98 132 174 214 275 330 384
#     4  10  22  42  67  96 135 169 215 275 330 383
#     4  10  19  40  70  93 125 170 223 268 326 388
#     4  11  22  40  69  98 137 178 217 266 332 398
#     4  10  23  42  69  99 133 179 216 272 334 388
#
# _framework density 25.556598000000001
#
# number of rings (size 3 to 8) (size 9 to 14) (size 15 to 20)
#    0.000    1.714    2.857    1.714    0.000    2.286 
#    0.000   14.286    0.000    0.000    0.000    0.000 
#    0.000    0.000    0.000    0.000    0.000    0.000 
#
# Total GULP energy -78038.547447 kJ/mol
# GULP energy per Si atom -5574.181960 kJ/mol
# Density = 2.549843 g / cm^3
# Si number density = 25.556598 Si / 1000 Ang^3
#
#
#
# Elastic Constant Matrix: (Units=GPa)
#
#
# Indices 1 2 3 4 5 6 
#
# 1 218.3742 19.8314 52.4164 0.0000 4.0411 0.0000
# 2 19.8314 28.0839 5.9121 0.0000 -4.4748 0.0000
# 3 52.4164 5.9121 132.3148 0.0000 1.8907 0.0000
# 4 0.0000 0.0000 0.0000 26.0284 0.0000 3.5030
# 5 4.0411 -4.4748 1.8907 0.0000 50.1161 0.0000
# 6 0.0000 0.0000 0.0000 3.5030 0.0000 40.6477
#
#
#
# Elastic Compliance Matrix: (Units=1/GPa)
#
#
# Indices 1 2 3 4 5 6 
#
# 1 0.005381 -0.003493 -0.001966 0.000000 -0.000672 0.000000
# 2 -0.003493 0.038757 -0.000402 0.000000 0.003757 0.000000
# 3 -0.001966 -0.000402 0.008357 0.000000 -0.000193 0.000000
# 4 0.000000 0.000000 0.000000 0.038870 0.000000 -0.003350
# 5 -0.000672 0.003757 -0.000193 0.000000 0.020351 0.000000
# 6 0.000000 0.000000 0.000000 -0.003350 0.000000 0.024890
#
#
# Mechanical properties :
#
#
# Convention : Reuss Voigt Hill
#
# Bulk Modulus (GPa) = 24.52527 59.45476 41.99002
# Shear Modulus (GPa) = 30.87961 43.39930 37.13945
#
# Velocity S-wave (km/s) = 3.47981 4.12535 3.81625
# Velocity P-wave (km/s) = 5.07570 6.78276 5.99035
#
# Compressibility (1/GPa) = 0.04077427
#
# Stress axis : x y z
#
# Youngs Moduli (GPa) = 185.84594 25.80162 119.65670
#
# Poissons Ratio (x) = 0.09012 0.23524
# Poissons Ratio (y) = 0.64912 0.04808
# Poissons Ratio (z) = 0.36536 0.01037
#
# Static dielectric constant tensor:
#      x y z
#    x 2.135280 0.000000 0.033240 
#    y 0.000000 2.209290 0.000000 
#    z 0.033240 0.000000 1.987910 
# 
# From -- ./inp_files/8235.got.cif
#   From: 2010.05.17/outbox.cif.g08.bks.cpg/sg4_5_cif.got.tgz:8235.got - 2010.06.03 18:43:04.
