data_PCOD9115355
_publ_section_title
;
Structure prediction by ZEFSAII (Michael W. Deem and Ramdas Pophale) SiO2 
 PCOD9115355
Probable space group: P 21
;
_chemical_formula_sum "Si O2"
_cell_formula_units_Z 16
_cell_length_a 12.826741
_cell_length_b 9.542149
_cell_length_c 7.119082
_cell_angle_alpha 90.000000
_cell_angle_beta 135.331419
_cell_angle_gamma 90.000000
_cell_volume 612.554616
_symmetry_space_group_name_H-M "P 21"
_symmetry_group_IT_number 4
_symmetry_cell_setting 'monoclinic'
loop_
_space_group_symop_operation_xyz
x,y,z
-x,1/2+y,-z
loop_
_atom_site_type_symbol
_atom_site_label
_atom_site_fract_x
_atom_site_fract_y
_atom_site_fract_z
Si Si1 0.633174 0.446600 0.146816
Si Si2 0.822345 0.818150 0.086625
Si Si3 0.794852 0.713565 0.467206
Si Si4 0.854102 0.210757 0.513677
Si Si5 0.443537 0.134645 0.413239
Si Si6 0.664478 0.969401 0.418297
Si Si7 0.677467 0.362263 0.787037
Si Si8 0.883875 0.131770 0.112005
O O1 0.670326 0.601148 0.261612
O O2 0.723304 0.325622 0.368707
O O3 0.455824 0.433649 0.901510
O O4 0.701241 0.431402 0.022109
O O5 0.829762 0.804095 0.324198
O O6 0.981826 0.760669 0.222600
O O7 0.811237 0.978952 0.005020
O O8 0.682486 0.724302 0.851151
O O9 0.942351 0.628742 0.706288
O O10 0.740057 0.820388 0.554356
O O11 0.798249 0.071132 0.539996
O O12 0.862958 0.172544 0.303631
O O13 0.560921 0.056431 0.426262
O O14 0.545350 0.248949 0.647405
O O15 0.367046 0.993908 0.399843
O O16 0.813577 0.262659 0.910385
#
# Coordination Sequence:
#
# PCOD9115355 Si02
#       8
#     2   2   2   2   2   2   2   2
#     4  10  20  38  58  95 128 170 208 266 338 389
#     4  11  20  37  61  94 129 173 218 270 333 396
#     4  11  20  36  60  98 135 164 207 277 342 397
#     4  10  21  33  60  95 130 161 214 271 344 395
#     4  11  24  42  67  93 129 177 226 269 321 393
#     4  11  22  36  62  94 134 167 206 278 338 388
#     4  10  22  41  64  91 125 173 230 262 308 405
#     4  10  21  35  64  94 124 173 217 271 332 387
#
# _framework density 26.120121000000001
#
# number of rings (size 3 to 8) (size 9 to 14) (size 15 to 20)
#    0.000    1.500    5.000    1.500    1.750    0.000 
#    0.000    2.500    8.250    0.000    0.000    0.000 
#    0.000    0.000    0.000    0.000    0.000    0.000 
#
# Total GULP energy -89551.483617 kJ/mol
# GULP energy per Si atom -5596.967726 kJ/mol
# Density = 2.606067 g / cm^3
# Si number density = 26.120121 Si / 1000 Ang^3
#
#
#
# Elastic Constant Matrix: (Units=GPa)
#
#
# Indices 1 2 3 4 5 6 
#
# 1 77.2751 28.1706 14.2557 0.0000 1.5323 0.0000
# 2 28.1706 190.4282 37.7593 0.0000 -6.9723 0.0000
# 3 14.2557 37.7593 80.4425 0.0000 10.5169 0.0000
# 4 0.0000 0.0000 0.0000 60.0209 0.0000 8.9486
# 5 1.5323 -6.9723 10.5169 0.0000 27.7261 0.0000
# 6 0.0000 0.0000 0.0000 8.9486 0.0000 36.9168
#
#
#
# Elastic Compliance Matrix: (Units=1/GPa)
#
#
# Indices 1 2 3 4 5 6 
#
# 1 0.013884 -0.001770 -0.001548 0.000000 -0.000625 0.000000
# 2 -0.001770 0.006202 -0.002961 0.000000 0.002781 0.000000
# 3 -0.001548 -0.002961 0.014922 0.000000 -0.006319 0.000000
# 4 0.000000 0.000000 0.000000 0.017286 0.000000 -0.004190
# 5 -0.000625 0.002781 -0.006319 0.000000 0.039198 0.000000
# 6 0.000000 0.000000 0.000000 -0.004190 0.000000 0.028104
#
#
# Mechanical properties :
#
#
# Convention : Reuss Voigt Hill
#
# Bulk Modulus (GPa) = 44.54380 56.50190 50.52285
# Shear Modulus (GPa) = 35.80744 42.79678 39.30211
#
# Velocity S-wave (km/s) = 3.70655 4.05218 3.88321
# Velocity P-wave (km/s) = 5.95050 6.60092 6.28413
#
# Compressibility (1/GPa) = 0.02244981
#
# Stress axis : x y z
#
# Youngs Moduli (GPa) = 72.02563 161.23557 67.01669
#
# Poissons Ratio (x) = 0.28536 0.10374
# Poissons Ratio (y) = 0.12747 0.19845
# Poissons Ratio (z) = 0.11149 0.47744
#
# Static dielectric constant tensor:
#      x y z
#    x 2.085230 0.000000 -0.076500 
#    y 0.000000 2.002180 0.000000 
#    z -0.076500 0.000000 2.050110 
# 
# From -- ./inp_files/12888.got.cif
#   From: 2010.05.17/outbox.cif.g08.bks.cpg/sg4_7_cif.got.tgz:12888.got - 2010.06.03 18:43:04.
