data_PCOD9115210
_publ_section_title
;
Structure prediction by ZEFSAII (Michael W. Deem and Ramdas Pophale) SiO2 
 PCOD9115210
Probable space group: P 21
;
_chemical_formula_sum "Si O2"
_cell_formula_units_Z 16
_cell_length_a 10.230994
_cell_length_b 9.452891
_cell_length_c 7.676023
_cell_angle_alpha 90.000000
_cell_angle_beta 56.280389
_cell_angle_gamma 90.000000
_cell_volume 617.474393
_symmetry_space_group_name_H-M "P 21"
_symmetry_group_IT_number 4
_symmetry_cell_setting 'monoclinic'
loop_
_space_group_symop_operation_xyz
x,y,z
-x,1/2+y,-z
loop_
_atom_site_type_symbol
_atom_site_label
_atom_site_fract_x
_atom_site_fract_y
_atom_site_fract_z
Si Si1 0.858904 0.211290 0.914072
Si Si2 0.043157 0.816354 0.528279
Si Si3 0.277571 0.449439 0.132500
Si Si4 0.508424 0.287409 0.153453
Si Si5 0.498494 0.303828 0.559720
Si Si6 0.706727 0.544242 0.580435
Si Si7 0.251271 0.584853 0.524537
Si Si8 0.171438 0.291617 0.764558
O O1 0.944328 0.246562 0.669740
O O2 0.992450 0.258305 0.950724
O O3 0.794668 0.050443 0.962918
O O4 0.694974 0.292363 0.026064
O O5 0.123001 0.708133 0.601577
O O6 0.865069 0.846331 0.710731
O O7 0.147169 0.960053 0.444130
O O8 0.440943 0.368158 0.037001
O O9 0.292889 0.552149 0.292404
O O10 0.466227 0.340569 0.380074
O O11 0.418031 0.136549 0.216189
O O12 0.604615 0.424796 0.561260
O O13 0.598925 0.158981 0.494061
O O14 0.325567 0.295531 0.774989
O O15 0.779097 0.654983 0.388780
O O16 0.177328 0.445778 0.667402
#
# Coordination Sequence:
#
# PCOD9115210 Si02
#       8
#     2   2   2   2   2   2   2   2
#     4  11  24  37  58  93 127 155 201 248 322 355
#     4  10  20  37  64  89 117 158 208 244 293 373
#     4  11  21  40  61  89 122 162 209 245 300 375
#     4  11  24  37  61  88 129 161 190 268 308 353
#     4  10  21  39  65  88 114 159 217 241 303 361
#     4  10  20  37  65  87 114 163 206 250 289 361
#     4  10  20  35  64  93 111 151 215 253 281 359
#     4  11  18  36  62  85 120 157 200 251 284 371
#
# _framework density 25.912006000000002
#
# number of rings (size 3 to 8) (size 9 to 14) (size 15 to 20)
#    0.000    1.500    5.000    1.500    3.500    0.000 
#    0.000    2.500    0.000    0.000    0.000    0.000 
#    0.000    0.000    0.000    0.000    0.000    0.000 
#
# Total GULP energy -89402.079360 kJ/mol
# GULP energy per Si atom -5587.629960 kJ/mol
# Density = 2.585303 g / cm^3
# Si number density = 25.912006 Si / 1000 Ang^3
#
#
#
# Elastic Constant Matrix: (Units=GPa)
#
#
# Indices 1 2 3 4 5 6 
#
# 1 117.6415 39.0877 45.6497 0.0000 -43.9370 0.0000
# 2 39.0877 130.0165 26.1131 0.0000 -12.0312 0.0000
# 3 45.6497 26.1131 76.6777 0.0000 -38.9230 0.0000
# 4 0.0000 0.0000 0.0000 27.2932 0.0000 -13.7964
# 5 -43.9370 -12.0312 -38.9230 0.0000 58.7963 0.0000
# 6 0.0000 0.0000 0.0000 -13.7964 0.0000 52.3284
#
#
#
# Elastic Compliance Matrix: (Units=1/GPa)
#
#
# Indices 1 2 3 4 5 6 
#
# 1 0.013407 -0.002679 -0.003407 0.000000 0.007215 0.000000
# 2 -0.002679 0.008794 -0.002263 0.000000 -0.001701 0.000000
# 3 -0.003407 -0.002263 0.021558 0.000000 0.011262 0.000000
# 4 0.000000 0.000000 0.000000 0.042273 0.000000 0.011145
# 5 0.007215 -0.001701 0.011262 0.000000 0.029507 0.000000
# 6 0.000000 0.000000 0.000000 0.011145 0.000000 0.022049
#
#
# Mechanical properties :
#
#
# Convention : Reuss Voigt Hill
#
# Bulk Modulus (GPa) = 36.95430 60.67074 48.81252
# Shear Modulus (GPa) = 30.61744 41.91592 36.26668
#
# Velocity S-wave (km/s) = 3.44116 4.02633 3.74519
# Velocity P-wave (km/s) = 5.48463 6.71417 6.13031
#
# Compressibility (1/GPa) = 0.02706045
#
# Stress axis : x y z
#
# Youngs Moduli (GPa) = 74.58599 113.71560 46.38756
#
# Poissons Ratio (x) = 0.30462 0.15805
# Poissons Ratio (y) = 0.19980 0.10499
# Poissons Ratio (z) = 0.25412 0.25737
#
# Static dielectric constant tensor:
#      x y z
#    x 2.077140 0.000000 -0.017300 
#    y 0.000000 2.066670 0.000000 
#    z -0.017300 0.000000 2.134500 
# 
# From -- ./inp_files/11046.got.cif
#   From: 2010.05.17/outbox.cif.g08.bks.cpg/sg4_6_cif.got.tgz:11046.got - 2010.06.03 18:43:04.
