data_PCOD9115845
_publ_section_title
;
Structure prediction by ZEFSAII (Michael W. Deem and Ramdas Pophale) SiO2 
 PCOD9115845
Probable space group: P 21
;
_chemical_formula_sum "Si O2"
_cell_formula_units_Z 12
_cell_length_a 12.897557
_cell_length_b 5.173124
_cell_length_c 22.828464
_cell_angle_alpha 90.000000
_cell_angle_beta 160.389548
_cell_angle_gamma 90.000000
_cell_volume 511.198168
_symmetry_space_group_name_H-M "P 21"
_symmetry_group_IT_number 4
_symmetry_cell_setting 'monoclinic'
loop_
_space_group_symop_operation_xyz
x,y,z
-x,1/2+y,-z
loop_
_atom_site_type_symbol
_atom_site_label
_atom_site_fract_x
_atom_site_fract_y
_atom_site_fract_z
Si Si1 0.521927 0.780840 0.612409
Si Si2 0.180133 0.068367 0.113976
Si Si3 0.389885 0.381523 0.969262
Si Si4 0.142192 0.354220 0.548718
Si Si5 0.239731 0.124993 0.386413
Si Si6 0.948280 0.467747 0.324887
O O1 0.748768 0.685259 0.783376
O O2 0.599384 0.664644 0.589837
O O3 0.177776 0.709534 0.451692
O O4 0.486493 0.071271 0.570002
O O5 0.507351 0.960271 0.263453
O O6 0.041896 0.316325 0.005753
O O7 0.579817 0.496054 0.125695
O O8 0.485730 0.083284 0.014051
O O9 0.025091 0.415603 0.770631
O O10 0.047125 0.292470 0.431488
O O11 0.076219 0.094278 0.549124
O O12 0.042036 0.346961 0.312277
#
# Coordination Sequence:
#
# PCOD9115845 Si02
#       6
#     2   2   2   2   2   2
#     4  11  23  40  70  98 141 180 235 280 359 424
#     4  11  27  48  73 103 147 192 244 300 353 417
#     4  10  21  37  59  92 130 166 212 265 333 402
#     4  11  26  45  73 100 136 190 244 290 352 422
#     4  11  22  39  66 103 134 178 225 284 358 422
#     4  10  23  41  65  94 138 176 222 289 347 419
#
# _framework density 23.474264999999999
#
# number of rings (size 3 to 8) (size 9 to 14) (size 15 to 20)
#    0.000    1.333    3.333    1.000    9.333    2.667 
#    0.000    3.333    0.000    0.000    0.000    0.000 
#    0.000    0.000    0.000    0.000    0.000    0.000 
#
# Total GULP energy -66802.220184 kJ/mol
# GULP energy per Si atom -5566.851682 kJ/mol
# Density = 2.342084 g / cm^3
# Si number density = 23.474265 Si / 1000 Ang^3
#
#
#
# Elastic Constant Matrix: (Units=GPa)
#
#
# Indices 1 2 3 4 5 6 
#
# 1 78.6587 22.9733 21.5474 0.0000 -5.9068 0.0000
# 2 22.9733 97.9896 28.6686 0.0000 -1.6051 0.0000
# 3 21.5474 28.6686 117.7101 0.0000 -15.4997 0.0000
# 4 0.0000 0.0000 0.0000 39.2411 0.0000 2.2796
# 5 -5.9068 -1.6051 -15.4997 0.0000 23.6819 0.0000
# 6 0.0000 0.0000 0.0000 2.2796 0.0000 38.5335
#
#
#
# Elastic Compliance Matrix: (Units=1/GPa)
#
#
# Indices 1 2 3 4 5 6 
#
# 1 0.014145 -0.002810 -0.001604 0.000000 0.002288 0.000000
# 2 -0.002810 0.011573 -0.002509 0.000000 -0.001559 0.000000
# 3 -0.001604 -0.002509 0.010205 0.000000 0.006109 0.000000
# 4 0.000000 0.000000 0.000000 0.025571 0.000000 -0.001513
# 5 0.002288 -0.001559 0.006109 0.000000 0.046690 0.000000
# 6 0.000000 0.000000 0.000000 -0.001513 0.000000 0.026041
#
#
# Mechanical properties :
#
#
# Convention : Reuss Voigt Hill
#
# Bulk Modulus (GPa) = 45.29713 48.97077 47.13395
# Shear Modulus (GPa) = 32.16919 35.03589 33.60254
#
# Velocity S-wave (km/s) = 3.70591 3.86751 3.78757
# Velocity P-wave (km/s) = 6.13597 6.39142 6.26500
#
# Compressibility (1/GPa) = 0.02207646
#
# Stress axis : x y z
#
# Youngs Moduli (GPa) = 70.69712 86.41166 97.99494
#
# Poissons Ratio (x) = 0.24278 0.15716
# Poissons Ratio (y) = 0.19863 0.24592
# Poissons Ratio (z) = 0.11338 0.21685
#
# Static dielectric constant tensor:
#      x y z
#    x 1.919470 0.000000 0.008540 
#    y 0.000000 2.037790 0.000000 
#    z 0.008540 0.000000 1.981540 
# 
# From -- ./inp_files/7042.got.cif
#   From: 2010.05.17/outbox.cif.g08.bks.cpg/sg4_4_cif.got.tgz:7042.got - 2010.06.03 18:43:04.
