data_PCOD9115062
_publ_section_title
;
Structure prediction by ZEFSAII (Michael W. Deem and Ramdas Pophale) SiO2 
 PCOD9115062
Probable space group: P 21
;
_chemical_formula_sum "Si O2"
_cell_formula_units_Z 16
_cell_length_a 11.741189
_cell_length_b 9.261530
_cell_length_c 17.951278
_cell_angle_alpha 90.000000
_cell_angle_beta 27.030850
_cell_angle_gamma 90.000000
_cell_volume 887.146991
_symmetry_space_group_name_H-M "P 21"
_symmetry_group_IT_number 4
_symmetry_cell_setting 'monoclinic'
loop_
_space_group_symop_operation_xyz
x,y,z
-x,1/2+y,-z
loop_
_atom_site_type_symbol
_atom_site_label
_atom_site_fract_x
_atom_site_fract_y
_atom_site_fract_z
Si Si1 0.570937 0.946340 0.172231
Si Si2 0.211527 0.138432 0.285233
Si Si3 0.691298 0.219226 0.190503
Si Si4 0.059471 0.047506 0.212063
Si Si5 0.371102 0.641661 0.340224
Si Si6 0.039680 0.825053 0.828590
Si Si7 0.572881 0.396181 0.117030
Si Si8 0.548255 0.937024 0.572034
O O1 0.492734 0.793528 0.250494
O O2 0.343382 0.022010 0.261694
O O3 0.654532 0.055713 0.188378
O O4 0.797809 0.922930 0.981867
O O5 0.196459 0.079521 0.210150
O O6 0.374508 0.283693 0.198194
O O7 0.925877 0.160656 0.476893
O O8 0.915270 0.245360 0.117666
O O9 0.713777 0.310048 0.101475
O O10 0.459046 0.293123 0.371172
O O11 0.994830 0.201614 0.212117
O O12 0.801088 0.963227 0.379961
O O13 0.235512 0.957671 0.054671
O O14 0.433434 0.529227 0.238218
O O15 0.473490 0.568633 0.356666
O O16 0.296371 0.916276 0.670383
#
# Coordination Sequence:
#
# PCOD9115062 Si02
#       8
#     2   2   2   2   2   2   2   2
#     4  11  21  37  67  94 116 163 210 264 298 366
#     4  10  24  40  57  92 125 158 210 248 312 374
#     4   8  21  39  59  93 117 152 210 252 304 361
#     4  11  22  41  62  89 127 168 199 254 313 374
#     4  10  19  40  67  89 119 161 203 265 303 359
#     4  10  22  39  63  94 122 157 207 256 309 373
#     4  10  20  39  63  86 122 163 202 255 305 363
#     4   8  21  41  60  89 128 154 199 256 314 372
#
# _framework density 18.035342
#
# number of rings (size 3 to 8) (size 9 to 14) (size 15 to 20)
#    0.750    1.500    1.250    0.750    5.250    1.000 
#    9.000    1.250    0.000    0.000    0.000    0.000 
#    0.000    0.000    0.000    0.000    0.000    0.000 
#
# Total GULP energy -89178.799935 kJ/mol
# GULP energy per Si atom -5573.674996 kJ/mol
# Density = 1.799429 g / cm^3
# Si number density = 18.035342 Si / 1000 Ang^3
#
#
#
# Elastic Constant Matrix: (Units=GPa)
#
#
# Indices 1 2 3 4 5 6 
#
# 1 25.9683 -3.6163 -3.2423 0.0000 -4.1044 0.0000
# 2 -3.6163 84.7346 28.7732 0.0000 -5.3387 0.0000
# 3 -3.2423 28.7732 83.5936 0.0000 11.8776 0.0000
# 4 0.0000 0.0000 0.0000 30.2939 0.0000 -3.8131
# 5 -4.1044 -5.3387 11.8776 0.0000 18.3147 0.0000
# 6 0.0000 0.0000 0.0000 -3.8131 0.0000 20.3673
#
#
#
# Elastic Compliance Matrix: (Units=1/GPa)
#
#
# Indices 1 2 3 4 5 6 
#
# 1 0.040414 0.002656 -0.000819 0.000000 0.010362 0.000000
# 2 0.002656 0.014566 -0.006167 0.000000 0.008840 0.000000
# 3 -0.000819 -0.006167 0.015790 0.000000 -0.012221 0.000000
# 4 0.000000 0.000000 0.000000 0.033807 0.000000 0.006329
# 5 0.010362 0.008840 -0.012221 0.000000 0.067426 0.000000
# 6 0.000000 0.000000 0.000000 0.006329 0.000000 0.050283
#
#
# Mechanical properties :
#
#
# Convention : Reuss Voigt Hill
#
# Bulk Modulus (GPa) = 16.10050 26.45840 21.27945
# Shear Modulus (GPa) = 19.86894 25.28729 22.57812
#
# Velocity S-wave (km/s) = 3.32274 3.74852 3.54203
# Velocity P-wave (km/s) = 4.86491 5.78250 5.34344
#
# Compressibility (1/GPa) = 0.06210986
#
# Stress axis : x y z
#
# Youngs Moduli (GPa) = 24.74401 68.65341 63.33128
#
# Poissons Ratio (x) = -0.18232 0.05186
# Poissons Ratio (y) = -0.06571 0.39055
# Poissons Ratio (z) = 0.02026 0.42337
#
# Static dielectric constant tensor:
#      x y z
#    x 1.611090 0.000000 -0.000890 
#    y 0.000000 1.606210 0.000000 
#    z -0.000890 0.000000 1.604630 
# 
# From -- ./inp_files/9602.got.cif
#   From: 2010.05.17/outbox.cif.g08.bks.cpg/sg4_5_cif.got.tgz:9602.got - 2010.06.03 18:43:04.
