data_PCOD9115455
_publ_section_title
;
Structure prediction by ZEFSAII (Michael W. Deem and Ramdas Pophale) SiO2 
 PCOD9115455
Probable space group: P 21
;
_chemical_formula_sum "Si O2"
_cell_formula_units_Z 16
_cell_length_a 6.780724
_cell_length_b 11.994748
_cell_length_c 10.862317
_cell_angle_alpha 90.000000
_cell_angle_beta 63.138603
_cell_angle_gamma 90.000000
_cell_volume 788.141610
_symmetry_space_group_name_H-M "P 21"
_symmetry_group_IT_number 4
_symmetry_cell_setting 'monoclinic'
loop_
_space_group_symop_operation_xyz
x,y,z
-x,1/2+y,-z
loop_
_atom_site_type_symbol
_atom_site_label
_atom_site_fract_x
_atom_site_fract_y
_atom_site_fract_z
Si Si1 0.242751 0.494020 0.056478
Si Si2 0.390010 0.313696 0.609223
Si Si3 0.367688 0.457796 0.377233
Si Si4 0.802965 0.600269 0.222599
Si Si5 0.709745 0.585822 0.962397
Si Si6 0.799676 0.171164 0.443832
Si Si7 0.200923 0.525846 0.785599
Si Si8 0.214961 0.293227 0.209206
O O1 0.157320 0.368019 0.104602
O O2 0.052639 0.563983 0.177132
O O3 0.494718 0.509416 0.025679
O O4 0.238539 0.539043 0.918744
O O5 0.345781 0.367266 0.490240
O O6 0.245004 0.207862 0.683833
O O7 0.636896 0.265241 0.541467
O O8 0.326076 0.412459 0.718403
O O9 0.616620 0.507589 0.306371
O O10 0.213763 0.564626 0.459323
O O11 0.315481 0.387420 0.270054
O O12 0.764656 0.621941 0.087204
O O13 0.656316 0.690292 0.888658
O O14 0.932552 0.526401 0.848543
O O15 0.717936 0.118458 0.335368
O O16 0.024376 0.232615 0.342051
#
# Coordination Sequence:
#
# PCOD9115455 Si02
#       8
#     2   2   2   2   2   2   2   2
#     4  11  22  38  64  88 117 164 198 251 310 357
#     4  10  20  39  61  85 117 166 192 248 308 347
#     4  10  21  39  61  88 126 159 203 255 296 369
#     4  10  21  41  62  88 125 151 209 253 296 367
#     4  10  22  40  60  90 122 153 203 260 291 365
#     4   9  21  40  60  87 124 159 206 251 294 371
#     4   9  21  40  59  89 121 152 205 249 296 364
#     4  11  22  39  61  91 124 162 202 251 315 348
#
# _framework density 20.300919
#
# number of rings (size 3 to 8) (size 9 to 14) (size 15 to 20)
#    0.000    2.000    1.250    1.500    1.750    2.000 
#    9.000    0.000    0.000    0.000    0.000    0.000 
#    0.000    0.000    0.000    0.000    0.000    0.000 
#
# Total GULP energy -89074.573543 kJ/mol
# GULP energy per Si atom -5567.160846 kJ/mol
# Density = 2.025471 g / cm^3
# Si number density = 20.300919 Si / 1000 Ang^3
#
#
#
# Elastic Constant Matrix: (Units=GPa)
#
#
# Indices 1 2 3 4 5 6 
#
# 1 40.1903 27.7841 20.1007 0.0000 -9.6691 0.0000
# 2 27.7841 103.6774 51.7980 0.0000 -12.7270 0.0000
# 3 20.1007 51.7980 105.0304 0.0000 -16.2250 0.0000
# 4 0.0000 0.0000 0.0000 38.5472 0.0000 7.0184
# 5 -9.6691 -12.7270 -16.2250 0.0000 25.4087 0.0000
# 6 0.0000 0.0000 0.0000 7.0184 0.0000 -1.6362
#
#
#
# Elastic Compliance Matrix: (Units=1/GPa)
#
#
# Indices 1 2 3 4 5 6 
#
# 1 0.032335 -0.006922 -0.001564 0.000000 0.007839 0.000000
# 2 -0.006922 0.014442 -0.005644 0.000000 0.000996 0.000000
# 3 -0.001564 -0.005644 0.013397 0.000000 0.005133 0.000000
# 4 0.000000 0.000000 0.000000 0.014566 0.000000 0.062481
# 5 0.007839 0.000996 0.005133 0.000000 0.046116 0.000000
# 6 0.000000 0.000000 0.000000 0.062481 0.000000 -0.343161
#
#
# Mechanical properties :
#
#
# Convention : Reuss Voigt Hill
#
# Bulk Modulus (GPa) = 31.33330 49.80709 40.57019
# Shear Modulus (GPa) = -27.26152 22.41163 -2.42495
#
# Velocity S-wave (km/s) = -3.66850 3.32621 -1.09412
# Velocity P-wave (km/s) = 1.57349 6.27210 4.29321
#
# Compressibility (1/GPa) = 0.03191492
#
# Stress axis : x y z
#
# Youngs Moduli (GPa) = 30.92654 69.24125 74.64569
#
# Poissons Ratio (x) = 0.47927 0.11672
# Poissons Ratio (y) = 0.21406 0.42130
# Poissons Ratio (z) = 0.04836 0.39080
#
# Static dielectric constant tensor:
#      x y z
#    x 1.763700 0.000000 0.035610 
#    y 0.000000 1.712780 0.000000 
#    z 0.035610 0.000000 1.782170 
# 
# From -- ./inp_files/3027.got.cif
#   From: 2010.05.17/outbox.cif.g08.bks.cpg/sg4_2_cif.got.tgz:3027.got - 2010.06.03 18:43:04.
