data_PCOD9115963
_publ_section_title
;
Structure prediction by ZEFSAII (Michael W. Deem and Ramdas Pophale) SiO2 
 PCOD9115963
Probable space group: P 21
;
_chemical_formula_sum "Si O2"
_cell_formula_units_Z 16
_cell_length_a 8.564253
_cell_length_b 5.228252
_cell_length_c 23.217480
_cell_angle_alpha 90.000000
_cell_angle_beta 38.213571
_cell_angle_gamma 90.000000
_cell_volume 643.083173
_symmetry_space_group_name_H-M "P 21"
_symmetry_group_IT_number 4
_symmetry_cell_setting 'monoclinic'
loop_
_space_group_symop_operation_xyz
x,y,z
-x,1/2+y,-z
loop_
_atom_site_type_symbol
_atom_site_label
_atom_site_fract_x
_atom_site_fract_y
_atom_site_fract_z
Si Si1 0.040648 0.408820 0.275462
Si Si2 0.120015 0.496836 0.586720
Si Si3 0.328827 0.692502 0.277989
Si Si4 0.111355 0.384652 0.129028
Si Si5 0.427924 0.231932 0.598003
Si Si6 0.276478 0.347150 0.965808
Si Si7 0.677105 0.342876 0.119195
Si Si8 0.767847 0.893485 0.225210
O O1 0.176051 0.662330 0.261516
O O2 0.025366 0.196788 0.329480
O O3 0.174735 0.341127 0.177439
O O4 0.753091 0.483906 0.344576
O O5 0.327906 0.367105 0.568758
O O6 0.284154 0.652141 0.493076
O O7 0.920590 0.297662 0.616844
O O8 0.486911 0.426035 0.225394
O O9 0.556882 0.859213 0.237245
O O10 0.961829 0.653766 0.167609
O O11 0.329792 0.379896 0.017826
O O12 0.926099 0.147150 0.170801
O O13 0.365834 0.388462 0.673568
O O14 0.970611 0.361250 0.050805
O O15 0.345061 0.074763 0.920190
O O16 0.372968 0.575175 0.897447
#
# Coordination Sequence:
#
# PCOD9115963 Si02
#       8
#     2   2   2   2   2   2   2   2
#     4  10  23  41  66  93 134 180 230 287 351 423
#     4  11  21  41  67  92 136 183 235 286 352 420
#     4  11  26  41  64 102 137 183 227 304 364 416
#     4  11  22  43  70 100 130 179 241 280 347 434
#     4  10  21  42  65  96 127 183 242 282 341 428
#     4  10  21  38  67  96 128 178 226 285 332 431
#     4  10  22  39  62  99 134 171 226 280 357 408
#     4  11  24  41  69 100 138 177 233 300 348 414
#
# _framework density 24.880140000000001
#
# number of rings (size 3 to 8) (size 9 to 14) (size 15 to 20)
#    0.000    1.500    3.750    0.750    7.000    0.000 
#    2.250    1.250    0.000    0.000    0.000    0.000 
#    0.000    0.000    0.000    0.000    0.000    0.000 
#
# Total GULP energy -89277.930749 kJ/mol
# GULP energy per Si atom -5579.870672 kJ/mol
# Density = 2.482351 g / cm^3
# Si number density = 24.880140 Si / 1000 Ang^3
#
#
#
# Elastic Constant Matrix: (Units=GPa)
#
#
# Indices 1 2 3 4 5 6 
#
# 1 59.2372 31.7165 25.0520 0.0000 -16.3442 0.0000
# 2 31.7165 120.4730 42.9410 0.0000 5.0974 0.0000
# 3 25.0520 42.9410 64.2381 0.0000 -5.4459 0.0000
# 4 0.0000 0.0000 0.0000 47.3562 0.0000 -2.6638
# 5 -16.3442 5.0974 -5.4459 0.0000 39.0758 0.0000
# 6 0.0000 0.0000 0.0000 -2.6638 0.0000 36.4083
#
#
#
# Elastic Compliance Matrix: (Units=1/GPa)
#
#
# Indices 1 2 3 4 5 6 
#
# 1 0.024663 -0.004996 -0.005413 0.000000 0.010213 0.000000
# 2 -0.004996 0.012149 -0.006562 0.000000 -0.004589 0.000000
# 3 -0.005413 -0.006562 0.022208 0.000000 0.001687 0.000000
# 4 0.000000 0.000000 0.000000 0.021204 0.000000 0.001551
# 5 0.010213 -0.004589 0.001687 0.000000 0.030697 0.000000
# 6 0.000000 0.000000 0.000000 0.001551 0.000000 0.027580
#
#
# Mechanical properties :
#
#
# Convention : Reuss Voigt Hill
#
# Bulk Modulus (GPa) = 39.87506 49.26304 44.56905
# Shear Modulus (GPa) = 27.65477 34.18399 30.91938
#
# Velocity S-wave (km/s) = 3.33756 3.71070 3.52907
# Velocity P-wave (km/s) = 5.56004 6.18079 5.87862
#
# Compressibility (1/GPa) = 0.02507833
#
# Stress axis : x y z
#
# Youngs Moduli (GPa) = 40.54624 82.31216 45.02982
#
# Poissons Ratio (x) = 0.41121 0.24375
# Poissons Ratio (y) = 0.20256 0.29548
# Poissons Ratio (z) = 0.21948 0.54012
#
# Static dielectric constant tensor:
#      x y z
#    x 2.012610 0.000000 -0.007400 
#    y 0.000000 1.993630 0.000000 
#    z -0.007400 0.000000 2.031710 
# 
# From -- ./inp_files/14279.got.cif
#   From: 2010.05.17/outbox.cif.g08.bks.cpg/sg4_8_cif.got.tgz:14279.got - 2010.06.03 18:43:04.
