data_PCOD9115786
_publ_section_title
;
Structure prediction by ZEFSAII (Michael W. Deem and Ramdas Pophale) SiO2 
 PCOD9115786
Probable space group: P 21
;
_chemical_formula_sum "Si O2"
_cell_formula_units_Z 10
_cell_length_a 9.241643
_cell_length_b 5.422166
_cell_length_c 7.903415
_cell_angle_alpha 90.000000
_cell_angle_beta 74.498826
_cell_angle_gamma 90.000000
_cell_volume 381.632043
_symmetry_space_group_name_H-M "P 21"
_symmetry_group_IT_number 4
_symmetry_cell_setting 'monoclinic'
loop_
_space_group_symop_operation_xyz
x,y,z
-x,1/2+y,-z
loop_
_atom_site_type_symbol
_atom_site_label
_atom_site_fract_x
_atom_site_fract_y
_atom_site_fract_z
Si Si1 0.429523 0.944180 0.478450
Si Si2 0.056918 0.449523 0.251800
Si Si3 0.074478 0.954473 0.330117
Si Si4 0.468079 0.538213 0.913027
Si Si5 0.188314 0.673954 0.786276
O O1 0.554711 0.727149 0.465107
O O2 0.300253 0.812577 0.624250
O O3 0.427038 0.968877 0.279193
O O4 0.152478 0.204590 0.247535
O O5 0.941034 0.382648 0.137080
O O6 0.959235 0.454875 0.459566
O O7 0.140287 0.704365 0.238832
O O8 0.911125 0.977985 0.287615
O O9 0.297076 0.557067 0.891111
O O10 0.491040 0.311067 0.033221
#
# Coordination Sequence:
#
# PCOD9115786 Si02
#       5
#     2   2   2   2   2
#     4  10  21  35  53  75  99 137 183 216 248 294
#     4   8  15  26  45  75 102 119 160 214 260 291
#     4   8  15  26  45  75 102 119 160 214 260 291
#     4  11  23  36  49  74 110 143 173 205 252 315
#     4   9  20  31  56  71 105 134 168 215 256 285
#
# _framework density 26.203250000000001
#
# number of rings (size 3 to 8) (size 9 to 14) (size 15 to 20)
#    1.200    1.600    0.000    2.400    8.400    0.000 
#    0.000    0.000    0.000    0.000    0.000    5.600 
#    0.000    0.000    0.000    0.000    0.000    0.000 
#
# Total GULP energy -55745.157091 kJ/mol
# GULP energy per Si atom -5574.515709 kJ/mol
# Density = 2.614361 g / cm^3
# Si number density = 26.203250 Si / 1000 Ang^3
#
#
#
# Elastic Constant Matrix: (Units=GPa)
#
#
# Indices 1 2 3 4 5 6 
#
# 1 72.0224 10.3573 20.8172 0.0000 38.8473 0.0000
# 2 10.3573 182.3154 19.1333 0.0000 20.2786 0.0000
# 3 20.8172 19.1333 93.8987 0.0000 9.2956 0.0000
# 4 0.0000 0.0000 0.0000 48.5521 0.0000 19.7408
# 5 38.8473 20.2786 9.2956 0.0000 42.8474 0.0000
# 6 0.0000 0.0000 0.0000 19.7408 0.0000 24.6844
#
#
#
# Elastic Compliance Matrix: (Units=1/GPa)
#
#
# Indices 1 2 3 4 5 6 
#
# 1 0.028950 0.001702 -0.004177 0.000000 -0.026147 0.000000
# 2 0.001702 0.005970 -0.001187 0.000000 -0.004111 0.000000
# 3 -0.004177 -0.001187 0.011637 0.000000 0.001824 0.000000
# 4 0.000000 0.000000 0.000000 0.030521 0.000000 -0.024408
# 5 -0.026147 -0.004111 0.001824 0.000000 0.048594 0.000000
# 6 0.000000 0.000000 0.000000 -0.024408 0.000000 0.060031
#
#
# Mechanical properties :
#
#
# Convention : Reuss Voigt Hill
#
# Bulk Modulus (GPa) = 25.48802 49.87245 37.68024
# Shear Modulus (GPa) = 24.25960 43.07869 33.66915
#
# Velocity S-wave (km/s) = 3.04604 4.05905 3.58847
# Velocity P-wave (km/s) = 4.70311 6.40641 5.61967
#
# Compressibility (1/GPa) = 0.03923411
#
# Stress axis : x y z
#
# Youngs Moduli (GPa) = 34.54244 167.50043 85.93278
#
# Poissons Ratio (x) = -0.28507 0.35890
# Poissons Ratio (y) = -0.05879 0.10199
# Poissons Ratio (z) = 0.14427 0.19880
#
# Static dielectric constant tensor:
#      x y z
#    x 2.095170 0.000000 0.009750 
#    y 0.000000 2.088540 0.000000 
#    z 0.009750 0.000000 2.043510 
# 
# From -- ./inp_files/7199.got.cif
#   From: 2010.05.17/outbox.cif.g08.bks.cpg/sg4_4_cif.got.tgz:7199.got - 2010.06.03 18:43:04.
