data_PCOD9115694
_publ_section_title
;
Structure prediction by ZEFSAII (Michael W. Deem and Ramdas Pophale) SiO2 
 PCOD9115694
Probable space group: P 21
;
_chemical_formula_sum "Si O2"
_cell_formula_units_Z 14
_cell_length_a 9.876984
_cell_length_b 12.627037
_cell_length_c 5.643732
_cell_angle_alpha 90.000000
_cell_angle_beta 104.895769
_cell_angle_gamma 90.000000
_cell_volume 680.216072
_symmetry_space_group_name_H-M "P 21"
_symmetry_group_IT_number 4
_symmetry_cell_setting 'monoclinic'
loop_
_space_group_symop_operation_xyz
x,y,z
-x,1/2+y,-z
loop_
_atom_site_type_symbol
_atom_site_label
_atom_site_fract_x
_atom_site_fract_y
_atom_site_fract_z
Si Si1 0.845886 0.269240 0.096700
Si Si2 0.798827 0.744592 0.237971
Si Si3 0.348283 0.745064 0.602279
Si Si4 0.084204 0.622683 0.252252
Si Si5 0.229671 0.944132 0.322056
Si Si6 0.968250 0.917061 0.512550
Si Si7 0.661801 0.676204 0.682180
O O1 0.695481 0.246072 0.143223
O O2 0.957009 0.317466 0.328050
O O3 0.904448 0.161672 0.012300
O O4 0.825244 0.366096 0.906792
O O5 0.850522 0.865470 0.295430
O O6 0.721724 0.713863 0.451494
O O7 0.937471 0.671959 0.271719
O O8 0.719515 0.730887 0.950462
O O9 0.219602 0.679933 0.427729
O O10 0.334408 0.867077 0.512897
O O11 0.496021 0.696341 0.608193
O O12 0.086506 0.500764 0.322420
O O13 0.093739 0.968432 0.419408
O O14 0.299301 0.052407 0.274664
#
# Coordination Sequence:
#
# PCOD9115694 Si02
#       7
#     2   2   2   2   2   2   2
#     4  10  20  42  69  99 140 190 235 294 360 427
#     4  12  25  45  70 106 140 178 244 298 345 421
#     4  10  25  45  68 100 146 186 239 289 364 433
#     4  11  22  42  72 100 139 188 241 293 355 422
#     4  10  22  43  75  94 141 195 235 290 371 420
#     4  11  22  41  70 110 134 187 244 304 352 416
#     4  12  28  46  70 107 146 186 234 300 359 423
#
# _framework density 20.581695
#
# number of rings (size 3 to 8) (size 9 to 14) (size 15 to 20)
#    0.000    1.143    5.714    1.714    6.000    2.286 
#    0.000    0.000    0.000    0.000    0.000    0.000 
#    0.000    0.000    0.000    0.000    0.000    0.000 
#
# Total GULP energy -78120.717820 kJ/mol
# GULP energy per Si atom -5580.051273 kJ/mol
# Density = 2.053485 g / cm^3
# Si number density = 20.581695 Si / 1000 Ang^3
#
#
#
# Elastic Constant Matrix: (Units=GPa)
#
#
# Indices 1 2 3 4 5 6 
#
# 1 127.7977 38.1698 51.0634 0.0000 -3.2952 0.0000
# 2 38.1698 78.7546 14.5102 0.0000 -7.0662 0.0000
# 3 51.0634 14.5102 85.6614 0.0000 -11.7664 0.0000
# 4 0.0000 0.0000 0.0000 24.5804 0.0000 -11.0218
# 5 -3.2952 -7.0662 -11.7664 0.0000 25.2796 0.0000
# 6 0.0000 0.0000 0.0000 -11.0218 0.0000 27.3618
#
#
#
# Elastic Compliance Matrix: (Units=1/GPa)
#
#
# Indices 1 2 3 4 5 6 
#
# 1 0.011827 -0.004768 -0.006638 0.000000 -0.002881 0.000000
# 2 -0.004768 0.015218 0.000815 0.000000 0.004012 0.000000
# 3 -0.006638 0.000815 0.016458 0.000000 0.007023 0.000000
# 4 0.000000 0.000000 0.000000 0.049651 0.000000 0.020000
# 5 -0.002881 0.004012 0.007023 0.000000 0.043572 0.000000
# 6 0.000000 0.000000 0.000000 0.020000 0.000000 0.044604
#
#
# Mechanical properties :
#
#
# Convention : Reuss Voigt Hill
#
# Bulk Modulus (GPa) = 44.80000 55.52229 50.16114
# Shear Modulus (GPa) = 23.81510 28.00905 25.91208
#
# Velocity S-wave (km/s) = 3.40531 3.69300 3.55207
# Velocity P-wave (km/s) = 6.10538 6.72454 6.42243
#
# Compressibility (1/GPa) = 0.02232143
#
# Stress axis : x y z
#
# Youngs Moduli (GPa) = 84.55282 65.71129 60.76248
#
# Poissons Ratio (x) = 0.31328 0.40336
# Poissons Ratio (y) = 0.40311 -0.04953
# Poissons Ratio (z) = 0.56128 -0.05357
#
# Static dielectric constant tensor:
#      x y z
#    x 1.715550 0.000000 -0.023310 
#    y 0.000000 1.716160 0.000000 
#    z -0.023310 0.000000 1.868220 
# 
# From -- ./inp_files/1280.got.cif
#   From: 2010.05.17/outbox.cif.g08.bks.cpg/sg4_1_cif.got.tgz:1280.got - 2010.06.03 18:43:04.
