data_PCOD9115940
_publ_section_title
;
Structure prediction by ZEFSAII (Michael W. Deem and Ramdas Pophale) SiO2 
 PCOD9115940
Probable space group: P 21
;
_chemical_formula_sum "Si O2"
_cell_formula_units_Z 16
_cell_length_a 11.732027
_cell_length_b 5.245146
_cell_length_c 16.371505
_cell_angle_alpha 90.000000
_cell_angle_beta 139.562239
_cell_angle_gamma 90.000000
_cell_volume 653.447475
_symmetry_space_group_name_H-M "P 21"
_symmetry_group_IT_number 4
_symmetry_cell_setting 'monoclinic'
loop_
_space_group_symop_operation_xyz
x,y,z
-x,1/2+y,-z
loop_
_atom_site_type_symbol
_atom_site_label
_atom_site_fract_x
_atom_site_fract_y
_atom_site_fract_z
Si Si1 0.934511 0.760650 0.417740
Si Si2 0.476774 0.263010 0.807534
Si Si3 0.675496 0.771058 0.941023
Si Si4 0.076076 0.211621 0.066948
Si Si5 0.676474 0.303931 0.586700
Si Si6 0.086248 0.441750 0.362770
Si Si7 0.974799 0.097665 0.182724
Si Si8 0.424235 0.174541 0.593884
O O1 0.729009 0.816365 0.294724
O O2 0.970556 0.502379 0.489768
O O3 0.014378 0.679353 0.374032
O O4 0.595746 0.490426 0.908475
O O5 0.506726 0.227837 0.726321
O O6 0.529775 0.989196 0.872117
O O7 0.746537 0.773720 0.885184
O O8 0.836338 0.876451 0.084602
O O9 0.011112 0.269402 0.122674
O O10 0.946022 0.406405 0.948919
O O11 0.785134 0.047099 0.637055
O O12 0.538366 0.302509 0.584148
O O13 0.595184 0.390109 0.455036
O O14 0.831372 0.496356 0.692272
O O15 0.226547 0.284800 0.492531
O O16 0.935409 0.271396 0.239963
#
# Coordination Sequence:
#
# PCOD9115940 Si02
#       8
#     2   2   2   2   2   2   2   2
#     4  12  26  50  76 107 144 184 255 308 374 441
#     4  12  26  43  76 102 143 189 245 308 359 420
#     4  11  25  44  69 104 145 192 248 293 355 430
#     4  10  21  38  64  96 140 190 232 281 344 420
#     4  11  23  38  68  99 151 187 238 291 377 436
#     4  11  25  43  73 101 143 194 235 303 372 427
#     4  10  25  41  66 104 146 194 239 291 360 447
#     4  11  23  41  62 111 142 186 238 303 365 439
#
# _framework density 24.485516000000001
#
# number of rings (size 3 to 8) (size 9 to 14) (size 15 to 20)
#    0.000    1.000    2.500    3.750   10.500    1.000 
#    0.000    0.000    2.750    0.000    0.000    0.000 
#    0.000    0.000    0.000    0.000    0.000    0.000 
#
# Total GULP energy -89327.429303 kJ/mol
# GULP energy per Si atom -5582.964331 kJ/mol
# Density = 2.442979 g / cm^3
# Si number density = 24.485516 Si / 1000 Ang^3
#
#
#
# Elastic Constant Matrix: (Units=GPa)
#
#
# Indices 1 2 3 4 5 6 
#
# 1 69.6120 13.8311 19.2538 0.0000 17.0966 0.0000
# 2 13.8311 101.2999 28.3809 0.0000 3.3854 0.0000
# 3 19.2538 28.3809 72.2605 0.0000 5.7164 0.0000
# 4 0.0000 0.0000 0.0000 48.7861 0.0000 -3.1347
# 5 17.0966 3.3854 5.7164 0.0000 26.6869 0.0000
# 6 0.0000 0.0000 0.0000 -3.1347 0.0000 42.5408
#
#
#
# Elastic Compliance Matrix: (Units=1/GPa)
#
#
# Indices 1 2 3 4 5 6 
#
# 1 0.018218 -0.001131 -0.003559 0.000000 -0.010766 0.000000
# 2 -0.001131 0.011169 -0.004100 0.000000 0.000186 0.000000
# 3 -0.003559 -0.004100 0.016455 0.000000 -0.000725 0.000000
# 4 0.000000 0.000000 0.000000 0.020595 0.000000 0.001518
# 5 -0.010766 0.000186 -0.000725 0.000000 0.044500 0.000000
# 6 0.000000 0.000000 0.000000 0.001518 0.000000 0.023619
#
#
# Mechanical properties :
#
#
# Convention : Reuss Voigt Hill
#
# Bulk Modulus (GPa) = 35.38184 40.67820 38.03002
# Shear Modulus (GPa) = 30.94929 35.71654 33.33291
#
# Velocity S-wave (km/s) = 3.55911 3.82341 3.69363
# Velocity P-wave (km/s) = 5.60100 6.01170 5.80998
#
# Compressibility (1/GPa) = 0.02826309
#
# Stress axis : x y z
#
# Youngs Moduli (GPa) = 54.89003 89.53741 60.77326
#
# Poissons Ratio (x) = 0.10124 0.21626
# Poissons Ratio (y) = 0.06206 0.24917
# Poissons Ratio (z) = 0.19533 0.36710
#
# Static dielectric constant tensor:
#      x y z
#    x 1.966650 0.000000 -0.066300 
#    y 0.000000 1.999190 0.000000 
#    z -0.066300 0.000000 1.979370 
# 
# From -- ./inp_files/15045.got.cif
#   From: 2010.05.17/outbox.cif.g08.bks.cpg/sg4_8_cif.got.tgz:15045.got - 2010.06.03 18:43:04.
