data_PCOD9115403
_publ_section_title
;
Structure prediction by ZEFSAII (Michael W. Deem and Ramdas Pophale) SiO2 
 PCOD9115403
Probable space group: P 21
;
_chemical_formula_sum "Si O2"
_cell_formula_units_Z 10
_cell_length_a 5.494236
_cell_length_b 10.828443
_cell_length_c 6.944729
_cell_angle_alpha 90.000000
_cell_angle_beta 69.523643
_cell_angle_gamma 90.000000
_cell_volume 387.064388
_symmetry_space_group_name_H-M "P 21"
_symmetry_group_IT_number 4
_symmetry_cell_setting 'monoclinic'
loop_
_space_group_symop_operation_xyz
x,y,z
-x,1/2+y,-z
loop_
_atom_site_type_symbol
_atom_site_label
_atom_site_fract_x
_atom_site_fract_y
_atom_site_fract_z
Si Si1 0.663398 0.655190 0.464425
Si Si2 0.943717 0.333164 0.770219
Si Si3 0.966241 0.368683 0.311033
Si Si4 0.915350 0.094916 0.347454
Si Si5 0.476122 0.867572 0.815140
O O1 0.833157 0.730957 0.262899
O O2 0.383045 0.597251 0.499586
O O3 0.571421 0.762513 0.641443
O O4 0.876318 0.583388 0.535415
O O5 0.895533 0.336722 0.552369
O O6 0.049586 0.470789 0.784421
O O7 0.678342 0.317375 0.958381
O O8 0.249715 0.427012 0.205907
O O9 0.976366 0.225690 0.228662
O O10 0.744483 0.436144 0.250034
#
# Coordination Sequence:
#
# PCOD9115403 Si02
#       5
#     2   2   2   2   2
#     4   9  21  38  52  84 121 136 185 245 265 324
#     4  10  20  38  64  79 111 159 185 220 292 337
#     4   9  21  38  52  83 119 134 184 243 263 323
#     4   9  19  36  57  81 113 148 182 232 278 324
#     4   9  19  36  55  77 108 147 180 226 278 318
#
# _framework density 25.835491999999999
#
# number of rings (size 3 to 8) (size 9 to 14) (size 15 to 20)
#    0.000    3.200    0.000    0.000    0.000   14.400 
#    0.000   32.000    0.000    0.000    0.000    0.000 
#    0.000    0.000    0.000    0.000    0.000    0.000 
#
# Total GULP energy -55774.749416 kJ/mol
# GULP energy per Si atom -5577.474942 kJ/mol
# Density = 2.577669 g / cm^3
# Si number density = 25.835492 Si / 1000 Ang^3
#
#
#
# Elastic Constant Matrix: (Units=GPa)
#
#
# Indices 1 2 3 4 5 6 
#
# 1 208.8116 2.3435 51.3204 0.0000 -49.3880 0.0000
# 2 2.3435 43.2995 -22.9720 0.0000 -10.8342 0.0000
# 3 51.3204 -22.9720 166.9052 0.0000 -28.3522 0.0000
# 4 0.0000 0.0000 0.0000 16.7323 0.0000 -20.8241
# 5 -49.3880 -10.8342 -28.3522 0.0000 46.0350 0.0000
# 6 0.0000 0.0000 0.0000 -20.8241 0.0000 34.9305
#
#
#
# Elastic Compliance Matrix: (Units=1/GPa)
#
#
# Indices 1 2 3 4 5 6 
#
# 1 0.006573 0.000968 -0.000727 0.000000 0.006831 0.000000
# 2 0.000968 0.028821 0.005582 0.000000 0.011259 0.000000
# 3 -0.000727 0.005582 0.007900 0.000000 0.005399 0.000000
# 4 0.000000 0.000000 0.000000 0.231597 0.000000 0.138069
# 5 0.006831 0.011259 0.005399 0.000000 0.035026 0.000000
# 6 0.000000 0.000000 0.000000 0.138069 0.000000 0.110939
#
#
# Mechanical properties :
#
#
# Convention : Reuss Voigt Hill
#
# Bulk Modulus (GPa) = 18.20231 53.37780 35.79005
# Shear Modulus (GPa) = 11.69521 45.42786 28.56154
#
# Velocity S-wave (km/s) = 2.12994 4.19782 3.32854
# Velocity P-wave (km/s) = 3.62072 6.64839 5.35307
#
# Compressibility (1/GPa) = 0.05493808
#
# Stress axis : x y z
#
# Youngs Moduli (GPa) = 152.14689 34.69690 126.57465
#
# Poissons Ratio (x) = -0.03357 0.09207
# Poissons Ratio (y) = -0.14722 -0.70651
# Poissons Ratio (z) = 0.11067 -0.19367
#
# Static dielectric constant tensor:
#      x y z
#    x 2.167240 0.000000 0.034830 
#    y 0.000000 2.258260 0.000000 
#    z 0.034830 0.000000 2.020020 
# 
# From -- ./inp_files/4511.got.cif
#   From: 2010.05.17/outbox.cif.g08.bks.cpg/sg4_3_cif.got.tgz:4511.got - 2010.06.03 18:43:04.
