data_PCOD9115276
_publ_section_title
;
Structure prediction by ZEFSAII (Michael W. Deem and Ramdas Pophale) SiO2 
 PCOD9115276
Probable space group: P 21
;
_chemical_formula_sum "Si O2"
_cell_formula_units_Z 16
_cell_length_a 8.267481
_cell_length_b 5.346058
_cell_length_c 15.002560
_cell_angle_alpha 90.000000
_cell_angle_beta 79.596648
_cell_angle_gamma 90.000000
_cell_volume 652.189051
_symmetry_space_group_name_H-M "P 21"
_symmetry_group_IT_number 4
_symmetry_cell_setting 'monoclinic'
loop_
_space_group_symop_operation_xyz
x,y,z
-x,1/2+y,-z
loop_
_atom_site_type_symbol
_atom_site_label
_atom_site_fract_x
_atom_site_fract_y
_atom_site_fract_z
Si Si1 0.189887 0.365370 0.775382
Si Si2 0.596808 0.379427 0.891221
Si Si3 0.973604 0.348063 0.142453
Si Si4 0.719107 0.875513 0.978101
Si Si5 0.435063 0.728824 0.292558
Si Si6 0.216411 0.953735 0.450830
Si Si7 0.067580 0.217027 0.607536
Si Si8 0.802961 0.828850 0.711366
O O1 0.153613 0.619831 0.833388
O O2 0.375425 0.289131 0.733902
O O3 0.115998 0.401866 0.682128
O O4 0.104857 0.118399 0.827475
O O5 0.655885 0.620894 0.938145
O O6 0.641685 0.389068 0.782637
O O7 0.672499 0.129418 0.928533
O O8 0.398387 0.374839 0.923569
O O9 0.083166 0.361371 0.041860
O O10 0.112890 0.277823 0.202449
O O11 0.377464 0.455125 0.266882
O O12 0.360073 0.776564 0.398230
O O13 0.222033 0.076290 0.547331
O O14 0.208008 0.145944 0.370375
O O15 0.036273 0.830604 0.463203
O O16 0.933116 0.038984 0.665244
#
# Coordination Sequence:
#
# PCOD9115276 Si02
#       8
#     2   2   2   2   2   2   2   2
#     4  11  26  41  61  90 133 165 208 252 329 378
#     4  10  21  37  64  96 131 150 213 261 315 366
#     4  11  21  41  64  90 123 168 211 255 304 389
#     4  10  20  37  65  99 120 163 206 269 303 364
#     4  11  25  40  59  94 123 176 199 268 322 394
#     4  11  20  38  64  85 117 154 221 258 315 365
#     4  10  21  38  58  91 113 156 206 268 303 369
#     4  10  20  36  65  83 116 156 212 253 307 369
#
# _framework density 24.532762999999999
#
# number of rings (size 3 to 8) (size 9 to 14) (size 15 to 20)
#    0.000    1.500    3.750    1.500    3.500    0.000 
#    2.250    1.250    0.000    0.000    0.000    0.000 
#    0.000    0.000    0.000    0.000    0.000    0.000 
#
# Total GULP energy -89260.014254 kJ/mol
# GULP energy per Si atom -5578.750891 kJ/mol
# Density = 2.447693 g / cm^3
# Si number density = 24.532763 Si / 1000 Ang^3
#
#
#
# Elastic Constant Matrix: (Units=GPa)
#
#
# Indices 1 2 3 4 5 6 
#
# 1 52.6213 16.3316 10.6480 0.0000 -27.0236 0.0000
# 2 16.3316 91.3761 18.3885 0.0000 -10.0194 0.0000
# 3 10.6480 18.3885 111.7238 0.0000 -23.8119 0.0000
# 4 0.0000 0.0000 0.0000 28.1280 0.0000 -3.0550
# 5 -27.0236 -10.0194 -23.8119 0.0000 31.8992 0.0000
# 6 0.0000 0.0000 0.0000 -3.0550 0.0000 31.0800
#
#
#
# Elastic Compliance Matrix: (Units=1/GPa)
#
#
# Indices 1 2 3 4 5 6 
#
# 1 0.035918 -0.003696 0.004070 0.000000 0.032305 0.000000
# 2 -0.003696 0.011880 -0.001754 0.000000 -0.000710 0.000000
# 3 0.004070 -0.001754 0.011260 0.000000 0.011303 0.000000
# 4 0.000000 0.000000 0.000000 0.035935 0.000000 0.003532
# 5 0.032305 -0.000710 0.011303 0.000000 0.066931 0.000000
# 6 0.000000 0.000000 0.000000 0.003532 0.000000 0.032522
#
#
# Mechanical properties :
#
#
# Convention : Reuss Voigt Hill
#
# Bulk Modulus (GPa) = 17.76280 38.49528 28.12904
# Shear Modulus (GPa) = 23.15113 32.24498 27.69805
#
# Velocity S-wave (km/s) = 3.07527 3.62935 3.36374
# Velocity P-wave (km/s) = 4.45712 5.76960 5.15530
#
# Compressibility (1/GPa) = 0.05629742
#
# Stress axis : x y z
#
# Youngs Moduli (GPa) = 27.84150 84.17753 88.80641
#
# Poissons Ratio (x) = 0.31116 -0.36148
# Poissons Ratio (y) = 0.10291 0.15578
# Poissons Ratio (z) = -0.11333 0.14766
#
# Static dielectric constant tensor:
#      x y z
#    x 2.024770 0.000000 0.018310 
#    y 0.000000 2.084330 0.000000 
#    z 0.018310 0.000000 1.990410 
# 
# From -- ./inp_files/9366.got.cif
#   From: 2010.05.17/outbox.cif.g08.bks.cpg/sg4_5_cif.got.tgz:9366.got - 2010.06.03 18:43:04.
