data_PCOD9115854
_publ_section_title
;
Structure prediction by ZEFSAII (Michael W. Deem and Ramdas Pophale) SiO2 
 PCOD9115854
Probable space group: P 21
;
_chemical_formula_sum "Si O2"
_cell_formula_units_Z 12
_cell_length_a 10.588363
_cell_length_b 5.053952
_cell_length_c 10.800343
_cell_angle_alpha 90.000000
_cell_angle_beta 78.959684
_cell_angle_gamma 90.000000
_cell_volume 567.263117
_symmetry_space_group_name_H-M "P 21"
_symmetry_group_IT_number 4
_symmetry_cell_setting 'monoclinic'
loop_
_space_group_symop_operation_xyz
x,y,z
-x,1/2+y,-z
loop_
_atom_site_type_symbol
_atom_site_label
_atom_site_fract_x
_atom_site_fract_y
_atom_site_fract_z
Si Si1 0.662803 0.404510 0.166561
Si Si2 0.610450 0.868805 0.830957
Si Si3 0.768409 0.353159 0.792623
Si Si4 0.926185 0.504357 0.973629
Si Si5 0.655899 0.164068 0.580986
Si Si6 0.380561 0.401417 0.660753
O O1 0.534150 0.446444 0.108402
O O2 0.792398 0.440736 0.066879
O O3 0.665286 0.620538 0.277012
O O4 0.640757 0.113340 0.226509
O O5 0.661959 0.577338 0.837732
O O6 0.714717 0.079209 0.860143
O O7 0.612544 0.931703 0.683026
O O8 0.764853 0.305438 0.644708
O O9 0.897591 0.444430 0.834767
O O10 0.969638 0.800525 0.992984
O O11 0.530623 0.353660 0.595546
O O12 0.687269 0.030177 0.445662
#
# Coordination Sequence:
#
# PCOD9115854 Si02
#       6
#     2   2   2   2   2   2
#     4  11  22  38  59  94 127 161 202 256 308 370
#     4   9  18  34  57  97 121 152 189 245 320 371
#     4  10  21  37  61  92 121 162 201 251 307 375
#     4  12  27  46  64  82 117 177 224 266 302 354
#     4   9  20  32  59  96 131 163 179 235 318 388
#     4  11  20  33  60  97 137 157 189 235 317 398
#
# _framework density 21.154202999999999
#
# number of rings (size 3 to 8) (size 9 to 14) (size 15 to 20)
#    1.000    0.667    1.667    4.000    2.333    1.333 
#    0.000    0.000    0.000    4.000    0.000    0.000 
#    0.000    0.000    0.000    0.000    0.000    0.000 
#
# Total GULP energy -66913.198673 kJ/mol
# GULP energy per Si atom -5576.099889 kJ/mol
# Density = 2.110606 g / cm^3
# Si number density = 21.154203 Si / 1000 Ang^3
#
#
#
# Elastic Constant Matrix: (Units=GPa)
#
#
# Indices 1 2 3 4 5 6 
#
# 1 47.2658 -4.4232 10.0419 0.0000 20.3856 0.0000
# 2 -4.4232 80.6438 7.5892 0.0000 1.9899 0.0000
# 3 10.0419 7.5892 45.2284 0.0000 26.4827 0.0000
# 4 0.0000 0.0000 0.0000 23.2105 0.0000 4.6330
# 5 20.3856 1.9899 26.4827 0.0000 31.1936 0.0000
# 6 0.0000 0.0000 0.0000 4.6330 0.0000 31.3877
#
#
#
# Elastic Compliance Matrix: (Units=1/GPa)
#
#
# Indices 1 2 3 4 5 6 
#
# 1 0.031810 0.001546 0.009759 0.000000 -0.029173 0.000000
# 2 0.001546 0.012736 -0.002810 0.000000 0.000562 0.000000
# 3 0.009759 -0.002810 0.047812 0.000000 -0.046790 0.000000
# 4 0.000000 0.000000 0.000000 0.044392 0.000000 -0.006553
# 5 -0.029173 0.000562 -0.046790 0.000000 0.090810 0.000000
# 6 0.000000 0.000000 0.000000 -0.006553 0.000000 0.032827
#
#
# Mechanical properties :
#
#
# Convention : Reuss Voigt Hill
#
# Bulk Modulus (GPa) = 9.14500 22.17264 15.65882
# Shear Modulus (GPa) = 17.86709 27.82037 22.84373
#
# Velocity S-wave (km/s) = 2.90937 3.63040 3.28970
# Velocity P-wave (km/s) = 3.95200 5.29879 4.67416
#
# Compressibility (1/GPa) = 0.10934943
#
# Stress axis : x y z
#
# Youngs Moduli (GPa) = 31.43638 78.52040 20.91545
#
# Poissons Ratio (x) = -0.12141 -0.20412
# Poissons Ratio (y) = -0.04861 0.05876
# Poissons Ratio (z) = -0.30680 0.22061
#
# Static dielectric constant tensor:
#      x y z
#    x 1.776660 0.000000 0.045850 
#    y 0.000000 1.771650 0.000000 
#    z 0.045850 0.000000 1.820330 
# 
# From -- ./inp_files/10719.got.cif
#   From: 2010.05.17/outbox.cif.g08.bks.cpg/sg4_6_cif.got.tgz:10719.got - 2010.06.03 18:43:04.
