data_PCOD9115827
_publ_section_title
;
Structure prediction by ZEFSAII (Michael W. Deem and Ramdas Pophale) SiO2 
 PCOD9115827
Probable space group: P 21
;
_chemical_formula_sum "Si O2"
_cell_formula_units_Z 14
_cell_length_a 22.751412
_cell_length_b 5.052333
_cell_length_c 7.347478
_cell_angle_alpha 90.000000
_cell_angle_beta 139.513812
_cell_angle_gamma 90.000000
_cell_volume 548.353251
_symmetry_space_group_name_H-M "P 21"
_symmetry_group_IT_number 4
_symmetry_cell_setting 'monoclinic'
loop_
_space_group_symop_operation_xyz
x,y,z
-x,1/2+y,-z
loop_
_atom_site_type_symbol
_atom_site_label
_atom_site_fract_x
_atom_site_fract_y
_atom_site_fract_z
Si Si1 0.535487 0.909730 0.182460
Si Si2 0.708999 0.962886 0.118303
Si Si3 0.976140 0.869212 0.196903
Si Si4 0.133753 0.881999 0.017039
Si Si5 0.684097 0.218491 0.700175
Si Si6 0.599320 0.453297 0.836628
Si Si7 0.878392 0.638485 0.642647
O O1 0.632974 0.049571 0.426714
O O2 0.495630 0.894987 0.293514
O O3 0.527050 0.623579 0.071591
O O4 0.798076 0.834374 0.406763
O O5 0.612480 0.384256 0.654714
O O6 0.723730 0.010895 0.938853
O O7 0.671279 0.245502 0.094146
O O8 0.943505 0.598703 0.212900
O O9 0.952479 0.813685 0.926372
O O10 0.077447 0.981031 0.421413
O O11 0.848877 0.434322 0.728304
O O12 0.231949 0.897105 0.159584
O O13 0.090262 0.596420 0.890206
O O14 0.629978 0.747976 0.951219
#
# Coordination Sequence:
#
# PCOD9115827 Si02
#       7
#     2   2   2   2   2   2   2
#     4  12  29  46  78 108 144 188 254 305 362 436
#     4  10  25  39  77  94 151 189 245 282 383 427
#     4  10  21  36  68 103 148 184 239 307 356 416
#     4  10  22  37  69 103 145 183 244 301 357 418
#     4  10  28  47  74 104 152 192 240 301 371 441
#     4  10  26  47  67 107 144 194 231 306 368 442
#     4  10  21  40  69 111 140 192 243 302 359 426
#
# _framework density 25.530987
#
# number of rings (size 3 to 8) (size 9 to 14) (size 15 to 20)
#    1.714    0.000    1.429    0.857   10.000    1.143 
#    0.000    0.000    3.143    0.000    0.000    0.000 
#    0.000    0.000    0.000    0.000    0.000    0.000 
#
# Total GULP energy -78256.225349 kJ/mol
# GULP energy per Si atom -5589.730382 kJ/mol
# Density = 2.547288 g / cm^3
# Si number density = 25.530987 Si / 1000 Ang^3
#
#
#
# Elastic Constant Matrix: (Units=GPa)
#
#
# Indices 1 2 3 4 5 6 
#
# 1 112.0277 21.9013 11.2084 0.0000 15.6359 0.0000
# 2 21.9013 109.1451 -4.9011 0.0000 8.4208 0.0000
# 3 11.2084 -4.9011 59.7566 0.0000 4.2732 0.0000
# 4 0.0000 0.0000 0.0000 36.2671 0.0000 9.3019
# 5 15.6359 8.4208 4.2732 0.0000 24.9120 0.0000
# 6 0.0000 0.0000 0.0000 9.3019 0.0000 31.3681
#
#
#
# Elastic Compliance Matrix: (Units=1/GPa)
#
#
# Indices 1 2 3 4 5 6 
#
# 1 0.010197 -0.001693 -0.001655 0.000000 -0.005544 0.000000
# 2 -0.001693 0.009749 0.001293 0.000000 -0.002455 0.000000
# 3 -0.001655 0.001293 0.017320 0.000000 -0.002369 0.000000
# 4 0.000000 0.000000 0.000000 0.029843 0.000000 -0.008850
# 5 -0.005544 -0.002455 -0.002369 0.000000 0.044857 0.000000
# 6 0.000000 0.000000 0.000000 -0.008850 0.000000 0.034504
#
#
# Mechanical properties :
#
#
# Convention : Reuss Voigt Hill
#
# Bulk Modulus (GPa) = 30.16017 37.48295 33.82156
# Shear Modulus (GPa) = 30.93442 35.35747 33.14594
#
# Velocity S-wave (km/s) = 3.48464 3.72544 3.60705
# Velocity P-wave (km/s) = 5.29425 5.76354 5.53388
#
# Compressibility (1/GPa) = 0.03315631
#
# Stress axis : x y z
#
# Youngs Moduli (GPa) = 98.07164 102.57243 57.73531
#
# Poissons Ratio (x) = 0.17362 0.09555
# Poissons Ratio (y) = 0.16600 -0.07463
# Poissons Ratio (z) = 0.16230 -0.13259
#
# Static dielectric constant tensor:
#      x y z
#    x 2.026610 0.000000 -0.025870 
#    y 0.000000 1.977170 0.000000 
#    z -0.025870 0.000000 2.050890 
# 
# From -- ./inp_files/9512.got.cif
#   From: 2010.05.17/outbox.cif.g08.bks.cpg/sg4_5_cif.got.tgz:9512.got - 2010.06.03 18:43:04.
