data_PCOD9115957
_publ_section_title
;
Structure prediction by ZEFSAII (Michael W. Deem and Ramdas Pophale) SiO2 
 PCOD9115957
Probable space group: P 21
;
_chemical_formula_sum "Si O2"
_cell_formula_units_Z 14
_cell_length_a 30.659946
_cell_length_b 4.916379
_cell_length_c 24.204408
_cell_angle_alpha 90.000000
_cell_angle_beta 170.552888
_cell_angle_gamma 90.000000
_cell_volume 598.849965
_symmetry_space_group_name_H-M "P 21"
_symmetry_group_IT_number 4
_symmetry_cell_setting 'monoclinic'
loop_
_space_group_symop_operation_xyz
x,y,z
-x,1/2+y,-z
loop_
_atom_site_type_symbol
_atom_site_label
_atom_site_fract_x
_atom_site_fract_y
_atom_site_fract_z
Si Si1 0.836092 0.487380 0.916997
Si Si2 0.254779 0.486758 0.134816
Si Si3 0.351122 0.607496 0.136805
Si Si4 0.585079 0.914421 0.140017
Si Si5 0.105629 0.805006 0.161093
Si Si6 0.183997 0.944772 0.740113
Si Si7 0.813807 0.599013 0.130561
O O1 0.561600 0.512320 0.538964
O O2 0.805636 0.671183 0.933356
O O3 0.894030 0.183548 0.007971
O O4 0.042092 0.643108 0.136941
O O5 0.194426 0.590501 0.998539
O O6 0.625285 0.468799 0.496894
O O7 0.371614 0.908090 0.138919
O O8 0.226184 0.412199 0.934569
O O9 0.889875 0.008248 0.517207
O O10 0.561300 0.609208 0.087366
O O11 0.430890 0.941631 0.005774
O O12 0.098548 0.552893 0.108639
O O13 0.242169 0.038113 0.875325
O O14 0.041560 0.652493 0.563568
#
# Coordination Sequence:
#
# PCOD9115957 Si02
#       7
#     2   2   2   2   2   2   2
#     4  10  21  38  66  92 116 166 243 289 325 407
#     4  10  21  40  63  89 126 170 220 291 346 399
#     4  12  26  45  66  96 148 184 223 297 365 403
#     4  12  23  45  78 105 135 184 234 282 342 424
#     4  12  24  42  70  95 130 182 242 287 349 418
#     4  12  23  45  78 106 140 180 238 290 334 425
#     4  12  26  45  69 105 147 186 232 288 363 416
#
# _framework density 23.378145
#
# number of rings (size 3 to 8) (size 9 to 14) (size 15 to 20)
#    0.000    0.571    4.286    4.286    4.000    0.000 
#    7.714    0.000    0.000    0.000    0.000    0.000 
#    0.000    0.000    0.000    0.000    0.000    0.000 
#
# Total GULP energy -78317.073480 kJ/mol
# GULP energy per Si atom -5594.076677 kJ/mol
# Density = 2.332494 g / cm^3
# Si number density = 23.378145 Si / 1000 Ang^3
#
#
#
# Elastic Constant Matrix: (Units=GPa)
#
#
# Indices 1 2 3 4 5 6 
#
# 1 157.8540 2.4097 16.8798 0.0000 8.4917 0.0000
# 2 2.4097 85.1011 15.3853 0.0000 4.2850 0.0000
# 3 16.8798 15.3853 47.8344 0.0000 13.9255 0.0000
# 4 0.0000 0.0000 0.0000 47.0666 0.0000 -12.7524
# 5 8.4917 4.2850 13.9255 0.0000 31.4878 0.0000
# 6 0.0000 0.0000 0.0000 -12.7524 0.0000 49.3005
#
#
#
# Elastic Compliance Matrix: (Units=1/GPa)
#
#
# Indices 1 2 3 4 5 6 
#
# 1 0.006609 0.000247 -0.002161 0.000000 -0.000860 0.000000
# 2 0.000247 0.012486 -0.004119 0.000000 0.000056 0.000000
# 3 -0.002161 -0.004119 0.026009 0.000000 -0.010359 0.000000
# 4 0.000000 0.000000 0.000000 0.022848 0.000000 0.005910
# 5 -0.000860 0.000056 -0.010359 0.000000 0.036564 0.000000
# 6 0.000000 0.000000 0.000000 0.005910 0.000000 0.021813
#
#
# Mechanical properties :
#
#
# Convention : Reuss Voigt Hill
#
# Bulk Modulus (GPa) = 30.27005 40.01545 35.14275
# Shear Modulus (GPa) = 33.46587 42.64528 38.05557
#
# Velocity S-wave (km/s) = 3.78762 4.27564 4.03901
# Velocity P-wave (km/s) = 5.66606 6.44427 6.06765
#
# Compressibility (1/GPa) = 0.03303596
#
# Stress axis : x y z
#
# Youngs Moduli (GPa) = 151.31901 80.09201 38.44872
#
# Poissons Ratio (x) = -0.01977 0.08309
# Poissons Ratio (y) = -0.03736 0.15838
# Poissons Ratio (z) = 0.32701 0.32992
#
# Static dielectric constant tensor:
#      x y z
#    x 1.900270 0.000000 -0.006200 
#    y 0.000000 1.817540 0.000000 
#    z -0.006200 0.000000 1.878670 
# 
# From -- ./inp_files/15967.got.cif
#   From: 2010.05.17/outbox.cif.g08.bks.cpg/sg4_8_cif.got.tgz:15967.got - 2010.06.03 18:43:04.
