data_PCOD9115976
_publ_section_title
;
Structure prediction by ZEFSAII (Michael W. Deem and Ramdas Pophale) SiO2 
 PCOD9115976
Probable space group: P 21
;
_chemical_formula_sum "Si O2"
_cell_formula_units_Z 16
_cell_length_a 12.373211
_cell_length_b 7.541223
_cell_length_c 7.966848
_cell_angle_alpha 90.000000
_cell_angle_beta 101.069048
_cell_angle_gamma 90.000000
_cell_volume 729.550315
_symmetry_space_group_name_H-M "P 21"
_symmetry_group_IT_number 4
_symmetry_cell_setting 'monoclinic'
loop_
_space_group_symop_operation_xyz
x,y,z
-x,1/2+y,-z
loop_
_atom_site_type_symbol
_atom_site_label
_atom_site_fract_x
_atom_site_fract_y
_atom_site_fract_z
Si Si1 0.618194 0.955340 0.892086
Si Si2 0.098727 0.162405 0.691426
Si Si3 0.601206 0.338123 0.026439
Si Si4 0.766286 0.627505 0.946876
Si Si5 0.128942 0.497326 0.493450
Si Si6 0.647933 0.193081 0.402744
Si Si7 0.542827 0.855958 0.495459
Si Si8 0.241360 0.152893 0.428159
O O1 0.527643 0.881132 0.995652
O O2 0.573816 0.923680 0.691176
O O3 0.724219 0.830897 0.939915
O O4 0.628812 0.162652 0.929585
O O5 0.135878 0.114971 0.889581
O O6 0.105408 0.374719 0.651788
O O7 0.184367 0.080367 0.579123
O O8 0.980304 0.086473 0.607891
O O9 0.416056 0.799577 0.470095
O O10 0.666381 0.506858 0.981470
O O11 0.782567 0.568146 0.758679
O O12 0.226498 0.638195 0.537951
O O13 0.181046 0.344930 0.391864
O O14 0.636733 0.292806 0.225906
O O15 0.576774 0.009979 0.378546
O O16 0.630194 0.695256 0.497957
#
# Coordination Sequence:
#
# PCOD9115976 Si02
#       8
#     2   2   2   2   2   2   2   2
#     4  10  21  39  57  95 137 174 220 272 336 401
#     4  10  22  43  70  92 131 180 222 281 340 385
#     4  11  22  36  65  93 131 181 221 266 344 409
#     4  11  22  43  67  96 134 174 225 284 331 404
#     4   9  21  44  67  94 137 176 225 292 326 406
#     4  10  21  39  61  97 128 175 222 270 341 408
#     4   9  20  39  59  92 138 170 213 280 335 402
#     4   8  21  43  62  95 136 162 218 285 325 401
#
# _framework density 21.931318999999998
#
# number of rings (size 3 to 8) (size 9 to 14) (size 15 to 20)
#    0.750    1.500    1.250    0.750    1.750    3.000 
#    4.500    1.250    0.000    0.000    0.000    0.000 
#    0.000    0.000    0.000    0.000    0.000    0.000 
#
# Total GULP energy -89297.730092 kJ/mol
# GULP energy per Si atom -5581.108131 kJ/mol
# Density = 2.188140 g / cm^3
# Si number density = 21.931319 Si / 1000 Ang^3
#
#
#
# Elastic Constant Matrix: (Units=GPa)
#
#
# Indices 1 2 3 4 5 6 
#
# 1 43.6969 11.0424 14.7154 0.0000 0.1671 0.0000
# 2 11.0424 60.7650 15.0203 0.0000 -1.0005 0.0000
# 3 14.7154 15.0203 73.1216 0.0000 -3.8344 0.0000
# 4 0.0000 0.0000 0.0000 25.0844 0.0000 -3.1841
# 5 0.1671 -1.0005 -3.8344 0.0000 14.4668 0.0000
# 6 0.0000 0.0000 0.0000 -3.1841 0.0000 30.3789
#
#
#
# Elastic Compliance Matrix: (Units=1/GPa)
#
#
# Indices 1 2 3 4 5 6 
#
# 1 0.025281 -0.003521 -0.004454 0.000000 -0.001716 0.000000
# 2 -0.003521 0.017829 -0.002928 0.000000 0.000498 0.000000
# 3 -0.004454 -0.002928 0.015379 0.000000 0.003925 0.000000
# 4 0.000000 0.000000 0.000000 0.040403 0.000000 0.004235
# 5 -0.001716 0.000498 0.003925 0.000000 0.070218 0.000000
# 6 0.000000 0.000000 0.000000 0.004235 0.000000 0.033362
#
#
# Mechanical properties :
#
#
# Convention : Reuss Voigt Hill
#
# Bulk Modulus (GPa) = 27.26070 28.79331 28.02701
# Shear Modulus (GPa) = 21.14104 23.10636 22.12370
#
# Velocity S-wave (km/s) = 3.10815 3.24941 3.17956
# Velocity P-wave (km/s) = 5.03367 5.21877 5.12705
#
# Compressibility (1/GPa) = 0.03668284
#
# Stress axis : x y z
#
# Youngs Moduli (GPa) = 39.55468 56.08962 65.02165
#
# Poissons Ratio (x) = 0.19751 0.28964
# Poissons Ratio (y) = 0.13929 0.19035
# Poissons Ratio (z) = 0.17619 0.16420
#
# Static dielectric constant tensor:
#      x y z
#    x 1.792190 0.000000 -0.022920 
#    y 0.000000 1.862820 0.000000 
#    z -0.022920 0.000000 1.800330 
# 
# From -- ./inp_files/9243.got.cif
#   From: 2010.05.17/outbox.cif.g08.bks.cpg/sg4_5_cif.got.tgz:9243.got - 2010.06.03 18:43:04.
