data_PCOD9115696
_publ_section_title
;
Structure prediction by ZEFSAII (Michael W. Deem and Ramdas Pophale) SiO2 
 PCOD9115696
Probable space group: P 21
;
_chemical_formula_sum "Si O2"
_cell_formula_units_Z 16
_cell_length_a 10.807770
_cell_length_b 11.670724
_cell_length_c 5.302675
_cell_angle_alpha 90.000000
_cell_angle_beta 80.753019
_cell_angle_gamma 90.000000
_cell_volume 660.158444
_symmetry_space_group_name_H-M "P 21"
_symmetry_group_IT_number 4
_symmetry_cell_setting 'monoclinic'
loop_
_space_group_symop_operation_xyz
x,y,z
-x,1/2+y,-z
loop_
_atom_site_type_symbol
_atom_site_label
_atom_site_fract_x
_atom_site_fract_y
_atom_site_fract_z
Si Si1 0.849538 0.938960 0.655349
Si Si2 0.740868 0.322344 0.439645
Si Si3 0.106348 0.014562 0.326663
Si Si4 0.849500 0.720925 0.366268
Si Si5 0.966173 0.331133 0.027217
Si Si6 0.480196 0.772208 0.776419
Si Si7 0.639484 0.118272 0.832709
Si Si8 0.397302 0.197912 0.772823
O O1 0.809234 0.848288 0.458234
O O2 0.737613 0.018665 0.776434
O O3 0.910946 0.866680 0.860219
O O4 0.969107 0.004157 0.499898
O O5 0.794884 0.430844 0.568958
O O6 0.627463 0.355841 0.289825
O O7 0.691437 0.227384 0.654354
O O8 0.859797 0.279038 0.239087
O O9 0.147205 0.141111 0.389095
O O10 0.087140 0.950831 0.067367
O O11 0.986652 0.742958 0.200535
O O12 0.748646 0.671519 0.201879
O O13 0.566826 0.747665 0.511357
O O14 0.391181 0.662386 0.876536
O O15 0.561812 0.781000 0.006211
O O16 0.498448 0.096076 0.777973
#
# Coordination Sequence:
#
# PCOD9115696 Si02
#       8
#     2   2   2   2   2   2   2   2
#     4  10  24  41  66 101 136 183 230 282 352 411
#     4  10  20  42  70 101 134 174 235 283 348 411
#     4  10  24  42  62 102 136 180 228 285 354 410
#     4  11  25  46  66  96 147 176 229 291 347 417
#     4  10  24  42  66 105 131 185 226 288 357 416
#     4   9  20  40  71  96 134 176 229 284 330 408
#     4   9  21  42  69  99 134 179 228 286 332 420
#     4   9  22  43  68 100 134 183 229 281 344 405
#
# _framework density 24.236605000000001
#
# number of rings (size 3 to 8) (size 9 to 14) (size 15 to 20)
#    0.750    1.500    0.000    0.750    8.750    6.000 
#    6.750    0.000    2.750    0.000    0.000    0.000 
#    0.000    0.000    0.000    0.000    0.000    0.000 
#
# Total GULP energy -89264.001504 kJ/mol
# GULP energy per Si atom -5579.000094 kJ/mol
# Density = 2.418144 g / cm^3
# Si number density = 24.236605 Si / 1000 Ang^3
#
#
#
# Elastic Constant Matrix: (Units=GPa)
#
#
# Indices 1 2 3 4 5 6 
#
# 1 92.8568 43.6711 17.5047 0.0000 18.4808 0.0000
# 2 43.6711 45.2694 -1.4112 0.0000 -0.4831 0.0000
# 3 17.5047 -1.4112 104.9921 0.0000 5.8698 0.0000
# 4 0.0000 0.0000 0.0000 10.2662 0.0000 -5.5602
# 5 18.4808 -0.4831 5.8698 0.0000 27.8495 0.0000
# 6 0.0000 0.0000 0.0000 -5.5602 0.0000 35.1166
#
#
#
# Elastic Compliance Matrix: (Units=1/GPa)
#
#
# Indices 1 2 3 4 5 6 
#
# 1 0.028011 -0.027342 -0.004019 0.000000 -0.018215 0.000000
# 2 -0.027342 0.048791 0.004202 0.000000 0.018105 0.000000
# 3 -0.004019 0.004202 0.010218 0.000000 0.000586 0.000000
# 4 0.000000 0.000000 0.000000 0.106543 0.000000 0.016870
# 5 -0.018215 0.018105 0.000586 0.000000 0.048186 0.000000
# 6 0.000000 0.000000 0.000000 0.016870 0.000000 0.031148
#
#
# Mechanical properties :
#
#
# Convention : Reuss Voigt Hill
#
# Bulk Modulus (GPa) = 30.57897 40.29418 35.43657
# Shear Modulus (GPa) = 14.78781 26.87005 20.82893
#
# Velocity S-wave (km/s) = 2.47279 3.33326 2.93473
# Velocity P-wave (km/s) = 4.56039 5.61031 5.11237
#
# Compressibility (1/GPa) = 0.03270222
#
# Stress axis : x y z
#
# Youngs Moduli (GPa) = 35.69968 20.49563 97.86324
#
# Poissons Ratio (x) = 0.56039 0.39334
# Poissons Ratio (y) = 0.97610 -0.41124
# Poissons Ratio (z) = 0.14349 -0.08613
#
# Static dielectric constant tensor:
#      x y z
#    x 1.991230 0.000000 0.023230 
#    y 0.000000 1.930040 0.000000 
#    z 0.023230 0.000000 1.968370 
# 
# From -- ./inp_files/2936.got.cif
#   From: 2010.05.17/outbox.cif.g08.bks.cpg/sg4_2_cif.got.tgz:2936.got - 2010.06.03 18:43:04.
