data_PCOD9115732
_publ_section_title
;
Structure prediction by ZEFSAII (Michael W. Deem and Ramdas Pophale) SiO2 
 PCOD9115732
Probable space group: P 21
;
_chemical_formula_sum "Si O2"
_cell_formula_units_Z 16
_cell_length_a 6.768537
_cell_length_b 8.487423
_cell_length_c 13.713101
_cell_angle_alpha 90.000000
_cell_angle_beta 109.475439
_cell_angle_gamma 90.000000
_cell_volume 742.709129
_symmetry_space_group_name_H-M "P 21"
_symmetry_group_IT_number 4
_symmetry_cell_setting 'monoclinic'
loop_
_space_group_symop_operation_xyz
x,y,z
-x,1/2+y,-z
loop_
_atom_site_type_symbol
_atom_site_label
_atom_site_fract_x
_atom_site_fract_y
_atom_site_fract_z
Si Si1 0.748007 0.061770 0.365108
Si Si2 0.397023 0.532483 0.113795
Si Si3 0.400419 0.874485 0.024772
Si Si4 0.977640 0.373825 0.713199
Si Si5 0.694646 0.553763 0.800850
Si Si6 0.822640 0.539580 0.290775
Si Si7 0.961925 0.871627 0.838449
Si Si8 0.080694 0.876769 0.508547
O O1 0.504370 0.072354 0.303233
O O2 0.846157 0.219532 0.425704
O O3 0.860489 0.016173 0.281410
O O4 0.834723 0.919308 0.448356
O O5 0.431605 0.708273 0.081416
O O6 0.589650 0.499501 0.218124
O O7 0.181308 0.502974 0.133043
O O8 0.423038 0.419096 0.024635
O O9 0.382235 0.007241 0.104645
O O10 0.181421 0.864539 0.930889
O O11 0.838433 0.412684 0.782602
O O12 0.840680 0.373167 0.590367
O O13 0.106114 0.212038 0.732926
O O14 0.831690 0.711262 0.823564
O O15 0.839595 0.516211 0.408795
O O16 0.982116 0.421897 0.262245
#
# Coordination Sequence:
#
# PCOD9115732 Si02
#       8
#     2   2   2   2   2   2   2   2
#     4  10  22  41  63  91 124 168 208 254 310 368
#     4  11  24  43  65  95 120 171 206 256 316 376
#     4  11  25  42  66  92 130 161 209 262 313 373
#     4  10  22  41  62  93 127 167 204 260 308 362
#     4  12  24  42  65  97 125 167 211 254 316 377
#     4  11  22  42  65  91 129 163 212 254 311 370
#     4  11  25  41  64  96 127 163 209 262 312 371
#     4  10  20  44  62  91 130 164 205 262 308 359
#
# _framework density 21.542757000000002
#
# number of rings (size 3 to 8) (size 9 to 14) (size 15 to 20)
#    0.750    0.500    1.250    4.500    0.000    8.000 
#    6.750    0.000    0.000    0.000    0.000    0.000 
#    0.000    0.000    0.000    0.000    0.000    0.000 
#
# Total GULP energy -89333.355299 kJ/mol
# GULP energy per Si atom -5583.334706 kJ/mol
# Density = 2.149372 g / cm^3
# Si number density = 21.542757 Si / 1000 Ang^3
#
#
#
# Elastic Constant Matrix: (Units=GPa)
#
#
# Indices 1 2 3 4 5 6 
#
# 1 45.6733 -5.9398 6.5531 0.0000 5.1890 0.0000
# 2 -5.9398 65.5036 -10.0881 0.0000 8.6812 0.0000
# 3 6.5531 -10.0881 51.3312 0.0000 2.3062 0.0000
# 4 0.0000 0.0000 0.0000 37.7656 0.0000 -3.3159
# 5 5.1890 8.6812 2.3062 0.0000 26.0041 0.0000
# 6 0.0000 0.0000 0.0000 -3.3159 0.0000 30.5087
#
#
#
# Elastic Compliance Matrix: (Units=1/GPa)
#
#
# Indices 1 2 3 4 5 6 
#
# 1 0.023128 0.002446 -0.002237 0.000000 -0.005233 0.000000
# 2 0.002446 0.016843 0.003285 0.000000 -0.006402 0.000000
# 3 -0.002237 0.003285 0.020524 0.000000 -0.002471 0.000000
# 4 0.000000 0.000000 0.000000 0.026734 0.000000 0.002906
# 5 -0.005233 -0.006402 -0.002471 0.000000 0.041856 0.000000
# 6 0.000000 0.000000 0.000000 0.002906 0.000000 0.033093
#
#
# Mechanical properties :
#
#
# Convention : Reuss Voigt Hill
#
# Bulk Modulus (GPa) = 14.81818 15.95094 15.38456
# Shear Modulus (GPa) = 28.13997 30.32119 29.23058
#
# Velocity S-wave (km/s) = 3.61811 3.75572 3.68756
# Velocity P-wave (km/s) = 4.93434 5.12129 5.02869
#
# Compressibility (1/GPa) = 0.06748465
#
# Stress axis : x y z
#
# Youngs Moduli (GPa) = 43.23709 59.37309 48.72446
#
# Poissons Ratio (x) = -0.14525 0.10898
# Poissons Ratio (y) = -0.10577 -0.16008
# Poissons Ratio (z) = 0.09671 -0.19507
#
# Static dielectric constant tensor:
#      x y z
#    x 1.746490 0.000000 -0.010510 
#    y 0.000000 1.819440 0.000000 
#    z -0.010510 0.000000 1.795360 
# 
# From -- ./inp_files/10302.got.cif
#   From: 2010.05.17/outbox.cif.g08.bks.cpg/sg4_6_cif.got.tgz:10302.got - 2010.06.03 18:43:04.
