data_PCOD9115752
_publ_section_title
;
Structure prediction by ZEFSAII (Michael W. Deem and Ramdas Pophale) SiO2 
 PCOD9115752
Probable space group: P 21
;
_chemical_formula_sum "Si O2"
_cell_formula_units_Z 16
_cell_length_a 8.328166
_cell_length_b 5.808788
_cell_length_c 24.454175
_cell_angle_alpha 90.000000
_cell_angle_beta 147.837695
_cell_angle_gamma 90.000000
_cell_volume 629.738506
_symmetry_space_group_name_H-M "P 21"
_symmetry_group_IT_number 4
_symmetry_cell_setting 'monoclinic'
loop_
_space_group_symop_operation_xyz
x,y,z
-x,1/2+y,-z
loop_
_atom_site_type_symbol
_atom_site_label
_atom_site_fract_x
_atom_site_fract_y
_atom_site_fract_z
Si Si1 0.616029 0.812930 0.102500
Si Si2 0.808054 0.704949 0.977861
Si Si3 0.496494 0.347289 0.275664
Si Si4 0.782770 0.225424 0.589293
Si Si5 0.085535 0.215149 0.383312
Si Si6 0.852745 0.274554 0.476328
Si Si7 0.895804 0.062696 0.098893
Si Si8 0.474514 0.560083 0.164365
O O1 0.902088 0.932336 0.158312
O O2 0.667899 0.668589 0.171871
O O3 0.436651 0.672253 0.004170
O O4 0.366693 0.996036 0.047072
O O5 0.890341 0.879631 0.049379
O O6 0.135303 0.640018 0.051225
O O7 0.572076 0.792903 0.864252
O O8 0.550032 0.344097 0.355902
O O9 0.508557 0.575108 0.239728
O O10 0.797902 0.218151 0.340387
O O11 0.173254 0.233717 0.173043
O O12 0.430958 0.217384 0.505431
O O13 0.918773 0.469609 0.648666
O O14 0.812017 0.250161 0.530499
O O15 0.920935 0.974451 0.643524
O O16 0.045226 0.510485 0.513880
#
# Coordination Sequence:
#
# PCOD9115752 Si02
#       8
#     2   2   2   2   2   2   2   2
#     4  11  22  43  66  95 145 192 235 289 373 433
#     4  11  20  41  67  89 135 184 235 283 361 429
#     4  12  25  44  68 110 139 186 251 307 359 445
#     4  10  20  45  69 101 130 189 232 284 380 446
#     4  10  22  41  74  98 138 175 236 300 359 446
#     4  12  24  46  73 103 143 191 237 301 383 441
#     4  11  24  41  68 102 137 191 238 297 359 433
#     4  11  23  39  65 102 133 186 240 297 356 433
#
# _framework density 25.407371999999999
#
# number of rings (size 3 to 8) (size 9 to 14) (size 15 to 20)
#    0.000    1.000    6.250    0.750    0.000    2.000 
#    2.250    3.750    0.000    0.000    0.000    0.000 
#    0.000    0.000    0.000    0.000    0.000    0.000 
#
# Total GULP energy -89118.277304 kJ/mol
# GULP energy per Si atom -5569.892331 kJ/mol
# Density = 2.534954 g / cm^3
# Si number density = 25.407372 Si / 1000 Ang^3
#
#
#
# Elastic Constant Matrix: (Units=GPa)
#
#
# Indices 1 2 3 4 5 6 
#
# 1 111.1935 32.6874 33.3871 0.0000 -0.7699 0.0000
# 2 32.6874 121.3580 28.7062 0.0000 -10.1379 0.0000
# 3 33.3871 28.7062 88.4196 0.0000 -18.1714 0.0000
# 4 0.0000 0.0000 0.0000 3.3016 0.0000 25.0911
# 5 -0.7699 -10.1379 -18.1714 0.0000 35.0734 0.0000
# 6 0.0000 0.0000 0.0000 25.0911 0.0000 38.8303
#
#
#
# Elastic Compliance Matrix: (Units=1/GPa)
#
#
# Indices 1 2 3 4 5 6 
#
# 1 0.010777 -0.002192 -0.003849 0.000000 -0.002391 0.000000
# 2 -0.002192 0.009417 -0.001880 0.000000 0.001700 0.000000
# 3 -0.003849 -0.001880 0.014823 0.000000 0.007052 0.000000
# 4 0.000000 0.000000 0.000000 -0.077450 0.000000 0.050046
# 5 -0.002391 0.001700 0.007052 0.000000 0.032604 0.000000
# 6 0.000000 0.000000 0.000000 0.050046 0.000000 -0.006585
#
#
# Mechanical properties :
#
#
# Convention : Reuss Voigt Hill
#
# Bulk Modulus (GPa) = 52.15407 56.72584 54.43995
# Shear Modulus (GPa) = 859.05444 30.52041 444.78743
#
# Velocity S-wave (km/s) = 18.40778 3.46965 13.24547
# Velocity P-wave (km/s) = 21.73400 6.19890 15.98113
#
# Compressibility (1/GPa) = 0.01917396
#
# Stress axis : x y z
#
# Youngs Moduli (GPa) = 92.79111 106.18784 67.46358
#
# Poissons Ratio (x) = 0.23276 0.25968
# Poissons Ratio (y) = 0.20340 0.12686
# Poissons Ratio (z) = 0.35716 0.19967
#
# Static dielectric constant tensor:
#      x y z
#    x 2.062370 0.000000 0.180750 
#    y 0.000000 2.200070 0.000000 
#    z 0.180750 0.000000 3.414740 
# 
# From -- ./inp_files/13440.got.cif
#   From: 2010.05.17/outbox.cif.g08.bks.cpg/sg4_7_cif.got.tgz:13440.got - 2010.06.03 18:43:04.
