data_PCOD9115478
_publ_section_title
;
Structure prediction by ZEFSAII (Michael W. Deem and Ramdas Pophale) SiO2 
 PCOD9115478
Probable space group: P 21
;
_chemical_formula_sum "Si O2"
_cell_formula_units_Z 16
_cell_length_a 12.473732
_cell_length_b 8.136484
_cell_length_c 14.363356
_cell_angle_alpha 90.000000
_cell_angle_beta 24.132366
_cell_angle_gamma 90.000000
_cell_volume 596.003642
_symmetry_space_group_name_H-M "P 21"
_symmetry_group_IT_number 4
_symmetry_cell_setting 'monoclinic'
loop_
_space_group_symop_operation_xyz
x,y,z
-x,1/2+y,-z
loop_
_atom_site_type_symbol
_atom_site_label
_atom_site_fract_x
_atom_site_fract_y
_atom_site_fract_z
Si Si1 0.383521 0.258970 0.238758
Si Si2 0.890797 0.274329 0.101267
Si Si3 0.371162 0.455186 0.761579
Si Si4 0.843547 0.286199 0.356566
Si Si5 0.864100 0.413270 0.827060
Si Si6 0.403931 0.441680 0.417903
Si Si7 0.073616 0.559888 0.462303
Si Si8 0.599213 0.747006 0.077916
O O1 0.413719 0.325596 0.319029
O O2 0.237779 0.404197 0.297389
O O3 0.181927 0.112038 0.391407
O O4 0.675441 0.257157 0.966319
O O5 0.782875 0.123067 0.128005
O O6 0.888054 0.236390 0.213810
O O7 0.673132 0.415309 0.257069
O O8 0.185442 0.331751 0.850611
O O9 0.667782 0.448542 0.491949
O O10 0.400191 0.383479 0.842063
O O11 0.665132 0.135942 0.538899
O O12 0.119475 0.304534 0.191132
O O13 0.702225 0.557381 0.007890
O O14 0.124508 0.380514 0.679697
O O15 0.952378 0.490546 0.657403
O O16 0.297662 0.705640 0.287359
#
# Coordination Sequence:
#
# PCOD9115478 Si02
#       8
#     2   2   2   2   2   2   2   2
#     4  10  22  39  61  89 120 159 199 245 299 352
#     4  11  24  37  59  89 121 156 196 244 297 357
#     4  11  22  38  58  86 118 153 195 244 297 354
#     4  10  20  39  64  86 113 155 201 244 297 356
#     4   9  19  37  62  84 116 158 199 244 296 351
#     4  10  21  40  59  86 122 157 198 247 299 352
#     4  10  21  39  62  87 118 156 199 245 295 352
#     4   9  19  37  59  83 112 150 195 241 292 346
#
# _framework density 26.845472999999998
#
# number of rings (size 3 to 8) (size 9 to 14) (size 15 to 20)
#    0.000    2.000    0.000    4.500    0.000   11.000 
#    0.000    1.250    0.000    0.000    0.000    0.000 
#    0.000    0.000    0.000    0.000    0.000    0.000 
#
# Total GULP energy -89137.499372 kJ/mol
# GULP energy per Si atom -5571.093711 kJ/mol
# Density = 2.678437 g / cm^3
# Si number density = 26.845473 Si / 1000 Ang^3
#
#
#
# Elastic Constant Matrix: (Units=GPa)
#
#
# Indices 1 2 3 4 5 6 
#
# 1 108.7404 16.7709 27.4333 0.0000 -10.0798 0.0000
# 2 16.7709 57.2933 15.4529 0.0000 -16.2117 0.0000
# 3 27.4333 15.4529 141.5562 0.0000 -48.4078 0.0000
# 4 0.0000 0.0000 0.0000 40.5922 0.0000 -23.3541
# 5 -10.0798 -16.2117 -48.4078 0.0000 41.5239 0.0000
# 6 0.0000 0.0000 0.0000 -23.3541 0.0000 38.7685
#
#
#
# Elastic Compliance Matrix: (Units=1/GPa)
#
#
# Indices 1 2 3 4 5 6 
#
# 1 0.010017 -0.002655 -0.001953 0.000000 -0.000882 0.000000
# 2 -0.002655 0.020379 0.001314 0.000000 0.008844 0.000000
# 3 -0.001953 0.001314 0.012161 0.000000 0.014216 0.000000
# 4 0.000000 0.000000 0.000000 0.037702 0.000000 0.022712
# 5 -0.000882 0.008844 0.014216 0.000000 0.043894 0.000000
# 6 0.000000 0.000000 0.000000 0.022712 0.000000 0.039476
#
#
# Mechanical properties :
#
#
# Convention : Reuss Voigt Hill
#
# Bulk Modulus (GPa) = 27.80133 47.43377 37.61755
# Shear Modulus (GPa) = 27.44166 40.70578 34.07372
#
# Velocity S-wave (km/s) = 3.20067 3.89819 3.56652
# Velocity P-wave (km/s) = 4.90281 6.16188 5.56805
#
# Compressibility (1/GPa) = 0.03596950
#
# Stress axis : x y z
#
# Youngs Moduli (GPa) = 99.83416 49.06970 82.23234
#
# Poissons Ratio (x) = 0.13027 0.16059
# Poissons Ratio (y) = 0.26504 -0.10807
# Poissons Ratio (z) = 0.19496 -0.06449
#
# Static dielectric constant tensor:
#      x y z
#    x 2.126490 0.000000 0.050350 
#    y 0.000000 2.224370 0.000000 
#    z 0.050350 0.000000 2.268720 
# 
# From -- ./inp_files/3431.got.cif
#   From: 2010.05.17/outbox.cif.g08.bks.cpg/sg4_2_cif.got.tgz:3431.got - 2010.06.03 18:43:04.
