data_PCOD9115168
_publ_section_title
;
Structure prediction by ZEFSAII (Michael W. Deem and Ramdas Pophale) SiO2 
 PCOD9115168
Probable space group: P 21
;
_chemical_formula_sum "Si O2"
_cell_formula_units_Z 16
_cell_length_a 16.408567
_cell_length_b 8.079977
_cell_length_c 8.359810
_cell_angle_alpha 90.000000
_cell_angle_beta 136.542514
_cell_angle_gamma 90.000000
_cell_volume 762.341489
_symmetry_space_group_name_H-M "P 21"
_symmetry_group_IT_number 4
_symmetry_cell_setting 'monoclinic'
loop_
_space_group_symop_operation_xyz
x,y,z
-x,1/2+y,-z
loop_
_atom_site_type_symbol
_atom_site_label
_atom_site_fract_x
_atom_site_fract_y
_atom_site_fract_z
Si Si1 0.583227 0.333040 0.811518
Si Si2 0.518415 0.601238 0.097888
Si Si3 0.419456 0.292798 0.108708
Si Si4 0.792767 0.587935 0.149877
Si Si5 0.213344 0.023422 0.486255
Si Si6 0.930269 0.510424 0.028595
Si Si7 0.402164 0.610813 0.449074
Si Si8 0.159262 0.691237 0.258152
O O1 0.540026 0.267489 0.919569
O O2 0.480197 0.449890 0.592958
O O3 0.604039 0.162628 0.743689
O O4 0.704085 0.434983 0.988261
O O5 0.431496 0.454230 0.020310
O O6 0.649933 0.568437 0.353036
O O7 0.547754 0.636776 0.957615
O O8 0.526544 0.271609 0.383168
O O9 0.290219 0.250817 0.991009
O O10 0.823124 0.579139 0.384683
O O11 0.887965 0.574089 0.142513
O O12 0.197831 0.824391 0.448853
O O13 0.140148 0.087109 0.226705
O O14 0.900079 0.315782 0.958467
O O15 0.065198 0.561597 0.190556
O O16 0.274914 0.606927 0.349506
#
# Coordination Sequence:
#
# PCOD9115168 Si02
#       8
#     2   2   2   2   2   2   2   2
#     4  11  23  35  64  95 129 163 206 255 326 399
#     4  11  20  38  59  96 129 170 202 258 322 390
#     4  10  20  34  62  90 132 159 208 251 323 385
#     4  10  21  42  64  93 125 167 208 269 319 374
#     4   9  21  40  64  87 127 161 207 269 312 368
#     4  10  22  44  62  86 122 169 214 273 310 366
#     4  11  21  38  58  96 122 169 200 262 322 380
#     4  10  22  43  63  85 124 166 215 263 312 374
#
# _framework density 20.987971000000002
#
# number of rings (size 3 to 8) (size 9 to 14) (size 15 to 20)
#    0.750    1.000    2.500    3.000    3.500    1.000 
#    4.500    0.000    0.000    0.000    0.000    0.000 
#    0.000    0.000    0.000    0.000    0.000    0.000 
#
# Total GULP energy -89090.653861 kJ/mol
# GULP energy per Si atom -5568.165866 kJ/mol
# Density = 2.094020 g / cm^3
# Si number density = 20.987971 Si / 1000 Ang^3
#
#
#
# Elastic Constant Matrix: (Units=GPa)
#
#
# Indices 1 2 3 4 5 6 
#
# 1 121.1552 22.8160 21.6844 0.0000 -7.0583 0.0000
# 2 22.8160 53.6640 -5.4197 0.0000 7.5837 0.0000
# 3 21.6844 -5.4197 29.8436 0.0000 3.6438 0.0000
# 4 0.0000 0.0000 0.0000 13.6648 0.0000 -5.3076
# 5 -7.0583 7.5837 3.6438 0.0000 18.3064 0.0000
# 6 0.0000 0.0000 0.0000 -5.3076 0.0000 33.5933
#
#
#
# Elastic Compliance Matrix: (Units=1/GPa)
#
#
# Indices 1 2 3 4 5 6 
#
# 1 0.012474 -0.007972 -0.011789 0.000000 0.010459 0.000000
# 2 -0.007972 0.025556 0.012403 0.000000 -0.016130 0.000000
# 3 -0.011789 0.012403 0.046642 0.000000 -0.018967 0.000000
# 4 0.000000 0.000000 0.000000 0.077966 0.000000 0.012318
# 5 0.010459 -0.016130 -0.018967 0.000000 0.069115 0.000000
# 6 0.000000 0.000000 0.000000 0.012318 0.000000 0.031714
#
#
# Mechanical properties :
#
#
# Convention : Reuss Voigt Hill
#
# Bulk Modulus (GPa) = 14.29456 31.42491 22.85973
# Shear Modulus (GPa) = 16.58361 24.15169 20.36765
#
# Velocity S-wave (km/s) = 2.81401 3.39594 3.11857
# Velocity P-wave (km/s) = 4.16939 5.51197 4.88700
#
# Compressibility (1/GPa) = 0.06995667
#
# Stress axis : x y z
#
# Youngs Moduli (GPa) = 80.16363 39.12970 21.43987
#
# Poissons Ratio (x) = 0.31195 0.25275
# Poissons Ratio (y) = 0.63909 -0.26592
# Poissons Ratio (z) = 0.94503 -0.48533
#
# Static dielectric constant tensor:
#      x y z
#    x 1.732380 0.000000 -0.059640 
#    y 0.000000 1.805110 0.000000 
#    z -0.059640 0.000000 1.888260 
# 
# From -- ./inp_files/7518.got.cif
#   From: 2010.05.17/outbox.cif.g08.bks.cpg/sg4_4_cif.got.tgz:7518.got - 2010.06.03 18:43:04.
