data_PCOD9115956
_publ_section_title
;
Structure prediction by ZEFSAII (Michael W. Deem and Ramdas Pophale) SiO2 
 PCOD9115956
Probable space group: P 21
;
_chemical_formula_sum "Si O2"
_cell_formula_units_Z 12
_cell_length_a 22.607399
_cell_length_b 5.175026
_cell_length_c 9.340713
_cell_angle_alpha 90.000000
_cell_angle_beta 26.417102
_cell_angle_gamma 90.000000
_cell_volume 486.192244
_symmetry_space_group_name_H-M "P 21"
_symmetry_group_IT_number 4
_symmetry_cell_setting 'monoclinic'
loop_
_space_group_symop_operation_xyz
x,y,z
-x,1/2+y,-z
loop_
_atom_site_type_symbol
_atom_site_label
_atom_site_fract_x
_atom_site_fract_y
_atom_site_fract_z
Si Si1 0.962825 0.939000 0.174164
Si Si2 0.668639 0.920539 0.949509
Si Si3 0.808949 0.266680 0.120430
Si Si4 0.273607 0.914344 0.021277
Si Si5 0.465694 0.740682 0.150824
Si Si6 0.009757 0.388910 0.378452
O O1 0.808938 0.923962 0.558050
O O2 0.001302 0.694264 0.992242
O O3 0.063228 0.915003 0.092519
O O4 0.681928 0.701392 0.042022
O O5 0.551713 0.835927 0.098450
O O6 0.642548 0.193087 0.083106
O O7 0.750663 0.356580 0.093344
O O8 0.689843 0.279782 0.488428
O O9 0.859852 0.971615 0.988291
O O10 0.126743 0.877899 0.411750
O O11 0.492704 0.440090 0.063419
O O12 0.986276 0.644171 0.528139
#
# Coordination Sequence:
#
# PCOD9115956 Si02
#       6
#     2   2   2   2   2   2
#     4  12  26  42  66  99 133 185 239 282 335 407
#     4  12  25  45  71 101 147 176 234 301 345 421
#     4  11  26  44  76 101 142 188 232 293 363 423
#     4  11  24  42  72 109 140 175 227 299 370 409
#     4  12  28  51  71  99 144 199 242 284 345 429
#     4  10  21  38  66 107 142 173 222 287 360 423
#
# _framework density 24.681595000000002
#
# number of rings (size 3 to 8) (size 9 to 14) (size 15 to 20)
#    0.000    0.667    1.667    6.000    4.667    6.667 
#    0.000    0.000    0.000    0.000    0.000    0.000 
#    0.000    0.000    0.000    0.000    0.000    0.000 
#
# Total GULP energy -67219.144445 kJ/mol
# GULP energy per Si atom -5601.595370 kJ/mol
# Density = 2.462542 g / cm^3
# Si number density = 24.681595 Si / 1000 Ang^3
#
#
#
# Elastic Constant Matrix: (Units=GPa)
#
#
# Indices 1 2 3 4 5 6 
#
# 1 99.5751 7.0636 -5.0744 0.0000 1.3638 0.0000
# 2 7.0636 113.3032 -10.9131 0.0000 15.5629 0.0000
# 3 -5.0744 -10.9131 77.2123 0.0000 -11.7072 0.0000
# 4 0.0000 0.0000 0.0000 12.7559 0.0000 3.8386
# 5 1.3638 15.5629 -11.7072 0.0000 32.2285 0.0000
# 6 0.0000 0.0000 0.0000 3.8386 0.0000 52.1277
#
#
#
# Elastic Compliance Matrix: (Units=1/GPa)
#
#
# Indices 1 2 3 4 5 6 
#
# 1 0.010113 -0.000583 0.000593 0.000000 0.000069 0.000000
# 2 -0.000583 0.009520 0.000650 0.000000 -0.004337 0.000000
# 3 0.000593 0.000650 0.013790 0.000000 0.004671 0.000000
# 4 0.000000 0.000000 0.000000 0.080172 0.000000 -0.005904
# 5 0.000069 -0.004337 0.004671 0.000000 0.034816 0.000000
# 6 0.000000 0.000000 0.000000 -0.005904 0.000000 0.019618
#
#
# Mechanical properties :
#
#
# Convention : Reuss Voigt Hill
#
# Bulk Modulus (GPa) = 28.78259 30.24921 29.51590
# Shear Modulus (GPa) = 28.04386 39.35673 33.70029
#
# Velocity S-wave (km/s) = 3.37445 3.99755 3.69914
# Velocity P-wave (km/s) = 5.18357 5.79565 5.49814
#
# Compressibility (1/GPa) = 0.03474323
#
# Stress axis : x y z
#
# Youngs Moduli (GPa) = 98.87993 105.03692 72.51493
#
# Poissons Ratio (x) = 0.06122 -0.04298
# Poissons Ratio (y) = 0.05763 -0.04712
# Poissons Ratio (z) = -0.05861 -0.06825
#
# Static dielectric constant tensor:
#      x y z
#    x 1.969390 0.000000 0.038210 
#    y 0.000000 2.014080 0.000000 
#    z 0.038210 0.000000 2.013780 
# 
# From -- ./inp_files/9749.got.cif
#   From: 2010.05.17/outbox.cif.g08.bks.cpg/sg4_5_cif.got.tgz:9749.got - 2010.06.03 18:43:04.
