data_PCOD9115598
_publ_section_title
;
Structure prediction by ZEFSAII (Michael W. Deem and Ramdas Pophale) SiO2 
 PCOD9115598
Probable space group: P 21
;
_chemical_formula_sum "Si O2"
_cell_formula_units_Z 16
_cell_length_a 10.183687
_cell_length_b 9.187007
_cell_length_c 13.462514
_cell_angle_alpha 90.000000
_cell_angle_beta 149.432401
_cell_angle_gamma 90.000000
_cell_volume 640.534946
_symmetry_space_group_name_H-M "P 21"
_symmetry_group_IT_number 4
_symmetry_cell_setting 'monoclinic'
loop_
_space_group_symop_operation_xyz
x,y,z
-x,1/2+y,-z
loop_
_atom_site_type_symbol
_atom_site_label
_atom_site_fract_x
_atom_site_fract_y
_atom_site_fract_z
Si Si1 0.812991 0.401690 0.922189
Si Si2 0.394704 0.399705 0.236627
Si Si3 0.479477 0.988372 0.977745
Si Si4 0.082068 0.363701 0.420552
Si Si5 0.275326 0.651502 0.456938
Si Si6 0.522155 0.690431 0.419251
Si Si7 0.413071 0.265012 0.812418
Si Si8 0.735219 0.675284 0.992262
O O1 0.677458 0.320964 0.740298
O O2 0.662117 0.329403 0.916543
O O3 0.772448 0.573826 0.917631
O O4 0.119280 0.380698 0.113360
O O5 0.618206 0.296325 0.424204
O O6 0.476310 0.564489 0.308665
O O7 0.343474 0.334816 0.094148
O O8 0.489964 0.105514 0.897757
O O9 0.461436 0.093813 0.063468
O O10 0.212853 0.901854 0.784085
O O11 0.659765 0.861464 0.137943
O O12 0.230669 0.518075 0.502949
O O13 0.196870 0.260081 0.409716
O O14 0.175569 0.286438 0.582018
O O15 0.468684 0.622235 0.491162
O O16 0.003699 0.671059 0.224911
#
# Coordination Sequence:
#
# PCOD9115598 Si02
#       8
#     2   2   2   2   2   2   2   2
#     4  10  20  41  60  90 133 172 210 267 322 381
#     4  12  21  36  61  96 135 170 208 265 321 401
#     4  10  23  44  71  90 125 174 222 277 321 378
#     4  10  24  45  64  94 140 170 213 278 324 386
#     4  11  21  37  63  94 134 176 210 254 328 403
#     4  11  22  36  62  97 131 175 216 250 333 399
#     4  10  23  43  69  95 120 177 226 269 331 369
#     4  10  22  42  60  90 132 172 215 268 330 373
#
# _framework density 24.979120999999999
#
# number of rings (size 3 to 8) (size 9 to 14) (size 15 to 20)
#    0.000    1.500    2.500    3.000    3.500    3.000 
#    2.250    7.500    0.000    0.000    0.000    0.000 
#    0.000    0.000    0.000    0.000    0.000    0.000 
#
# Total GULP energy -89463.738204 kJ/mol
# GULP energy per Si atom -5591.483638 kJ/mol
# Density = 2.492227 g / cm^3
# Si number density = 24.979121 Si / 1000 Ang^3
#
#
#
# Elastic Constant Matrix: (Units=GPa)
#
#
# Indices 1 2 3 4 5 6 
#
# 1 57.4524 12.5337 -2.4162 0.0000 -10.7959 0.0000
# 2 12.5337 118.9878 11.8464 0.0000 -6.0265 0.0000
# 3 -2.4162 11.8464 58.7263 0.0000 -13.1816 0.0000
# 4 0.0000 0.0000 0.0000 32.7048 0.0000 -4.6366
# 5 -10.7959 -6.0265 -13.1816 0.0000 33.6854 0.0000
# 6 0.0000 0.0000 0.0000 -4.6366 0.0000 46.1489
#
#
#
# Elastic Compliance Matrix: (Units=1/GPa)
#
#
# Indices 1 2 3 4 5 6 
#
# 1 0.019240 -0.001950 0.002730 0.000000 0.006886 0.000000
# 2 -0.001950 0.008801 -0.001801 0.000000 0.000245 0.000000
# 3 0.002730 -0.001801 0.019325 0.000000 0.008115 0.000000
# 4 0.000000 0.000000 0.000000 0.031018 0.000000 0.003116
# 5 0.006886 0.000245 0.008115 0.000000 0.035113 0.000000
# 6 0.000000 0.000000 0.000000 0.003116 0.000000 0.021982
#
#
# Mechanical properties :
#
#
# Convention : Reuss Voigt Hill
#
# Bulk Modulus (GPa) = 22.06211 31.01048 26.53629
# Shear Modulus (GPa) = 32.75937 36.72134 34.74035
#
# Velocity S-wave (km/s) = 3.62535 3.83832 3.73336
# Velocity P-wave (km/s) = 5.13572 5.66437 5.40651
#
# Compressibility (1/GPa) = 0.04532659
#
# Stress axis : x y z
#
# Youngs Moduli (GPa) = 51.97555 113.61976 51.74585
#
# Poissons Ratio (x) = 0.22153 -0.14129
# Poissons Ratio (y) = 0.10134 0.09317
# Poissons Ratio (z) = -0.14192 0.20458
#
# Static dielectric constant tensor:
#      x y z
#    x 2.099930 0.000000 -0.054480 
#    y 0.000000 1.981090 0.000000 
#    z -0.054480 0.000000 1.961720 
# 
# From -- ./inp_files/13967.got.cif
#   From: 2010.05.17/outbox.cif.g08.bks.cpg/sg4_7_cif.got.tgz:13967.got - 2010.06.03 18:43:04.
