data_PCOD9115658
_publ_section_title
;
Structure prediction by ZEFSAII (Michael W. Deem and Ramdas Pophale) SiO2 
 PCOD9115658
Probable space group: P 21
;
_chemical_formula_sum "Si O2"
_cell_formula_units_Z 14
_cell_length_a 7.769655
_cell_length_b 8.716084
_cell_length_c 12.463526
_cell_angle_alpha 90.000000
_cell_angle_beta 36.719884
_cell_angle_gamma 90.000000
_cell_volume 504.655557
_symmetry_space_group_name_H-M "P 21"
_symmetry_group_IT_number 4
_symmetry_cell_setting 'monoclinic'
loop_
_space_group_symop_operation_xyz
x,y,z
-x,1/2+y,-z
loop_
_atom_site_type_symbol
_atom_site_label
_atom_site_fract_x
_atom_site_fract_y
_atom_site_fract_z
Si Si1 0.847217 0.113090 0.639588
Si Si2 0.149851 0.577417 0.986846
Si Si3 0.060107 0.412876 0.604848
Si Si4 0.429241 0.095499 0.534913
Si Si5 0.500074 0.845056 0.341104
Si Si6 0.575813 0.596126 0.960674
Si Si7 0.058941 0.777579 0.834582
O O1 0.065331 0.229700 0.590485
O O2 0.675479 0.231484 0.647859
O O3 0.625587 0.051288 0.838815
O O4 0.971352 0.989253 0.496694
O O5 0.323538 0.459366 0.822898
O O6 0.372324 0.641450 0.963160
O O7 0.021389 0.699580 0.969893
O O8 0.935135 0.460383 0.155085
O O9 0.786969 0.462775 0.812696
O O10 0.339222 0.494419 0.511564
O O11 0.316939 0.231050 0.671745
O O12 0.658698 0.197148 0.350728
O O13 0.316518 0.958908 0.511462
O O14 0.789471 0.728594 0.895849
#
# Coordination Sequence:
#
# PCOD9115658 Si02
#       7
#     2   2   2   2   2   2   2
#     4  11  23  42  69  98 138 178 233 290 348 424
#     4  11  23  42  69  98 138 178 233 290 348 424
#     4  10  23  42  65 103 132 174 240 281 345 432
#     4   9  22  38  63  88 132 171 220 288 345 412
#     4  10  20  42  62  92 130 174 220 282 352 414
#     4  11  22  44  71  96 144 189 222 292 355 414
#     4  10  23  42  65 103 132 174 240 281 345 432
#
# _framework density 27.741689999999998
#
# number of rings (size 3 to 8) (size 9 to 14) (size 15 to 20)
#    0.000    1.714    2.857    0.000    0.000   11.429 
#    0.000    0.000    0.000    0.000    0.000    0.000 
#    0.000    0.000    0.000    0.000    0.000    0.000 
#
# Total GULP energy -78477.284855 kJ/mol
# GULP energy per Si atom -5605.520347 kJ/mol
# Density = 2.767855 g / cm^3
# Si number density = 27.741690 Si / 1000 Ang^3
#
#
#
# Elastic Constant Matrix: (Units=GPa)
#
#
# Indices 1 2 3 4 5 6 
#
# 1 100.8451 25.3274 65.1660 0.0000 9.5181 0.0000
# 2 25.3274 142.4020 38.5788 0.0000 10.5846 0.0000
# 3 65.1660 38.5788 135.5400 0.0000 21.7024 0.0000
# 4 0.0000 0.0000 0.0000 43.8521 0.0000 -1.5973
# 5 9.5181 10.5846 21.7024 0.0000 46.9775 0.0000
# 6 0.0000 0.0000 0.0000 -1.5973 0.0000 43.8221
#
#
#
# Elastic Compliance Matrix: (Units=1/GPa)
#
#
# Indices 1 2 3 4 5 6 
#
# 1 0.014465 -0.000759 -0.006799 0.000000 0.000382 0.000000
# 2 -0.000759 0.007675 -0.001693 0.000000 -0.000794 0.000000
# 3 -0.006799 -0.001693 0.011714 0.000000 -0.003652 0.000000
# 4 0.000000 0.000000 0.000000 0.022834 0.000000 0.000832
# 5 0.000382 -0.000794 -0.003652 0.000000 0.023076 0.000000
# 6 0.000000 0.000000 0.000000 0.000832 0.000000 0.022850
#
#
# Mechanical properties :
#
#
# Convention : Reuss Voigt Hill
#
# Bulk Modulus (GPa) = 65.14185 70.77018 67.95601
# Shear Modulus (GPa) = 39.60970 43.57801 41.59385
#
# Velocity S-wave (km/s) = 3.78273 3.96769 3.87631
# Velocity P-wave (km/s) = 6.52773 6.82319 6.67709
#
# Compressibility (1/GPa) = 0.01535112
#
# Stress axis : x y z
#
# Youngs Moduli (GPa) = 69.13424 130.29520 85.37106
#
# Poissons Ratio (x) = 0.09889 0.58048
# Poissons Ratio (y) = 0.05247 0.14450
# Poissons Ratio (z) = 0.47008 0.22053
#
# Static dielectric constant tensor:
#      x y z
#    x 2.263740 0.000000 0.033000 
#    y 0.000000 2.083430 0.000000 
#    z 0.033000 0.000000 2.268730 
# 
# From -- ./inp_files/7979.got.cif
#   From: 2010.05.17/outbox.cif.g08.bks.cpg/sg4_4_cif.got.tgz:7979.got - 2010.06.03 18:43:04.
