data_PCOD9115458
_publ_section_title
;
Structure prediction by ZEFSAII (Michael W. Deem and Ramdas Pophale) SiO2 
 PCOD9115458
Probable space group: P 21
;
_chemical_formula_sum "Si O2"
_cell_formula_units_Z 16
_cell_length_a 19.404066
_cell_length_b 8.163716
_cell_length_c 9.793694
_cell_angle_alpha 90.000000
_cell_angle_beta 23.159191
_cell_angle_gamma 90.000000
_cell_volume 610.150432
_symmetry_space_group_name_H-M "P 21"
_symmetry_group_IT_number 4
_symmetry_cell_setting 'monoclinic'
loop_
_space_group_symop_operation_xyz
x,y,z
-x,1/2+y,-z
loop_
_atom_site_type_symbol
_atom_site_label
_atom_site_fract_x
_atom_site_fract_y
_atom_site_fract_z
Si Si1 0.980047 0.030410 0.356470
Si Si2 0.988601 0.857946 0.068478
Si Si3 0.410430 0.462800 0.251074
Si Si4 0.333169 0.598537 0.661905
Si Si5 0.581650 0.140656 0.040485
Si Si6 0.528834 0.415678 0.528285
Si Si7 0.960886 0.523102 0.280900
Si Si8 0.182224 0.211642 0.220409
O O1 0.111469 0.132956 0.210255
O O2 0.040451 0.986864 0.092717
O O3 0.941982 0.858197 0.500825
O O4 0.787893 0.116550 0.698052
O O5 0.782507 0.886471 0.418022
O O6 0.001083 0.679666 0.110611
O O7 0.080664 0.884698 0.754838
O O8 0.384874 0.604428 0.409420
O O9 0.530445 0.323110 0.095354
O O10 0.465838 0.532554 0.005555
O O11 0.476750 0.493170 0.480396
O O12 0.319076 0.781433 0.747544
O O13 0.149306 0.502067 0.010800
O O14 0.470684 0.065235 0.367148
O O15 0.366900 0.300267 0.868721
O O16 0.826602 0.578147 0.641274
#
# Coordination Sequence:
#
# PCOD9115458 Si02
#       8
#     2   2   2   2   2   2   2   2
#     4   9  20  36  57  87 118 150 195 245 293 349
#     4   9  21  37  56  85 118 149 196 248 295 350
#     4  10  21  38  60  89 123 159 199 246 298 354
#     4  11  24  41  60  89 123 158 199 249 301 355
#     4  10  20  39  61  88 124 159 198 247 295 355
#     4  11  24  41  61  89 122 158 201 248 297 357
#     4  10  21  39  60  85 119 155 195 243 295 354
#     4  10  21  39  61  86 117 154 197 244 292 352
#
# _framework density 26.223040000000001
#
# number of rings (size 3 to 8) (size 9 to 14) (size 15 to 20)
#    0.000    2.000    0.000    3.750    0.000    7.000 
#    0.000    3.750    0.000    0.000    0.000    0.000 
#    0.000    0.000    0.000    0.000    0.000    0.000 
#
# Total GULP energy -89716.619751 kJ/mol
# GULP energy per Si atom -5607.288734 kJ/mol
# Density = 2.616336 g / cm^3
# Si number density = 26.223040 Si / 1000 Ang^3
#
#
#
# Elastic Constant Matrix: (Units=GPa)
#
#
# Indices 1 2 3 4 5 6 
#
# 1 118.6429 37.1446 33.3254 0.0000 10.5852 0.0000
# 2 37.1446 80.4413 11.0970 0.0000 -5.1640 0.0000
# 3 33.3254 11.0970 74.3779 0.0000 2.3992 0.0000
# 4 0.0000 0.0000 0.0000 34.1987 0.0000 6.3082
# 5 10.5852 -5.1640 2.3992 0.0000 33.0117 0.0000
# 6 0.0000 0.0000 0.0000 6.3082 0.0000 61.1030
#
#
#
# Elastic Compliance Matrix: (Units=1/GPa)
#
#
# Indices 1 2 3 4 5 6 
#
# 1 0.011585 -0.005024 -0.004306 0.000000 -0.004188 0.000000
# 2 -0.005024 0.015023 -0.000118 0.000000 0.003970 0.000000
# 3 -0.004306 -0.000118 0.015384 0.000000 0.000244 0.000000
# 4 0.000000 0.000000 0.000000 0.029809 0.000000 -0.003077
# 5 -0.004188 0.003970 0.000244 0.000000 0.032238 0.000000
# 6 0.000000 0.000000 0.000000 -0.003077 0.000000 0.016684
#
#
# Mechanical properties :
#
#
# Convention : Reuss Voigt Hill
#
# Bulk Modulus (GPa) = 43.30045 48.51067 45.90556
# Shear Modulus (GPa) = 33.94059 38.45570 36.19814
#
# Velocity S-wave (km/s) = 3.60155 3.83363 3.71940
# Velocity P-wave (km/s) = 5.81748 6.17535 5.99909
#
# Compressibility (1/GPa) = 0.02309445
#
# Stress axis : x y z
#
# Youngs Moduli (GPa) = 86.32069 66.56672 65.00296
#
# Poissons Ratio (x) = 0.33444 0.27990
# Poissons Ratio (y) = 0.43369 0.00769
# Poissons Ratio (z) = 0.37169 0.00787
#
# Static dielectric constant tensor:
#      x y z
#    x 2.054630 0.000000 -0.046000 
#    y 0.000000 2.072640 0.000000 
#    z -0.046000 0.000000 2.071340 
# 
# From -- ./inp_files/5378.got.cif
#   From: 2010.05.17/outbox.cif.g08.bks.cpg/sg4_3_cif.got.tgz:5378.got - 2010.06.03 18:43:04.
