data_PCOD9115640
_publ_section_title
;
Structure prediction by ZEFSAII (Michael W. Deem and Ramdas Pophale) SiO2 
 PCOD9115640
Probable space group: P 21
;
_chemical_formula_sum "Si O2"
_cell_formula_units_Z 16
_cell_length_a 15.175553
_cell_length_b 5.587021
_cell_length_c 17.795612
_cell_angle_alpha 90.000000
_cell_angle_beta 26.158258
_cell_angle_gamma 90.000000
_cell_volume 665.166891
_symmetry_space_group_name_H-M "P 21"
_symmetry_group_IT_number 4
_symmetry_cell_setting 'monoclinic'
loop_
_space_group_symop_operation_xyz
x,y,z
-x,1/2+y,-z
loop_
_atom_site_type_symbol
_atom_site_label
_atom_site_fract_x
_atom_site_fract_y
_atom_site_fract_z
Si Si1 0.933680 0.017120 0.420706
Si Si2 0.766972 0.297658 0.050726
Si Si3 0.399374 0.201301 0.261295
Si Si4 0.435870 0.032147 0.648070
Si Si5 0.285790 0.906877 0.486125
Si Si6 0.158639 0.306060 0.673461
Si Si7 0.603442 0.472354 0.893757
Si Si8 0.982258 0.480339 0.058150
O O1 0.855929 0.285277 0.468545
O O2 0.164552 0.979948 0.259675
O O3 0.789250 0.880012 0.590244
O O4 0.880043 0.930219 0.377752
O O5 0.617346 0.324110 0.095351
O O6 0.664389 0.425127 0.199537
O O7 0.985190 0.395316 0.860260
O O8 0.839784 0.030757 0.019617
O O9 0.394830 0.017299 0.197134
O O10 0.402452 0.086189 0.341974
O O11 0.549146 0.263792 0.592727
O O12 0.244272 0.029414 0.740619
O O13 0.615763 0.874428 0.477999
O O14 0.149217 0.033194 0.652673
O O15 0.505106 0.215109 0.990500
O O16 0.992760 0.214503 0.016139
#
# Coordination Sequence:
#
# PCOD9115640 Si02
#       8
#     2   2   2   2   2   2   2   2
#     4  10  24  44  68  99 139 183 232 288 351 423
#     4  11  21  44  67 101 132 186 235 282 352 415
#     4  11  24  42  73  94 138 186 235 277 359 419
#     4  10  21  44  63  97 140 182 225 294 347 413
#     4  10  20  41  69  96 135 181 231 288 344 421
#     4  10  22  42  67 100 136 178 236 288 345 421
#     4  12  31  47  69 108 148 178 234 302 350 418
#     4  10  23  42  70  99 140 180 230 285 342 412
#
# _framework density 24.054112
#
# number of rings (size 3 to 8) (size 9 to 14) (size 15 to 20)
#    0.000    1.500    3.750    1.500   10.500    1.000 
#   13.500    0.000    0.000    0.000    0.000    0.000 
#    0.000    0.000    0.000    0.000    0.000    0.000 
#
# Total GULP energy -89191.215057 kJ/mol
# GULP energy per Si atom -5574.450941 kJ/mol
# Density = 2.399936 g / cm^3
# Si number density = 24.054112 Si / 1000 Ang^3
#
#
#
# Elastic Constant Matrix: (Units=GPa)
#
#
# Indices 1 2 3 4 5 6 
#
# 1 52.7397 1.8916 28.0778 0.0000 -9.7187 0.0000
# 2 1.8916 74.0600 35.4243 0.0000 1.4721 0.0000
# 3 28.0778 35.4243 161.5225 0.0000 -24.9360 0.0000
# 4 0.0000 0.0000 0.0000 29.0616 0.0000 -0.0860
# 5 -9.7187 1.4721 -24.9360 0.0000 62.4023 0.0000
# 6 0.0000 0.0000 0.0000 -0.0860 0.0000 22.9095
#
#
#
# Elastic Compliance Matrix: (Units=1/GPa)
#
#
# Indices 1 2 3 4 5 6 
#
# 1 0.021203 0.001175 -0.003664 0.000000 0.001810 0.000000
# 2 0.001175 0.015340 -0.003833 0.000000 -0.001710 0.000000
# 3 -0.003664 -0.003833 0.008094 0.000000 0.002754 0.000000
# 4 0.000000 0.000000 0.000000 0.034410 0.000000 0.000129
# 5 0.001810 -0.001710 0.002754 0.000000 0.017448 0.000000
# 6 0.000000 0.000000 0.000000 0.000129 0.000000 0.043650
#
#
# Mechanical properties :
#
#
# Convention : Reuss Voigt Hill
#
# Bulk Modulus (GPa) = 31.25632 46.56775 38.91203
# Shear Modulus (GPa) = 30.58993 37.73658 34.16325
#
# Velocity S-wave (km/s) = 3.56998 3.96513 3.77273
# Velocity P-wave (km/s) = 5.47863 6.35332 5.93212
#
# Compressibility (1/GPa) = 0.03199353
#
# Stress axis : x y z
#
# Youngs Moduli (GPa) = 47.16280 65.19026 123.55276
#
# Poissons Ratio (x) = -0.07660 0.45270
# Poissons Ratio (y) = -0.05542 0.47352
# Poissons Ratio (z) = 0.17280 0.24984
#
# Static dielectric constant tensor:
#      x y z
#    x 1.982460 0.000000 -0.029240 
#    y 0.000000 2.134520 0.000000 
#    z -0.029240 0.000000 1.986000 
# 
# From -- ./inp_files/15861.got.cif
#   From: 2010.05.17/outbox.cif.g08.bks.cpg/sg4_8_cif.got.tgz:15861.got - 2010.06.03 18:43:04.
