data_PCOD9115494
_publ_section_title
;
Structure prediction by ZEFSAII (Michael W. Deem and Ramdas Pophale) SiO2 
 PCOD9115494
Probable space group: P 21
;
_chemical_formula_sum "Si O2"
_cell_formula_units_Z 16
_cell_length_a 14.777704
_cell_length_b 9.123220
_cell_length_c 11.682506
_cell_angle_alpha 90.000000
_cell_angle_beta 153.086609
_cell_angle_gamma 90.000000
_cell_volume 712.930266
_symmetry_space_group_name_H-M "P 21"
_symmetry_group_IT_number 4
_symmetry_cell_setting 'monoclinic'
loop_
_space_group_symop_operation_xyz
x,y,z
-x,1/2+y,-z
loop_
_atom_site_type_symbol
_atom_site_label
_atom_site_fract_x
_atom_site_fract_y
_atom_site_fract_z
Si Si1 0.480353 0.786830 0.379819
Si Si2 0.865691 0.978010 0.764726
Si Si3 0.301413 0.689550 0.608479
Si Si4 0.731930 0.672416 0.984690
Si Si5 0.934990 0.992912 0.499349
Si Si6 0.282007 0.015203 0.279943
Si Si7 0.999051 0.938592 0.305922
Si Si8 0.936192 0.260256 0.192434
O O1 0.660618 0.903162 0.571177
O O2 0.577804 0.627378 0.495882
O O3 0.367742 0.850403 0.365759
O O4 0.304049 0.780183 0.086698
O O5 0.966154 0.858178 0.795562
O O6 0.816324 0.118664 0.632025
O O7 0.050438 0.014202 0.055916
O O8 0.527700 0.692668 0.822806
O O9 0.256733 0.575992 0.662580
O O10 0.203428 0.845521 0.527988
O O11 0.713039 0.582936 0.844772
O O12 0.884831 0.586919 0.240839
O O13 0.830449 0.828731 0.069081
O O14 0.969870 0.829976 0.587724
O O15 0.944635 0.978900 0.375416
O O16 0.996552 0.094179 0.243860
#
# Coordination Sequence:
#
# PCOD9115494 Si02
#       8
#     2   2   2   2   2   2   2   2
#     4  11  24  41  66  90 122 163 206 259 310 376
#     4  10  20  43  62  87 122 167 201 250 314 368
#     4  10  20  39  66  86 120 172 199 248 317 364
#     4  11  21  42  63  85 127 166 202 256 311 371
#     4  10  20  42  64  84 124 169 205 257 307 362
#     4  11  23  42  64  90 120 164 205 254 316 364
#     4  11  23  37  62  97 126 158 210 258 302 371
#     4  10  21  40  59  93 127 159 204 254 313 358
#
# _framework density 22.442588000000001
#
# number of rings (size 3 to 8) (size 9 to 14) (size 15 to 20)
#    0.000    1.500    6.250    1.500    1.750    4.000 
#    0.000    3.750    0.000    0.000    0.000    0.000 
#    0.000    0.000    0.000    0.000    0.000    0.000 
#
# Total GULP energy -89387.578910 kJ/mol
# GULP energy per Si atom -5586.723682 kJ/mol
# Density = 2.239151 g / cm^3
# Si number density = 22.442588 Si / 1000 Ang^3
#
#
#
# Elastic Constant Matrix: (Units=GPa)
#
#
# Indices 1 2 3 4 5 6 
#
# 1 70.6564 8.0730 22.0506 0.0000 13.1338 0.0000
# 2 8.0730 111.4895 1.6774 0.0000 4.0833 0.0000
# 3 22.0506 1.6774 32.7323 0.0000 15.9415 0.0000
# 4 0.0000 0.0000 0.0000 26.5202 0.0000 2.4477
# 5 13.1338 4.0833 15.9415 0.0000 27.9798 0.0000
# 6 0.0000 0.0000 0.0000 2.4477 0.0000 18.8186
#
#
#
# Elastic Compliance Matrix: (Units=1/GPa)
#
#
# Indices 1 2 3 4 5 6 
#
# 1 0.018139 -0.001073 -0.011202 0.000000 -0.001975 0.000000
# 2 -0.001073 0.009083 0.000910 0.000000 -0.001340 0.000000
# 3 -0.011202 0.000910 0.049209 0.000000 -0.022911 0.000000
# 4 0.000000 0.000000 0.000000 0.038165 0.000000 -0.004964
# 5 -0.001975 -0.001340 -0.022911 0.000000 0.049917 0.000000
# 6 0.000000 0.000000 0.000000 -0.004964 0.000000 0.053785
#
#
# Mechanical properties :
#
#
# Convention : Reuss Voigt Hill
#
# Bulk Modulus (GPa) = 18.62176 30.94223 24.78199
# Shear Modulus (GPa) = 19.31040 26.86887 23.08964
#
# Velocity S-wave (km/s) = 2.93650 3.46385 3.21102
# Velocity P-wave (km/s) = 4.45117 5.46030 4.98136
#
# Compressibility (1/GPa) = 0.05370061
#
# Stress axis : x y z
#
# Youngs Moduli (GPa) = 55.13048 110.10160 20.32129
#
# Poissons Ratio (x) = 0.11809 0.22765
# Poissons Ratio (y) = 0.05913 -0.01849
# Poissons Ratio (z) = 0.61760 -0.10019
#
# Static dielectric constant tensor:
#      x y z
#    x 1.840710 0.000000 0.005900 
#    y 0.000000 1.863150 0.000000 
#    z 0.005900 0.000000 1.865980 
# 
# From -- ./inp_files/12542.got.cif
#   From: 2010.05.17/outbox.cif.g08.bks.cpg/sg4_7_cif.got.tgz:12542.got - 2010.06.03 18:43:04.
