data_PCOD9115378
_publ_section_title
;
Structure prediction by ZEFSAII (Michael W. Deem and Ramdas Pophale) SiO2 
 PCOD9115378
Probable space group: P 21
;
_chemical_formula_sum "Si O2"
_cell_formula_units_Z 14
_cell_length_a 11.307156
_cell_length_b 8.100728
_cell_length_c 11.232181
_cell_angle_alpha 90.000000
_cell_angle_beta 139.299778
_cell_angle_gamma 90.000000
_cell_volume 670.898191
_symmetry_space_group_name_H-M "P 21"
_symmetry_group_IT_number 4
_symmetry_cell_setting 'monoclinic'
loop_
_space_group_symop_operation_xyz
x,y,z
-x,1/2+y,-z
loop_
_atom_site_type_symbol
_atom_site_label
_atom_site_fract_x
_atom_site_fract_y
_atom_site_fract_z
Si Si1 0.535802 0.683560 0.402066
Si Si2 0.863162 0.362788 0.258155
Si Si3 0.556189 0.429227 0.853381
Si Si4 0.110526 0.338559 0.238696
Si Si5 0.820230 0.123929 0.447936
Si Si6 0.866687 0.549949 0.917831
Si Si7 0.718143 0.337684 0.598114
O O1 0.460189 0.746734 0.218431
O O2 0.701084 0.812117 0.552226
O O3 0.603564 0.496008 0.460949
O O4 0.402652 0.719981 0.410138
O O5 0.847940 0.240209 0.355714
O O6 0.957582 0.279222 0.214560
O O7 0.004506 0.508011 0.398789
O O8 0.668756 0.423818 0.061742
O O9 0.361901 0.516377 0.712981
O O10 0.685482 0.524322 0.857192
O O11 0.124260 0.225741 0.134023
O O12 0.035712 0.510104 0.131598
O O13 0.793264 0.237358 0.544058
O O14 0.853589 0.426094 0.794940
#
# Coordination Sequence:
#
# PCOD9115378 Si02
#       7
#     2   2   2   2   2   2   2
#     4  10  20  39  68  98 132 171 214 274 338 390
#     4  11  28  43  69  95 131 179 226 265 330 384
#     4  10  23  47  65  97 134 168 226 275 324 395
#     4  10  20  38  61  96 135 161 215 273 318 396
#     4  12  26  46  67  91 138 178 219 279 314 397
#     4   9  21  35  65  99 129 169 215 269 339 380
#     4  10  22  38  65  98 131 176 215 267 339 384
#
# _framework density 20.867546999999998
#
# number of rings (size 3 to 8) (size 9 to 14) (size 15 to 20)
#    0.000    1.714    1.429    2.571    8.000    4.571 
#    0.000    1.429    0.000    0.000    0.000    0.000 
#    0.000    0.000    0.000    0.000    0.000    0.000 
#
# Total GULP energy -78173.946938 kJ/mol
# GULP energy per Si atom -5583.853353 kJ/mol
# Density = 2.082005 g / cm^3
# Si number density = 20.867547 Si / 1000 Ang^3
#
#
#
# Elastic Constant Matrix: (Units=GPa)
#
#
# Indices 1 2 3 4 5 6 
#
# 1 57.6189 37.2089 43.4559 0.0000 -6.7118 0.0000
# 2 37.2089 88.4100 58.9158 0.0000 -1.5988 0.0000
# 3 43.4559 58.9158 142.2960 0.0000 0.6345 0.0000
# 4 0.0000 0.0000 0.0000 33.1679 0.0000 -0.8126
# 5 -6.7118 -1.5988 0.6345 0.0000 19.7561 0.0000
# 6 0.0000 0.0000 0.0000 -0.8126 0.0000 42.8685
#
#
#
# Elastic Compliance Matrix: (Units=1/GPa)
#
#
# Indices 1 2 3 4 5 6 
#
# 1 0.027371 -0.007960 -0.005103 0.000000 0.008819 0.000000
# 2 -0.007960 0.017979 -0.005008 0.000000 -0.001089 0.000000
# 3 -0.005103 -0.005008 0.010670 0.000000 -0.002481 0.000000
# 4 0.000000 0.000000 0.000000 0.030164 0.000000 0.000572
# 5 0.008819 -0.001089 -0.002481 0.000000 0.053605 0.000000
# 6 0.000000 0.000000 0.000000 0.000572 0.000000 0.023338
#
#
# Mechanical properties :
#
#
# Convention : Reuss Voigt Hill
#
# Bulk Modulus (GPa) = 50.30353 63.05404 56.67878
# Shear Modulus (GPa) = 24.28424 29.07478 26.67951
#
# Velocity S-wave (km/s) = 3.41505 3.73674 3.57951
# Velocity P-wave (km/s) = 6.30147 6.99282 6.65613
#
# Compressibility (1/GPa) = 0.01987932
#
# Stress axis : x y z
#
# Youngs Moduli (GPa) = 36.53452 55.62134 93.71634
#
# Poissons Ratio (x) = 0.44274 0.47820
# Poissons Ratio (y) = 0.29081 0.46934
# Poissons Ratio (z) = 0.18642 0.27856
#
# Static dielectric constant tensor:
#      x y z
#    x 1.726170 0.000000 0.018280 
#    y 0.000000 1.766510 0.000000 
#    z 0.018280 0.000000 1.800040 
# 
# From -- ./inp_files/7743.got.cif
#   From: 2010.05.17/outbox.cif.g08.bks.cpg/sg4_4_cif.got.tgz:7743.got - 2010.06.03 18:43:04.
