data_PCOD9115796
_publ_section_title
;
Structure prediction by ZEFSAII (Michael W. Deem and Ramdas Pophale) SiO2 
 PCOD9115796
Probable space group: P 21
;
_chemical_formula_sum "Si O2"
_cell_formula_units_Z 14
_cell_length_a 20.192324
_cell_length_b 5.130542
_cell_length_c 25.671836
_cell_angle_alpha 90.000000
_cell_angle_beta 167.581159
_cell_angle_gamma 90.000000
_cell_volume 571.951259
_symmetry_space_group_name_H-M "P 21"
_symmetry_group_IT_number 4
_symmetry_cell_setting 'monoclinic'
loop_
_space_group_symop_operation_xyz
x,y,z
-x,1/2+y,-z
loop_
_atom_site_type_symbol
_atom_site_label
_atom_site_fract_x
_atom_site_fract_y
_atom_site_fract_z
Si Si1 0.292342 0.802900 0.577657
Si Si2 0.803030 0.192793 0.845306
Si Si3 0.606458 0.123222 0.179973
Si Si4 0.970316 0.297544 0.738999
Si Si5 0.175503 0.125107 0.698334
Si Si6 0.341542 0.801442 0.151946
Si Si7 0.785237 0.795082 0.658781
O O1 0.212368 0.801844 0.455488
O O2 0.542669 0.578166 0.778924
O O3 0.987747 0.725889 0.375137
O O4 0.444299 0.078527 0.708509
O O5 0.623316 0.281092 0.759147
O O6 0.573048 0.219148 0.619934
O O7 0.077222 0.402009 0.052498
O O8 0.682091 0.338551 0.194084
O O9 0.894982 0.119705 0.441067
O O10 0.583150 0.838552 0.136951
O O11 0.311907 0.210540 0.985962
O O12 0.951263 0.582766 0.749172
O O13 0.827350 0.083889 0.668077
O O14 0.981779 0.770381 0.862277
#
# Coordination Sequence:
#
# PCOD9115796 Si02
#       7
#     2   2   2   2   2   2   2
#     4  12  23  42  67  96 134 175 227 278 323 384
#     4  12  26  46  72 102 138 164 210 272 330 394
#     4  10  21  36  56  88 129 172 221 275 327 379
#     4  12  23  42  67  96 134 175 227 278 323 384
#     4  10  21  36  56  88 129 172 221 275 327 379
#     4  12  25  45  71 100 133 177 221 264 328 396
#     4  12  25  45  71 100 133 177 221 264 328 396
#
# _framework density 24.477609999999999
#
# number of rings (size 3 to 8) (size 9 to 14) (size 15 to 20)
#    0.000    0.571    2.857    6.000    0.000    4.571 
#    0.000    0.000    0.000    0.000    0.000    0.000 
#    0.000    0.000    0.000    0.000    0.000    0.000 
#
# Total GULP energy -78461.442023 kJ/mol
# GULP energy per Si atom -5604.388716 kJ/mol
# Density = 2.442190 g / cm^3
# Si number density = 24.477610 Si / 1000 Ang^3
#
#
#
# Elastic Constant Matrix: (Units=GPa)
#
#
# Indices 1 2 3 4 5 6 
#
# 1 38.8617 1.9269 -14.3936 0.0000 -4.8999 0.0000
# 2 1.9269 55.7244 -3.2288 0.0000 -15.5688 0.0000
# 3 -14.3936 -3.2288 82.3915 0.0000 -14.7582 0.0000
# 4 0.0000 0.0000 0.0000 36.5285 0.0000 13.6151
# 5 -4.8999 -15.5688 -14.7582 0.0000 37.8718 0.0000
# 6 0.0000 0.0000 0.0000 13.6151 0.0000 21.7440
#
#
#
# Elastic Compliance Matrix: (Units=1/GPa)
#
#
# Indices 1 2 3 4 5 6 
#
# 1 0.028842 0.001236 0.006285 0.000000 0.006689 0.000000
# 2 0.001236 0.020801 0.002786 0.000000 0.009797 0.000000
# 3 0.006285 0.002786 0.014723 0.000000 0.007696 0.000000
# 4 0.000000 0.000000 0.000000 0.035710 0.000000 -0.022360
# 5 0.006689 0.009797 0.007696 0.000000 0.034297 0.000000
# 6 0.000000 0.000000 0.000000 -0.022360 0.000000 0.059991
#
#
# Mechanical properties :
#
#
# Convention : Reuss Voigt Hill
#
# Bulk Modulus (GPa) = 11.76749 16.17627 13.97188
# Shear Modulus (GPa) = 24.74305 32.07372 28.40838
#
# Velocity S-wave (km/s) = 3.18283 3.62377 3.41043
# Velocity P-wave (km/s) = 4.28078 4.91243 4.60744
#
# Compressibility (1/GPa) = 0.08497989
#
# Stress axis : x y z
#
# Youngs Moduli (GPa) = 34.67128 48.07402 67.92163
#
# Poissons Ratio (x) = -0.05940 -0.42690
# Poissons Ratio (y) = -0.04284 -0.18922
# Poissons Ratio (z) = -0.21792 -0.13393
#
# Static dielectric constant tensor:
#      x y z
#    x 1.910420 0.000000 -0.010750 
#    y 0.000000 1.889030 0.000000 
#    z -0.010750 0.000000 1.955030 
# 
# From -- ./inp_files/15898.got.cif
#   From: 2010.05.17/outbox.cif.g08.bks.cpg/sg4_8_cif.got.tgz:15898.got - 2010.06.03 18:43:04.
