data_PCOD9115275
_publ_section_title
;
Structure prediction by ZEFSAII (Michael W. Deem and Ramdas Pophale) SiO2 
 PCOD9115275
Probable space group: P 21
;
_chemical_formula_sum "Si O2"
_cell_formula_units_Z 16
_cell_length_a 11.644735
_cell_length_b 5.151977
_cell_length_c 11.443818
_cell_angle_alpha 90.000000
_cell_angle_beta 67.889812
_cell_angle_gamma 90.000000
_cell_volume 636.065655
_symmetry_space_group_name_H-M "P 21"
_symmetry_group_IT_number 4
_symmetry_cell_setting 'monoclinic'
loop_
_space_group_symop_operation_xyz
x,y,z
-x,1/2+y,-z
loop_
_atom_site_type_symbol
_atom_site_label
_atom_site_fract_x
_atom_site_fract_y
_atom_site_fract_z
Si Si1 0.814324 0.583600 0.800949
Si Si2 0.836217 0.236391 0.983761
Si Si3 0.418431 0.182369 0.013510
Si Si4 0.041120 0.896454 0.825849
Si Si5 0.345153 0.350362 0.807862
Si Si6 0.995499 0.316682 0.565174
Si Si7 0.784847 0.034769 0.374135
Si Si8 0.458626 0.776427 0.448051
O O1 0.764542 0.358906 0.904130
O O2 0.691123 0.752378 0.850596
O O3 0.923870 0.713047 0.835812
O O4 0.875342 0.458826 0.664965
O O5 0.893763 0.382072 0.072907
O O6 0.963562 0.157138 0.866358
O O7 0.742397 0.035847 0.079904
O O8 0.499660 0.444019 0.973968
O O9 0.370574 0.133928 0.896766
O O10 0.145633 0.790322 0.700586
O O11 0.266788 0.370617 0.716276
O O12 0.480979 0.378204 0.695347
O O13 0.114493 0.363866 0.599088
O O14 0.976329 0.011360 0.554231
O O15 0.676453 0.145548 0.497580
O O16 0.537684 0.529124 0.468456
#
# Coordination Sequence:
#
# PCOD9115275 Si02
#       8
#     2   2   2   2   2   2   2   2
#     4  11  25  43  70  97 145 187 236 294 361 443
#     4  11  20  38  67 111 143 179 230 295 375 426
#     4  12  28  47  70 106 146 190 239 298 367 434
#     4  10  20  36  65 108 140 178 226 298 366 426
#     4  10  23  44  73 102 143 184 245 294 357 425
#     4  11  28  48  71 105 144 189 237 295 361 431
#     4   9  23  45  71 106 139 190 243 298 351 426
#     4  10  23  43  67 101 142 191 244 302 352 407
#
# _framework density 25.154634999999999
#
# number of rings (size 3 to 8) (size 9 to 14) (size 15 to 20)
#    0.000    1.500    2.500    0.750    3.500   10.000 
#    2.250    1.250    0.000    0.000    0.000    0.000 
#    0.000    0.000    0.000    0.000    0.000    0.000 
#
# Total GULP energy -89127.977956 kJ/mol
# GULP energy per Si atom -5570.498622 kJ/mol
# Density = 2.509738 g / cm^3
# Si number density = 25.154635 Si / 1000 Ang^3
#
#
#
# Elastic Constant Matrix: (Units=GPa)
#
#
# Indices 1 2 3 4 5 6 
#
# 1 79.2285 4.7222 38.2655 0.0000 -23.5641 0.0000
# 2 4.7222 72.6061 5.8987 0.0000 3.9036 0.0000
# 3 38.2655 5.8987 83.1092 0.0000 -21.8650 0.0000
# 4 0.0000 0.0000 0.0000 23.4537 0.0000 -0.6585
# 5 -23.5641 3.9036 -21.8650 0.0000 44.0825 0.0000
# 6 0.0000 0.0000 0.0000 -0.6585 0.0000 27.7705
#
#
#
# Elastic Compliance Matrix: (Units=1/GPa)
#
#
# Indices 1 2 3 4 5 6 
#
# 1 0.017655 -0.000971 -0.006388 0.000000 0.006355 0.000000
# 2 -0.000971 0.014057 -0.001167 0.000000 -0.002343 0.000000
# 3 -0.006388 -0.001167 0.016314 0.000000 0.004780 0.000000
# 4 0.000000 0.000000 0.000000 0.042666 0.000000 0.001012
# 5 0.006355 -0.002343 0.004780 0.000000 0.028660 0.000000
# 6 0.000000 0.000000 0.000000 0.001012 0.000000 0.036033
#
#
# Mechanical properties :
#
#
# Convention : Reuss Voigt Hill
#
# Bulk Modulus (GPa) = 32.28503 36.96852 34.62677
# Shear Modulus (GPa) = 27.35806 31.46516 29.41161
#
# Velocity S-wave (km/s) = 3.30145 3.54060 3.42311
# Velocity P-wave (km/s) = 5.23405 5.60739 5.42393
#
# Compressibility (1/GPa) = 0.03097411
#
# Stress axis : x y z
#
# Youngs Moduli (GPa) = 56.64154 71.13972 61.29693
#
# Poissons Ratio (x) = 0.06907 0.39156
# Poissons Ratio (y) = 0.05500 0.07153
# Poissons Ratio (z) = 0.36182 0.08302
#
# Static dielectric constant tensor:
#      x y z
#    x 2.539370 0.000000 -0.039700 
#    y 0.000000 2.156840 0.000000 
#    z -0.039700 0.000000 2.035240 
# 
# From -- ./inp_files/11609.got.cif
#   From: 2010.05.17/outbox.cif.g08.bks.cpg/sg4_6_cif.got.tgz:11609.got - 2010.06.03 18:43:04.
