data_PCOD9115857
_publ_section_title
;
Structure prediction by ZEFSAII (Michael W. Deem and Ramdas Pophale) SiO2 
 PCOD9115857
Probable space group: P 21
;
_chemical_formula_sum "Si O2"
_cell_formula_units_Z 12
_cell_length_a 5.147943
_cell_length_b 17.990351
_cell_length_c 5.229541
_cell_angle_alpha 90.000000
_cell_angle_beta 63.198417
_cell_angle_gamma 90.000000
_cell_volume 432.295644
_symmetry_space_group_name_H-M "P 21"
_symmetry_group_IT_number 4
_symmetry_cell_setting 'monoclinic'
loop_
_space_group_symop_operation_xyz
x,y,z
-x,1/2+y,-z
loop_
_atom_site_type_symbol
_atom_site_label
_atom_site_fract_x
_atom_site_fract_y
_atom_site_fract_z
Si Si1 0.108969 0.423380 0.284886
Si Si2 0.738713 0.286793 0.813256
Si Si3 0.373931 0.097892 0.849973
Si Si4 0.960562 0.649937 0.497968
Si Si5 0.078411 0.955385 0.134775
Si Si6 0.445535 0.819256 0.610712
O O1 0.020942 0.482295 0.541309
O O2 0.828871 0.372560 0.337499
O O3 0.333586 0.371104 0.332662
O O4 0.170613 0.455101 0.973926
O O5 0.994098 0.238031 0.578934
O O6 0.830828 0.371139 0.839557
O O7 0.489850 0.289257 0.703610
O O8 0.648460 0.258668 0.135582
O O9 0.182755 0.134792 0.163050
O O10 0.237375 0.117472 0.638216
O O11 0.325808 0.009839 0.921103
O O12 0.706546 0.123060 0.694161
#
# Coordination Sequence:
#
# PCOD9115857 Si02
#       6
#     2   2   2   2   2   2
#     4  10  21  37  61  97 134 173 228 296 356 415
#     4  10  23  43  71 105 143 192 248 306 365 442
#     4  12  28  50  75 108 153 201 249 310 383 453
#     4  12  28  50  76 110 154 202 250 310 383 453
#     4  10  23  43  70 103 141 191 248 306 365 442
#     4  10  21  37  61  97 135 173 227 296 356 415
#
# _framework density 27.758778
#
# number of rings (size 3 to 8) (size 9 to 14) (size 15 to 20)
#    0.000    1.333    0.000    4.000    0.000   16.000 
#    0.000    0.000    0.000    0.000    0.000    0.000 
#    0.000    0.000    0.000    0.000    0.000    0.000 
#
# Total GULP energy -67162.103546 kJ/mol
# GULP energy per Si atom -5596.841962 kJ/mol
# Density = 2.769560 g / cm^3
# Si number density = 27.758778 Si / 1000 Ang^3
#
#
#
# Elastic Constant Matrix: (Units=GPa)
#
#
# Indices 1 2 3 4 5 6 
#
# 1 173.3841 24.0109 65.8502 0.0000 33.5501 0.0000
# 2 24.0109 127.7686 14.0553 0.0000 -1.5502 0.0000
# 3 65.8502 14.0553 212.4191 0.0000 49.9465 0.0000
# 4 0.0000 0.0000 0.0000 53.5191 0.0000 -7.4100
# 5 33.5501 -1.5502 49.9465 0.0000 76.0310 0.0000
# 6 0.0000 0.0000 0.0000 -7.4100 0.0000 41.6926
#
#
#
# Elastic Compliance Matrix: (Units=1/GPa)
#
#
# Indices 1 2 3 4 5 6 
#
# 1 0.006925 -0.001151 -0.001593 0.000000 -0.002033 0.000000
# 2 -0.001151 0.008098 -0.000399 0.000000 0.000935 0.000000
# 3 -0.001593 -0.000399 0.005990 0.000000 -0.003240 0.000000
# 4 0.000000 0.000000 0.000000 0.019156 0.000000 0.003405
# 5 -0.002033 0.000935 -0.003240 0.000000 0.016197 0.000000
# 6 0.000000 0.000000 0.000000 0.003405 0.000000 0.024590
#
#
# Mechanical properties :
#
#
# Convention : Reuss Voigt Hill
#
# Bulk Modulus (GPa) = 67.89719 80.15606 74.02663
# Shear Modulus (GPa) = 54.25880 61.55889 57.90885
#
# Velocity S-wave (km/s) = 4.42594 4.71429 4.57239
# Velocity P-wave (km/s) = 7.11558 7.65319 7.38927
#
# Compressibility (1/GPa) = 0.01472815
#
# Stress axis : x y z
#
# Youngs Moduli (GPa) = 144.40026 123.48486 166.95520
#
# Poissons Ratio (x) = 0.14212 0.26590
# Poissons Ratio (y) = 0.16619 0.06660
# Poissons Ratio (z) = 0.22997 0.04926
#
# Static dielectric constant tensor:
#      x y z
#    x 2.352850 0.000000 -0.267710 
#    y 0.000000 2.295260 0.000000 
#    z -0.267710 0.000000 2.623250 
# 
# From -- ./inp_files/350.got.cif
#   From: 2010.05.17/outbox.cif.g08.bks.cpg/sg4_1_cif.got.tgz:350.got - 2010.06.03 18:43:04.
