data_PCOD9115184
_publ_section_title
;
Structure prediction by ZEFSAII (Michael W. Deem and Ramdas Pophale) SiO2 
 PCOD9115184
Probable space group: P 21
;
_chemical_formula_sum "Si O2"
_cell_formula_units_Z 16
_cell_length_a 18.283014
_cell_length_b 4.673491
_cell_length_c 6.824610
_cell_angle_alpha 90.000000
_cell_angle_beta 67.650271
_cell_angle_gamma 90.000000
_cell_volume 539.327346
_symmetry_space_group_name_H-M "P 21"
_symmetry_group_IT_number 4
_symmetry_cell_setting 'monoclinic'
loop_
_space_group_symop_operation_xyz
x,y,z
-x,1/2+y,-z
loop_
_atom_site_type_symbol
_atom_site_label
_atom_site_fract_x
_atom_site_fract_y
_atom_site_fract_z
Si Si1 0.817153 0.015180 0.456906
Si Si2 0.594613 0.818165 0.783217
Si Si3 0.725690 0.872278 0.924184
Si Si4 0.466229 0.650658 0.651844
Si Si5 0.337438 0.815284 0.519974
Si Si6 0.057665 0.917251 0.451041
Si Si7 0.941234 0.984884 0.060144
Si Si8 0.182679 0.904667 0.028267
O O1 0.751495 0.202660 0.408295
O O2 0.880275 0.237850 0.483795
O O3 0.877520 0.827534 0.267359
O O4 0.771434 0.833724 0.667438
O O5 0.635383 0.802276 0.954756
O O6 0.505146 0.725920 0.821219
O O7 0.644788 0.630440 0.573305
O O8 0.612959 0.136275 0.692654
O O9 0.758821 0.674389 0.065833
O O10 0.755192 0.193446 0.929268
O O11 0.483192 0.333203 0.560828
O O12 0.377753 0.737207 0.685186
O O13 0.116233 0.053733 0.232677
O O14 0.000004 0.670093 0.420809
O O15 0.876920 0.184033 0.016086
O O16 0.002929 0.229045 0.072801
#
# Coordination Sequence:
#
# PCOD9115184 Si02
#       8
#     2   2   2   2   2   2   2   2
#     4  10  22  37  57  78 104 141 184 228 273 331
#     4   9  15  27  47  75 106 136 168 212 267 324
#     4  10  20  35  56  80 105 138 180 222 269 325
#     4   8  14  24  41  69 106 135 161 207 267 320
#     4   9  17  28  46  74 104 135 172 216 268 322
#     4  11  20  32  50  71  94 126 167 216 267 316
#     4  12  26  42  58  80 111 149 189 236 290 340
#     4  11  22  37  53  77 106 136 177 227 275 328
#
# _framework density 29.666588000000001
#
# number of rings (size 3 to 8) (size 9 to 14) (size 15 to 20)
#    0.000    2.000    0.000    6.000    0.000    5.000 
#    0.000    0.000    0.000    0.000    0.000    1.750 
#    0.000    0.000    0.000    0.500    0.000    0.000 
#
# Total GULP energy -89413.211898 kJ/mol
# GULP energy per Si atom -5588.325744 kJ/mol
# Density = 2.959907 g / cm^3
# Si number density = 29.666588 Si / 1000 Ang^3
#
#
#
# Elastic Constant Matrix: (Units=GPa)
#
#
# Indices 1 2 3 4 5 6 
#
# 1 284.2770 45.8776 44.1030 0.0000 40.4329 0.0000
# 2 45.8776 102.4788 -9.9104 0.0000 12.8075 0.0000
# 3 44.1030 -9.9104 53.9927 0.0000 -21.4980 0.0000
# 4 0.0000 0.0000 0.0000 20.7231 0.0000 10.7639
# 5 40.4329 12.8075 -21.4980 0.0000 62.2875 0.0000
# 6 0.0000 0.0000 0.0000 10.7639 0.0000 62.9913
#
#
#
# Elastic Compliance Matrix: (Units=1/GPa)
#
#
# Indices 1 2 3 4 5 6 
#
# 1 0.006032 -0.002700 -0.007838 0.000000 -0.006066 0.000000
# 2 -0.002700 0.011290 0.004697 0.000000 0.001053 0.000000
# 3 -0.007838 0.004697 0.031797 0.000000 0.015097 0.000000
# 4 0.000000 0.000000 0.000000 0.052955 0.000000 -0.009049
# 5 -0.006066 0.001053 0.015097 0.000000 0.024986 0.000000
# 6 0.000000 0.000000 0.000000 -0.009049 0.000000 0.017421
#
#
# Mechanical properties :
#
#
# Convention : Reuss Voigt Hill
#
# Bulk Modulus (GPa) = 26.71241 66.76544 46.73892
# Shear Modulus (GPa) = 29.64844 53.24560 41.44702
#
# Velocity S-wave (km/s) = 3.16474 4.24110 3.74183
# Velocity P-wave (km/s) = 4.73052 6.82178 5.87003
#
# Compressibility (1/GPa) = 0.03743578
#
# Stress axis : x y z
#
# Youngs Moduli (GPa) = 165.77515 88.57607 31.44988
#
# Poissons Ratio (x) = 0.23919 0.24651
# Poissons Ratio (y) = 0.44767 -0.14773
# Poissons Ratio (z) = 1.29938 -0.41606
#
# Static dielectric constant tensor:
#      x y z
#    x 2.306590 0.000000 0.114370 
#    y 0.000000 2.152820 0.000000 
#    z 0.114370 0.000000 2.523890 
# 
# From -- ./inp_files/9425.got.cif
#   From: 2010.05.17/outbox.cif.g08.bks.cpg/sg4_5_cif.got.tgz:9425.got - 2010.06.03 18:43:04.
