data_PCOD9115281
_publ_section_title
;
Structure prediction by ZEFSAII (Michael W. Deem and Ramdas Pophale) SiO2 
 PCOD9115281
Probable space group: P 21
;
_chemical_formula_sum "Si O2"
_cell_formula_units_Z 16
_cell_length_a 9.146160
_cell_length_b 11.676283
_cell_length_c 9.368174
_cell_angle_alpha 90.000000
_cell_angle_beta 49.054251
_cell_angle_gamma 90.000000
_cell_volume 755.675498
_symmetry_space_group_name_H-M "P 21"
_symmetry_group_IT_number 4
_symmetry_cell_setting 'monoclinic'
loop_
_space_group_symop_operation_xyz
x,y,z
-x,1/2+y,-z
loop_
_atom_site_type_symbol
_atom_site_label
_atom_site_fract_x
_atom_site_fract_y
_atom_site_fract_z
Si Si1 0.894015 0.268340 0.349798
Si Si2 0.954884 0.592881 0.230480
Si Si3 0.734223 0.399809 0.215653
Si Si4 0.850938 0.627351 0.623059
Si Si5 0.682784 0.382055 0.753351
Si Si6 0.974828 0.341842 0.799465
Si Si7 0.740914 0.930556 0.915402
Si Si8 0.691370 0.874092 0.635939
O O1 0.769801 0.284212 0.286494
O O2 0.777968 0.332955 0.549668
O O3 0.983497 0.156476 0.366775
O O4 0.084239 0.341178 0.189632
O O5 0.167370 0.540136 0.065434
O O6 0.788652 0.509865 0.276927
O O7 0.935894 0.597029 0.413969
O O8 0.941626 0.723429 0.191825
O O9 0.516618 0.394407 0.299245
O O10 0.885203 0.409225 0.988305
O O11 0.731377 0.516418 0.744612
O O12 0.727865 0.743648 0.671194
O O13 0.790700 0.318007 0.813781
O O14 0.453026 0.376894 0.898850
O O15 0.138567 0.392065 0.589282
O O16 0.706533 0.950375 0.768550
#
# Coordination Sequence:
#
# PCOD9115281 Si02
#       8
#     2   2   2   2   2   2   2   2
#     4  10  22  42  61  92 128 156 216 264 301 378
#     4  10  21  42  63  90 131 166 211 263 313 373
#     4  11  23  40  62  93 132 161 204 270 317 374
#     4  10  20  41  68  89 122 174 210 260 314 373
#     4  12  20  37  70  91 117 169 218 251 317 376
#     4  11  23  41  66  91 130 169 207 263 322 374
#     4  10  20  36  65  93 118 164 212 260 301 378
#     4  10  21  41  63  91 132 163 206 263 315 372
#
# _framework density 21.173109
#
# number of rings (size 3 to 8) (size 9 to 14) (size 15 to 20)
#    0.000    1.500    7.500    0.000    1.750    3.000 
#    0.000    5.000    0.000    0.000    0.000    0.000 
#    0.000    0.000    0.000    0.000    0.000    0.000 
#
# Total GULP energy -89228.076108 kJ/mol
# GULP energy per Si atom -5576.754757 kJ/mol
# Density = 2.112492 g / cm^3
# Si number density = 21.173109 Si / 1000 Ang^3
#
#
#
# Elastic Constant Matrix: (Units=GPa)
#
#
# Indices 1 2 3 4 5 6 
#
# 1 95.7056 16.7187 -8.6363 0.0000 -21.2421 0.0000
# 2 16.7187 41.7078 19.6130 0.0000 -10.6990 0.0000
# 3 -8.6363 19.6130 52.6099 0.0000 -20.8599 0.0000
# 4 0.0000 0.0000 0.0000 10.6760 0.0000 3.9733
# 5 -21.2421 -10.6990 -20.8599 0.0000 34.1731 0.0000
# 6 0.0000 0.0000 0.0000 3.9733 0.0000 22.4955
#
#
#
# Elastic Compliance Matrix: (Units=1/GPa)
#
#
# Indices 1 2 3 4 5 6 
#
# 1 0.016088 -0.008102 0.011373 0.000000 0.014406 0.000000
# 2 -0.008102 0.033434 -0.015358 0.000000 -0.003943 0.000000
# 3 0.011373 -0.015358 0.036277 0.000000 0.024406 0.000000
# 4 0.000000 0.000000 0.000000 0.100258 0.000000 -0.017708
# 5 0.014406 -0.003943 0.024406 0.000000 0.051881 0.000000
# 6 0.000000 0.000000 0.000000 -0.017708 0.000000 0.047581
#
#
# Mechanical properties :
#
#
# Convention : Reuss Voigt Hill
#
# Bulk Modulus (GPa) = 16.22657 27.26824 21.74741
# Shear Modulus (GPa) = 15.14079 24.29079 19.71579
#
# Velocity S-wave (km/s) = 2.67703 3.39078 3.05482
# Velocity P-wave (km/s) = 4.15159 5.31380 4.76824
#
# Compressibility (1/GPa) = 0.06162731
#
# Stress axis : x y z
#
# Youngs Moduli (GPa) = 62.15903 29.90941 27.56560
#
# Poissons Ratio (x) = 0.24231 -0.31351
# Poissons Ratio (y) = 0.50359 0.42334
# Poissons Ratio (z) = -0.70695 0.45934
#
# Static dielectric constant tensor:
#      x y z
#    x 1.769300 0.000000 0.021380 
#    y 0.000000 1.872420 0.000000 
#    z 0.021380 0.000000 1.771380 
# 
# From -- ./inp_files/6385.got.cif
#   From: 2010.05.17/outbox.cif.g08.bks.cpg/sg4_4_cif.got.tgz:6385.got - 2010.06.03 18:43:04.
