data_PCOD9115230
_publ_section_title
;
Structure prediction by ZEFSAII (Michael W. Deem and Ramdas Pophale) SiO2 
 PCOD9115230
Probable space group: P 21
;
_chemical_formula_sum "Si O2"
_cell_formula_units_Z 16
_cell_length_a 16.762275
_cell_length_b 8.437978
_cell_length_c 7.247239
_cell_angle_alpha 90.000000
_cell_angle_beta 144.919130
_cell_angle_gamma 90.000000
_cell_volume 589.127579
_symmetry_space_group_name_H-M "P 21"
_symmetry_group_IT_number 4
_symmetry_cell_setting 'monoclinic'
loop_
_space_group_symop_operation_xyz
x,y,z
-x,1/2+y,-z
loop_
_atom_site_type_symbol
_atom_site_label
_atom_site_fract_x
_atom_site_fract_y
_atom_site_fract_z
Si Si1 0.803959 0.079500 0.675760
Si Si2 0.797411 0.630697 0.167758
Si Si3 0.704410 0.618186 0.399296
Si Si4 0.951127 0.323389 0.436481
Si Si5 0.465562 0.425298 0.845454
Si Si6 0.451630 0.942482 0.425655
Si Si7 0.060864 0.906180 0.020168
Si Si8 0.293605 0.620211 0.103157
O O1 0.871257 0.249637 0.763277
O O2 0.779748 0.060206 0.850105
O O3 0.648904 0.054305 0.310609
O O4 0.908071 0.946198 0.800915
O O5 0.733062 0.674115 0.242505
O O6 0.900228 0.486774 0.425844
O O7 0.895514 0.756163 0.253115
O O8 0.676701 0.564826 0.806235
O O9 0.613941 0.760731 0.304041
O O10 0.845268 0.558767 0.757512
O O11 0.604250 0.462974 0.219731
O O12 0.941955 0.365690 0.201231
O O13 0.832245 0.192672 0.253945
O O14 0.513565 0.445441 0.725910
O O15 0.390277 0.769720 0.349191
O O16 0.598881 0.998059 0.785486
#
# Coordination Sequence:
#
# PCOD9115230 Si02
#       8
#     2   2   2   2   2   2   2   2
#     4  10  20  36  58  88 120 155 198 245 294 350
#     4  10  22  41  60  85 120 156 196 243 295 355
#     4  11  22  40  63  89 122 157 198 249 296 356
#     4  10  22  40  60  88 119 155 198 243 297 356
#     4  10  21  38  61  90 120 157 199 244 300 355
#     4   9  20  36  59  87 119 155 197 243 297 354
#     4  11  22  38  62  89 121 158 201 249 297 351
#     4   9  19  37  57  84 119 153 195 242 292 351
#
# _framework density 27.158805999999998
#
# number of rings (size 3 to 8) (size 9 to 14) (size 15 to 20)
#    0.000    2.000    0.000    3.750    0.000    6.000 
#    0.000    7.500    0.000    0.000    0.000    0.000 
#    0.000    0.000    0.000    0.000    0.000    0.000 
#
# Total GULP energy -89680.012525 kJ/mol
# GULP energy per Si atom -5605.000783 kJ/mol
# Density = 2.709699 g / cm^3
# Si number density = 27.158806 Si / 1000 Ang^3
#
#
#
# Elastic Constant Matrix: (Units=GPa)
#
#
# Indices 1 2 3 4 5 6 
#
# 1 94.9285 31.5522 45.4510 0.0000 29.9236 0.0000
# 2 31.5522 94.8817 40.6407 0.0000 20.8185 0.0000
# 3 45.4510 40.6407 100.3991 0.0000 36.6289 0.0000
# 4 0.0000 0.0000 0.0000 60.2718 0.0000 28.3925
# 5 29.9236 20.8185 36.6289 0.0000 44.7710 0.0000
# 6 0.0000 0.0000 0.0000 28.3925 0.0000 47.8178
#
#
#
# Elastic Compliance Matrix: (Units=1/GPa)
#
#
# Indices 1 2 3 4 5 6 
#
# 1 0.014875 -0.002042 -0.003744 0.000000 -0.005929 0.000000
# 2 -0.002042 0.013219 -0.003823 0.000000 -0.001654 0.000000
# 3 -0.003744 -0.003823 0.016594 0.000000 -0.009296 0.000000
# 4 0.000000 0.000000 0.000000 0.023034 0.000000 -0.013677
# 5 -0.005929 -0.001654 -0.009296 0.000000 0.034674 0.000000
# 6 0.000000 0.000000 0.000000 -0.013677 0.000000 0.029034
#
#
# Mechanical properties :
#
#
# Convention : Reuss Voigt Hill
#
# Bulk Modulus (GPa) = 39.26195 58.38857 48.82526
# Shear Modulus (GPa) = 31.41939 42.07646 36.74793
#
# Velocity S-wave (km/s) = 3.40498 3.94035 3.68241
# Velocity P-wave (km/s) = 5.47232 6.49980 6.00807
#
# Compressibility (1/GPa) = 0.02546995
#
# Stress axis : x y z
#
# Youngs Moduli (GPa) = 67.22904 75.64915 60.26142
#
# Poissons Ratio (x) = 0.15446 0.22563
# Poissons Ratio (y) = 0.13726 0.23038
# Poissons Ratio (z) = 0.25172 0.28921
#
# Static dielectric constant tensor:
#      x y z
#    x 2.050760 0.000000 -0.016890 
#    y 0.000000 2.139030 0.000000 
#    z -0.016890 0.000000 2.092640 
# 
# From -- ./inp_files/9208.got.cif
#   From: 2010.05.17/outbox.cif.g08.bks.cpg/sg4_5_cif.got.tgz:9208.got - 2010.06.03 18:43:04.
