data_PCOD9115371
_publ_section_title
;
Structure prediction by ZEFSAII (Michael W. Deem and Ramdas Pophale) SiO2 
 PCOD9115371
Probable space group: P 21
;
_chemical_formula_sum "Si O2"
_cell_formula_units_Z 16
_cell_length_a 18.132389
_cell_length_b 7.813958
_cell_length_c 5.180246
_cell_angle_alpha 90.000000
_cell_angle_beta 113.983510
_cell_angle_gamma 90.000000
_cell_volume 670.598033
_symmetry_space_group_name_H-M "P 21"
_symmetry_group_IT_number 4
_symmetry_cell_setting 'monoclinic'
loop_
_space_group_symop_operation_xyz
x,y,z
-x,1/2+y,-z
loop_
_atom_site_type_symbol
_atom_site_label
_atom_site_fract_x
_atom_site_fract_y
_atom_site_fract_z
Si Si1 0.447082 0.557600 0.172886
Si Si2 0.242710 0.344378 0.587966
Si Si3 0.805780 0.321783 0.831041
Si Si4 0.889030 0.982708 0.978774
Si Si5 0.282219 0.719068 0.819943
Si Si6 0.089644 0.189765 0.578134
Si Si7 0.968321 0.416710 0.145851
Si Si8 0.419434 0.330209 0.641729
O O1 0.420186 0.452872 0.390592
O O2 0.528051 0.663185 0.340558
O O3 0.377797 0.693279 0.990888
O O4 0.455544 0.431404 0.940381
O O5 0.188958 0.405668 0.272681
O O6 0.255297 0.515550 0.779713
O O7 0.183198 0.208841 0.634681
O O8 0.328647 0.286054 0.604434
O O9 0.752367 0.282638 0.504270
O O10 0.857475 0.163774 0.028692
O O11 0.747235 0.344132 0.991909
O O12 0.885156 0.429115 0.862639
O O13 0.956493 0.021365 0.860923
O O14 0.918554 0.838909 0.215319
O O15 0.020988 0.248749 0.282781
O O16 0.065270 0.007462 0.648021
#
# Coordination Sequence:
#
# PCOD9115371 Si02
#       8
#     2   2   2   2   2   2   2   2
#     4  11  23  45  73 110 142 185 234 290 353 426
#     4   9  21  39  65  94 124 184 221 272 340 426
#     4  11  22  40  63  92 122 174 224 276 328 407
#     4  10  20  38  61  87 122 172 227 275 330 403
#     4  10  21  41  69  89 131 174 226 262 341 412
#     4  11  22  41  61  90 133 171 233 282 351 406
#     4  11  25  36  60  93 127 176 223 293 339 401
#     4  11  24  44  76 105 145 186 236 288 356 431
#
# _framework density 23.859300999999999
#
# number of rings (size 3 to 8) (size 9 to 14) (size 15 to 20)
#    0.000    1.500    1.250    4.500    7.000    1.000 
#    2.250    0.000    0.000    0.000    0.000    0.000 
#    0.000    0.000    0.000    0.000    0.000    0.000 
#
# Total GULP energy -89232.763618 kJ/mol
# GULP energy per Si atom -5577.047726 kJ/mol
# Density = 2.380500 g / cm^3
# Si number density = 23.859301 Si / 1000 Ang^3
#
#
#
# Elastic Constant Matrix: (Units=GPa)
#
#
# Indices 1 2 3 4 5 6 
#
# 1 149.4146 28.0826 59.9274 0.0000 20.1096 0.0000
# 2 28.0826 28.6047 21.8530 0.0000 9.3671 0.0000
# 3 59.9274 21.8530 97.6208 0.0000 0.5677 0.0000
# 4 0.0000 0.0000 0.0000 30.6684 0.0000 8.1905
# 5 20.1096 9.3671 0.5677 0.0000 38.7335 0.0000
# 6 0.0000 0.0000 0.0000 8.1905 0.0000 15.5172
#
#
#
# Elastic Compliance Matrix: (Units=1/GPa)
#
#
# Indices 1 2 3 4 5 6 
#
# 1 0.010211 -0.004725 -0.005187 0.000000 -0.004082 0.000000
# 2 -0.004725 0.048680 -0.007943 0.000000 -0.009203 0.000000
# 3 -0.005187 -0.007943 0.015180 0.000000 0.004391 0.000000
# 4 0.000000 0.000000 0.000000 0.037958 0.000000 -0.020035
# 5 -0.004082 -0.009203 0.004391 0.000000 0.030098 0.000000
# 6 0.000000 0.000000 0.000000 -0.020035 0.000000 0.075020
#
#
# Mechanical properties :
#
#
# Convention : Reuss Voigt Hill
#
# Bulk Modulus (GPa) = 26.06795 55.04068 40.55432
# Shear Modulus (GPa) = 18.82222 28.03561 23.42891
#
# Velocity S-wave (km/s) = 2.81175 3.43160 3.13703
# Velocity P-wave (km/s) = 4.63581 6.23058 5.49139
#
# Compressibility (1/GPa) = 0.03836129
#
# Stress axis : x y z
#
# Youngs Moduli (GPa) = 97.93803 20.54228 65.87493
#
# Poissons Ratio (x) = 0.09706 0.34167
# Poissons Ratio (y) = 0.46275 0.52326
# Poissons Ratio (z) = 0.50797 0.16317
#
# Static dielectric constant tensor:
#      x y z
#    x 1.975450 0.000000 -0.059120 
#    y 0.000000 2.184950 0.000000 
#    z -0.059120 0.000000 1.999700 
# 
# From -- ./inp_files/4050.got.cif
#   From: 2010.05.17/outbox.cif.g08.bks.cpg/sg4_3_cif.got.tgz:4050.got - 2010.06.03 18:43:04.
