data_PCOD9115839
_publ_section_title
;
Structure prediction by ZEFSAII (Michael W. Deem and Ramdas Pophale) SiO2 
 PCOD9115839
Probable space group: P 21
;
_chemical_formula_sum "Si O2"
_cell_formula_units_Z 16
_cell_length_a 11.552902
_cell_length_b 9.287472
_cell_length_c 13.095092
_cell_angle_alpha 90.000000
_cell_angle_beta 149.705122
_cell_angle_gamma 90.000000
_cell_volume 708.786870
_symmetry_space_group_name_H-M "P 21"
_symmetry_group_IT_number 4
_symmetry_cell_setting 'monoclinic'
loop_
_space_group_symop_operation_xyz
x,y,z
-x,1/2+y,-z
loop_
_atom_site_type_symbol
_atom_site_label
_atom_site_fract_x
_atom_site_fract_y
_atom_site_fract_z
Si Si1 0.929098 0.830180 0.550888
Si Si2 0.446648 0.896145 0.099431
Si Si3 0.504609 0.671911 0.990455
Si Si4 0.279856 0.967176 0.187950
Si Si5 0.179527 0.043261 0.598243
Si Si6 0.230433 0.580252 0.436704
Si Si7 0.016186 0.227572 0.940482
Si Si8 0.503287 0.817197 0.775596
O O1 0.654949 0.828862 0.321342
O O2 0.971173 0.658500 0.577912
O O3 0.929999 0.953370 0.639142
O O4 0.048181 0.906293 0.544980
O O5 0.355074 0.773032 0.953338
O O6 0.296873 0.959224 0.077046
O O7 0.550477 0.021456 0.106963
O O8 0.717404 0.624794 0.223829
O O9 0.552959 0.773846 0.930844
O O10 0.172059 0.823452 0.148224
O O11 0.533280 0.005195 0.421419
O O12 0.103962 0.095748 0.076261
O O13 0.380672 0.971544 0.684611
O O14 0.098128 0.666431 0.249427
O O15 0.331020 0.696187 0.596087
O O16 0.253518 0.310795 0.095866
#
# Coordination Sequence:
#
# PCOD9115839 Si02
#       8
#     2   2   2   2   2   2   2   2
#     4  10  21  37  58  94 134 175 221 273 336 402
#     4  10  21  39  61  95 130 174 220 273 336 397
#     4  11  19  37  64  90 133 176 210 272 340 391
#     4  10  24  45  68 100 133 174 232 281 332 405
#     4  11  23  35  62  96 139 179 222 274 336 410
#     4  10  22  43  68  92 136 177 225 282 338 397
#     4  11  24  45  72  95 131 182 223 282 344 389
#     4  11  22  41  63  98 136 177 225 279 330 407
#
# _framework density 22.573782000000001
#
# number of rings (size 3 to 8) (size 9 to 14) (size 15 to 20)
#    0.000    1.500    5.000    1.500    0.000    6.000 
#    0.000    1.250    0.000    0.000    0.000    0.000 
#    0.000    0.000    0.000    0.000    0.000    0.000 
#
# Total GULP energy -89224.378036 kJ/mol
# GULP energy per Si atom -5576.523627 kJ/mol
# Density = 2.252240 g / cm^3
# Si number density = 22.573782 Si / 1000 Ang^3
#
#
#
# Elastic Constant Matrix: (Units=GPa)
#
#
# Indices 1 2 3 4 5 6 
#
# 1 39.4410 42.8674 20.0516 0.0000 10.3812 0.0000
# 2 42.8674 134.9859 25.4739 0.0000 16.3954 0.0000
# 3 20.0516 25.4739 51.4498 0.0000 9.1413 0.0000
# 4 0.0000 0.0000 0.0000 39.2280 0.0000 16.8138
# 5 10.3812 16.3954 9.1413 0.0000 19.0573 0.0000
# 6 0.0000 0.0000 0.0000 16.8138 0.0000 43.3631
#
#
#
# Elastic Compliance Matrix: (Units=1/GPa)
#
#
# Indices 1 2 3 4 5 6 
#
# 1 0.045551 -0.011278 -0.010367 0.000000 -0.010138 0.000000
# 2 -0.011278 0.011542 -0.000707 0.000000 -0.003447 0.000000
# 3 -0.010367 -0.000707 0.024832 0.000000 -0.005656 0.000000
# 4 0.000000 0.000000 0.000000 0.030573 0.000000 -0.011855
# 5 -0.010138 -0.003447 -0.005656 0.000000 0.063674 0.000000
# 6 0.000000 0.000000 0.000000 -0.011855 0.000000 0.027658
#
#
# Mechanical properties :
#
#
# Convention : Reuss Voigt Hill
#
# Bulk Modulus (GPa) = 26.86708 44.74028 35.80368
# Shear Modulus (GPa) = 19.16148 29.49527 24.32838
#
# Velocity S-wave (km/s) = 2.91664 3.61864 3.28644
# Velocity P-wave (km/s) = 4.82391 6.10917 5.50419
#
# Compressibility (1/GPa) = 0.03722027
#
# Stress axis : x y z
#
# Youngs Moduli (GPa) = 21.95348 86.64216 40.27104
#
# Poissons Ratio (x) = 0.97713 0.41751
# Poissons Ratio (y) = 0.24759 0.02846
# Poissons Ratio (z) = 0.22760 0.06124
#
# Static dielectric constant tensor:
#      x y z
#    x 1.838810 0.000000 0.008670 
#    y 0.000000 1.922940 0.000000 
#    z 0.008670 0.000000 1.920900 
# 
# From -- ./inp_files/12583.got.cif
#   From: 2010.05.17/outbox.cif.g08.bks.cpg/sg4_7_cif.got.tgz:12583.got - 2010.06.03 18:43:04.
