data_PCOD9115855
_publ_section_title
;
Structure prediction by ZEFSAII (Michael W. Deem and Ramdas Pophale) SiO2 
 PCOD9115855
Probable space group: P 21
;
_chemical_formula_sum "Si O2"
_cell_formula_units_Z 12
_cell_length_a 8.596236
_cell_length_b 7.692137
_cell_length_c 10.140494
_cell_angle_alpha 90.000000
_cell_angle_beta 45.507604
_cell_angle_gamma 90.000000
_cell_volume 478.314052
_symmetry_space_group_name_H-M "P 21"
_symmetry_group_IT_number 4
_symmetry_cell_setting 'monoclinic'
loop_
_space_group_symop_operation_xyz
x,y,z
-x,1/2+y,-z
loop_
_atom_site_type_symbol
_atom_site_label
_atom_site_fract_x
_atom_site_fract_y
_atom_site_fract_z
Si Si1 0.799377 0.695730 0.902336
Si Si2 0.000532 0.981809 0.456767
Si Si3 0.948608 0.742842 0.264932
Si Si4 0.335166 0.562621 0.120733
Si Si5 0.769783 0.104924 0.271139
Si Si6 0.327603 0.936563 0.490515
O O1 0.926105 0.618216 0.698715
O O2 0.989239 0.688525 0.901020
O O3 0.709618 0.887307 0.932538
O O4 0.577353 0.587262 0.029308
O O5 0.202466 0.927003 0.426967
O O6 0.907164 0.813583 0.437854
O O7 0.811400 0.045627 0.662737
O O8 0.819960 0.563403 0.328723
O O9 0.209350 0.709038 0.107877
O O10 0.857636 0.907424 0.243623
O O11 0.671374 0.249025 0.435844
O O12 0.548002 0.044889 0.331696
#
# Coordination Sequence:
#
# PCOD9115855 Si02
#       6
#     2   2   2   2   2   2
#     4  11  22  38  65  94 127 166 215 263 317 368
#     4  10  22  40  64  94 124 166 214 266 312 366
#     4  10  21  37  61  92 121 163 212 256 310 369
#     4  11  21  38  62  96 128 162 211 275 305 372
#     4  11  21  37  58  91 126 169 204 254 319 376
#     4  11  21  36  60  89 130 162 208 258 311 379
#
# _framework density 25.08812
#
# number of rings (size 3 to 8) (size 9 to 14) (size 15 to 20)
#    0.000    1.333    5.000    4.000    4.667    0.000 
#    0.000    0.000    0.000   20.000    0.000    0.000 
#    0.000    0.000    0.000    0.000    0.000    0.000 
#
# Total GULP energy -66818.752155 kJ/mol
# GULP energy per Si atom -5568.229346 kJ/mol
# Density = 2.503102 g / cm^3
# Si number density = 25.088120 Si / 1000 Ang^3
#
#
#
# Elastic Constant Matrix: (Units=GPa)
#
#
# Indices 1 2 3 4 5 6 
#
# 1 69.8123 29.6522 52.5053 0.0000 -49.5652 0.0000
# 2 29.6522 126.9205 13.9139 0.0000 -2.2073 0.0000
# 3 52.5053 13.9139 82.9450 0.0000 -45.1307 0.0000
# 4 0.0000 0.0000 0.0000 35.1158 0.0000 -15.4477
# 5 -49.5652 -2.2073 -45.1307 0.0000 48.9378 0.0000
# 6 0.0000 0.0000 0.0000 -15.4477 0.0000 38.5771
#
#
#
# Elastic Compliance Matrix: (Units=1/GPa)
#
#
# Indices 1 2 3 4 5 6 
#
# 1 0.075528 -0.015584 -0.007941 0.000000 0.068469 0.000000
# 2 -0.015584 0.011319 -0.000691 0.000000 -0.015910 0.000000
# 3 -0.007941 -0.000691 0.025703 0.000000 0.015629 0.000000
# 4 0.000000 0.000000 0.000000 0.034566 0.000000 0.013842
# 5 0.068469 -0.015910 0.015629 0.000000 0.103477 0.000000
# 6 0.000000 0.000000 0.000000 0.013842 0.000000 0.031465
#
#
# Mechanical properties :
#
#
# Convention : Reuss Voigt Hill
#
# Bulk Modulus (GPa) = 15.59640 52.42450 34.01045
# Shear Modulus (GPa) = 14.21013 36.76657 25.48835
#
# Velocity S-wave (km/s) = 2.38252 3.83233 3.19086
# Velocity P-wave (km/s) = 3.71465 6.36584 5.21165
#
# Compressibility (1/GPa) = 0.06411737
#
# Stress axis : x y z
#
# Youngs Moduli (GPa) = 13.24016 88.34837 38.90630
#
# Poissons Ratio (x) = 1.37683 0.30897
# Poissons Ratio (y) = 0.20634 0.02687
# Poissons Ratio (z) = 0.10515 0.06101
#
# Static dielectric constant tensor:
#      x y z
#    x 2.086240 0.000000 0.002890 
#    y 0.000000 2.072830 0.000000 
#    z 0.002890 0.000000 2.021210 
# 
# From -- ./inp_files/13880.got.cif
#   From: 2010.05.17/outbox.cif.g08.bks.cpg/sg4_7_cif.got.tgz:13880.got - 2010.06.03 18:43:04.
