data_PCOD9115804
_publ_section_title
;
Structure prediction by ZEFSAII (Michael W. Deem and Ramdas Pophale) SiO2 
 PCOD9115804
Probable space group: P 21
;
_chemical_formula_sum "Si O2"
_cell_formula_units_Z 12
_cell_length_a 5.164686
_cell_length_b 7.997396
_cell_length_c 11.789427
_cell_angle_alpha 90.000000
_cell_angle_beta 57.473919
_cell_angle_gamma 90.000000
_cell_volume 410.571129
_symmetry_space_group_name_H-M "P 21"
_symmetry_group_IT_number 4
_symmetry_cell_setting 'monoclinic'
loop_
_space_group_symop_operation_xyz
x,y,z
-x,1/2+y,-z
loop_
_atom_site_type_symbol
_atom_site_label
_atom_site_fract_x
_atom_site_fract_y
_atom_site_fract_z
Si Si1 0.619715 0.236650 0.009559
Si Si2 0.786536 0.544426 0.707117
Si Si3 0.207678 0.569832 0.390785
Si Si4 0.751179 0.764436 0.346826
Si Si5 0.952151 0.904090 0.921717
Si Si6 0.557806 0.255560 0.349634
O O1 0.406603 0.142052 0.152519
O O2 0.370211 0.309581 0.982654
O O3 0.817568 0.378780 0.027453
O O4 0.858026 0.093559 0.917324
O O5 0.516596 0.565579 0.672402
O O6 0.059437 0.586839 0.551641
O O7 0.971508 0.398216 0.729653
O O8 0.511395 0.687243 0.312988
O O9 0.314954 0.381270 0.346002
O O10 0.949326 0.619912 0.363640
O O11 0.516326 0.805759 0.505560
O O12 0.123466 0.812843 0.777536
#
# Coordination Sequence:
#
# PCOD9115804 Si02
#       6
#     2   2   2   2   2   2
#     4  11  24  42  63  87 118 156 199 246 295 347
#     4   9  21  39  60  85 119 156 192 237 294 349
#     4  10  21  36  58  88 119 152 192 237 287 348
#     4  10  21  36  58  88 119 152 192 237 287 348
#     4  11  24  42  63  87 118 156 199 246 295 347
#     4   9  21  39  60  85 119 156 192 237 294 349
#
# _framework density 29.22758
#
# number of rings (size 3 to 8) (size 9 to 14) (size 15 to 20)
#    0.000    2.000    0.000    2.000    0.000   18.667 
#    0.000    0.000    0.000    0.000    0.000    0.000 
#    0.000    0.000    0.000    0.000    0.000    0.000 
#
# Total GULP energy -66994.733128 kJ/mol
# GULP energy per Si atom -5582.894427 kJ/mol
# Density = 2.916106 g / cm^3
# Si number density = 29.227580 Si / 1000 Ang^3
#
#
#
# Elastic Constant Matrix: (Units=GPa)
#
#
# Indices 1 2 3 4 5 6 
#
# 1 108.4485 22.5962 31.2035 0.0000 -25.9054 0.0000
# 2 22.5962 91.4827 10.8294 0.0000 -21.7443 0.0000
# 3 31.2035 10.8294 133.2981 0.0000 -20.5556 0.0000
# 4 0.0000 0.0000 0.0000 24.6618 0.0000 -21.2225
# 5 -25.9054 -21.7443 -20.5556 0.0000 51.1298 0.0000
# 6 0.0000 0.0000 0.0000 -21.2225 0.0000 52.6916
#
#
#
# Elastic Compliance Matrix: (Units=1/GPa)
#
#
# Indices 1 2 3 4 5 6 
#
# 1 0.011070 -0.001513 -0.001815 0.000000 0.004236 0.000000
# 2 -0.001513 0.012372 0.000045 0.000000 0.004513 0.000000
# 3 -0.001815 0.000045 0.008299 0.000000 0.002436 0.000000
# 4 0.000000 0.000000 0.000000 0.062058 0.000000 0.024995
# 5 0.004236 0.004513 0.002436 0.000000 0.024603 0.000000
# 6 0.000000 0.000000 0.000000 0.024995 0.000000 0.029046
#
#
# Mechanical properties :
#
#
# Convention : Reuss Voigt Hill
#
# Bulk Modulus (GPa) = 39.72182 51.38749 45.55465
# Shear Modulus (GPa) = 30.78723 43.60333 37.19528
#
# Velocity S-wave (km/s) = 3.24908 3.86664 3.57123
# Velocity P-wave (km/s) = 5.26264 6.12818 5.71183
#
# Compressibility (1/GPa) = 0.02517508
#
# Stress axis : x y z
#
# Youngs Moduli (GPa) = 90.33200 80.82723 120.49808
#
# Poissons Ratio (x) = 0.12227 0.21874
# Poissons Ratio (y) = 0.13664 -0.00542
# Poissons Ratio (z) = 0.16398 -0.00363
#
# Static dielectric constant tensor:
#      x y z
#    x 2.367620 0.000000 0.093060 
#    y 0.000000 2.398000 0.000000 
#    z 0.093060 0.000000 2.268590 
# 
# From -- ./inp_files/2417.got.cif
#   From: 2010.05.17/outbox.cif.g08.bks.cpg/sg4_2_cif.got.tgz:2417.got - 2010.06.03 18:43:04.
