data_PCOD9116086
_publ_section_title
;
Structure prediction by ZEFSAII (Michael W. Deem and Ramdas Pophale) SiO2 
 PCOD9116086
Probable space group: P 21
;
_chemical_formula_sum "Si O2"
_cell_formula_units_Z 14
_cell_length_a 7.086259
_cell_length_b 8.079389
_cell_length_c 17.703085
_cell_angle_alpha 90.000000
_cell_angle_beta 139.483508
_cell_angle_gamma 90.000000
_cell_volume 658.468847
_symmetry_space_group_name_H-M "P 21"
_symmetry_group_IT_number 4
_symmetry_cell_setting 'monoclinic'
loop_
_space_group_symop_operation_xyz
x,y,z
-x,1/2+y,-z
loop_
_atom_site_type_symbol
_atom_site_label
_atom_site_fract_x
_atom_site_fract_y
_atom_site_fract_z
Si Si1 0.653400 0.993890 0.079200
Si Si2 0.128314 0.212195 0.964714
Si Si3 0.578656 0.033807 0.350161
Si Si4 0.143543 0.842316 0.325384
Si Si5 0.825535 0.372687 0.490381
Si Si6 0.905401 0.724260 0.868860
Si Si7 0.699419 0.059194 0.728533
O O1 0.702478 0.855767 0.029269
O O2 0.838953 0.923795 0.206658
O O3 0.816672 0.146894 0.087903
O O4 0.338478 0.053668 0.011709
O O5 0.814443 0.177863 0.830769
O O6 0.078525 0.255620 0.036898
O O7 0.730500 0.202373 0.423487
O O8 0.354439 0.089677 0.217703
O O9 0.380629 0.948699 0.352540
O O10 0.835913 0.909980 0.411144
O O11 0.229113 0.857155 0.437627
O O12 0.159493 0.652963 0.300344
O O13 0.632437 0.518500 0.393593
O O14 0.816920 0.881706 0.791485
#
# Coordination Sequence:
#
# PCOD9116086 Si02
#       7
#     2   2   2   2   2   2   2
#     4  10  22  37  60  87 116 153 202 239 288 360
#     4  11  21  39  60  86 121 156 191 245 294 343
#     4  10  22  37  60  87 116 153 202 239 288 360
#     4  10  21  40  60  85 118 155 194 248 295 339
#     4  11  21  39  60  86 121 156 191 245 294 343
#     4  10  21  40  60  85 118 155 194 248 295 339
#     4  10  22  38  60  90 118 150 202 236 286 360
#
# _framework density 21.261445999999999
#
# number of rings (size 3 to 8) (size 9 to 14) (size 15 to 20)
#    0.000    1.714    0.000    4.286    0.000    0.000 
#    0.000   34.286    0.000    0.000    0.000    0.000 
#    0.000    0.000    0.000    0.000    0.000    0.000 
#
# Total GULP energy -78097.911046 kJ/mol
# GULP energy per Si atom -5578.422218 kJ/mol
# Density = 2.121305 g / cm^3
# Si number density = 21.261446 Si / 1000 Ang^3
#
#
#
# Elastic Constant Matrix: (Units=GPa)
#
#
# Indices 1 2 3 4 5 6 
#
# 1 34.3337 13.6043 34.7099 0.0000 7.3970 0.0000
# 2 13.6043 76.8356 10.7457 0.0000 -0.5441 0.0000
# 3 34.7099 10.7457 72.9308 0.0000 6.4058 0.0000
# 4 0.0000 0.0000 0.0000 16.1154 0.0000 24.2428
# 5 7.3970 -0.5441 6.4058 0.0000 19.5553 0.0000
# 6 0.0000 0.0000 0.0000 24.2428 0.0000 -12.2197
#
#
#
# Elastic Compliance Matrix: (Units=1/GPa)
#
#
# Indices 1 2 3 4 5 6 
#
# 1 0.063368 -0.007448 -0.027736 0.000000 -0.015092 0.000000
# 2 -0.007448 0.014185 0.001207 0.000000 0.002816 0.000000
# 3 -0.027736 0.001207 0.026574 0.000000 0.001820 0.000000
# 4 0.000000 0.000000 0.000000 0.015574 0.000000 0.030897
# 5 -0.015092 0.002816 0.001820 0.000000 0.056328 0.000000
# 6 0.000000 0.000000 0.000000 0.030897 0.000000 -0.020539
#
#
# Mechanical properties :
#
#
# Convention : Reuss Voigt Hill
#
# Bulk Modulus (GPa) = 27.64393 33.57999 30.61196
# Shear Modulus (GPa) = 21.23138 13.02623 17.12881
#
# Velocity S-wave (km/s) = 3.16347 2.47790 2.84144
# Velocity P-wave (km/s) = 5.13552 4.90049 5.01938
#
# Compressibility (1/GPa) = 0.03617431
#
# Stress axis : x y z
#
# Youngs Moduli (GPa) = 15.78078 70.49911 37.63047
#
# Poissons Ratio (x) = 0.52505 1.04371
# Poissons Ratio (y) = 0.11753 -0.04543
# Poissons Ratio (z) = 0.43769 -0.08511
#
# Static dielectric constant tensor:
#      x y z
#    x 1.744530 0.000000 0.025250 
#    y 0.000000 1.861360 0.000000 
#    z 0.025250 0.000000 1.775830 
# 
# From -- ./inp_files/2420.got.cif
#   From: 2010.05.17/outbox.cif.g08.bks.cpg/sg4_2_cif.got.tgz:2420.got - 2010.06.03 18:43:04.
