data_PCOD9116128
_publ_section_title
;
Structure prediction by ZEFSAII (Michael W. Deem and Ramdas Pophale) SiO2 
 PCOD9116128
Probable space group: P 21
;
_chemical_formula_sum "Si O2"
_cell_formula_units_Z 16
_cell_length_a 15.974731
_cell_length_b 4.985820
_cell_length_c 8.582472
_cell_angle_alpha 90.000000
_cell_angle_beta 94.434408
_cell_angle_gamma 90.000000
_cell_volume 681.523027
_symmetry_space_group_name_H-M "P 21"
_symmetry_group_IT_number 4
_symmetry_cell_setting 'monoclinic'
loop_
_space_group_symop_operation_xyz
x,y,z
-x,1/2+y,-z
loop_
_atom_site_type_symbol
_atom_site_label
_atom_site_fract_x
_atom_site_fract_y
_atom_site_fract_z
Si Si1 0.438700 0.692720 0.996025
Si Si2 0.436693 0.732152 0.331784
Si Si3 0.254938 0.698878 0.864203
Si Si4 0.216648 0.067562 0.413339
Si Si5 0.838067 0.709114 0.283413
Si Si6 0.003997 0.753075 0.104660
Si Si7 0.606912 0.732537 0.488485
Si Si8 0.810859 0.072802 0.797353
O O1 0.401116 0.646621 0.162809
O O2 0.508062 0.465232 0.979031
O O3 0.356811 0.698755 0.874830
O O4 0.537158 0.682932 0.348209
O O5 0.400514 0.538455 0.459219
O O6 0.421609 0.040119 0.372267
O O7 0.213320 0.486424 0.740285
O O8 0.215214 0.985633 0.817997
O O9 0.223296 0.615234 0.032894
O O10 0.148014 0.109485 0.537371
O O11 0.299868 0.138947 0.523882
O O12 0.206533 0.279633 0.272749
O O13 0.225584 0.782815 0.333193
O O14 0.926854 0.748146 0.211465
O O15 0.090464 0.641170 0.185247
O O16 0.982607 0.550845 0.959817
#
# Coordination Sequence:
#
# PCOD9116128 Si02
#       8
#     2   2   2   2   2   2   2   2
#     4  12  26  41  63  98 136 173 227 288 329 388
#     4  10  22  41  60  92 117 181 220 274 326 393
#     4  12  25  45  73  99 138 190 238 273 348 418
#     4  12  26  41  68 105 139 176 223 291 343 392
#     4  12  26  46  71 106 140 183 224 291 344 416
#     4  12  23  47  74 105 137 179 230 273 345 416
#     4  10  21  40  65  83 132 167 224 266 334 401
#     4  12  25  45  74 102 135 183 228 282 335 418
#
# _framework density 23.476828000000001
#
# number of rings (size 3 to 8) (size 9 to 14) (size 15 to 20)
#    0.000    0.500    2.500    6.000    3.500    1.000 
#    0.000    0.000    0.000    0.000    0.000    0.000 
#    0.000    0.000    0.000    0.000    0.000    0.000 
#
# Total GULP energy -89566.194515 kJ/mol
# GULP energy per Si atom -5597.887157 kJ/mol
# Density = 2.342339 g / cm^3
# Si number density = 23.476828 Si / 1000 Ang^3
#
#
#
# Elastic Constant Matrix: (Units=GPa)
#
#
# Indices 1 2 3 4 5 6 
#
# 1 99.2606 2.2972 -19.7634 0.0000 12.3943 0.0000
# 2 2.2972 65.8429 -13.8062 0.0000 5.6007 0.0000
# 3 -19.7634 -13.8062 59.7411 0.0000 -13.4030 0.0000
# 4 0.0000 0.0000 0.0000 33.1530 0.0000 2.5836
# 5 12.3943 5.6007 -13.4030 0.0000 32.9263 0.0000
# 6 0.0000 0.0000 0.0000 2.5836 0.0000 27.6950
#
#
#
# Elastic Compliance Matrix: (Units=1/GPa)
#
#
# Indices 1 2 3 4 5 6 
#
# 1 0.011054 0.000520 0.003107 0.000000 -0.002984 0.000000
# 2 0.000520 0.016039 0.003546 0.000000 -0.001480 0.000000
# 3 0.003107 0.003546 0.020017 0.000000 0.006375 0.000000
# 4 0.000000 0.000000 0.000000 0.030384 0.000000 -0.002835
# 5 -0.002984 -0.001480 0.006375 0.000000 0.034341 0.000000
# 6 0.000000 0.000000 0.000000 -0.002835 0.000000 0.036372
#
#
# Mechanical properties :
#
#
# Convention : Reuss Voigt Hill
#
# Bulk Modulus (GPa) = 16.27161 18.03334 17.15248
# Shear Modulus (GPa) = 32.39491 35.82932 34.11212
#
# Velocity S-wave (km/s) = 3.71869 3.91084 3.81597
# Velocity P-wave (km/s) = 5.03827 5.30009 5.17084
#
# Compressibility (1/GPa) = 0.06145672
#
# Stress axis : x y z
#
# Youngs Moduli (GPa) = 90.46655 62.34774 49.95829
#
# Poissons Ratio (x) = -0.03241 -0.15524
# Poissons Ratio (y) = -0.04702 -0.17718
# Poissons Ratio (z) = -0.28111 -0.22112
#
# Static dielectric constant tensor:
#      x y z
#    x 1.942820 0.000000 -0.020320 
#    y 0.000000 1.847370 0.000000 
#    z -0.020320 0.000000 1.895320 
# 
# From -- ./inp_files/8830.got.cif
#   From: 2010.05.17/outbox.cif.g08.bks.cpg/sg4_5_cif.got.tgz:8830.got - 2010.06.03 18:43:04.
