data_PCOD9116145
_publ_section_title
;
Structure prediction by ZEFSAII (Michael W. Deem and Ramdas Pophale) SiO2 
 PCOD9116145
Probable space group: P 21
;
_chemical_formula_sum "Si O2"
_cell_formula_units_Z 16
_cell_length_a 10.969061
_cell_length_b 10.949377
_cell_length_c 10.526052
_cell_angle_alpha 90.000000
_cell_angle_beta 148.999770
_cell_angle_gamma 90.000000
_cell_volume 651.128357
_symmetry_space_group_name_H-M "P 21"
_symmetry_group_IT_number 4
_symmetry_cell_setting 'monoclinic'
loop_
_space_group_symop_operation_xyz
x,y,z
-x,1/2+y,-z
loop_
_atom_site_type_symbol
_atom_site_label
_atom_site_fract_x
_atom_site_fract_y
_atom_site_fract_z
Si Si1 0.397213 0.299350 0.197844
Si Si2 0.105710 0.124331 0.784457
Si Si3 0.284868 0.911927 0.131892
Si Si4 0.923694 0.192082 0.206603
Si Si5 0.683554 0.319072 0.198596
Si Si6 0.203645 0.300822 0.650557
Si Si7 0.908408 0.004826 0.985019
Si Si8 0.330389 0.584822 0.465625
O O1 0.585983 0.313786 0.253265
O O2 0.319714 0.423453 0.190073
O O3 0.487068 0.195552 0.372517
O O4 0.165839 0.242620 0.924124
O O5 0.190438 0.176530 0.725562
O O6 0.831078 0.096415 0.553509
O O7 0.226007 0.010715 0.965270
O O8 0.539341 0.955834 0.405681
O O9 0.218886 0.783342 0.012955
O O10 0.116353 0.930654 0.103269
O O11 0.758514 0.196117 0.186049
O O12 0.165702 0.254104 0.473354
O O13 0.972123 0.071349 0.172078
O O14 0.952628 0.374327 0.445883
O O15 0.448981 0.363233 0.910797
O O16 0.830812 0.093486 0.801725
#
# Coordination Sequence:
#
# PCOD9116145 Si02
#       8
#     2   2   2   2   2   2   2   2
#     4  10  21  42  67  97 134 174 232 275 351 406
#     4   9  19  41  67  95 129 172 226 275 349 409
#     4  10  24  41  66  97 130 184 221 284 341 411
#     4  10  24  44  61 104 140 171 236 281 345 404
#     4   9  20  42  70  96 134 179 214 295 333 410
#     4   9  19  42  68  99 134 172 223 280 343 398
#     4  11  26  40  67 100 131 185 222 290 333 410
#     4  10  21  40  66  94 128 177 226 280 337 410
#
# _framework density 24.57273
#
# number of rings (size 3 to 8) (size 9 to 14) (size 15 to 20)
#    0.750    1.500    1.250    0.000    7.000    3.000 
#   13.500    0.000    0.000    0.000    0.000    0.000 
#    0.000    0.000    0.000    0.000    0.000    0.000 
#
# Total GULP energy -89149.461911 kJ/mol
# GULP energy per Si atom -5571.841369 kJ/mol
# Density = 2.451680 g / cm^3
# Si number density = 24.572730 Si / 1000 Ang^3
#
#
#
# Elastic Constant Matrix: (Units=GPa)
#
#
# Indices 1 2 3 4 5 6 
#
# 1 127.7938 30.1887 5.8209 0.0000 14.9673 0.0000
# 2 30.1887 31.8822 -13.7588 0.0000 4.8076 0.0000
# 3 5.8209 -13.7588 90.4294 0.0000 21.3917 0.0000
# 4 0.0000 0.0000 0.0000 19.7625 0.0000 1.3311
# 5 14.9673 4.8076 21.3917 0.0000 20.4528 0.0000
# 6 0.0000 0.0000 0.0000 1.3311 0.0000 33.5293
#
#
#
# Elastic Compliance Matrix: (Units=1/GPa)
#
#
# Indices 1 2 3 4 5 6 
#
# 1 0.010756 -0.010079 -0.001228 0.000000 -0.004218 0.000000
# 2 -0.010079 0.048559 0.011949 0.000000 -0.016536 0.000000
# 3 -0.001228 0.011949 0.017815 0.000000 -0.020543 0.000000
# 4 0.000000 0.000000 0.000000 0.050737 0.000000 -0.002014
# 5 -0.004218 -0.016536 -0.020543 0.000000 0.077352 0.000000
# 6 0.000000 0.000000 0.000000 -0.002014 0.000000 0.029905
#
#
# Mechanical properties :
#
#
# Convention : Reuss Voigt Hill
#
# Bulk Modulus (GPa) = 12.75297 32.73410 22.74353
# Shear Modulus (GPa) = 19.23253 29.93923 24.58588
#
# Velocity S-wave (km/s) = 2.80067 3.49433 3.16656
# Velocity P-wave (km/s) = 3.95721 5.44341 4.75869
#
# Compressibility (1/GPa) = 0.07841313
#
# Stress axis : x y z
#
# Youngs Moduli (GPa) = 92.97263 20.59371 56.13293
#
# Poissons Ratio (x) = 0.20755 0.06894
# Poissons Ratio (y) = 0.93703 -0.67071
# Poissons Ratio (z) = 0.11418 -0.24607
#
# Static dielectric constant tensor:
#      x y z
#    x 1.960880 0.000000 0.011890 
#    y 0.000000 1.967820 0.000000 
#    z 0.011890 0.000000 2.013160 
# 
# From -- ./inp_files/3051.got.cif
#   From: 2010.05.17/outbox.cif.g08.bks.cpg/sg4_2_cif.got.tgz:3051.got - 2010.06.03 18:43:04.
