data_PCOD9116485
_publ_section_title
;
Structure prediction by ZEFSAII (Michael W. Deem and Ramdas Pophale) SiO2 
 PCOD9116485
Probable space group: P 21
;
_chemical_formula_sum "Si O2"
_cell_formula_units_Z 14
_cell_length_a 9.798359
_cell_length_b 12.667382
_cell_length_c 8.362439
_cell_angle_alpha 90.000000
_cell_angle_beta 32.944857
_cell_angle_gamma 90.000000
_cell_volume 564.465803
_symmetry_space_group_name_H-M "P 21"
_symmetry_group_IT_number 4
_symmetry_cell_setting 'monoclinic'
loop_
_space_group_symop_operation_xyz
x,y,z
-x,1/2+y,-z
loop_
_atom_site_type_symbol
_atom_site_label
_atom_site_fract_x
_atom_site_fract_y
_atom_site_fract_z
Si Si1 0.321139 0.688010 0.130053
Si Si2 0.276043 0.473648 0.614282
Si Si3 0.115959 0.699251 0.698241
Si Si4 0.377777 0.905709 0.450630
Si Si5 0.982028 0.495632 0.410042
Si Si6 0.719160 0.782779 0.904527
Si Si7 0.775023 0.413794 0.927452
O O1 0.213937 0.684936 0.418051
O O2 0.239896 0.791451 0.111801
O O3 0.204281 0.580376 0.177979
O O4 0.619919 0.708094 0.861749
O O5 0.211248 0.596915 0.692357
O O6 0.390539 0.434452 0.667565
O O7 0.015777 0.425342 0.806921
O O8 0.507565 0.448534 0.265571
O O9 0.223585 0.805889 0.669405
O O10 0.820218 0.715869 0.955728
O O11 0.194934 0.997783 0.572112
O O12 0.488195 0.856516 0.180204
O O13 0.835385 0.494836 0.722594
O O14 0.082921 0.374728 0.320270
#
# Coordination Sequence:
#
# PCOD9116485 Si02
#       7
#     2   2   2   2   2   2   2
#     4  11  23  40  72 111 138 189 244 312 358 431
#     4  12  29  47  73 110 150 193 242 309 367 442
#     4  10  23  42  75  99 142 199 239 297 384 425
#     4  10  25  46  69 102 150 188 243 300 369 452
#     4  11  23  44  74 105 139 200 243 308 369 439
#     4  10  21  44  72 105 142 191 248 302 371 443
#     4  12  26  47  71 112 145 182 255 304 356 438
#
# _framework density 24.802211
#
# number of rings (size 3 to 8) (size 9 to 14) (size 15 to 20)
#    0.000    1.143    5.714    0.857    8.000    2.286 
#    2.571    0.000    0.000    0.000    0.000    0.000 
#    0.000    0.000    0.000    0.000    0.000    0.000 
#
# Total GULP energy -78185.918662 kJ/mol
# GULP energy per Si atom -5584.708476 kJ/mol
# Density = 2.474576 g / cm^3
# Si number density = 24.802211 Si / 1000 Ang^3
#
#
#
# Elastic Constant Matrix: (Units=GPa)
#
#
# Indices 1 2 3 4 5 6 
#
# 1 160.8677 84.2626 7.4460 0.0000 -50.4266 0.0000
# 2 84.2626 140.6448 16.9598 0.0000 -27.2948 0.0000
# 3 7.4460 16.9598 65.9324 0.0000 -17.6618 0.0000
# 4 0.0000 0.0000 0.0000 29.2941 0.0000 -15.6875
# 5 -50.4266 -27.2948 -17.6618 0.0000 44.5828 0.0000
# 6 0.0000 0.0000 0.0000 -15.6875 0.0000 50.1814
#
#
#
# Elastic Compliance Matrix: (Units=1/GPa)
#
#
# Indices 1 2 3 4 5 6 
#
# 1 0.013004 -0.005769 0.003366 0.000000 0.012510 0.000000
# 2 -0.005769 0.010670 -0.002339 0.000000 -0.000919 0.000000
# 3 0.003366 -0.002339 0.017927 0.000000 0.009478 0.000000
# 4 0.000000 0.000000 0.000000 0.041001 0.000000 0.012817
# 5 0.012510 -0.000919 0.009478 0.000000 0.039772 0.000000
# 6 0.000000 0.000000 0.000000 0.012817 0.000000 0.023935
#
#
# Mechanical properties :
#
#
# Convention : Reuss Voigt Hill
#
# Bulk Modulus (GPa) = 31.13564 64.97574 48.05569
# Shear Modulus (GPa) = 30.03053 42.06343 36.04698
#
# Velocity S-wave (km/s) = 3.48343 4.12266 3.81645
# Velocity P-wave (km/s) = 5.36282 6.99402 6.23202
#
# Compressibility (1/GPa) = 0.03211753
#
# Stress axis : x y z
#
# Youngs Moduli (GPa) = 76.90169 93.72061 55.78041
#
# Poissons Ratio (x) = 0.54066 -0.18778
# Poissons Ratio (y) = 0.44363 0.13049
# Poissons Ratio (z) = -0.25889 0.21925
#
# Static dielectric constant tensor:
#      x y z
#    x 2.018580 0.000000 -0.041150 
#    y 0.000000 1.959330 0.000000 
#    z -0.041150 0.000000 2.116890 
# 
# From -- ./inp_files/6540.got.cif
#   From: 2010.05.17/outbox.cif.g08.bks.cpg/sg4_4_cif.got.tgz:6540.got - 2010.06.03 18:43:04.
