data_PCOD9116515
_publ_section_title
;
Structure prediction by ZEFSAII (Michael W. Deem and Ramdas Pophale) SiO2 
 PCOD9116515
Probable space group: P 21
;
_chemical_formula_sum "Si O2"
_cell_formula_units_Z 14
_cell_length_a 6.343280
_cell_length_b 17.318273
_cell_length_c 5.420662
_cell_angle_alpha 90.000000
_cell_angle_beta 74.467136
_cell_angle_gamma 90.000000
_cell_volume 573.736062
_symmetry_space_group_name_H-M "P 21"
_symmetry_group_IT_number 4
_symmetry_cell_setting 'monoclinic'
loop_
_space_group_symop_operation_xyz
x,y,z
-x,1/2+y,-z
loop_
_atom_site_type_symbol
_atom_site_label
_atom_site_fract_x
_atom_site_fract_y
_atom_site_fract_z
Si Si1 0.643057 0.706920 0.293893
Si Si2 0.587117 0.075662 0.874735
Si Si3 0.895442 0.181501 0.095806
Si Si4 0.667728 0.308818 0.917438
Si Si5 0.795611 0.475067 0.861237
Si Si6 0.063931 0.448900 0.275772
Si Si7 0.926344 0.776134 0.575968
O O1 0.479894 0.634438 0.324534
O O2 0.538997 0.766324 0.132173
O O3 0.697075 0.755594 0.518784
O O4 0.885108 0.680669 0.137147
O O5 0.724885 0.002165 0.745724
O O6 0.733414 0.119359 0.033205
O O7 0.360806 0.048136 0.065580
O O8 0.997822 0.194341 0.330444
O O9 0.759010 0.261798 0.120302
O O10 0.645902 0.399278 0.949283
O O11 0.875771 0.297519 0.669276
O O12 0.906936 0.468855 0.558265
O O13 0.962261 0.471329 0.040907
O O14 0.104138 0.356463 0.265853
#
# Coordination Sequence:
#
# PCOD9116515 Si02
#       7
#     2   2   2   2   2   2   2
#     4  10  23  45  68 110 139 194 245 306 367 453
#     4  11  26  48  73 108 154 196 249 302 390 434
#     4  10  21  46  67 104 142 190 238 308 363 445
#     4   9  21  41  72 101 138 183 252 296 372 431
#     4  11  25  49  76 109 147 193 254 312 371 446
#     4  11  26  50  78 111 149 197 252 315 369 443
#     4  10  22  43  78  99 145 189 256 307 366 434
#
# _framework density 24.401465000000002
#
# number of rings (size 3 to 8) (size 9 to 14) (size 15 to 20)
#    0.000    1.714    1.429    0.857    2.000    5.714 
#   33.429    0.000    0.000    0.000    0.000    0.000 
#    0.000    0.000    0.000    0.000    0.000    0.000 
#
# Total GULP energy -78204.622566 kJ/mol
# GULP energy per Si atom -5586.044469 kJ/mol
# Density = 2.434593 g / cm^3
# Si number density = 24.401465 Si / 1000 Ang^3
#
#
#
# Elastic Constant Matrix: (Units=GPa)
#
#
# Indices 1 2 3 4 5 6 
#
# 1 125.3583 64.9079 28.4308 0.0000 16.2252 0.0000
# 2 64.9079 112.8314 1.3990 0.0000 -0.3129 0.0000
# 3 28.4308 1.3990 38.9599 0.0000 6.6940 0.0000
# 4 0.0000 0.0000 0.0000 11.9133 0.0000 -1.8297
# 5 16.2252 -0.3129 6.6940 0.0000 40.4014 0.0000
# 6 0.0000 0.0000 0.0000 -1.8297 0.0000 60.0595
#
#
#
# Elastic Compliance Matrix: (Units=1/GPa)
#
#
# Indices 1 2 3 4 5 6 
#
# 1 0.015394 -0.008743 -0.010134 0.000000 -0.004571 0.000000
# 2 -0.008743 0.013832 0.005416 0.000000 0.002721 0.000000
# 3 -0.010134 0.005416 0.033104 0.000000 -0.001373 0.000000
# 4 0.000000 0.000000 0.000000 0.084335 0.000000 0.002569
# 5 -0.004571 0.002721 -0.001373 0.000000 0.026836 0.000000
# 6 0.000000 0.000000 0.000000 0.002569 0.000000 0.016728
#
#
# Mechanical properties :
#
#
# Convention : Reuss Voigt Hill
#
# Bulk Modulus (GPa) = 28.24206 51.84722 40.04464
# Shear Modulus (GPa) = 21.83839 34.63563 28.23701
#
# Velocity S-wave (km/s) = 2.99484 3.77159 3.40543
# Velocity P-wave (km/s) = 4.85364 6.34510 5.64881
#
# Compressibility (1/GPa) = 0.03540818
#
# Stress axis : x y z
#
# Youngs Moduli (GPa) = 64.96098 72.29379 30.20751
#
# Poissons Ratio (x) = 0.63203 0.30613
# Poissons Ratio (y) = 0.56792 -0.16359
# Poissons Ratio (z) = 0.65834 -0.39152
#
# Static dielectric constant tensor:
#      x y z
#    x 1.900540 0.000000 -0.013900 
#    y 0.000000 1.962040 0.000000 
#    z -0.013900 0.000000 2.005480 
# 
# From -- ./inp_files/363.got.cif
#   From: 2010.05.17/outbox.cif.g08.bks.cpg/sg4_1_cif.got.tgz:363.got - 2010.06.03 18:43:04.
