data_PCOD9116177
_publ_section_title
;
Structure prediction by ZEFSAII (Michael W. Deem and Ramdas Pophale) SiO2 
 PCOD9116177
Probable space group: P 21
;
_chemical_formula_sum "Si O2"
_cell_formula_units_Z 16
_cell_length_a 5.101305
_cell_length_b 16.055566
_cell_length_c 8.756229
_cell_angle_alpha 90.000000
_cell_angle_beta 107.538914
_cell_angle_gamma 90.000000
_cell_volume 683.833561
_symmetry_space_group_name_H-M "P 21"
_symmetry_group_IT_number 4
_symmetry_cell_setting 'monoclinic'
loop_
_space_group_symop_operation_xyz
x,y,z
-x,1/2+y,-z
loop_
_atom_site_type_symbol
_atom_site_label
_atom_site_fract_x
_atom_site_fract_y
_atom_site_fract_z
Si Si1 0.497425 0.050890 0.043525
Si Si2 0.887883 0.255081 0.623369
Si Si3 0.487683 0.174233 0.755899
Si Si4 0.902214 0.885655 0.546755
Si Si5 0.517641 0.019045 0.546688
Si Si6 0.903804 0.583463 0.763850
Si Si7 0.585509 0.399559 0.182386
Si Si8 0.588861 0.752724 0.671780
O O1 0.220608 0.058774 0.092800
O O2 0.773285 0.068362 0.186553
O O3 0.507863 0.122561 0.915576
O O4 0.498495 0.958543 0.970186
O O5 0.712697 0.243914 0.748582
O O6 0.707714 0.223760 0.444642
O O7 0.176159 0.206901 0.689253
O O8 0.954377 0.348993 0.578710
O O9 0.556821 0.105976 0.638033
O O10 0.682616 0.814899 0.553238
O O11 0.091082 0.886100 0.732824
O O12 0.772260 0.976112 0.507176
O O13 0.267658 0.031318 0.389046
O O14 0.469863 0.955244 0.676737
O O15 0.802088 0.678690 0.726376
O O16 0.448807 0.309641 0.184401
#
# Coordination Sequence:
#
# PCOD9116177 Si02
#       8
#     2   2   2   2   2   2   2   2
#     4  11  28  44  63 100 137 186 214 271 335 411
#     4  11  20  39  68 102 123 166 223 289 318 391
#     4  11  23  41  69  92 134 171 227 270 335 394
#     4  10  21  40  71 104 127 170 232 279 344 388
#     4  10  23  38  69 100 127 172 224 289 322 394
#     4  12  26  43  68 100 140 170 230 273 337 385
#     4   9  23  42  72  92 135 179 231 265 341 408
#     4  10  22  41  72 100 131 174 227 278 336 401
#
# _framework density 23.397507999999998
#
# number of rings (size 3 to 8) (size 9 to 14) (size 15 to 20)
#    0.000    1.500    2.500    0.750   15.750    0.000 
#    0.000    3.750    0.000    0.000    0.000    0.000 
#    0.000    0.000    0.000    0.000    0.000    0.000 
#
# Total GULP energy -89341.661747 kJ/mol
# GULP energy per Si atom -5583.853859 kJ/mol
# Density = 2.334425 g / cm^3
# Si number density = 23.397508 Si / 1000 Ang^3
#
#
#
# Elastic Constant Matrix: (Units=GPa)
#
#
# Indices 1 2 3 4 5 6 
#
# 1 83.3578 15.4651 -5.0711 0.0000 8.5944 0.0000
# 2 15.4651 51.2492 5.5949 0.0000 5.9723 0.0000
# 3 -5.0711 5.5949 31.0938 0.0000 1.6050 0.0000
# 4 0.0000 0.0000 0.0000 28.7864 0.0000 12.4277
# 5 8.5944 5.9723 1.6050 0.0000 38.6262 0.0000
# 6 0.0000 0.0000 0.0000 12.4277 0.0000 32.4423
#
#
#
# Elastic Compliance Matrix: (Units=1/GPa)
#
#
# Indices 1 2 3 4 5 6 
#
# 1 0.013176 -0.004019 0.002998 0.000000 -0.002435 0.000000
# 2 -0.004019 0.021467 -0.004403 0.000000 -0.002242 0.000000
# 3 0.002998 -0.004403 0.033513 0.000000 -0.001379 0.000000
# 4 0.000000 0.000000 0.000000 0.041622 0.000000 -0.015944
# 5 -0.002435 -0.002242 -0.001379 0.000000 0.026835 0.000000
# 6 0.000000 0.000000 0.000000 -0.015944 0.000000 0.036932
#
#
# Mechanical properties :
#
#
# Convention : Reuss Voigt Hill
#
# Bulk Modulus (GPa) = 17.44975 21.96428 19.70701
# Shear Modulus (GPa) = 24.57054 29.95175 27.26114
#
# Velocity S-wave (km/s) = 3.24409 3.58177 3.41710
# Velocity P-wave (km/s) = 4.63749 5.14910 4.89998
#
# Compressibility (1/GPa) = 0.05730741
#
# Stress axis : x y z
#
# Youngs Moduli (GPa) = 75.89793 46.58241 29.83910
#
# Poissons Ratio (x) = 0.18724 -0.08945
# Poissons Ratio (y) = 0.30507 0.13137
# Poissons Ratio (z) = -0.22752 0.20508
#
# Static dielectric constant tensor:
#      x y z
#    x 2.030820 0.000000 -0.002090 
#    y 0.000000 1.935420 0.000000 
#    z -0.002090 0.000000 1.879330 
# 
# From -- ./inp_files/4951.got.cif
#   From: 2010.05.17/outbox.cif.g08.bks.cpg/sg4_3_cif.got.tgz:4951.got - 2010.06.03 18:43:04.
