data_PCOD9116625
_publ_section_title
;
Structure prediction by ZEFSAII (Michael W. Deem and Ramdas Pophale) SiO2 
 PCOD9116625
Probable space group: P 21
;
_chemical_formula_sum "Si O2"
_cell_formula_units_Z 14
_cell_length_a 5.032063
_cell_length_b 9.447459
_cell_length_c 12.864976
_cell_angle_alpha 90.000000
_cell_angle_beta 119.373093
_cell_angle_gamma 90.000000
_cell_volume 532.978482
_symmetry_space_group_name_H-M "P 21"
_symmetry_group_IT_number 4
_symmetry_cell_setting 'monoclinic'
loop_
_space_group_symop_operation_xyz
x,y,z
-x,1/2+y,-z
loop_
_atom_site_type_symbol
_atom_site_label
_atom_site_fract_x
_atom_site_fract_y
_atom_site_fract_z
Si Si1 0.738913 0.185040 0.930734
Si Si2 0.593732 0.946702 0.483765
Si Si3 0.685731 0.427089 0.080335
Si Si4 0.604238 0.657843 0.862128
Si Si5 0.913174 0.035581 0.348957
Si Si6 0.571859 0.286161 0.360891
Si Si7 0.305191 0.557198 0.285470
O O1 0.670844 0.182056 0.793801
O O2 0.714912 0.339547 0.977564
O O3 0.083163 0.131426 0.019090
O O4 0.524802 0.067192 0.945377
O O5 0.791789 0.935644 0.418881
O O6 0.718410 0.059644 0.594408
O O7 0.251762 0.992414 0.387482
O O8 0.543504 0.809810 0.545682
O O9 0.538020 0.300838 0.119158
O O10 0.010056 0.472793 0.188178
O O11 0.329970 0.546143 0.791870
O O12 0.676554 0.703863 0.757113
O O13 0.861668 0.190027 0.393109
O O14 0.590103 0.448909 0.326751
#
# Coordination Sequence:
#
# PCOD9116625 Si02
#       7
#     2   2   2   2   2   2   2
#     4  12  22  42  66 108 132 188 230 294 340 434
#     4  10  22  38  67  93 127 170 222 278 336 416
#     4  12  22  40  77  92 141 186 230 286 360 418
#     4  10  23  41  67  96 131 180 235 282 348 421
#     4  10  22  38  67  93 127 170 222 278 336 416
#     4   8  20  40  65  88 129 174 224 272 346 408
#     4  10  23  41  67  96 131 180 235 282 348 421
#
# _framework density 26.267472999999999
#
# number of rings (size 3 to 8) (size 9 to 14) (size 15 to 20)
#    1.714    0.000    2.857    0.857    8.000    1.143 
#    0.000    1.429   12.571    0.000    0.000    0.000 
#    0.000    0.000    0.000    0.000    0.000    0.000 
#
# Total GULP energy -78080.947168 kJ/mol
# GULP energy per Si atom -5577.210512 kJ/mol
# Density = 2.620769 g / cm^3
# Si number density = 26.267473 Si / 1000 Ang^3
#
#
#
# Elastic Constant Matrix: (Units=GPa)
#
#
# Indices 1 2 3 4 5 6 
#
# 1 92.2335 15.7592 16.7797 0.0000 12.5056 0.0000
# 2 15.7592 61.9871 44.4589 0.0000 2.1756 0.0000
# 3 16.7797 44.4589 68.7231 0.0000 18.9704 0.0000
# 4 0.0000 0.0000 0.0000 64.3625 0.0000 -7.4286
# 5 12.5056 2.1756 18.9704 0.0000 28.8989 0.0000
# 6 0.0000 0.0000 0.0000 -7.4286 0.0000 41.5134
#
#
#
# Elastic Compliance Matrix: (Units=1/GPa)
#
#
# Indices 1 2 3 4 5 6 
#
# 1 0.012026 -0.003437 0.000796 0.000000 -0.005468 0.000000
# 2 -0.003437 0.035564 -0.026673 0.000000 0.016319 0.000000
# 3 0.000796 -0.026673 0.038047 0.000000 -0.023312 0.000000
# 4 0.000000 0.000000 0.000000 0.015865 0.000000 0.002839
# 5 -0.005468 0.016319 -0.023312 0.000000 0.051044 0.000000
# 6 0.000000 0.000000 0.000000 0.002839 0.000000 0.024597
#
#
# Mechanical properties :
#
#
# Convention : Reuss Voigt Hill
#
# Bulk Modulus (GPa) = 37.02230 41.88214 39.45222
# Shear Modulus (GPa) = 20.42712 36.68466 28.55589
#
# Velocity S-wave (km/s) = 2.79168 3.74114 3.30073
# Velocity P-wave (km/s) = 4.95139 5.88563 5.43860
#
# Compressibility (1/GPa) = 0.02701075
#
# Stress axis : x y z
#
# Youngs Moduli (GPa) = 83.15489 28.11835 26.28301
#
# Poissons Ratio (x) = 0.09663 -0.02093
# Poissons Ratio (y) = 0.28577 0.70105
# Poissons Ratio (z) = -0.06623 0.75000
#
# Static dielectric constant tensor:
#      x y z
#    x 2.069530 0.000000 -0.093060 
#    y 0.000000 2.125900 0.000000 
#    z -0.093060 0.000000 2.163840 
# 
# From -- ./inp_files/13391.got.cif
#   From: 2010.05.17/outbox.cif.g08.bks.cpg/sg4_7_cif.got.tgz:13391.got - 2010.06.03 18:43:04.
