data_PCOD9116629
_publ_section_title
;
Structure prediction by ZEFSAII (Michael W. Deem and Ramdas Pophale) SiO2 
 PCOD9116629
Probable space group: P 21
;
_chemical_formula_sum "Si O2"
_cell_formula_units_Z 16
_cell_length_a 9.544625
_cell_length_b 5.585587
_cell_length_c 18.472377
_cell_angle_alpha 90.000000
_cell_angle_beta 142.931544
_cell_angle_gamma 90.000000
_cell_volume 593.610031
_symmetry_space_group_name_H-M "P 21"
_symmetry_group_IT_number 4
_symmetry_cell_setting 'monoclinic'
loop_
_space_group_symop_operation_xyz
x,y,z
-x,1/2+y,-z
loop_
_atom_site_type_symbol
_atom_site_label
_atom_site_fract_x
_atom_site_fract_y
_atom_site_fract_z
Si Si1 0.969086 0.024320 0.895161
Si Si2 0.559480 0.492981 0.131230
Si Si3 0.369338 0.828914 0.555584
Si Si4 0.393351 0.351004 0.602795
Si Si5 0.739953 0.518929 0.843584
Si Si6 0.161845 0.768981 0.631180
Si Si7 0.204882 0.722135 0.890872
Si Si8 0.051071 0.391702 0.710412
O O1 0.870906 0.291235 0.861225
O O2 0.805029 0.789659 0.844496
O O3 0.073336 0.958518 0.861226
O O4 0.176156 0.017721 0.039607
O O5 0.628443 0.405128 0.239389
O O6 0.597910 0.288062 0.086520
O O7 0.757015 0.690734 0.200475
O O8 0.314277 0.604315 0.007832
O O9 0.504846 0.578869 0.608283
O O10 0.228656 0.806118 0.574656
O O11 0.472676 0.093941 0.606003
O O12 0.200065 0.809453 0.417923
O O13 0.479976 0.423061 0.719399
O O14 0.111778 0.356069 0.480360
O O15 0.129032 0.548067 0.672769
O O16 0.043424 0.550264 0.778610
#
# Coordination Sequence:
#
# PCOD9116629 Si02
#       8
#     2   2   2   2   2   2   2   2
#     4  10  24  44  68  95 130 173 223 277 331 368
#     4  11  22  40  58  96 136 165 225 249 327 410
#     4  11  23  37  63  96 132 172 213 261 335 387
#     4  11  21  38  63  93 127 170 201 279 331 376
#     4  10  23  45  66  99 127 164 231 283 318 388
#     4  10  23  36  60  95 132 170 214 264 330 390
#     4  11  24  39  66  93 131 189 205 271 327 402
#     4  10  22  39  56  89 137 167 210 260 309 405
#
# _framework density 26.953723
#
# number of rings (size 3 to 8) (size 9 to 14) (size 15 to 20)
#    0.000    1.500    2.500    2.250    5.250    0.000 
#    0.000    0.000    0.000   18.000    0.000    0.000 
#    0.000    0.000    0.000    0.000    0.000    0.000 
#
# Total GULP energy -89358.095579 kJ/mol
# GULP energy per Si atom -5584.880974 kJ/mol
# Density = 2.689237 g / cm^3
# Si number density = 26.953723 Si / 1000 Ang^3
#
#
#
# Elastic Constant Matrix: (Units=GPa)
#
#
# Indices 1 2 3 4 5 6 
#
# 1 61.6548 16.5888 25.4747 0.0000 -7.5159 0.0000
# 2 16.5888 152.0157 40.0741 0.0000 -7.7825 0.0000
# 3 25.4747 40.0741 157.0690 0.0000 -10.1780 0.0000
# 4 0.0000 0.0000 0.0000 55.6635 0.0000 -5.5761
# 5 -7.5159 -7.7825 -10.1780 0.0000 20.5290 0.0000
# 6 0.0000 0.0000 0.0000 -5.5761 0.0000 33.4990
#
#
#
# Elastic Compliance Matrix: (Units=1/GPa)
#
#
# Indices 1 2 3 4 5 6 
#
# 1 0.018093 -0.001103 -0.002326 0.000000 0.005053 0.000000
# 2 -0.001103 0.007188 -0.001555 0.000000 0.001550 0.000000
# 3 -0.002326 -0.001555 0.007281 0.000000 0.002169 0.000000
# 4 0.000000 0.000000 0.000000 0.018270 0.000000 0.003041
# 5 0.005053 0.001550 0.002169 0.000000 0.052225 0.000000
# 6 0.000000 0.000000 0.000000 0.003041 0.000000 0.030358
#
#
# Mechanical properties :
#
#
# Convention : Reuss Voigt Hill
#
# Bulk Modulus (GPa) = 44.25575 59.44608 51.85091
# Shear Modulus (GPa) = 33.13193 41.17843 37.15518
#
# Velocity S-wave (km/s) = 3.50982 3.91288 3.71682
# Velocity P-wave (km/s) = 5.73410 6.52050 6.13990
#
# Compressibility (1/GPa) = 0.02259594
#
# Stress axis : x y z
#
# Youngs Moduli (GPa) = 55.27027 139.12501 137.34362
#
# Poissons Ratio (x) = 0.15340 0.31942
# Poissons Ratio (y) = 0.06094 0.21351
# Poissons Ratio (z) = 0.12854 0.21628
#
# Static dielectric constant tensor:
#      x y z
#    x 2.110430 0.000000 0.065590 
#    y 0.000000 2.252800 0.000000 
#    z 0.065590 0.000000 2.149470 
# 
# From -- ./inp_files/15685.got.cif
#   From: 2010.05.17/outbox.cif.g08.bks.cpg/sg4_8_cif.got.tgz:15685.got - 2010.06.03 18:43:04.
