data_PCOD9116617
_publ_section_title
;
Structure prediction by ZEFSAII (Michael W. Deem and Ramdas Pophale) SiO2 
 PCOD9116617
Probable space group: P 21
;
_chemical_formula_sum "Si O2"
_cell_formula_units_Z 14
_cell_length_a 10.964062
_cell_length_b 9.197507
_cell_length_c 5.678631
_cell_angle_alpha 90.000000
_cell_angle_beta 80.956940
_cell_angle_gamma 90.000000
_cell_volume 565.527027
_symmetry_space_group_name_H-M "P 21"
_symmetry_group_IT_number 4
_symmetry_cell_setting 'monoclinic'
loop_
_space_group_symop_operation_xyz
x,y,z
-x,1/2+y,-z
loop_
_atom_site_type_symbol
_atom_site_label
_atom_site_fract_x
_atom_site_fract_y
_atom_site_fract_z
Si Si1 0.468781 0.753040 0.092959
Si Si2 0.668302 0.469450 0.552115
Si Si3 0.130780 0.638501 0.144923
Si Si4 0.282995 0.266316 0.665671
Si Si5 0.832216 0.210902 0.350385
Si Si6 0.569061 0.950485 0.684861
Si Si7 0.957599 0.832224 0.965351
O O1 0.368811 0.875665 0.204928
O O2 0.591324 0.758407 0.219153
O O3 0.423482 0.587599 0.141829
O O4 0.516025 0.806712 0.828305
O O5 0.730511 0.626138 0.500724
O O6 0.756541 0.359829 0.385096
O O7 0.535089 0.490348 0.472290
O O8 0.179238 0.640302 0.392464
O O9 0.056407 0.791163 0.138777
O O10 0.211980 0.636815 0.879759
O O11 0.047904 0.496053 0.124448
O O12 0.308181 0.399921 0.483707
O O13 0.172217 0.286148 0.883625
O O14 0.978761 0.236779 0.259133
#
# Coordination Sequence:
#
# PCOD9116617 Si02
#       7
#     2   2   2   2   2   2   2
#     4  10  22  38  64  95 129 176 225 279 344 399
#     4  10  22  42  64  91 134 172 227 275 342 399
#     4  10  25  43  69 100 134 177 224 276 338 401
#     4  10  22  43  62  96 128 178 219 283 335 408
#     4  10  25  42  69 101 132 179 222 273 343 395
#     4  10  22  39  64  95 131 174 226 282 338 407
#     4  10  24  43  68  98 138 172 233 274 346 401
#
# _framework density 24.755666999999999
#
# number of rings (size 3 to 8) (size 9 to 14) (size 15 to 20)
#    0.857    1.143    0.000    1.714    6.000    3.429 
#    0.000    0.000    0.000    0.000    0.000    0.000 
#    0.000    0.000    0.000    0.000    0.000    0.000 
#
# Total GULP energy -78047.653495 kJ/mol
# GULP energy per Si atom -5574.832392 kJ/mol
# Density = 2.469932 g / cm^3
# Si number density = 24.755667 Si / 1000 Ang^3
#
#
#
# Elastic Constant Matrix: (Units=GPa)
#
#
# Indices 1 2 3 4 5 6 
#
# 1 72.0398 39.0638 37.8117 0.0000 -25.1005 0.0000
# 2 39.0638 98.5398 46.3397 0.0000 7.0803 0.0000
# 3 37.8117 46.3397 132.9062 0.0000 -18.2005 0.0000
# 4 0.0000 0.0000 0.0000 30.1597 0.0000 -5.0892
# 5 -25.1005 7.0803 -18.2005 0.0000 39.6437 0.0000
# 6 0.0000 0.0000 0.0000 -5.0892 0.0000 38.0293
#
#
#
# Elastic Compliance Matrix: (Units=1/GPa)
#
#
# Indices 1 2 3 4 5 6 
#
# 1 0.027409 -0.011695 -0.001129 0.000000 0.018924 0.000000
# 2 -0.011695 0.017888 -0.004654 0.000000 -0.012736 0.000000
# 3 -0.001129 -0.004654 0.010120 0.000000 0.004763 0.000000
# 4 0.000000 0.000000 0.000000 0.033923 0.000000 0.004540
# 5 0.018924 -0.012736 0.004763 0.000000 0.041668 0.000000
# 6 0.000000 0.000000 0.000000 0.004540 0.000000 0.026903
#
#
# Mechanical properties :
#
#
# Convention : Reuss Voigt Hill
#
# Bulk Modulus (GPa) = 48.87003 61.10181 54.98592
# Shear Modulus (GPa) = 25.03939 33.58459 29.31199
#
# Velocity S-wave (km/s) = 3.18380 3.68726 3.44474
# Velocity P-wave (km/s) = 5.77055 6.54701 6.17100
#
# Compressibility (1/GPa) = 0.02046244
#
# Stress axis : x y z
#
# Youngs Moduli (GPa) = 36.48468 55.90393 98.81347
#
# Poissons Ratio (x) = 0.65377 0.11154
# Poissons Ratio (y) = 0.42667 0.45986
# Poissons Ratio (z) = 0.04118 0.26017
#
# Static dielectric constant tensor:
#      x y z
#    x 1.980390 0.000000 0.002290 
#    y 0.000000 1.988980 0.000000 
#    z 0.002290 0.000000 1.985130 
# 
# From -- ./inp_files/2427.got.cif
#   From: 2010.05.17/outbox.cif.g08.bks.cpg/sg4_2_cif.got.tgz:2427.got - 2010.06.03 18:43:04.
