data_PCOD9116944
_publ_section_title
;
Structure prediction by ZEFSAII (Michael W. Deem and Ramdas Pophale) SiO2 
 PCOD9116944
Probable space group: P 21
;
_chemical_formula_sum "Si O2"
_cell_formula_units_Z 16
_cell_length_a 6.392447
_cell_length_b 14.495180
_cell_length_c 8.329873
_cell_angle_alpha 90.000000
_cell_angle_beta 58.304331
_cell_angle_gamma 90.000000
_cell_volume 656.723496
_symmetry_space_group_name_H-M "P 21"
_symmetry_group_IT_number 4
_symmetry_cell_setting 'monoclinic'
loop_
_space_group_symop_operation_xyz
x,y,z
-x,1/2+y,-z
loop_
_atom_site_type_symbol
_atom_site_label
_atom_site_fract_x
_atom_site_fract_y
_atom_site_fract_z
Si Si1 0.138247 0.506540 0.363044
Si Si2 0.426240 0.827362 0.093952
Si Si3 0.776821 0.651759 0.389759
Si Si4 0.406464 0.752767 0.742610
Si Si5 0.001483 0.481510 0.771644
Si Si6 0.378487 0.331859 0.653944
Si Si7 0.307663 0.018966 0.852393
Si Si8 0.001624 0.358887 0.191106
O O1 0.020999 0.596619 0.330690
O O2 0.087411 0.519269 0.568786
O O3 0.001791 0.412708 0.360487
O O4 0.420339 0.496213 0.201052
O O5 0.402336 0.768782 0.935686
O O6 0.715298 0.852073 0.967553
O O7 0.220834 0.907338 0.165677
O O8 0.431808 0.799918 0.283438
O O9 0.586972 0.670389 0.613213
O O10 0.820444 0.750029 0.288186
O O11 0.650322 0.587732 0.309680
O O12 0.518275 0.831541 0.571790
O O13 0.130748 0.761357 0.784406
O O14 0.242114 0.427566 0.738156
O O15 0.873618 0.556089 0.937598
O O16 0.147421 0.931222 0.859788
#
# Coordination Sequence:
#
# PCOD9116944 Si02
#       8
#     2   2   2   2   2   2   2   2
#     4  11  24  43  72  98 141 188 224 292 362 413
#     4  12  21  38  70 103 130 174 232 289 338 406
#     4   9  26  45  63  99 149 185 223 295 360 411
#     4  10  22  42  66 100 138 180 226 286 348 412
#     4  12  23  40  71 106 130 180 246 279 347 426
#     4  10  23  42  65 104 135 177 235 291 340 416
#     4  11  22  44  66 101 140 178 230 294 347 419
#     4  11  19  40  65  99 135 170 228 290 334 403
#
# _framework density 24.363375000000001
#
# number of rings (size 3 to 8) (size 9 to 14) (size 15 to 20)
#    0.750    0.500    3.750    2.250    0.000    4.000 
#    0.000    2.500    0.000    0.000    0.000    0.000 
#    0.000    0.000    0.000    0.000    0.000    0.000 
#
# Total GULP energy -89079.891915 kJ/mol
# GULP energy per Si atom -5567.493245 kJ/mol
# Density = 2.430792 g / cm^3
# Si number density = 24.363375 Si / 1000 Ang^3
#
#
#
# Elastic Constant Matrix: (Units=GPa)
#
#
# Indices 1 2 3 4 5 6 
#
# 1 70.2537 10.9912 18.0394 0.0000 11.9170 0.0000
# 2 10.9912 29.1349 2.7497 0.0000 -1.0648 0.0000
# 3 18.0394 2.7497 95.0638 0.0000 13.1180 0.0000
# 4 0.0000 0.0000 0.0000 26.2643 0.0000 3.8475
# 5 11.9170 -1.0648 13.1180 0.0000 40.4072 0.0000
# 6 0.0000 0.0000 0.0000 3.8475 0.0000 18.3283
#
#
#
# Elastic Compliance Matrix: (Units=1/GPa)
#
#
# Indices 1 2 3 4 5 6 
#
# 1 0.016532 -0.006169 -0.002370 0.000000 -0.004269 0.000000
# 2 -0.006169 0.036783 -0.000291 0.000000 0.002883 0.000000
# 3 -0.002370 -0.000291 0.011392 0.000000 -0.003007 0.000000
# 4 0.000000 0.000000 0.000000 0.039282 0.000000 -0.008246
# 5 -0.004269 0.002883 -0.003007 0.000000 0.027059 0.000000
# 6 0.000000 0.000000 0.000000 -0.008246 0.000000 0.056291
#
#
# Mechanical properties :
#
#
# Convention : Reuss Voigt Hill
#
# Bulk Modulus (GPa) = 21.25499 28.66811 24.96155
# Shear Modulus (GPa) = 22.65696 27.84477 25.25086
#
# Velocity S-wave (km/s) = 3.05283 3.38434 3.22285
# Velocity P-wave (km/s) = 4.60103 5.20232 4.91089
#
# Compressibility (1/GPa) = 0.04704778
#
# Stress axis : x y z
#
# Youngs Moduli (GPa) = 60.48933 27.18632 87.77846
#
# Poissons Ratio (x) = 0.16771 0.20800
# Poissons Ratio (y) = 0.37316 0.02556
# Poissons Ratio (z) = 0.14333 0.00792
#
# Static dielectric constant tensor:
#      x y z
#    x 2.021420 0.000000 0.056710 
#    y 0.000000 2.026130 0.000000 
#    z 0.056710 0.000000 2.063620 
# 
# From -- ./inp_files/4986.got.cif
#   From: 2010.05.17/outbox.cif.g08.bks.cpg/sg4_3_cif.got.tgz:4986.got - 2010.06.03 18:43:04.
