data_PCOD9116429
_publ_section_title
;
Structure prediction by ZEFSAII (Michael W. Deem and Ramdas Pophale) SiO2 
 PCOD9116429
Probable space group: P 21
;
_chemical_formula_sum "Si O2"
_cell_formula_units_Z 16
_cell_length_a 7.547785
_cell_length_b 17.240483
_cell_length_c 5.872007
_cell_angle_alpha 90.000000
_cell_angle_beta 65.145563
_cell_angle_gamma 90.000000
_cell_volume 693.336431
_symmetry_space_group_name_H-M "P 21"
_symmetry_group_IT_number 4
_symmetry_cell_setting 'monoclinic'
loop_
_space_group_symop_operation_xyz
x,y,z
-x,1/2+y,-z
loop_
_atom_site_type_symbol
_atom_site_label
_atom_site_fract_x
_atom_site_fract_y
_atom_site_fract_z
Si Si1 0.972836 0.755300 0.118958
Si Si2 0.332628 0.218974 0.111828
Si Si3 0.753299 0.326792 0.331720
Si Si4 0.070080 0.993735 0.811333
Si Si5 0.867644 0.020931 0.426072
Si Si6 0.325957 0.359164 0.460406
Si Si7 0.262079 0.130275 0.558890
Si Si8 0.353251 0.681151 0.401810
O O1 0.860395 0.822681 0.312710
O O2 0.937078 0.675180 0.266184
O O3 0.838375 0.739003 0.971417
O O4 0.185063 0.781712 0.931369
O O5 0.353096 0.300250 0.235030
O O6 0.267320 0.143082 0.288582
O O7 0.533770 0.191281 0.893433
O O8 0.883401 0.403285 0.250570
O O9 0.530645 0.352228 0.479617
O O10 0.777533 0.258075 0.499450
O O11 0.260020 0.049586 0.692238
O O12 0.979755 0.017360 0.611196
O O13 0.969833 0.007664 0.116681
O O14 0.764266 0.104119 0.480603
O O15 0.719515 0.949064 0.542435
O O16 0.456294 0.177876 0.531368
#
# Coordination Sequence:
#
# PCOD9116429 Si02
#       8
#     2   2   2   2   2   2   2   2
#     4  10  21  43  70 104 148 180 250 298 371 440
#     4  10  21  43  72 105 148 190 244 308 375 435
#     4  12  23  46  74 108 146 196 247 303 379 442
#     4  12  29  48  73 110 149 201 247 312 375 440
#     4  12  29  51  73 109 156 195 251 312 370 443
#     4  11  23  47  71 105 148 192 244 313 358 452
#     4  10  23  45  70 105 148 190 250 308 368 449
#     4  11  25  45  73 110 145 200 249 308 380 443
#
# _framework density 23.076823000000001
#
# number of rings (size 3 to 8) (size 9 to 14) (size 15 to 20)
#    0.000    1.000    5.000    2.250    7.000    2.000 
#    4.500    0.000    0.000    0.000    0.000    0.000 
#    0.000    0.000    0.000    0.000    0.000    0.000 
#
# Total GULP energy -89135.570508 kJ/mol
# GULP energy per Si atom -5570.973157 kJ/mol
# Density = 2.302430 g / cm^3
# Si number density = 23.076823 Si / 1000 Ang^3
#
#
#
# Elastic Constant Matrix: (Units=GPa)
#
#
# Indices 1 2 3 4 5 6 
#
# 1 34.2074 30.1748 9.9520 0.0000 5.6472 0.0000
# 2 30.1748 158.4775 93.6923 0.0000 -12.2554 0.0000
# 3 9.9520 93.6923 121.7636 0.0000 -7.6875 0.0000
# 4 0.0000 0.0000 0.0000 21.7265 0.0000 -18.9953
# 5 5.6472 -12.2554 -7.6875 0.0000 28.7850 0.0000
# 6 0.0000 0.0000 0.0000 -18.9953 0.0000 35.6505
#
#
#
# Elastic Compliance Matrix: (Units=1/GPa)
#
#
# Indices 1 2 3 4 5 6 
#
# 1 0.039578 -0.011144 0.004628 0.000000 -0.011273 0.000000
# 2 -0.011144 0.014907 -0.010193 0.000000 0.005811 0.000000
# 3 0.004628 -0.010193 0.015609 0.000000 -0.001079 0.000000
# 4 0.000000 0.000000 0.000000 0.086166 0.000000 0.045911
# 5 -0.011273 0.005811 -0.001079 0.000000 0.039138 0.000000
# 6 0.000000 0.000000 0.000000 0.045911 0.000000 0.052512
#
#
# Mechanical properties :
#
#
# Convention : Reuss Voigt Hill
#
# Bulk Modulus (GPa) = 27.26457 64.67629 45.97043
# Shear Modulus (GPa) = 17.03262 29.27436 23.15349
#
# Velocity S-wave (km/s) = 2.71972 3.56555 3.17096
# Velocity P-wave (km/s) = 4.65863 6.71105 5.77672
#
# Compressibility (1/GPa) = 0.03667763
#
# Stress axis : x y z
#
# Youngs Moduli (GPa) = 25.26652 67.08110 64.06439
#
# Poissons Ratio (x) = 0.74754 -0.29650
# Poissons Ratio (y) = 0.28157 0.65300
# Poissons Ratio (z) = -0.11694 0.68375
#
# Static dielectric constant tensor:
#      x y z
#    x 1.970290 0.000000 0.069760 
#    y 0.000000 1.933000 0.000000 
#    z 0.069760 0.000000 1.943830 
# 
# From -- ./inp_files/2100.got.cif
#   From: 2010.05.17/outbox.cif.g08.bks.cpg/sg4_2_cif.got.tgz:2100.got - 2010.06.03 18:43:04.
