data_PCOD9116890
_publ_section_title
;
Structure prediction by ZEFSAII (Michael W. Deem and Ramdas Pophale) SiO2 
 PCOD9116890
Probable space group: P 21
;
_chemical_formula_sum "Si O2"
_cell_formula_units_Z 16
_cell_length_a 11.307533
_cell_length_b 5.060865
_cell_length_c 12.060861
_cell_angle_alpha 90.000000
_cell_angle_beta 67.825021
_cell_angle_gamma 90.000000
_cell_volume 639.143776
_symmetry_space_group_name_H-M "P 21"
_symmetry_group_IT_number 4
_symmetry_cell_setting 'monoclinic'
loop_
_space_group_symop_operation_xyz
x,y,z
-x,1/2+y,-z
loop_
_atom_site_type_symbol
_atom_site_label
_atom_site_fract_x
_atom_site_fract_y
_atom_site_fract_z
Si Si1 0.241164 0.707480 0.197546
Si Si2 0.125006 0.892588 0.883647
Si Si3 0.002631 0.504847 0.424662
Si Si4 0.926540 0.595918 0.850429
Si Si5 0.552769 0.834198 0.433272
Si Si6 0.513662 0.595039 0.206008
Si Si7 0.169597 0.269061 0.683641
Si Si8 0.670650 0.082637 0.080873
O O1 0.126940 0.562726 0.304572
O O2 0.189108 0.005479 0.187322
O O3 0.370581 0.663252 0.218435
O O4 0.275041 0.606243 0.062256
O O5 0.212667 0.637312 0.875345
O O6 0.991828 0.870548 0.863483
O O7 0.200885 0.090001 0.779154
O O8 0.100253 0.991309 0.015984
O O9 0.995313 0.210581 0.474044
O O10 0.878437 0.579247 0.397412
O O11 0.049764 0.453089 0.753795
O O12 0.523661 0.607124 0.533635
O O13 0.522731 0.676390 0.331076
O O14 0.700710 0.913565 0.392388
O O15 0.565546 0.306390 0.151159
O O16 0.607627 0.799611 0.111861
#
# Coordination Sequence:
#
# PCOD9116890 Si02
#       8
#     2   2   2   2   2   2   2   2
#     4  10  26  46  73 108 144 190 233 294 355 437
#     4  11  21  40  71 107 144 179 227 291 356 434
#     4  11  29  49  70 101 139 193 237 289 347 413
#     4  10  22  41  68 109 142 182 223 289 365 426
#     4  12  29  47  72 104 136 193 244 292 346 412
#     4  12  25  49  73 106 145 188 235 294 359 426
#     4  11  25  45  70 100 138 182 232 292 350 414
#     4  11  25  45  75 111 144 183 233 291 368 424
#
# _framework density 25.03349
#
# number of rings (size 3 to 8) (size 9 to 14) (size 15 to 20)
#    0.000    1.000    2.500    2.250    8.750    2.000 
#    2.250    0.000    0.000    0.000    0.000    0.000 
#    0.000    0.000    0.000    0.000    0.000    0.000 
#
# Total GULP energy -89545.082993 kJ/mol
# GULP energy per Si atom -5596.567687 kJ/mol
# Density = 2.497651 g / cm^3
# Si number density = 25.033490 Si / 1000 Ang^3
#
#
#
# Elastic Constant Matrix: (Units=GPa)
#
#
# Indices 1 2 3 4 5 6 
#
# 1 149.4347 0.5972 26.5576 0.0000 -1.3075 0.0000
# 2 0.5972 50.9306 9.1534 0.0000 5.8535 0.0000
# 3 26.5576 9.1534 86.9406 0.0000 -0.8631 0.0000
# 4 0.0000 0.0000 0.0000 46.4995 0.0000 -0.6259
# 5 -1.3075 5.8535 -0.8631 0.0000 28.9201 0.0000
# 6 0.0000 0.0000 0.0000 -0.6259 0.0000 29.1533
#
#
#
# Elastic Compliance Matrix: (Units=1/GPa)
#
#
# Indices 1 2 3 4 5 6 
#
# 1 0.007082 0.000288 -0.002192 0.000000 0.000196 0.000000
# 2 0.000288 0.020527 -0.002291 0.000000 -0.004210 0.000000
# 3 -0.002192 -0.002291 0.012420 0.000000 0.000735 0.000000
# 4 0.000000 0.000000 0.000000 0.021512 0.000000 0.000462
# 5 0.000196 -0.004210 0.000735 0.000000 0.035461 0.000000
# 6 0.000000 0.000000 0.000000 0.000462 0.000000 0.034311
#
#
# Mechanical properties :
#
#
# Convention : Reuss Voigt Hill
#
# Bulk Modulus (GPa) = 31.60554 39.99137 35.79846
# Shear Modulus (GPa) = 33.27817 37.64774 35.46295
#
# Velocity S-wave (km/s) = 3.64998 3.88222 3.76789
# Velocity P-wave (km/s) = 5.51505 6.00877 5.76720
#
# Compressibility (1/GPa) = 0.03164002
#
# Stress axis : x y z
#
# Youngs Moduli (GPa) = 141.20371 48.71684 80.51451
#
# Poissons Ratio (x) = -0.01404 0.17647
# Poissons Ratio (y) = -0.04071 0.18446
# Poissons Ratio (z) = 0.30948 0.11161
#
# Static dielectric constant tensor:
#      x y z
#    x 1.974920 0.000000 -0.012950 
#    y 0.000000 2.080600 0.000000 
#    z -0.012950 0.000000 2.002270 
# 
# From -- ./inp_files/11739.got.cif
#   From: 2010.05.17/outbox.cif.g08.bks.cpg/sg4_6_cif.got.tgz:11739.got - 2010.06.03 18:43:04.
