data_PCOD9116112
_publ_section_title
;
Structure prediction by ZEFSAII (Michael W. Deem and Ramdas Pophale) SiO2 
 PCOD9116112
Probable space group: P 21
;
_chemical_formula_sum "Si O2"
_cell_formula_units_Z 16
_cell_length_a 15.819384
_cell_length_b 8.769666
_cell_length_c 5.285285
_cell_angle_alpha 90.000000
_cell_angle_beta 111.308496
_cell_angle_gamma 90.000000
_cell_volume 683.105725
_symmetry_space_group_name_H-M "P 21"
_symmetry_group_IT_number 4
_symmetry_cell_setting 'monoclinic'
loop_
_space_group_symop_operation_xyz
x,y,z
-x,1/2+y,-z
loop_
_atom_site_type_symbol
_atom_site_label
_atom_site_fract_x
_atom_site_fract_y
_atom_site_fract_z
Si Si1 0.763991 0.378440 0.454299
Si Si2 0.567287 0.452627 0.331678
Si Si3 0.826185 0.098627 0.215125
Si Si4 0.114468 0.363438 0.355512
Si Si5 0.137893 0.100763 0.748375
Si Si6 0.443895 0.156030 0.197069
Si Si7 0.741425 0.817308 0.834591
Si Si8 0.070278 0.832541 0.993435
O O1 0.671308 0.401603 0.502122
O O2 0.765646 0.230364 0.276974
O O3 0.776722 0.527842 0.301686
O O4 0.856489 0.371253 0.714808
O O5 0.513474 0.295272 0.230860
O O6 0.531644 0.545118 0.538971
O O7 0.564493 0.557262 0.072518
O O8 0.892060 0.175705 0.081033
O O9 0.888089 0.020803 0.495065
O O10 0.765200 0.968202 0.020405
O O11 0.092589 0.223198 0.517423
O O12 0.222235 0.358000 0.404020
O O13 0.035621 0.347727 0.059200
O O14 0.081807 0.959184 0.786987
O O15 0.183016 0.190169 0.025110
O O16 0.353202 0.243585 0.197918
#
# Coordination Sequence:
#
# PCOD9116112 Si02
#       8
#     2   2   2   2   2   2   2   2
#     4  11  24  43  69  97 142 183 242 294 376 433
#     4  12  28  51  82 118 154 197 253 313 388 464
#     4  10  25  40  63 100 136 192 243 306 367 436
#     4  11  23  40  63  97 139 189 246 303 360 435
#     4  10  21  40  63  90 130 188 231 296 353 434
#     4  12  28  51  82 118 154 197 253 313 388 464
#     4  11  24  43  69  97 142 183 242 294 376 433
#     4  11  23  40  63  97 139 189 246 303 360 435
#
# _framework density 23.422435
#
# number of rings (size 3 to 8) (size 9 to 14) (size 15 to 20)
#    0.000    1.000    1.250    4.500    5.250   10.000 
#    0.000    0.000    0.000    0.000    0.000    0.000 
#    0.000    0.000    0.000    0.000    0.000    0.000 
#
# Total GULP energy -89363.331983 kJ/mol
# GULP energy per Si atom -5585.208249 kJ/mol
# Density = 2.336912 g / cm^3
# Si number density = 23.422435 Si / 1000 Ang^3
#
#
#
# Elastic Constant Matrix: (Units=GPa)
#
#
# Indices 1 2 3 4 5 6 
#
# 1 69.9269 22.7771 -2.2565 0.0000 -2.6391 0.0000
# 2 22.7771 117.3976 34.5484 0.0000 -1.7253 0.0000
# 3 -2.2565 34.5484 59.0487 0.0000 -17.3204 0.0000
# 4 0.0000 0.0000 0.0000 25.0434 0.0000 -9.0483
# 5 -2.6391 -1.7253 -17.3204 0.0000 26.9632 0.0000
# 6 0.0000 0.0000 0.0000 -9.0483 0.0000 26.2512
#
#
#
# Elastic Compliance Matrix: (Units=1/GPa)
#
#
# Indices 1 2 3 4 5 6 
#
# 1 0.016001 -0.004320 0.004334 0.000000 0.004074 0.000000
# 2 -0.004320 0.011810 -0.008597 0.000000 -0.005190 0.000000
# 3 0.004334 -0.008597 0.027223 0.000000 0.017362 0.000000
# 4 0.000000 0.000000 0.000000 0.045611 0.000000 0.015721
# 5 0.004074 -0.005190 0.017362 0.000000 0.048307 0.000000
# 6 0.000000 0.000000 0.000000 0.015721 0.000000 0.043512
#
#
# Mechanical properties :
#
#
# Convention : Reuss Voigt Hill
#
# Bulk Modulus (GPa) = 26.40724 39.61235 33.00979
# Shear Modulus (GPa) = 22.49675 28.40517 25.45096
#
# Velocity S-wave (km/s) = 3.10252 3.48621 3.29995
# Velocity P-wave (km/s) = 4.91253 5.75793 5.35195
#
# Compressibility (1/GPa) = 0.03786840
#
# Stress axis : x y z
#
# Youngs Moduli (GPa) = 62.49436 84.67389 36.73298
#
# Poissons Ratio (x) = 0.36580 -0.15920
# Poissons Ratio (y) = 0.26998 0.31580
# Poissons Ratio (z) = -0.27086 0.72796
#
# Static dielectric constant tensor:
#      x y z
#    x 1.944070 0.000000 -0.035010 
#    y 0.000000 1.869860 0.000000 
#    z -0.035010 0.000000 1.933840 
# 
# From -- ./inp_files/3550.got.cif
#   From: 2010.05.17/outbox.cif.g08.bks.cpg/sg4_2_cif.got.tgz:3550.got - 2010.06.03 18:43:04.
