data_PCOD9116902
_publ_section_title
;
Structure prediction by ZEFSAII (Michael W. Deem and Ramdas Pophale) SiO2 
 PCOD9116902
Probable space group: P 21
;
_chemical_formula_sum "Si O2"
_cell_formula_units_Z 12
_cell_length_a 12.369947
_cell_length_b 8.924302
_cell_length_c 4.852005
_cell_angle_alpha 90.000000
_cell_angle_beta 65.136192
_cell_angle_gamma 90.000000
_cell_volume 485.980601
_symmetry_space_group_name_H-M "P 21"
_symmetry_group_IT_number 4
_symmetry_cell_setting 'monoclinic'
loop_
_space_group_symop_operation_xyz
x,y,z
-x,1/2+y,-z
loop_
_atom_site_type_symbol
_atom_site_label
_atom_site_fract_x
_atom_site_fract_y
_atom_site_fract_z
Si Si1 0.967540 0.968030 0.175870
Si Si2 0.521972 0.290328 0.456485
Si Si3 0.319977 0.838699 0.202939
Si Si4 0.945516 0.286907 0.414088
Si Si5 0.724327 0.835049 0.521023
Si Si6 0.691263 0.648306 0.083360
O O1 0.824618 0.953035 0.342668
O O2 0.013849 0.837607 0.328839
O O3 0.001382 0.131345 0.250508
O O4 0.015580 0.921870 0.827721
O O5 0.598396 0.365801 0.616449
O O6 0.408239 0.375130 0.441577
O O7 0.448921 0.159582 0.690052
O O8 0.606678 0.248942 0.110134
O O9 0.196513 0.768643 0.428874
O O10 0.286341 0.992588 0.084411
O O11 0.753408 0.687570 0.303928
O O12 0.719895 0.782285 0.839923
#
# Coordination Sequence:
#
# PCOD9116902 Si02
#       6
#     2   2   2   2   2   2
#     4  12  28  52  76 113 148 202 261 311 384 445
#     4  10  22  43  66 109 143 189 234 305 369 450
#     4  12  24  44  71 110 146 188 249 306 373 443
#     4  12  30  49  81 109 153 201 252 329 367 458
#     4  10  22  45  71 103 139 197 239 299 375 440
#     4  10  22  41  69 106 135 201 231 306 366 436
#
# _framework density 24.692347000000002
#
# number of rings (size 3 to 8) (size 9 to 14) (size 15 to 20)
#    1.000    0.000    1.667    4.000    7.000    1.333 
#    3.000    0.000    0.000    0.000    0.000    0.000 
#    0.000    0.000    0.000    0.000    0.000    0.000 
#
# Total GULP energy -67115.238912 kJ/mol
# GULP energy per Si atom -5592.936576 kJ/mol
# Density = 2.463615 g / cm^3
# Si number density = 24.692347 Si / 1000 Ang^3
#
#
#
# Elastic Constant Matrix: (Units=GPa)
#
#
# Indices 1 2 3 4 5 6 
#
# 1 59.1406 4.8895 13.6348 0.0000 -14.3453 0.0000
# 2 4.8895 58.5945 2.6094 0.0000 -8.6408 0.0000
# 3 13.6348 2.6094 134.9849 0.0000 -16.7020 0.0000
# 4 0.0000 0.0000 0.0000 -23.7939 0.0000 110.0356
# 5 -14.3453 -8.6408 -16.7020 0.0000 47.7738 0.0000
# 6 0.0000 0.0000 0.0000 110.0356 0.0000 -166.1527
#
#
#
# Elastic Compliance Matrix: (Units=1/GPa)
#
#
# Indices 1 2 3 4 5 6 
#
# 1 0.018463 -0.000752 -0.001235 0.000000 0.004976 0.000000
# 2 -0.000752 0.017565 0.000106 0.000000 0.002988 0.000000
# 3 -0.001235 0.000106 0.007826 0.000000 0.002384 0.000000
# 4 0.000000 0.000000 0.000000 0.020376 0.000000 0.013494
# 5 0.004976 0.002988 0.002384 0.000000 0.023800 0.000000
# 6 0.000000 0.000000 0.000000 0.013494 0.000000 0.002918
#
#
# Mechanical properties :
#
#
# Convention : Reuss Voigt Hill
#
# Bulk Modulus (GPa) = 24.94193 32.77639 28.85916
# Shear Modulus (GPa) = 46.26505 -12.99547 16.63479
#
# Velocity S-wave (km/s) = 4.33327 -2.29660 2.59835
# Velocity P-wave (km/s) = 5.92953 2.50404 4.55135
#
# Compressibility (1/GPa) = 0.04009314
#
# Stress axis : x y z
#
# Youngs Moduli (GPa) = 54.16315 56.93089 127.78034
#
# Poissons Ratio (x) = 0.04280 0.15777
# Poissons Ratio (y) = 0.04072 -0.01356
# Poissons Ratio (z) = 0.06687 -0.00604
#
# Static dielectric constant tensor:
#      x y z
#    x 2.089720 0.000000 -0.099220 
#    y 0.000000 1.998480 0.000000 
#    z -0.099220 0.000000 1.920270 
# 
# From -- ./inp_files/3668.got.cif
#   From: 2010.05.17/outbox.cif.g08.bks.cpg/sg4_2_cif.got.tgz:3668.got - 2010.06.03 18:43:04.
