data_PCOD9116293
_publ_section_title
;
Structure prediction by ZEFSAII (Michael W. Deem and Ramdas Pophale) SiO2 
 PCOD9116293
Probable space group: P 21
;
_chemical_formula_sum "Si O2"
_cell_formula_units_Z 14
_cell_length_a 11.934423
_cell_length_b 5.663530
_cell_length_c 9.212817
_cell_angle_alpha 90.000000
_cell_angle_beta 71.967594
_cell_angle_gamma 90.000000
_cell_volume 592.116979
_symmetry_space_group_name_H-M "P 21"
_symmetry_group_IT_number 4
_symmetry_cell_setting 'monoclinic'
loop_
_space_group_symop_operation_xyz
x,y,z
-x,1/2+y,-z
loop_
_atom_site_type_symbol
_atom_site_label
_atom_site_fract_x
_atom_site_fract_y
_atom_site_fract_z
Si Si1 0.307652 0.235550 0.400800
Si Si2 0.272991 0.730194 0.482785
Si Si3 0.556285 0.735816 0.350375
Si Si4 0.358142 0.018502 0.979450
Si Si5 0.536282 0.137488 0.141982
Si Si6 0.137815 0.238504 0.008087
Si Si7 0.873580 0.235805 0.163247
O O1 0.236629 0.479667 0.426309
O O2 0.363498 0.214556 0.541445
O O3 0.418628 0.263583 0.251079
O O4 0.252022 0.974668 0.403095
O O5 0.416875 0.712822 0.437933
O O6 0.207448 0.744121 0.662363
O O7 0.599225 0.570702 0.202122
O O8 0.571194 0.984268 0.265542
O O9 0.341792 0.740163 0.970000
O O10 0.254181 0.192330 0.058001
O O11 0.472335 0.002585 0.036492
O O12 0.143265 0.480945 0.912441
O O13 0.141731 0.989748 0.914005
O O14 0.014121 0.237597 0.140509
#
# Coordination Sequence:
#
# PCOD9116293 Si02
#       7
#     2   2   2   2   2   2   2
#     4  11  24  36  59  91 122 164 208 260 312 377
#     4  11  20  35  58  84 121 151 200 264 317 356
#     4  11  23  36  57  90 121 165 209 258 311 380
#     4  12  23  41  59  91 130 177 201 262 320 399
#     4  11  25  39  58  91 136 167 215 248 327 391
#     4  10  24  37  65  86 129 166 218 259 326 369
#     4  10  21  42  58  97 119 164 217 279 307 374
#
# _framework density 23.643975999999999
#
# number of rings (size 3 to 8) (size 9 to 14) (size 15 to 20)
#    0.000    1.143    2.857    4.286    8.000    0.000 
#    0.000    0.000    0.000    3.429    0.000    0.000 
#    0.000    0.000    0.000    0.000    0.000    0.000 
#
# Total GULP energy -77972.682402 kJ/mol
# GULP energy per Si atom -5569.477314 kJ/mol
# Density = 2.359016 g / cm^3
# Si number density = 23.643976 Si / 1000 Ang^3
#
#
#
# Elastic Constant Matrix: (Units=GPa)
#
#
# Indices 1 2 3 4 5 6 
#
# 1 62.0728 17.9473 24.6512 0.0000 -25.3889 0.0000
# 2 17.9473 150.1556 1.9898 0.0000 -9.0385 0.0000
# 3 24.6512 1.9898 63.3020 0.0000 -14.5362 0.0000
# 4 0.0000 0.0000 0.0000 32.2178 0.0000 -11.2112
# 5 -25.3889 -9.0385 -14.5362 0.0000 34.2334 0.0000
# 6 0.0000 0.0000 0.0000 -11.2112 0.0000 27.6926
#
#
#
# Elastic Compliance Matrix: (Units=1/GPa)
#
#
# Indices 1 2 3 4 5 6 
#
# 1 0.025674 -0.002032 -0.006299 0.000000 0.015830 0.000000
# 2 -0.002032 0.006931 0.000718 0.000000 0.000627 0.000000
# 3 -0.006299 0.000718 0.019057 0.000000 0.003610 0.000000
# 4 0.000000 0.000000 0.000000 0.036129 0.000000 0.014626
# 5 0.015830 0.000627 0.003610 0.000000 0.042649 0.000000
# 6 0.000000 0.000000 0.000000 0.014626 0.000000 0.042032
#
#
# Mechanical properties :
#
#
# Convention : Reuss Voigt Hill
#
# Bulk Modulus (GPa) = 27.44704 40.52302 33.98503
# Shear Modulus (GPa) = 25.01952 34.22489 29.62221
#
# Velocity S-wave (km/s) = 3.25649 3.80874 3.54339
# Velocity P-wave (km/s) = 5.07674 6.04302 5.58083
#
# Compressibility (1/GPa) = 0.03643380
#
# Stress axis : x y z
#
# Youngs Moduli (GPa) = 38.95005 144.28076 52.47516
#
# Poissons Ratio (x) = 0.29323 0.33055
# Poissons Ratio (y) = 0.07916 -0.03766
# Poissons Ratio (z) = 0.24535 -0.10354
#
# Static dielectric constant tensor:
#      x y z
#    x 1.922620 0.000000 0.069310 
#    y 0.000000 2.358920 0.000000 
#    z 0.069310 0.000000 1.954310 
# 
# From -- ./inp_files/7337.got.cif
#   From: 2010.05.17/outbox.cif.g08.bks.cpg/sg4_4_cif.got.tgz:7337.got - 2010.06.03 18:43:04.
