data_PCOD9116697
_publ_section_title
;
Structure prediction by ZEFSAII (Michael W. Deem and Ramdas Pophale) SiO2 
 PCOD9116697
Probable space group: P 21
;
_chemical_formula_sum "Si O2"
_cell_formula_units_Z 16
_cell_length_a 9.459970
_cell_length_b 7.985806
_cell_length_c 8.169120
_cell_angle_alpha 90.000000
_cell_angle_beta 87.523541
_cell_angle_gamma 90.000000
_cell_volume 616.563762
_symmetry_space_group_name_H-M "P 21"
_symmetry_group_IT_number 4
_symmetry_cell_setting 'monoclinic'
loop_
_space_group_symop_operation_xyz
x,y,z
-x,1/2+y,-z
loop_
_atom_site_type_symbol
_atom_site_label
_atom_site_fract_x
_atom_site_fract_y
_atom_site_fract_z
Si Si1 0.131144 0.212200 0.926079
Si Si2 0.282377 0.109337 0.239638
Si Si3 0.609689 0.759813 0.268283
Si Si4 0.346584 0.743261 0.086846
Si Si5 0.476479 0.598381 0.553361
Si Si6 0.049310 0.250794 0.440252
Si Si7 0.129553 0.821810 0.866731
Si Si8 0.805186 0.104005 0.614116
O O1 0.232313 0.302254 0.792411
O O2 0.131939 0.021611 0.863853
O O3 0.213355 0.212731 0.096096
O O4 0.977590 0.277466 0.978948
O O5 0.427165 0.179497 0.309418
O O6 0.164966 0.110402 0.389661
O O7 0.307374 0.924489 0.166786
O O8 0.512794 0.727942 0.112695
O O9 0.578069 0.603935 0.388446
O O10 0.550608 0.912946 0.377462
O O11 0.265356 0.609466 0.203797
O O12 0.280439 0.745466 0.910528
O O13 0.324224 0.660307 0.497135
O O14 0.137917 0.421416 0.437030
O O15 0.939700 0.254877 0.293960
O O16 0.946786 0.215046 0.596111
#
# Coordination Sequence:
#
# PCOD9116697 Si02
#       8
#     2   2   2   2   2   2   2   2
#     4  10  22  40  63  90 123 161 201 251 304 357
#     4   9  20  40  60  85 118 152 200 254 300 357
#     4  10  22  40  63  90 123 161 201 251 304 357
#     4   9  20  40  60  85 118 152 200 254 300 357
#     4  10  22  40  62  89 120 158 203 252 302 360
#     4  11  23  38  59  88 121 159 201 249 303 360
#     4  10  22  40  62  89 120 158 203 252 302 360
#     4  11  23  38  59  88 121 159 201 249 303 360
#
# _framework density 25.950277
#
# number of rings (size 3 to 8) (size 9 to 14) (size 15 to 20)
#    0.000    2.000    0.000    2.250    0.000   11.000 
#    0.000   20.000    0.000    0.000    0.000    0.000 
#    0.000    0.000    0.000    0.000    0.000    0.000 
#
# Total GULP energy -89523.440043 kJ/mol
# GULP energy per Si atom -5595.215003 kJ/mol
# Density = 2.589121 g / cm^3
# Si number density = 25.950277 Si / 1000 Ang^3
#
#
#
# Elastic Constant Matrix: (Units=GPa)
#
#
# Indices 1 2 3 4 5 6 
#
# 1 115.3032 -7.6579 34.3635 0.0000 25.9573 0.0000
# 2 -7.6579 29.8275 -7.0733 0.0000 3.8315 0.0000
# 3 34.3635 -7.0733 53.5160 0.0000 19.7060 0.0000
# 4 0.0000 0.0000 0.0000 12.9990 0.0000 8.7327
# 5 25.9573 3.8315 19.7060 0.0000 53.4107 0.0000
# 6 0.0000 0.0000 0.0000 8.7327 0.0000 26.0857
#
#
#
# Elastic Compliance Matrix: (Units=1/GPa)
#
#
# Indices 1 2 3 4 5 6 
#
# 1 0.011297 0.002006 -0.005687 0.000000 -0.003536 0.000000
# 2 0.002006 0.036077 0.005546 0.000000 -0.005609 0.000000
# 3 -0.005687 0.005546 0.025689 0.000000 -0.007112 0.000000
# 4 0.000000 0.000000 0.000000 0.099250 0.000000 -0.033226
# 5 -0.003536 -0.005609 -0.007112 0.000000 0.023468 0.000000
# 6 0.000000 0.000000 0.000000 -0.033226 0.000000 0.049458
#
#
# Mechanical properties :
#
#
# Convention : Reuss Voigt Hill
#
# Bulk Modulus (GPa) = 13.02203 26.43459 19.72831
# Shear Modulus (GPa) = 18.71909 30.43337 24.57623
#
# Velocity S-wave (km/s) = 2.68870 3.42827 3.08076
# Velocity P-wave (km/s) = 3.82985 5.08718 4.50262
#
# Compressibility (1/GPa) = 0.07679293
#
# Stress axis : x y z
#
# Youngs Moduli (GPa) = 88.52032 27.71868 38.92650
#
# Poissons Ratio (x) = -0.05560 0.22136
# Poissons Ratio (y) = -0.17757 -0.21587
# Poissons Ratio (z) = 0.50339 -0.15372
#
# Static dielectric constant tensor:
#      x y z
#    x 2.014710 0.000000 0.007110 
#    y 0.000000 2.016530 0.000000 
#    z 0.007110 0.000000 2.084950 
# 
# From -- ./inp_files/5662.got.cif
#   From: 2010.05.17/outbox.cif.g08.bks.cpg/sg4_3_cif.got.tgz:5662.got - 2010.06.03 18:43:04.
