data_PCOD9116139
_publ_section_title
;
Structure prediction by ZEFSAII (Michael W. Deem and Ramdas Pophale) SiO2 
 PCOD9116139
Probable space group: P 21
;
_chemical_formula_sum "Si O2"
_cell_formula_units_Z 16
_cell_length_a 14.899639
_cell_length_b 7.998144
_cell_length_c 11.244200
_cell_angle_alpha 90.000000
_cell_angle_beta 29.041173
_cell_angle_gamma 90.000000
_cell_volume 650.470039
_symmetry_space_group_name_H-M "P 21"
_symmetry_group_IT_number 4
_symmetry_cell_setting 'monoclinic'
loop_
_space_group_symop_operation_xyz
x,y,z
-x,1/2+y,-z
loop_
_atom_site_type_symbol
_atom_site_label
_atom_site_fract_x
_atom_site_fract_y
_atom_site_fract_z
Si Si1 0.364522 0.438300 0.402357
Si Si2 0.415125 0.206490 0.118701
Si Si3 0.542187 0.937012 0.316159
Si Si4 0.708876 0.999639 0.885453
Si Si5 0.833045 0.270365 0.332411
Si Si6 0.008107 0.809904 0.106127
Si Si7 0.337146 0.070512 0.773982
Si Si8 0.055389 0.036364 0.616922
O O1 0.397519 0.336853 0.246214
O O2 0.249248 0.606145 0.514089
O O3 0.557381 0.482900 0.238815
O O4 0.211144 0.342284 0.659025
O O5 0.614149 0.124045 0.902753
O O6 0.359340 0.312706 0.068288
O O7 0.260717 0.068999 0.329447
O O8 0.635015 0.039236 0.103286
O O9 0.344863 0.881004 0.493814
O O10 0.487513 0.041938 0.494415
O O11 0.659335 0.769525 0.208602
O O12 0.925622 0.014384 0.652824
O O13 0.948532 0.376415 0.292456
O O14 0.922023 0.234766 0.099877
O O15 0.006009 0.688900 0.224041
O O16 0.146283 0.968844 0.971001
#
# Coordination Sequence:
#
# PCOD9116139 Si02
#       8
#     2   2   2   2   2   2   2   2
#     4  10  23  40  67  96 139 184 220 282 342 403
#     4  11  28  49  69  99 134 179 239 294 340 408
#     4  10  24  41  68 102 137 181 219 285 342 423
#     4  12  28  48  75  95 135 186 230 292 353 398
#     4  10  21  40  66 103 147 173 227 274 343 412
#     4  10  22  39  64 104 143 185 215 277 342 411
#     4  10  23  39  64 104 140 173 231 271 345 422
#     4  11  25  46  69 103 139 179 239 279 341 419
#
# _framework density 24.597598999999999
#
# number of rings (size 3 to 8) (size 9 to 14) (size 15 to 20)
#    0.000    1.500    1.250    1.500   14.000    3.000 
#    2.250    0.000    0.000    0.000    0.000    0.000 
#    0.000    0.000    0.000    0.000    0.000    0.000 
#
# Total GULP energy -89508.712613 kJ/mol
# GULP energy per Si atom -5594.294538 kJ/mol
# Density = 2.454161 g / cm^3
# Si number density = 24.597599 Si / 1000 Ang^3
#
#
#
# Elastic Constant Matrix: (Units=GPa)
#
#
# Indices 1 2 3 4 5 6 
#
# 1 100.3076 38.1071 38.0610 0.0000 -27.0789 0.0000
# 2 38.1071 55.6858 -5.4619 0.0000 -18.2415 0.0000
# 3 38.0610 -5.4619 39.8822 0.0000 -5.8572 0.0000
# 4 0.0000 0.0000 0.0000 29.1045 0.0000 -3.3294
# 5 -27.0789 -18.2415 -5.8572 0.0000 35.0795 0.0000
# 6 0.0000 0.0000 0.0000 -3.3294 0.0000 39.9838
#
#
#
# Elastic Compliance Matrix: (Units=1/GPa)
#
#
# Indices 1 2 3 4 5 6 
#
# 1 0.035324 -0.024984 -0.035917 0.000000 0.008279 0.000000
# 2 -0.024984 0.040224 0.030335 0.000000 0.006696 0.000000
# 3 -0.035917 0.030335 0.063302 0.000000 -0.001381 0.000000
# 4 0.000000 0.000000 0.000000 0.034689 0.000000 0.002889
# 5 0.008279 0.006696 -0.001381 0.000000 0.038149 0.000000
# 6 0.000000 0.000000 0.000000 0.002889 0.000000 0.025251
#
#
# Mechanical properties :
#
#
# Convention : Reuss Voigt Hill
#
# Bulk Modulus (GPa) = 12.86692 37.47643 25.17168
# Shear Modulus (GPa) = 15.43322 29.17819 22.30570
#
# Velocity S-wave (km/s) = 2.50757 3.44789 3.01462
# Velocity P-wave (km/s) = 3.69137 5.57849 4.72999
#
# Compressibility (1/GPa) = 0.07771867
#
# Stress axis : x y z
#
# Youngs Moduli (GPa) = 28.30920 24.86093 15.79725
#
# Poissons Ratio (x) = 0.62113 0.56739
# Poissons Ratio (y) = 0.70728 -0.47921
# Poissons Ratio (z) = 1.01678 -0.75416
#
# Static dielectric constant tensor:
#      x y z
#    x 1.924180 0.000000 -0.018550 
#    y 0.000000 2.023400 0.000000 
#    z -0.018550 0.000000 1.969540 
# 
# From -- ./inp_files/12650.got.cif
#   From: 2010.05.17/outbox.cif.g08.bks.cpg/sg4_7_cif.got.tgz:12650.got - 2010.06.03 18:43:04.
