data_PCOD9116023
_publ_section_title
;
Structure prediction by ZEFSAII (Michael W. Deem and Ramdas Pophale) SiO2 
 PCOD9116023
Probable space group: P 21
;
_chemical_formula_sum "Si O2"
_cell_formula_units_Z 16
_cell_length_a 11.981605
_cell_length_b 13.059593
_cell_length_c 9.181118
_cell_angle_alpha 90.000000
_cell_angle_beta 26.442305
_cell_angle_gamma 90.000000
_cell_volume 639.719237
_symmetry_space_group_name_H-M "P 21"
_symmetry_group_IT_number 4
_symmetry_cell_setting 'monoclinic'
loop_
_space_group_symop_operation_xyz
x,y,z
-x,1/2+y,-z
loop_
_atom_site_type_symbol
_atom_site_label
_atom_site_fract_x
_atom_site_fract_y
_atom_site_fract_z
Si Si1 0.817977 0.831990 0.120132
Si Si2 0.956476 0.474569 0.915959
Si Si3 0.458445 0.112460 0.879566
Si Si4 0.812627 0.913715 0.812257
Si Si5 0.150617 0.661738 0.815594
Si Si6 0.387632 0.876838 0.072669
Si Si7 0.642858 0.282897 0.194329
Si Si8 0.092546 0.602456 0.472608
O O1 0.751718 0.887889 0.049443
O O2 0.848162 0.908513 0.219998
O O3 0.066306 0.763126 0.825226
O O4 0.599328 0.759173 0.428574
O O5 0.739133 0.394294 0.137522
O O6 0.044545 0.518102 0.658129
O O7 0.941241 0.575100 0.033065
O O8 0.598054 0.121937 0.560800
O O9 0.660715 0.158182 0.756384
O O10 0.421422 0.993787 0.970286
O O11 0.177118 0.157351 0.216329
O O12 0.597247 0.872314 0.954507
O O13 0.839048 0.035276 0.747233
O O14 0.095198 0.872546 0.458145
O O15 0.167783 0.698423 0.962440
O O16 0.412240 0.797920 0.909714
#
# Coordination Sequence:
#
# PCOD9116023 Si02
#       8
#     2   2   2   2   2   2   2   2
#     4  11  25  38  66 103 135 168 224 285 347 378
#     4  10  21  41  64  92 129 173 225 272 327 401
#     4   9  17  33  59  90 114 159 216 261 301 380
#     4  10  21  39  63  96 128 169 214 278 326 397
#     4  10  24  37  64  99 134 169 227 283 330 396
#     4  10  21  40  72  88 125 181 223 253 333 410
#     4  11  22  38  68  98 122 181 228 275 332 405
#     4   9  17  34  64  86 111 174 213 251 314 399
#
# _framework density 25.010973
#
# number of rings (size 3 to 8) (size 9 to 14) (size 15 to 20)
#    0.000    2.000    2.500    2.250    8.750    0.000 
#    0.000    0.000    8.250    1.500    0.000    0.000 
#    0.000    0.000    0.000    0.000    0.000    0.000 
#
# Total GULP energy -89327.798096 kJ/mol
# GULP energy per Si atom -5582.987381 kJ/mol
# Density = 2.495405 g / cm^3
# Si number density = 25.010973 Si / 1000 Ang^3
#
#
#
# Elastic Constant Matrix: (Units=GPa)
#
#
# Indices 1 2 3 4 5 6 
#
# 1 165.4631 30.3430 50.3345 0.0000 -26.9653 0.0000
# 2 30.3430 72.9742 8.7785 0.0000 -6.6590 0.0000
# 3 50.3345 8.7785 79.0486 0.0000 -26.7292 0.0000
# 4 0.0000 0.0000 0.0000 26.6674 0.0000 -1.7522
# 5 -26.9653 -6.6590 -26.7292 0.0000 41.6319 0.0000
# 6 0.0000 0.0000 0.0000 -1.7522 0.0000 46.4296
#
#
#
# Elastic Compliance Matrix: (Units=1/GPa)
#
#
# Indices 1 2 3 4 5 6 
#
# 1 0.008158 -0.002693 -0.004157 0.000000 0.002184 0.000000
# 2 -0.002693 0.014859 0.000356 0.000000 0.000861 0.000000
# 3 -0.004157 0.000356 0.018351 0.000000 0.009146 0.000000
# 4 0.000000 0.000000 0.000000 0.037592 0.000000 0.001419
# 5 0.002184 0.000861 0.009146 0.000000 0.031445 0.000000
# 6 0.000000 0.000000 0.000000 0.001419 0.000000 0.021592
#
#
# Mechanical properties :
#
#
# Convention : Reuss Voigt Hill
#
# Bulk Modulus (GPa) = 35.23709 55.15533 45.19621
# Shear Modulus (GPa) = 32.37421 38.14777 35.26099
#
# Velocity S-wave (km/s) = 3.60168 3.90967 3.75883
# Velocity P-wave (km/s) = 5.60494 6.51775 6.07850
#
# Compressibility (1/GPa) = 0.02837919
#
# Stress axis : x y z
#
# Youngs Moduli (GPa) = 122.57912 67.29975 54.49425
#
# Poissons Ratio (x) = 0.18122 0.22653
# Poissons Ratio (y) = 0.33007 -0.01938
# Poissons Ratio (z) = 0.50956 -0.02393
#
# Static dielectric constant tensor:
#      x y z
#    x 2.021200 0.000000 -0.082120 
#    y 0.000000 2.033980 0.000000 
#    z -0.082120 0.000000 2.029840 
# 
# From -- ./inp_files/8506.got.cif
#   From: 2010.05.17/outbox.cif.g08.bks.cpg/sg4_5_cif.got.tgz:8506.got - 2010.06.03 18:43:04.
