data_PCOD9116885
_publ_section_title
;
Structure prediction by ZEFSAII (Michael W. Deem and Ramdas Pophale) SiO2 
 PCOD9116885
Probable space group: P 21
;
_chemical_formula_sum "Si O2"
_cell_formula_units_Z 12
_cell_length_a 10.541120
_cell_length_b 7.655346
_cell_length_c 6.817858
_cell_angle_alpha 90.000000
_cell_angle_beta 70.023659
_cell_angle_gamma 90.000000
_cell_volume 517.071474
_symmetry_space_group_name_H-M "P 21"
_symmetry_group_IT_number 4
_symmetry_cell_setting 'monoclinic'
loop_
_space_group_symop_operation_xyz
x,y,z
-x,1/2+y,-z
loop_
_atom_site_type_symbol
_atom_site_label
_atom_site_fract_x
_atom_site_fract_y
_atom_site_fract_z
Si Si1 0.848709 0.794280 0.980174
Si Si2 0.628938 0.646355 0.883472
Si Si3 0.411977 0.885792 0.804914
Si Si4 0.325007 0.843577 0.416981
Si Si5 0.782792 0.146138 0.860294
Si Si6 0.075092 0.030886 0.733003
O O1 0.786447 0.693908 0.825928
O O2 0.761678 0.973387 0.006489
O O3 0.849562 0.666243 0.163656
O O4 0.999944 0.868544 0.880800
O O5 0.540810 0.795210 0.833741
O O6 0.601654 0.478696 0.764715
O O7 0.587214 0.587022 0.125423
O O8 0.400275 0.839567 0.583747
O O9 0.277483 0.802588 0.977888
O O10 0.290912 0.670704 0.309942
O O11 0.182379 0.940679 0.536838
O O12 0.942453 0.134939 0.727802
#
# Coordination Sequence:
#
# PCOD9116885 Si02
#       6
#     2   2   2   2   2   2
#     4  10  22  41  67  98 130 185 218 272 345 394
#     4  11  25  42  70  95 133 176 230 279 342 397
#     4  11  23  48  65  95 136 176 227 284 334 410
#     4  11  24  43  66 100 133 174 227 283 337 404
#     4   9  24  42  67  94 134 180 214 277 345 388
#     4  10  22  42  67 100 136 175 228 273 341 409
#
# _framework density 23.207626000000001
#
# number of rings (size 3 to 8) (size 9 to 14) (size 15 to 20)
#    1.000    0.667    1.667    2.000    4.667    4.000 
#    9.000    0.000    0.000    0.000    0.000    0.000 
#    0.000    0.000    0.000    0.000    0.000    0.000 
#
# Total GULP energy -66817.595834 kJ/mol
# GULP energy per Si atom -5568.132986 kJ/mol
# Density = 2.315480 g / cm^3
# Si number density = 23.207626 Si / 1000 Ang^3
#
#
#
# Elastic Constant Matrix: (Units=GPa)
#
#
# Indices 1 2 3 4 5 6 
#
# 1 102.9306 31.1258 28.4992 0.0000 26.2172 0.0000
# 2 31.1258 79.5619 18.7303 0.0000 16.6548 0.0000
# 3 28.4992 18.7303 64.9655 0.0000 21.9348 0.0000
# 4 0.0000 0.0000 0.0000 35.7684 0.0000 12.2321
# 5 26.2172 16.6548 21.9348 0.0000 36.5124 0.0000
# 6 0.0000 0.0000 0.0000 12.2321 0.0000 39.2120
#
#
#
# Elastic Compliance Matrix: (Units=1/GPa)
#
#
# Indices 1 2 3 4 5 6 
#
# 1 0.013011 -0.003141 -0.002674 0.000000 -0.006303 0.000000
# 2 -0.003141 0.014944 -0.001744 0.000000 -0.003513 0.000000
# 3 -0.002674 -0.001744 0.020262 0.000000 -0.009457 0.000000
# 4 0.000000 0.000000 0.000000 0.031296 0.000000 -0.009763
# 5 -0.006303 -0.003513 -0.009457 0.000000 0.039197 0.000000
# 6 0.000000 0.000000 0.000000 -0.009763 0.000000 0.028548
#
#
# Mechanical properties :
#
#
# Convention : Reuss Voigt Hill
#
# Bulk Modulus (GPa) = 30.21368 44.90760 37.56064
# Shear Modulus (GPa) = 28.83356 33.57207 31.20281
#
# Velocity S-wave (km/s) = 3.52862 3.80754 3.67073
# Velocity P-wave (km/s) = 5.44506 6.22272 5.84683
#
# Compressibility (1/GPa) = 0.03309759
#
# Stress axis : x y z
#
# Youngs Moduli (GPa) = 76.85823 66.91767 49.35459
#
# Poissons Ratio (x) = 0.21020 0.13197
# Poissons Ratio (y) = 0.24142 0.08609
# Poissons Ratio (z) = 0.20551 0.11673
#
# Static dielectric constant tensor:
#      x y z
#    x 1.890490 0.000000 0.011950 
#    y 0.000000 1.956440 0.000000 
#    z 0.011950 0.000000 1.870740 
# 
# From -- ./inp_files/2539.got.cif
#   From: 2010.05.17/outbox.cif.g08.bks.cpg/sg4_2_cif.got.tgz:2539.got - 2010.06.03 18:43:04.
