data_PCOD9116161
_publ_section_title
;
Structure prediction by ZEFSAII (Michael W. Deem and Ramdas Pophale) SiO2 
 PCOD9116161
Probable space group: P 21
;
_chemical_formula_sum "Si O2"
_cell_formula_units_Z 12
_cell_length_a 11.376625
_cell_length_b 6.952060
_cell_length_c 8.632688
_cell_angle_alpha 90.000000
_cell_angle_beta 139.309402
_cell_angle_gamma 90.000000
_cell_volume 445.146813
_symmetry_space_group_name_H-M "P 21"
_symmetry_group_IT_number 4
_symmetry_cell_setting 'monoclinic'
loop_
_space_group_symop_operation_xyz
x,y,z
-x,1/2+y,-z
loop_
_atom_site_type_symbol
_atom_site_label
_atom_site_fract_x
_atom_site_fract_y
_atom_site_fract_z
Si Si1 0.812693 0.786390 0.481639
Si Si2 0.994749 0.530696 0.899552
Si Si3 0.815647 0.793996 0.147958
Si Si4 0.560694 0.167762 0.895360
Si Si5 0.303218 0.780855 0.296922
Si Si6 0.443542 0.662387 0.760339
O O1 0.947934 0.715834 0.747037
O O2 0.904871 0.780617 0.405698
O O3 0.696083 0.982076 0.380258
O O4 0.652859 0.629481 0.321605
O O5 0.820388 0.469974 0.819555
O O6 0.041131 0.344423 0.839994
O O7 0.172822 0.593557 0.165796
O O8 0.691079 0.985335 0.023539
O O9 0.662153 0.632126 0.978868
O O10 0.587485 0.251169 0.097004
O O11 0.593790 0.268697 0.762462
O O12 0.413361 0.767976 0.565981
#
# Coordination Sequence:
#
# PCOD9116161 Si02
#       6
#     2   2   2   2   2   2
#     4  10  21  40  67  97 132 173 226 281 337 402
#     4  11  24  41  63  99 140 179 221 281 351 402
#     4   9  21  41  65  94 132 174 222 276 336 403
#     4   9  21  41  63  92 125 171 229 275 324 401
#     4  11  24  40  63  92 134 178 225 278 336 404
#     4  10  21  41  67  94 125 173 227 277 330 400
#
# _framework density 26.957397
#
# number of rings (size 3 to 8) (size 9 to 14) (size 15 to 20)
#    0.000    2.000    0.000    2.000    0.000   12.000 
#    0.000    1.667    0.000    0.000    0.000    0.000 
#    0.000    0.000    0.000    0.000    0.000    0.000 
#
# Total GULP energy -67023.602665 kJ/mol
# GULP energy per Si atom -5585.300222 kJ/mol
# Density = 2.689604 g / cm^3
# Si number density = 26.957397 Si / 1000 Ang^3
#
#
#
# Elastic Constant Matrix: (Units=GPa)
#
#
# Indices 1 2 3 4 5 6 
#
# 1 150.4188 22.0080 47.3880 0.0000 -38.4538 0.0000
# 2 22.0080 53.1449 15.2152 0.0000 -20.5899 0.0000
# 3 47.3880 15.2152 130.4265 0.0000 -44.4011 0.0000
# 4 0.0000 0.0000 0.0000 43.4535 0.0000 1.7067
# 5 -38.4538 -20.5899 -44.4011 0.0000 45.6900 0.0000
# 6 0.0000 0.0000 0.0000 1.7067 0.0000 49.2423
#
#
#
# Elastic Compliance Matrix: (Units=1/GPa)
#
#
# Indices 1 2 3 4 5 6 
#
# 1 0.008600 -0.001031 -0.001044 0.000000 0.005759 0.000000
# 2 -0.001031 0.023058 0.001385 0.000000 0.010869 0.000000
# 3 -0.001044 0.001385 0.011654 0.000000 0.011070 0.000000
# 4 0.000000 0.000000 0.000000 0.023044 0.000000 -0.000799
# 5 0.005759 0.010869 0.011070 0.000000 0.042389 0.000000
# 6 0.000000 0.000000 0.000000 -0.000799 0.000000 0.020335
#
#
# Mechanical properties :
#
#
# Convention : Reuss Voigt Hill
#
# Bulk Modulus (GPa) = 23.84883 55.91251 39.88067
# Shear Modulus (GPa) = 34.61679 44.30243 39.45961
#
# Velocity S-wave (km/s) = 3.58736 4.05831 3.83008
# Velocity P-wave (km/s) = 5.10147 6.53804 5.86391
#
# Compressibility (1/GPa) = 0.04193078
#
# Stress axis : x y z
#
# Youngs Moduli (GPa) = 116.27777 43.36892 85.81086
#
# Poissons Ratio (x) = 0.04473 0.08958
# Poissons Ratio (y) = 0.11993 -0.11884
# Poissons Ratio (z) = 0.12138 -0.06006
#
# Static dielectric constant tensor:
#      x y z
#    x 2.042850 0.000000 -0.030070 
#    y 0.000000 2.219320 0.000000 
#    z -0.030070 0.000000 2.009200 
# 
# From -- ./inp_files/5627.got.cif
#   From: 2010.05.17/outbox.cif.g08.bks.cpg/sg4_3_cif.got.tgz:5627.got - 2010.06.03 18:43:04.
