data_PCOD9116411
_publ_section_title
;
Structure prediction by ZEFSAII (Michael W. Deem and Ramdas Pophale) SiO2 
 PCOD9116411
Probable space group: P 21
;
_chemical_formula_sum "Si O2"
_cell_formula_units_Z 16
_cell_length_a 5.898998
_cell_length_b 12.419265
_cell_length_c 9.410950
_cell_angle_alpha 90.000000
_cell_angle_beta 91.757838
_cell_angle_gamma 90.000000
_cell_volume 689.133217
_symmetry_space_group_name_H-M "P 21"
_symmetry_group_IT_number 4
_symmetry_cell_setting 'monoclinic'
loop_
_space_group_symop_operation_xyz
x,y,z
-x,1/2+y,-z
loop_
_atom_site_type_symbol
_atom_site_label
_atom_site_fract_x
_atom_site_fract_y
_atom_site_fract_z
Si Si1 0.820015 0.676150 0.590727
Si Si2 0.268801 0.788945 0.325950
Si Si3 0.488489 0.237091 0.161565
Si Si4 0.700882 0.564992 0.001223
Si Si5 0.572480 0.868909 0.088601
Si Si6 0.894292 0.602751 0.309348
Si Si7 0.026620 0.497718 0.768410
Si Si8 0.822432 0.353048 0.371407
O O1 0.629882 0.683734 0.704950
O O2 0.738239 0.651145 0.431623
O O3 0.001275 0.582933 0.639411
O O4 0.949088 0.787995 0.596287
O O5 0.460097 0.793953 0.207518
O O6 0.326238 0.825105 0.489633
O O7 0.121491 0.677816 0.320339
O O8 0.112865 0.891091 0.276973
O O9 0.695206 0.301894 0.233055
O O10 0.512084 0.136493 0.056348
O O11 0.333322 0.309704 0.051510
O O12 0.790120 0.605832 0.151851
O O13 0.617196 0.443351 0.988156
O O14 0.910023 0.562979 0.895175
O O15 0.740068 0.946910 0.176041
O O16 0.893372 0.475755 0.346308
#
# Coordination Sequence:
#
# PCOD9116411 Si02
#       8
#     2   2   2   2   2   2   2   2
#     4  10  24  44  69  99 136 182 226 281 354 396
#     4  10  24  42  67 100 135 182 234 284 344 404
#     4  11  24  42  67 101 137 175 226 285 340 411
#     4  10  23  41  66 101 135 177 228 280 349 408
#     4  11  23  41  69 102 135 178 230 283 342 416
#     4  11  22  45  70  96 141 183 229 283 341 420
#     4  10  21  43  67  96 137 179 221 293 346 400
#     4  11  23  44  67  99 138 180 230 285 338 413
#
# _framework density 23.217573000000002
#
# number of rings (size 3 to 8) (size 9 to 14) (size 15 to 20)
#    0.000    1.500    2.500    1.500    1.750    6.000 
#    0.000    2.500    0.000    0.000    0.000    0.000 
#    0.000    0.000    0.000    0.000    0.000    0.000 
#
# Total GULP energy -89174.602928 kJ/mol
# GULP energy per Si atom -5573.412683 kJ/mol
# Density = 2.316473 g / cm^3
# Si number density = 23.217573 Si / 1000 Ang^3
#
#
#
# Elastic Constant Matrix: (Units=GPa)
#
#
# Indices 1 2 3 4 5 6 
#
# 1 24.5648 29.2955 27.6733 0.0000 4.0959 0.0000
# 2 29.2955 143.4596 61.5156 0.0000 8.3692 0.0000
# 3 27.6733 61.5156 174.7343 0.0000 10.4910 0.0000
# 4 0.0000 0.0000 0.0000 39.7820 0.0000 7.9197
# 5 4.0959 8.3692 10.4910 0.0000 15.3771 0.0000
# 6 0.0000 0.0000 0.0000 7.9197 0.0000 36.4600
#
#
#
# Elastic Compliance Matrix: (Units=1/GPa)
#
#
# Indices 1 2 3 4 5 6 
#
# 1 0.059352 -0.009264 -0.005726 0.000000 -0.006860 0.000000
# 2 -0.009264 0.009757 -0.001874 0.000000 -0.001564 0.000000
# 3 -0.005726 -0.001874 0.007442 0.000000 -0.002532 0.000000
# 4 0.000000 0.000000 0.000000 0.026273 0.000000 -0.005707
# 5 -0.006860 -0.001564 -0.002532 0.000000 0.069438 0.000000
# 6 0.000000 0.000000 0.000000 -0.005707 0.000000 0.028667
#
#
# Mechanical properties :
#
#
# Convention : Reuss Voigt Hill
#
# Bulk Modulus (GPa) = 23.35274 64.41417 43.88345
# Shear Modulus (GPa) = 20.08578 33.27543 26.68060
#
# Velocity S-wave (km/s) = 2.94447 3.78987 3.39360
# Velocity P-wave (km/s) = 4.65187 6.85235 5.85639
#
# Compressibility (1/GPa) = 0.04282153
#
# Stress axis : x y z
#
# Youngs Moduli (GPa) = 16.84859 102.48774 134.37968
#
# Poissons Ratio (x) = 0.94950 0.76951
# Poissons Ratio (y) = 0.15609 0.25181
# Poissons Ratio (z) = 0.09648 0.19205
#
# Static dielectric constant tensor:
#      x y z
#    x 1.896270 0.000000 -0.015970 
#    y 0.000000 1.923820 0.000000 
#    z -0.015970 0.000000 1.923560 
# 
# From -- ./inp_files/1399.got.cif
#   From: 2010.05.17/outbox.cif.g08.bks.cpg/sg4_1_cif.got.tgz:1399.got - 2010.06.03 18:43:04.
