data_PCOD9116748
_publ_section_title
;
Structure prediction by ZEFSAII (Michael W. Deem and Ramdas Pophale) SiO2 
 PCOD9116748
Probable space group: P 21
;
_chemical_formula_sum "Si O2"
_cell_formula_units_Z 16
_cell_length_a 6.756521
_cell_length_b 15.475472
_cell_length_c 6.813609
_cell_angle_alpha 90.000000
_cell_angle_beta 71.664870
_cell_angle_gamma 90.000000
_cell_volume 676.265091
_symmetry_space_group_name_H-M "P 21"
_symmetry_group_IT_number 4
_symmetry_cell_setting 'monoclinic'
loop_
_space_group_symop_operation_xyz
x,y,z
-x,1/2+y,-z
loop_
_atom_site_type_symbol
_atom_site_label
_atom_site_fract_x
_atom_site_fract_y
_atom_site_fract_z
Si Si1 0.076326 0.713180 0.911220
Si Si2 0.141804 0.059250 0.563703
Si Si3 0.776150 0.270660 0.715268
Si Si4 0.602606 0.537070 0.184565
Si Si5 0.006039 0.868311 0.670824
Si Si6 0.361543 0.164869 0.162178
Si Si7 0.723740 0.115808 0.475670
Si Si8 0.524383 0.855796 0.914814
O O1 0.217265 0.639282 0.763859
O O2 0.111837 0.808287 0.803044
O O3 0.847602 0.693602 0.891756
O O4 0.123387 0.725534 0.124650
O O5 0.188498 0.074485 0.779070
O O6 0.300508 0.111708 0.374503
O O7 0.927589 0.088267 0.532737
O O8 0.126253 0.955374 0.575010
O O9 0.663451 0.204743 0.602557
O O10 0.967764 0.311524 0.534625
O O11 0.595275 0.335568 0.843756
O O12 0.442995 0.544956 0.415357
O O13 0.601912 0.438072 0.124599
O O14 0.537328 0.597157 0.022617
O O15 0.768299 0.884284 0.816869
O O16 0.468396 0.257195 0.173239
#
# Coordination Sequence:
#
# PCOD9116748 Si02
#       8
#     2   2   2   2   2   2   2   2
#     4   9  21  40  65  93 128 175 218 275 336 403
#     4  11  23  43  66  93 137 179 222 287 339 404
#     4  11  21  42  67  94 132 176 215 281 341 397
#     4  12  23  41  69  97 130 186 223 278 351 400
#     4  10  22  42  62  94 136 174 219 283 339 396
#     4  10  23  43  64  97 136 173 234 284 333 411
#     4  10  22  40  65  93 132 169 222 274 333 399
#     4  11  23  41  68  99 135 174 231 282 332 414
#
# _framework density 23.659361000000001
#
# number of rings (size 3 to 8) (size 9 to 14) (size 15 to 20)
#    0.000    1.500    2.500    3.000    1.750    0.000 
#    0.000    5.000    0.000    0.000    0.000    0.000 
#    0.000    0.000    0.000    0.000    0.000    0.000 
#
# Total GULP energy -89178.957447 kJ/mol
# GULP energy per Si atom -5573.684840 kJ/mol
# Density = 2.360551 g / cm^3
# Si number density = 23.659361 Si / 1000 Ang^3
#
#
#
# Elastic Constant Matrix: (Units=GPa)
#
#
# Indices 1 2 3 4 5 6 
#
# 1 42.9423 17.0145 11.7215 0.0000 0.4682 0.0000
# 2 17.0145 89.1346 35.0935 0.0000 12.1199 0.0000
# 3 11.7215 35.0935 85.8263 0.0000 20.0491 0.0000
# 4 0.0000 0.0000 0.0000 21.3046 0.0000 2.3203
# 5 0.4682 12.1199 20.0491 0.0000 38.8014 0.0000
# 6 0.0000 0.0000 0.0000 2.3203 0.0000 33.3460
#
#
#
# Elastic Compliance Matrix: (Units=1/GPa)
#
#
# Indices 1 2 3 4 5 6 
#
# 1 0.025579 -0.004295 -0.002250 0.000000 0.002196 0.000000
# 2 -0.004295 0.014174 -0.004762 0.000000 -0.001915 0.000000
# 3 -0.002250 -0.004762 0.015412 0.000000 -0.006449 0.000000
# 4 0.000000 0.000000 0.000000 0.047297 0.000000 -0.003291
# 5 0.002196 -0.001915 -0.006449 0.000000 0.029676 0.000000
# 6 0.000000 0.000000 0.000000 -0.003291 0.000000 0.030218
#
#
# Mechanical properties :
#
#
# Convention : Reuss Voigt Hill
#
# Bulk Modulus (GPa) = 30.72051 38.39578 34.55814
# Shear Modulus (GPa) = 25.53358 28.96197 27.24777
#
# Velocity S-wave (km/s) = 3.28871 3.50254 3.39731
# Velocity P-wave (km/s) = 5.23770 5.71147 5.47971
#
# Compressibility (1/GPa) = 0.03255154
#
# Stress axis : x y z
#
# Youngs Moduli (GPa) = 39.09429 70.55153 64.88359
#
# Poissons Ratio (x) = 0.30305 0.14598
# Poissons Ratio (y) = 0.16793 0.30895
# Poissons Ratio (z) = 0.08796 0.33594
#
# Static dielectric constant tensor:
#      x y z
#    x 2.036630 0.000000 -0.028710 
#    y 0.000000 1.929710 0.000000 
#    z -0.028710 0.000000 1.893370 
# 
# From -- ./inp_files/1828.got.cif
#   From: 2010.05.17/outbox.cif.g08.bks.cpg/sg4_1_cif.got.tgz:1828.got - 2010.06.03 18:43:04.
