data_PCOD9116971
_publ_section_title
;
Structure prediction by ZEFSAII (Michael W. Deem and Ramdas Pophale) SiO2 
 PCOD9116971
Probable space group: P 21
;
_chemical_formula_sum "Si O2"
_cell_formula_units_Z 14
_cell_length_a 11.994400
_cell_length_b 9.467494
_cell_length_c 5.671829
_cell_angle_alpha 90.000000
_cell_angle_beta 68.567480
_cell_angle_gamma 90.000000
_cell_volume 599.536641
_symmetry_space_group_name_H-M "P 21"
_symmetry_group_IT_number 4
_symmetry_cell_setting 'monoclinic'
loop_
_space_group_symop_operation_xyz
x,y,z
-x,1/2+y,-z
loop_
_atom_site_type_symbol
_atom_site_label
_atom_site_fract_x
_atom_site_fract_y
_atom_site_fract_z
Si Si1 0.012793 0.621150 0.094912
Si Si2 0.446953 0.551358 0.334505
Si Si3 0.531875 0.295663 0.021423
Si Si4 0.270430 0.726852 0.752701
Si Si5 0.191321 0.267801 0.502920
Si Si6 0.873830 0.832969 0.949622
Si Si7 0.347206 0.994272 0.448249
O O1 0.026250 0.454466 0.109960
O O2 0.942658 0.699287 0.359422
O O3 0.147387 0.675783 0.956718
O O4 0.934464 0.678773 0.935350
O O5 0.507179 0.668439 0.116275
O O6 0.323575 0.623209 0.510928
O O7 0.538412 0.528138 0.477960
O O8 0.436856 0.397589 0.222878
O O9 0.606816 0.405475 0.807127
O O10 0.623504 0.231322 0.138122
O O11 0.263992 0.885545 0.657108
O O12 0.188770 0.344936 0.253977
O O13 0.280293 0.135992 0.434011
O O14 0.204923 0.345088 0.748302
#
# Coordination Sequence:
#
# PCOD9116971 Si02
#       7
#     2   2   2   2   2   2   2
#     4  10  24  45  67  99 139 172 229 277 339 403
#     4  10  22  43  66 100 128 177 225 273 347 403
#     4  10  22  42  67  95 133 180 217 283 337 405
#     4  10  22  43  67  98 131 176 222 280 337 402
#     4  10  25  42  70 100 135 179 224 273 340 401
#     4  10  25  44  68 102 133 179 226 278 337 396
#     4  10  22  43  67  94 135 177 225 274 341 402
#
# _framework density 23.351368000000001
#
# number of rings (size 3 to 8) (size 9 to 14) (size 15 to 20)
#    0.857    1.143    0.000    1.714    6.000    3.429 
#   12.857    0.000    0.000    0.000    0.000    0.000 
#    0.000    0.000    0.000    0.000    0.000    0.000 
#
# Total GULP energy -78192.815297 kJ/mol
# GULP energy per Si atom -5585.201093 kJ/mol
# Density = 2.329822 g / cm^3
# Si number density = 23.351368 Si / 1000 Ang^3
#
#
#
# Elastic Constant Matrix: (Units=GPa)
#
#
# Indices 1 2 3 4 5 6 
#
# 1 52.4094 24.5818 29.8721 0.0000 -8.9738 0.0000
# 2 24.5818 82.6052 33.6710 0.0000 -8.6783 0.0000
# 3 29.8721 33.6710 114.2601 0.0000 18.8226 0.0000
# 4 0.0000 0.0000 0.0000 38.2165 0.0000 -14.4614
# 5 -8.9738 -8.6783 18.8226 0.0000 20.3866 0.0000
# 6 0.0000 0.0000 0.0000 -14.4614 0.0000 43.2081
#
#
#
# Elastic Compliance Matrix: (Units=1/GPa)
#
#
# Indices 1 2 3 4 5 6 
#
# 1 0.030192 -0.002151 -0.010966 0.000000 0.022499 0.000000
# 2 -0.002151 0.016553 -0.006275 0.000000 0.011893 0.000000
# 3 -0.010966 -0.006275 0.017341 0.000000 -0.023508 0.000000
# 4 0.000000 0.000000 0.000000 0.029961 0.000000 0.010028
# 5 0.022499 0.011893 -0.023508 0.000000 0.085723 0.000000
# 6 0.000000 0.000000 0.000000 0.010028 0.000000 0.026500
#
#
# Mechanical properties :
#
#
# Convention : Reuss Voigt Hill
#
# Bulk Modulus (GPa) = 39.52212 47.28050 43.40131
# Shear Modulus (GPa) = 19.72485 31.10557 25.41521
#
# Velocity S-wave (km/s) = 2.90952 3.65371 3.30264
# Velocity P-wave (km/s) = 5.31496 6.17178 5.75932
#
# Compressibility (1/GPa) = 0.02530229
#
# Stress axis : x y z
#
# Youngs Moduli (GPa) = 33.12121 60.41198 57.66812
#
# Poissons Ratio (x) = 0.12995 0.63238
# Poissons Ratio (y) = 0.07125 0.36185
# Poissons Ratio (z) = 0.36320 0.37907
#
# Static dielectric constant tensor:
#      x y z
#    x 1.836690 0.000000 -0.039200 
#    y 0.000000 1.877330 0.000000 
#    z -0.039200 0.000000 1.924210 
# 
# From -- ./inp_files/3692.got.cif
#   From: 2010.05.17/outbox.cif.g08.bks.cpg/sg4_2_cif.got.tgz:3692.got - 2010.06.03 18:43:04.
