data_PCOD9116603
_publ_section_title
;
Structure prediction by ZEFSAII (Michael W. Deem and Ramdas Pophale) SiO2 
 PCOD9116603
Probable space group: P 21
;
_chemical_formula_sum "Si O2"
_cell_formula_units_Z 16
_cell_length_a 21.489994
_cell_length_b 5.007944
_cell_length_c 9.616023
_cell_angle_alpha 90.000000
_cell_angle_beta 39.350324
_cell_angle_gamma 90.000000
_cell_volume 656.178231
_symmetry_space_group_name_H-M "P 21"
_symmetry_group_IT_number 4
_symmetry_cell_setting 'monoclinic'
loop_
_space_group_symop_operation_xyz
x,y,z
-x,1/2+y,-z
loop_
_atom_site_type_symbol
_atom_site_label
_atom_site_fract_x
_atom_site_fract_y
_atom_site_fract_z
Si Si1 0.786512 0.392760 0.123667
Si Si2 0.974426 0.287223 0.633831
Si Si3 0.371073 0.721247 0.784757
Si Si4 0.224529 0.365260 0.683319
Si Si5 0.528637 0.651890 0.030611
Si Si6 0.576542 0.872195 0.545287
Si Si7 0.152179 0.421861 0.503305
Si Si8 0.265343 0.936324 0.232210
O O1 0.679591 0.425385 0.237204
O O2 0.824362 0.668069 0.121563
O O3 0.780269 0.169329 0.255165
O O4 0.862547 0.291041 0.876922
O O5 0.994322 0.499252 0.476945
O O6 0.041185 0.384190 0.647247
O O7 0.481848 0.723644 0.649428
O O8 0.367893 0.470102 0.689055
O O9 0.307028 0.772641 0.030118
O O10 0.339283 0.275702 0.494312
O O11 0.177663 0.329846 0.614630
O O12 0.475789 0.607388 0.271031
O O13 0.525085 0.957257 0.987767
O O14 0.637558 0.531216 0.854011
O O15 0.191888 0.723612 0.427195
O O16 0.210248 0.215712 0.301513
#
# Coordination Sequence:
#
# PCOD9116603 Si02
#       8
#     2   2   2   2   2   2   2   2
#     4  11  24  42  65  95 129 168 217 267 323 384
#     4  12  26  46  72  99 128 168 218 274 336 396
#     4  10  22  39  62  92 129 170 216 268 317 380
#     4  11  24  41  65  95 131 170 210 262 322 390
#     4  11  23  40  63  93 132 174 220 267 317 387
#     4  10  22  38  62  92 129 172 215 260 320 385
#     4  12  25  45  69  96 132 170 217 274 331 394
#     4  11  24  41  66  96 130 172 217 270 328 382
#
# _framework density 24.383620000000001
#
# number of rings (size 3 to 8) (size 9 to 14) (size 15 to 20)
#    0.000    1.000    0.000    6.750    0.000   11.000 
#    0.000    0.000    0.000    0.000    0.000    0.000 
#    0.000    0.000    0.000    0.000    0.000    0.000 
#
# Total GULP energy -89402.350143 kJ/mol
# GULP energy per Si atom -5587.646884 kJ/mol
# Density = 2.432812 g / cm^3
# Si number density = 24.383620 Si / 1000 Ang^3
#
#
#
# Elastic Constant Matrix: (Units=GPa)
#
#
# Indices 1 2 3 4 5 6 
#
# 1 151.4546 3.4196 23.1109 0.0000 -13.8781 0.0000
# 2 3.4196 97.5633 10.4076 0.0000 -0.7409 0.0000
# 3 23.1109 10.4076 34.3921 0.0000 -3.9396 0.0000
# 4 0.0000 0.0000 0.0000 26.0082 0.0000 2.3641
# 5 -13.8781 -0.7409 -3.9396 0.0000 35.5257 0.0000
# 6 0.0000 0.0000 0.0000 2.3641 0.0000 28.0226
#
#
#
# Elastic Compliance Matrix: (Units=1/GPa)
#
#
# Indices 1 2 3 4 5 6 
#
# 1 0.007564 0.000275 -0.004889 0.000000 0.002418 0.000000
# 2 0.000275 0.010602 -0.003399 0.000000 -0.000048 0.000000
# 3 -0.004889 -0.003399 0.033590 0.000000 0.001744 0.000000
# 4 0.000000 0.000000 0.000000 0.038746 0.000000 -0.003269
# 5 0.002418 -0.000048 0.001744 0.000000 0.029286 0.000000
# 6 0.000000 0.000000 0.000000 -0.003269 0.000000 0.035961
#
#
# Mechanical properties :
#
#
# Convention : Reuss Voigt Hill
#
# Bulk Modulus (GPa) = 27.98718 39.69847 33.84282
# Shear Modulus (GPa) = 27.22037 34.34276 30.78157
#
# Velocity S-wave (km/s) = 3.34479 3.75698 3.55686
# Velocity P-wave (km/s) = 5.14000 5.92757 5.54778
#
# Compressibility (1/GPa) = 0.03573065
#
# Stress axis : x y z
#
# Youngs Moduli (GPa) = 132.20381 94.31912 29.77074
#
# Poissons Ratio (x) = -0.02592 0.14555
# Poissons Ratio (y) = -0.03633 0.10118
# Poissons Ratio (z) = 0.64635 0.32056
#
# Static dielectric constant tensor:
#      x y z
#    x 1.957060 0.000000 -0.002280 
#    y 0.000000 1.956670 0.000000 
#    z -0.002280 0.000000 1.986730 
# 
# From -- ./inp_files/9768.got.cif
#   From: 2010.05.17/outbox.cif.g08.bks.cpg/sg4_5_cif.got.tgz:9768.got - 2010.06.03 18:43:04.
