data_PCOD9116849
_publ_section_title
;
Structure prediction by ZEFSAII (Michael W. Deem and Ramdas Pophale) SiO2 
 PCOD9116849
Probable space group: P 21
;
_chemical_formula_sum "Si O2"
_cell_formula_units_Z 10
_cell_length_a 17.101948
_cell_length_b 4.870192
_cell_length_c 11.406711
_cell_angle_alpha 90.000000
_cell_angle_beta 157.396566
_cell_angle_gamma 90.000000
_cell_volume 365.157082
_symmetry_space_group_name_H-M "P 21"
_symmetry_group_IT_number 4
_symmetry_cell_setting 'monoclinic'
loop_
_space_group_symop_operation_xyz
x,y,z
-x,1/2+y,-z
loop_
_atom_site_type_symbol
_atom_site_label
_atom_site_fract_x
_atom_site_fract_y
_atom_site_fract_z
Si Si1 0.489168 0.266050 0.400190
Si Si2 0.612296 0.262999 0.108141
Si Si3 0.934078 0.886356 0.182571
Si Si4 0.101737 0.020164 0.098539
Si Si5 0.128485 0.804733 0.732085
O O1 0.462359 0.479454 0.471550
O O2 0.675074 0.385786 0.582930
O O3 0.269246 0.255609 0.035090
O O4 0.649163 0.309527 0.020210
O O5 0.830265 0.349538 0.461356
O O6 0.556381 0.957289 0.068042
O O7 0.888301 0.203087 0.156850
O O8 0.917705 0.721300 0.039014
O O9 0.957747 0.750868 0.887526
O O10 0.018097 0.548969 0.510356
#
# Coordination Sequence:
#
# PCOD9116849 Si02
#       5
#     2   2   2   2   2
#     4  10  22  41  65  93 126 172 219 256 317 401
#     4  11  24  42  65 100 132 165 221 274 317 382
#     4  10  24  44  68  90 136 180 208 266 332 378
#     4  11  24  42  65 100 132 165 221 274 317 382
#     4  10  22  41  65  93 126 172 219 256 317 401
#
# _framework density 27.385475
#
# number of rings (size 3 to 8) (size 9 to 14) (size 15 to 20)
#    0.000    1.600    0.000    4.800    0.000   17.600 
#    0.000    0.000    0.000    0.000    0.000    0.000 
#    0.000    0.000    0.000    0.000    0.000    0.000 
#
# Total GULP energy -55867.272333 kJ/mol
# GULP energy per Si atom -5586.727233 kJ/mol
# Density = 2.732314 g / cm^3
# Si number density = 27.385475 Si / 1000 Ang^3
#
#
#
# Elastic Constant Matrix: (Units=GPa)
#
#
# Indices 1 2 3 4 5 6 
#
# 1 93.6515 13.9955 8.6519 0.0000 22.9417 0.0000
# 2 13.9955 136.3395 -2.8310 0.0000 11.0024 0.0000
# 3 8.6519 -2.8310 133.4324 0.0000 15.9298 0.0000
# 4 0.0000 0.0000 0.0000 42.8204 0.0000 26.1796
# 5 22.9417 11.0024 15.9298 0.0000 33.3908 0.0000
# 6 0.0000 0.0000 0.0000 26.1796 0.0000 66.3203
#
#
#
# Elastic Compliance Matrix: (Units=1/GPa)
#
#
# Indices 1 2 3 4 5 6 
#
# 1 0.012895 -0.000613 0.000196 0.000000 -0.008751 0.000000
# 2 -0.000613 0.007594 0.000476 0.000000 -0.002308 0.000000
# 3 0.000196 0.000476 0.007981 0.000000 -0.004099 0.000000
# 4 0.000000 0.000000 0.000000 0.030782 0.000000 -0.012151
# 5 -0.008751 -0.002308 -0.004099 0.000000 0.038677 0.000000
# 6 0.000000 0.000000 0.000000 -0.012151 0.000000 0.019875
#
#
# Mechanical properties :
#
#
# Convention : Reuss Voigt Hill
#
# Bulk Modulus (GPa) = 34.98057 44.78402 39.88229
# Shear Modulus (GPa) = 39.30307 51.41342 45.35825
#
# Velocity S-wave (km/s) = 3.79249 4.33760 4.07417
# Velocity P-wave (km/s) = 5.65494 6.44011 6.06026
#
# Compressibility (1/GPa) = 0.02858730
#
# Stress axis : x y z
#
# Youngs Moduli (GPa) = 77.54801 131.68736 125.29421
#
# Poissons Ratio (x) = 0.08078 -0.02451
# Poissons Ratio (y) = 0.04757 -0.05969
# Poissons Ratio (z) = -0.01517 -0.06274
#
# Static dielectric constant tensor:
#      x y z
#    x 2.548720 0.000000 -0.125700 
#    y 0.000000 2.269660 0.000000 
#    z -0.125700 0.000000 2.163010 
# 
# From -- ./inp_files/14367.got.cif
#   From: 2010.05.17/outbox.cif.g08.bks.cpg/sg4_8_cif.got.tgz:14367.got - 2010.06.03 18:43:04.
