data_PCOD9116383
_publ_section_title
;
Structure prediction by ZEFSAII (Michael W. Deem and Ramdas Pophale) SiO2 
 PCOD9116383
Probable space group: P 21
;
_chemical_formula_sum "Si O2"
_cell_formula_units_Z 12
_cell_length_a 5.212788
_cell_length_b 17.489795
_cell_length_c 6.473462
_cell_angle_alpha 90.000000
_cell_angle_beta 75.530588
_cell_angle_gamma 90.000000
_cell_volume 571.469257
_symmetry_space_group_name_H-M "P 21"
_symmetry_group_IT_number 4
_symmetry_cell_setting 'monoclinic'
loop_
_space_group_symop_operation_xyz
x,y,z
-x,1/2+y,-z
loop_
_atom_site_type_symbol
_atom_site_label
_atom_site_fract_x
_atom_site_fract_y
_atom_site_fract_z
Si Si1 0.154127 0.205870 0.814831
Si Si2 0.302019 0.886828 0.371835
Si Si3 0.678957 0.122126 0.698350
Si Si4 0.246440 0.449036 0.428573
Si Si5 0.372549 0.320057 0.071294
Si Si6 0.418999 0.741805 0.590313
O O1 0.379875 0.143087 0.827230
O O2 0.155534 0.271354 0.987809
O O3 0.294512 0.243951 0.585189
O O4 0.886683 0.165482 0.802341
O O5 0.515545 0.935270 0.458843
O O6 0.429904 0.857393 0.134713
O O7 0.258196 0.810505 0.517470
O O8 0.031849 0.932743 0.404418
O O9 0.700039 0.162309 0.466353
O O10 0.736235 0.033481 0.667486
O O11 0.272545 0.387034 0.240029
O O12 0.525872 0.260098 0.186207
#
# Coordination Sequence:
#
# PCOD9116383 Si02
#       6
#     2   2   2   2   2   2
#     4   9  21  39  64  95 124 169 223 265 302 402
#     4  10  23  40  64  95 126 167 226 259 312 408
#     4  10  21  43  64  92 139 162 213 278 320 373
#     4  11  24  43  66  95 137 172 206 277 335 368
#     4  10  22  43  71  94 129 174 224 261 326 383
#     4   8  21  38  67  89 123 172 212 260 319 374
#
# _framework density 20.998505999999999
#
# number of rings (size 3 to 8) (size 9 to 14) (size 15 to 20)
#    1.000    1.333    0.000    1.000    7.000    5.333 
#    3.000    0.000    0.000    0.000    0.000    0.000 
#    0.000    0.000    0.000    0.000    0.000    0.000 
#
# Total GULP energy -66983.066973 kJ/mol
# GULP energy per Si atom -5581.922248 kJ/mol
# Density = 2.095071 g / cm^3
# Si number density = 20.998506 Si / 1000 Ang^3
#
#
#
# Elastic Constant Matrix: (Units=GPa)
#
#
# Indices 1 2 3 4 5 6 
#
# 1 110.9461 53.5759 37.6407 0.0000 10.4934 0.0000
# 2 53.5759 119.9390 37.3894 0.0000 16.2482 0.0000
# 3 37.6407 37.3894 86.5303 0.0000 10.7722 0.0000
# 4 0.0000 0.0000 0.0000 26.4126 0.0000 4.3700
# 5 10.4934 16.2482 10.7722 0.0000 12.4231 0.0000
# 6 0.0000 0.0000 0.0000 4.3700 0.0000 25.5746
#
#
#
# Elastic Compliance Matrix: (Units=1/GPa)
#
#
# Indices 1 2 3 4 5 6 
#
# 1 0.012363 -0.004213 -0.003300 0.000000 -0.002071 0.000000
# 2 -0.004213 0.012346 -0.002169 0.000000 -0.010708 0.000000
# 3 -0.003300 -0.002169 0.014830 0.000000 -0.007235 0.000000
# 4 0.000000 0.000000 0.000000 0.038962 0.000000 -0.006658
# 5 -0.002071 -0.010708 -0.007235 0.000000 0.102524 0.000000
# 6 0.000000 0.000000 0.000000 -0.006658 0.000000 0.040239
#
#
# Mechanical properties :
#
#
# Convention : Reuss Voigt Hill
#
# Bulk Modulus (GPa) = 49.56454 63.84749 56.70601
# Shear Modulus (GPa) = 20.21397 25.46937 22.84167
#
# Velocity S-wave (km/s) = 3.10601 3.48647 3.30172
# Velocity P-wave (km/s) = 6.04302 6.83220 6.44970
#
# Compressibility (1/GPa) = 0.02017571
#
# Stress axis : x y z
#
# Youngs Moduli (GPa) = 80.88368 80.99478 67.43137
#
# Poissons Ratio (x) = 0.34127 0.22250
# Poissons Ratio (y) = 0.34080 0.14625
# Poissons Ratio (z) = 0.26689 0.17567
#
# Static dielectric constant tensor:
#      x y z
#    x 1.777790 0.000000 -0.019100 
#    y 0.000000 1.733110 0.000000 
#    z -0.019100 0.000000 1.772150 
# 
# From -- ./inp_files/334.got.cif
#   From: 2010.05.17/outbox.cif.g08.bks.cpg/sg4_1_cif.got.tgz:334.got - 2010.06.03 18:43:04.
