data_PCOD9116234
_publ_section_title
;
Structure prediction by ZEFSAII (Michael W. Deem and Ramdas Pophale) SiO2 
 PCOD9116234
Probable space group: P 21
;
_chemical_formula_sum "Si O2"
_cell_formula_units_Z 14
_cell_length_a 9.486979
_cell_length_b 5.131639
_cell_length_c 15.901036
_cell_angle_alpha 90.000000
_cell_angle_beta 36.373438
_cell_angle_gamma 90.000000
_cell_volume 459.089757
_symmetry_space_group_name_H-M "P 21"
_symmetry_group_IT_number 4
_symmetry_cell_setting 'monoclinic'
loop_
_space_group_symop_operation_xyz
x,y,z
-x,1/2+y,-z
loop_
_atom_site_type_symbol
_atom_site_label
_atom_site_fract_x
_atom_site_fract_y
_atom_site_fract_z
Si Si1 0.711062 0.861330 0.528817
Si Si2 0.461782 0.756975 0.093930
Si Si3 0.051283 0.452678 0.947741
Si Si4 0.573798 0.453151 0.203758
Si Si5 0.725620 0.080043 0.329826
Si Si6 0.185581 0.145800 0.325871
Si Si7 0.915751 0.938537 0.782553
O O1 0.523408 0.072251 0.662048
O O2 0.534386 0.621967 0.582095
O O3 0.986194 0.924962 0.430041
O O4 0.748617 0.958114 0.410202
O O5 0.484547 0.541266 0.155082
O O6 0.403266 0.013998 0.171665
O O7 0.230512 0.704643 0.148671
O O8 0.704950 0.770794 0.927680
O O9 0.111810 0.450708 0.821447
O O10 0.798958 0.231919 0.091212
O O11 0.175786 0.176952 0.924722
O O12 0.333119 0.241508 0.335976
O O13 0.852966 0.366983 0.277535
O O14 0.057853 0.357056 0.327407
#
# Coordination Sequence:
#
# PCOD9116234 Si02
#       7
#     2   2   2   2   2   2   2
#     4  11  27  49  70 114 159 216 268 333 420 514
#     4  11  21  40  74 102 148 199 265 341 399 484
#     4  12  28  52  84 125 167 218 285 351 421 499
#     4  11  26  47  72 112 156 212 275 339 412 488
#     4  11  26  49  76 115 168 218 275 341 421 514
#     4  10  25  44  70 104 152 202 265 335 411 485
#     4  10  21  41  66 110 140 195 263 328 404 474
#
# _framework density 30.495128000000001
#
# number of rings (size 3 to 8) (size 9 to 14) (size 15 to 20)
#    0.000    1.143    4.286    0.000    8.000    0.000 
#    2.571    0.000    0.000    0.000    0.000    0.000 
#    0.000    0.000    0.000    0.000    0.000    0.000 
#
# Total GULP energy -78055.122786 kJ/mol
# GULP energy per Si atom -5575.365913 kJ/mol
# Density = 3.042572 g / cm^3
# Si number density = 30.495128 Si / 1000 Ang^3
#
#
#
# Elastic Constant Matrix: (Units=GPa)
#
#
# Indices 1 2 3 4 5 6 
#
# 1 214.1123 71.3253 74.3029 0.0000 -26.2267 0.0000
# 2 71.3253 185.1607 42.3749 0.0000 -1.8556 0.0000
# 3 74.3029 42.3749 215.6070 0.0000 5.4079 0.0000
# 4 0.0000 0.0000 0.0000 51.3343 0.0000 6.9741
# 5 -26.2267 -1.8556 5.4079 0.0000 51.3949 0.0000
# 6 0.0000 0.0000 0.0000 6.9741 0.0000 55.4797
#
#
#
# Elastic Compliance Matrix: (Units=1/GPa)
#
#
# Indices 1 2 3 4 5 6 
#
# 1 0.006414 -0.002001 -0.001902 0.000000 0.003401 0.000000
# 2 -0.002001 0.006285 -0.000527 0.000000 -0.000739 0.000000
# 3 -0.001902 -0.000527 0.005436 0.000000 -0.001562 0.000000
# 4 0.000000 0.000000 0.000000 0.019819 0.000000 -0.002491
# 5 0.003401 -0.000739 -0.001562 0.000000 0.021330 0.000000
# 6 0.000000 0.000000 0.000000 -0.002491 0.000000 0.018338
#
#
# Mechanical properties :
#
#
# Convention : Reuss Voigt Hill
#
# Bulk Modulus (GPa) = 107.82919 110.09846 108.96382
# Shear Modulus (GPa) = 55.81968 60.10024 57.95996
#
# Velocity S-wave (km/s) = 4.28301 4.44420 4.36435
# Velocity P-wave (km/s) = 7.73920 7.90674 7.82342
#
# Compressibility (1/GPa) = 0.00927393
#
# Stress axis : x y z
#
# Youngs Moduli (GPa) = 155.91308 159.11403 183.94516
#
# Poissons Ratio (x) = 0.31842 0.34992
# Poissons Ratio (y) = 0.31202 0.09694
# Poissons Ratio (z) = 0.29660 0.08385
#
# Static dielectric constant tensor:
#      x y z
#    x 2.307260 0.000000 -0.020870 
#    y 0.000000 2.596550 0.000000 
#    z -0.020870 0.000000 2.531880 
# 
# From -- ./inp_files/15064.got.cif
#   From: 2010.05.17/outbox.cif.g08.bks.cpg/sg4_8_cif.got.tgz:15064.got - 2010.06.03 18:43:04.
