data_PCOD9116738
_publ_section_title
;
Structure prediction by ZEFSAII (Michael W. Deem and Ramdas Pophale) SiO2 
 PCOD9116738
Probable space group: P 21
;
_chemical_formula_sum "Si O2"
_cell_formula_units_Z 14
_cell_length_a 16.448036
_cell_length_b 5.523992
_cell_length_c 17.680803
_cell_angle_alpha 90.000000
_cell_angle_beta 156.415944
_cell_angle_gamma 90.000000
_cell_volume 642.733786
_symmetry_space_group_name_H-M "P 21"
_symmetry_group_IT_number 4
_symmetry_cell_setting 'monoclinic'
loop_
_space_group_symop_operation_xyz
x,y,z
-x,1/2+y,-z
loop_
_atom_site_type_symbol
_atom_site_label
_atom_site_fract_x
_atom_site_fract_y
_atom_site_fract_z
Si Si1 0.746842 0.681340 0.200319
Si Si2 0.133185 0.789007 0.818729
Si Si3 0.506284 0.093934 0.459553
Si Si4 0.083726 0.257879 0.035574
Si Si5 0.520412 0.475106 0.137180
Si Si6 0.134740 0.909242 0.463494
Si Si7 0.930631 0.131611 0.748631
O O1 0.792172 0.445662 0.188776
O O2 0.679856 0.646307 0.229009
O O3 0.951817 0.836295 0.364458
O O4 0.557094 0.798045 0.994421
O O5 0.919553 0.679705 0.608413
O O6 0.312535 0.598777 0.985933
O O7 0.089976 0.928897 0.858947
O O8 0.547106 0.338912 0.544510
O O9 0.316590 0.180875 0.247471
O O10 0.713147 0.039588 0.591368
O O11 0.035978 0.516318 0.035195
O O12 0.024616 0.282940 0.897416
O O13 0.649519 0.365731 0.314919
O O14 0.105618 0.768097 0.360748
#
# Coordination Sequence:
#
# PCOD9116738 Si02
#       7
#     2   2   2   2   2   2   2
#     4  10  22  40  64  97 132 178 235 292 330 423
#     4  10  24  44  64  99 135 177 226 290 352 413
#     4  12  25  46  75 109 138 187 242 290 358 437
#     4  12  25  47  78 107 142 190 238 300 359 430
#     4  11  22  42  68  96 136 181 240 283 352 414
#     4  10  26  41  66  99 137 181 231 287 361 414
#     4  11  26  46  69 101 148 170 236 290 360 427
#
# _framework density 21.781957999999999
#
# number of rings (size 3 to 8) (size 9 to 14) (size 15 to 20)
#    0.000    1.143    4.286    0.000    6.000    6.857 
#    0.000    0.000    0.000    0.000    0.000    0.000 
#    0.000    0.000    0.000    0.000    0.000    0.000 
#
# Total GULP energy -78129.887172 kJ/mol
# GULP energy per Si atom -5580.706227 kJ/mol
# Density = 2.173238 g / cm^3
# Si number density = 21.781958 Si / 1000 Ang^3
#
#
#
# Elastic Constant Matrix: (Units=GPa)
#
#
# Indices 1 2 3 4 5 6 
#
# 1 90.2126 17.1280 12.9398 0.0000 3.4000 0.0000
# 2 17.1280 62.6731 -0.9246 0.0000 -2.2056 0.0000
# 3 12.9398 -0.9246 107.4209 0.0000 -5.2677 0.0000
# 4 0.0000 0.0000 0.0000 23.1778 0.0000 -5.4984
# 5 3.4000 -2.2056 -5.2677 0.0000 20.3656 0.0000
# 6 0.0000 0.0000 0.0000 -5.4984 0.0000 8.6674
#
#
#
# Elastic Compliance Matrix: (Units=1/GPa)
#
#
# Indices 1 2 3 4 5 6 
#
# 1 0.012073 -0.003422 -0.001621 0.000000 -0.002806 0.000000
# 2 -0.003422 0.016992 0.000685 0.000000 0.002589 0.000000
# 3 -0.001621 0.000685 0.009650 0.000000 0.002841 0.000000
# 4 0.000000 0.000000 0.000000 0.050788 0.000000 0.032219
# 5 -0.002806 0.002589 0.002841 0.000000 0.050586 0.000000
# 6 0.000000 0.000000 0.000000 0.032219 0.000000 0.135814
#
#
# Mechanical properties :
#
#
# Convention : Reuss Voigt Hill
#
# Bulk Modulus (GPa) = 33.33454 35.39924 34.36689
# Shear Modulus (GPa) = 16.97113 25.85304 21.41209
#
# Velocity S-wave (km/s) = 2.79433 3.44888 3.13872
# Velocity P-wave (km/s) = 5.07425 5.66980 5.38027
#
# Compressibility (1/GPa) = 0.02999892
#
# Stress axis : x y z
#
# Youngs Moduli (GPa) = 82.82980 58.85035 103.63021
#
# Poissons Ratio (x) = 0.20139 0.16802
# Poissons Ratio (y) = 0.28345 -0.07103
# Poissons Ratio (z) = 0.13429 -0.04034
#
# Static dielectric constant tensor:
#      x y z
#    x 1.789640 0.000000 0.017030 
#    y 0.000000 1.929830 0.000000 
#    z 0.017030 0.000000 1.787700 
# 
# From -- ./inp_files/14049.got.cif
#   From: 2010.05.17/outbox.cif.g08.bks.cpg/sg4_8_cif.got.tgz:14049.got - 2010.06.03 18:43:04.
