data_PCOD9116750
_publ_section_title
;
Structure prediction by ZEFSAII (Michael W. Deem and Ramdas Pophale) SiO2 
 PCOD9116750
Probable space group: P 21
;
_chemical_formula_sum "Si O2"
_cell_formula_units_Z 16
_cell_length_a 24.297429
_cell_length_b 5.467850
_cell_length_c 19.386651
_cell_angle_alpha 90.000000
_cell_angle_beta 165.717924
_cell_angle_gamma 90.000000
_cell_volume 635.391745
_symmetry_space_group_name_H-M "P 21"
_symmetry_group_IT_number 4
_symmetry_cell_setting 'monoclinic'
loop_
_space_group_symop_operation_xyz
x,y,z
-x,1/2+y,-z
loop_
_atom_site_type_symbol
_atom_site_label
_atom_site_fract_x
_atom_site_fract_y
_atom_site_fract_z
Si Si1 0.551247 0.085430 0.863852
Si Si2 0.627776 0.008242 0.172405
Si Si3 0.852349 0.933004 0.866728
Si Si4 0.893720 0.255807 0.378810
Si Si5 0.781402 0.213711 0.495006
Si Si6 0.356902 0.458994 0.537962
Si Si7 0.695572 0.433702 0.660798
Si Si8 0.281709 0.313937 0.062637
O O1 0.370176 0.212311 0.596228
O O2 0.418954 0.909144 0.754256
O O3 0.705499 0.953325 0.994841
O O4 0.690742 0.272825 0.078565
O O5 0.825863 0.107448 0.364841
O O6 0.719906 0.014543 0.362367
O O7 0.455815 0.237464 0.950132
O O8 0.761480 0.934708 0.677750
O O9 0.749486 0.679908 0.768969
O O10 0.755336 0.188298 0.776674
O O11 0.115668 0.930578 0.171411
O O12 0.959212 0.533664 0.474867
O O13 0.757250 0.133919 0.545003
O O14 0.031246 0.303403 0.785068
O O15 0.604566 0.554310 0.819372
O O16 0.457437 0.420871 0.333013
#
# Coordination Sequence:
#
# PCOD9116750 Si02
#       8
#     2   2   2   2   2   2   2   2
#     4  11  23  43  65  90 128 167 209 267 321 384
#     4  12  25  46  65  90 128 167 211 265 326 385
#     4   9  17  34  63  93 125 172 209 258 315 373
#     4  12  27  44  68  94 124 165 217 267 321 382
#     4  11  25  41  64  93 128 170 211 268 321 384
#     4  10  22  40  66  91 129 168 215 260 318 382
#     4   9  17  34  62  95 127 164 217 256 310 380
#     4  10  22  40  65  96 125 167 215 261 318 378
#
# _framework density 25.181315000000001
#
# number of rings (size 3 to 8) (size 9 to 14) (size 15 to 20)
#    0.000    1.500    2.500    2.250    5.250    1.000 
#    0.000    0.000    2.750    0.000    0.000    0.000 
#    0.000    0.000    0.000    0.000    0.000    0.000 
#
# Total GULP energy -89356.872806 kJ/mol
# GULP energy per Si atom -5584.804550 kJ/mol
# Density = 2.512400 g / cm^3
# Si number density = 25.181315 Si / 1000 Ang^3
#
#
#
# Elastic Constant Matrix: (Units=GPa)
#
#
# Indices 1 2 3 4 5 6 
#
# 1 53.5086 3.8393 18.6726 0.0000 6.1436 0.0000
# 2 3.8393 116.2709 19.7255 0.0000 10.1003 0.0000
# 3 18.6726 19.7255 91.0229 0.0000 9.2498 0.0000
# 4 0.0000 0.0000 0.0000 36.7934 0.0000 -10.8734
# 5 6.1436 10.1003 9.2498 0.0000 44.2808 0.0000
# 6 0.0000 0.0000 0.0000 -10.8734 0.0000 14.8797
#
#
#
# Elastic Compliance Matrix: (Units=1/GPa)
#
#
# Indices 1 2 3 4 5 6 
#
# 1 0.020303 0.000184 -0.003999 0.000000 -0.002023 0.000000
# 2 0.000184 0.009053 -0.001826 0.000000 -0.001709 0.000000
# 3 -0.003999 -0.001826 0.012366 0.000000 -0.001612 0.000000
# 4 0.000000 0.000000 0.000000 0.034665 0.000000 0.025331
# 5 -0.002023 -0.001709 -0.001612 0.000000 0.023590 0.000000
# 6 0.000000 0.000000 0.000000 0.025331 0.000000 0.085717
#
#
# Mechanical properties :
#
#
# Convention : Reuss Voigt Hill
#
# Bulk Modulus (GPa) = 32.85194 38.36416 35.60805
# Shear Modulus (GPa) = 24.14022 33.76178 28.95100
#
# Velocity S-wave (km/s) = 3.09958 3.66559 3.39440
# Velocity P-wave (km/s) = 5.08766 5.76053 5.43452
#
# Compressibility (1/GPa) = 0.03043960
#
# Stress axis : x y z
#
# Youngs Moduli (GPa) = 49.25302 110.46365 80.86600
#
# Poissons Ratio (x) = -0.02031 0.32341
# Poissons Ratio (y) = -0.00905 0.14765
# Poissons Ratio (z) = 0.19698 0.20169
#
# Static dielectric constant tensor:
#      x y z
#    x 1.956270 0.000000 0.030980 
#    y 0.000000 2.169080 0.000000 
#    z 0.030980 0.000000 2.075760 
# 
# From -- ./inp_files/15357.got.cif
#   From: 2010.05.17/outbox.cif.g08.bks.cpg/sg4_8_cif.got.tgz:15357.got - 2010.06.03 18:43:04.
