data_PCOD9116269
_publ_section_title
;
Structure prediction by ZEFSAII (Michael W. Deem and Ramdas Pophale) SiO2 
 PCOD9116269
Probable space group: P 21
;
_chemical_formula_sum "Si O2"
_cell_formula_units_Z 16
_cell_length_a 11.100024
_cell_length_b 9.037003
_cell_length_c 6.947876
_cell_angle_alpha 90.000000
_cell_angle_beta 72.644684
_cell_angle_gamma 90.000000
_cell_volume 665.218268
_symmetry_space_group_name_H-M "P 21"
_symmetry_group_IT_number 4
_symmetry_cell_setting 'monoclinic'
loop_
_space_group_symop_operation_xyz
x,y,z
-x,1/2+y,-z
loop_
_atom_site_type_symbol
_atom_site_label
_atom_site_fract_x
_atom_site_fract_y
_atom_site_fract_z
Si Si1 0.328423 0.716400 0.674467
Si Si2 0.899455 0.420040 0.162769
Si Si3 0.527777 0.874887 0.084449
Si Si4 0.509042 0.492627 0.468915
Si Si5 0.327143 0.635143 0.104000
Si Si6 0.055688 0.590228 0.408267
Si Si7 0.935210 0.861801 0.279840
Si Si8 0.723223 0.689967 0.194303
O O1 0.204625 0.813258 0.690029
O O2 0.382780 0.592777 0.503547
O O3 0.442048 0.838143 0.646448
O O4 0.295526 0.638776 0.891521
O O5 0.824168 0.560780 0.108135
O O6 0.993287 0.480757 0.279822
O O7 0.975189 0.349660 0.949541
O O8 0.499773 0.950490 0.302489
O O9 0.402185 0.786110 0.099377
O O10 0.645171 0.762242 0.057866
O O11 0.574049 0.000643 0.917288
O O12 0.619758 0.608734 0.373689
O O13 0.198413 0.619016 0.277225
O O14 0.052621 0.517637 0.619610
O O15 0.977043 0.739526 0.415499
O O16 0.796460 0.818345 0.272994
#
# Coordination Sequence:
#
# PCOD9116269 Si02
#       8
#     2   2   2   2   2   2   2   2
#     4  10  21  43  69 100 142 181 232 295 353 434
#     4  10  23  47  76  99 145 189 243 297 358 426
#     4  11  25  42  67 102 140 183 230 289 359 427
#     4  10  21  41  69 100 130 182 230 275 362 422
#     4  11  26  43  67 102 147 179 238 291 360 425
#     4  11  26  47  71 110 136 192 246 297 362 422
#     4  11  25  47  71 104 142 189 245 298 355 427
#     4  10  23  44  68 101 142 183 234 292 357 427
#
# _framework density 24.052257000000001
#
# number of rings (size 3 to 8) (size 9 to 14) (size 15 to 20)
#    0.000    1.500    2.500    0.750    3.500    9.000 
#    6.750    0.000    0.000    0.000    0.000    0.000 
#    0.000    0.000    0.000    0.000    0.000    0.000 
#
# Total GULP energy -89504.264916 kJ/mol
# GULP energy per Si atom -5594.016557 kJ/mol
# Density = 2.399751 g / cm^3
# Si number density = 24.052257 Si / 1000 Ang^3
#
#
#
# Elastic Constant Matrix: (Units=GPa)
#
#
# Indices 1 2 3 4 5 6 
#
# 1 64.8578 25.8082 14.3115 0.0000 -17.2136 0.0000
# 2 25.8082 90.7312 25.2631 0.0000 -8.7735 0.0000
# 3 14.3115 25.2631 73.1268 0.0000 -12.7094 0.0000
# 4 0.0000 0.0000 0.0000 46.2870 0.0000 0.4524
# 5 -17.2136 -8.7735 -12.7094 0.0000 21.1465 0.0000
# 6 0.0000 0.0000 0.0000 0.4524 0.0000 48.5757
#
#
#
# Elastic Compliance Matrix: (Units=1/GPa)
#
#
# Indices 1 2 3 4 5 6 
#
# 1 0.021348 -0.004601 0.000112 0.000000 0.015536 0.000000
# 2 -0.004601 0.013339 -0.003793 0.000000 -0.000491 0.000000
# 3 0.000112 -0.003793 0.016421 0.000000 0.008387 0.000000
# 4 0.000000 0.000000 0.000000 0.021606 0.000000 -0.000201
# 5 0.015536 -0.000491 0.008387 0.000000 0.064772 0.000000
# 6 0.000000 0.000000 0.000000 -0.000201 0.000000 0.020588
#
#
# Mechanical properties :
#
#
# Convention : Reuss Voigt Hill
#
# Bulk Modulus (GPa) = 28.94957 39.94236 34.44597
# Shear Modulus (GPa) = 26.85948 34.09070 30.47509
#
# Velocity S-wave (km/s) = 3.34535 3.76887 3.56341
# Velocity P-wave (km/s) = 5.19462 5.96504 5.59311
#
# Compressibility (1/GPa) = 0.03454282
#
# Stress axis : x y z
#
# Youngs Moduli (GPa) = 46.84321 74.96798 60.89769
#
# Poissons Ratio (x) = 0.34494 -0.00680
# Poissons Ratio (y) = 0.21553 0.23099
# Poissons Ratio (z) = -0.00523 0.28436
#
# Static dielectric constant tensor:
#      x y z
#    x 1.936840 0.000000 0.044000 
#    y 0.000000 1.965180 0.000000 
#    z 0.044000 0.000000 1.873420 
# 
# From -- ./inp_files/8018.got.cif
#   From: 2010.05.17/outbox.cif.g08.bks.cpg/sg4_5_cif.got.tgz:8018.got - 2010.06.03 18:43:04.
