data_PCOD9116222
_publ_section_title
;
Structure prediction by ZEFSAII (Michael W. Deem and Ramdas Pophale) SiO2 
 PCOD9116222
Probable space group: P 21
;
_chemical_formula_sum "Si O2"
_cell_formula_units_Z 16
_cell_length_a 18.592714
_cell_length_b 7.636968
_cell_length_c 14.731837
_cell_angle_alpha 90.000000
_cell_angle_beta 20.104483
_cell_angle_gamma 90.000000
_cell_volume 719.021885
_symmetry_space_group_name_H-M "P 21"
_symmetry_group_IT_number 4
_symmetry_cell_setting 'monoclinic'
loop_
_space_group_symop_operation_xyz
x,y,z
-x,1/2+y,-z
loop_
_atom_site_type_symbol
_atom_site_label
_atom_site_fract_x
_atom_site_fract_y
_atom_site_fract_z
Si Si1 0.084445 0.896320 0.667867
Si Si2 0.917285 0.356191 0.973530
Si Si3 0.034423 0.539036 0.647082
Si Si4 0.691610 0.109444 0.114088
Si Si5 0.559272 0.597086 0.845635
Si Si6 0.214409 0.828760 0.176524
Si Si7 0.793616 0.539210 0.301964
Si Si8 0.759096 0.807553 0.743932
O O1 0.119140 0.731632 0.562902
O O2 0.233192 0.053999 0.457409
O O3 0.136681 0.884397 0.711904
O O4 0.841569 0.944398 0.949022
O O5 0.996396 0.463677 0.792496
O O6 0.084209 0.215488 0.813718
O O7 0.732086 0.237969 0.150870
O O8 0.845817 0.481701 0.138561
O O9 0.196094 0.417997 0.401857
O O10 0.830070 0.513928 0.822620
O O11 0.450992 0.066873 0.393493
O O12 0.776974 0.202312 0.922074
O O13 0.649093 0.630711 0.840564
O O14 0.418869 0.765561 0.986472
O O15 0.402646 0.433301 0.014006
O O16 0.001861 0.790437 0.486343
#
# Coordination Sequence:
#
# PCOD9116222 Si02
#       8
#     2   2   2   2   2   2   2   2
#     4  11  21  40  65  93 133 163 225 263 324 397
#     4  10  22  39  63  90 133 161 222 263 320 399
#     4   9  21  44  58  91 134 164 206 280 315 391
#     4  10  21  41  65  88 130 171 205 274 320 383
#     4  12  21  41  68  91 128 174 213 272 327 395
#     4   9  21  42  60  91 125 171 210 258 329 383
#     4  11  22  39  66  96 125 176 210 268 333 381
#     4  10  23  40  63  94 126 166 219 266 326 383
#
# _framework density 22.252452999999999
#
# number of rings (size 3 to 8) (size 9 to 14) (size 15 to 20)
#    0.750    1.000    2.500    2.250    0.000    4.000 
#    4.500    1.250    0.000    0.000    0.000    0.000 
#    0.000    0.000    0.000    0.000    0.000    0.000 
#
# Total GULP energy -89233.358066 kJ/mol
# GULP energy per Si atom -5577.084879 kJ/mol
# Density = 2.220181 g / cm^3
# Si number density = 22.252453 Si / 1000 Ang^3
#
#
#
# Elastic Constant Matrix: (Units=GPa)
#
#
# Indices 1 2 3 4 5 6 
#
# 1 51.5015 7.2157 12.7880 0.0000 -1.9507 0.0000
# 2 7.2157 55.5694 16.3329 0.0000 -4.8748 0.0000
# 3 12.7880 16.3329 81.4188 0.0000 -22.6677 0.0000
# 4 0.0000 0.0000 0.0000 27.2770 0.0000 9.9732
# 5 -1.9507 -4.8748 -22.6677 0.0000 38.9879 0.0000
# 6 0.0000 0.0000 0.0000 9.9732 0.0000 19.6348
#
#
#
# Elastic Compliance Matrix: (Units=1/GPa)
#
#
# Indices 1 2 3 4 5 6 
#
# 1 0.020409 -0.001821 -0.003125 0.000000 -0.001024 0.000000
# 2 -0.001821 0.019287 -0.003504 0.000000 0.000283 0.000000
# 3 -0.003125 -0.003504 0.015881 0.000000 0.008639 0.000000
# 4 0.000000 0.000000 0.000000 0.045022 0.000000 -0.022868
# 5 -0.001024 0.000283 0.008639 0.000000 0.030656 0.000000
# 6 0.000000 0.000000 0.000000 -0.022868 0.000000 0.062546
#
#
# Mechanical properties :
#
#
# Convention : Reuss Voigt Hill
#
# Bulk Modulus (GPa) = 25.85594 29.01811 27.43703
# Shear Modulus (GPa) = 22.36195 27.32349 24.84272
#
# Velocity S-wave (km/s) = 3.17349 3.50792 3.34489
# Velocity P-wave (km/s) = 5.00726 5.42919 5.22249
#
# Compressibility (1/GPa) = 0.03867583
#
# Stress axis : x y z
#
# Youngs Moduli (GPa) = 48.99722 51.84900 62.96799
#
# Poissons Ratio (x) = 0.09444 0.19679
# Poissons Ratio (y) = 0.08924 0.22065
# Poissons Ratio (z) = 0.15312 0.18168
#
# Static dielectric constant tensor:
#      x y z
#    x 1.855040 0.000000 -0.018020 
#    y 0.000000 1.889710 0.000000 
#    z -0.018020 0.000000 1.779230 
# 
# From -- ./inp_files/14328.got.cif
#   From: 2010.05.17/outbox.cif.g08.bks.cpg/sg4_8_cif.got.tgz:14328.got - 2010.06.03 18:43:04.
