data_PCOD9116076
_publ_section_title
;
Structure prediction by ZEFSAII (Michael W. Deem and Ramdas Pophale) SiO2 
 PCOD9116076
Probable space group: P 21
;
_chemical_formula_sum "Si O2"
_cell_formula_units_Z 14
_cell_length_a 22.912273
_cell_length_b 4.950122
_cell_length_c 13.573961
_cell_angle_alpha 90.000000
_cell_angle_beta 22.589584
_cell_angle_gamma 90.000000
_cell_volume 591.379213
_symmetry_space_group_name_H-M "P 21"
_symmetry_group_IT_number 4
_symmetry_cell_setting 'monoclinic'
loop_
_space_group_symop_operation_xyz
x,y,z
-x,1/2+y,-z
loop_
_atom_site_type_symbol
_atom_site_label
_atom_site_fract_x
_atom_site_fract_y
_atom_site_fract_z
Si Si1 0.337926 0.622120 0.829135
Si Si2 0.201843 0.497112 0.621694
Si Si3 0.399463 0.177493 0.175428
Si Si4 0.953256 0.853760 0.630667
Si Si5 0.100632 0.901922 0.604068
Si Si6 0.105258 0.779148 0.945956
Si Si7 0.673878 0.627873 0.287725
O O1 0.511449 0.584358 0.593135
O O2 0.327235 0.430946 0.749221
O O3 0.318039 0.926211 0.819840
O O4 0.207016 0.505710 0.102245
O O5 0.332031 0.298227 0.381851
O O6 0.228592 0.648873 0.681385
O O7 0.161223 0.694154 0.592838
O O8 0.044036 0.342184 0.885441
O O9 0.249913 0.082472 0.349602
O O10 0.492554 0.419769 0.980697
O O11 0.055119 0.083288 0.419684
O O12 0.030022 0.779015 0.615757
O O13 0.971817 0.096223 0.850172
O O14 0.184047 0.040617 0.868917
#
# Coordination Sequence:
#
# PCOD9116076 Si02
#       7
#     2   2   2   2   2   2   2
#     4  10  21  43  65  98 126 177 218 280 342 395
#     4  11  23  40  71 107 140 182 231 282 349 425
#     4  11  24  46  70  97 143 192 229 278 346 417
#     4  12  27  44  71  99 134 182 242 284 333 414
#     4  11  24  45  73  97 142 185 231 294 346 404
#     4  11  22  39  69 108 135 176 225 288 349 414
#     4  10  21  39  71  92 136 168 216 278 351 395
#
# _framework density 23.673473000000001
#
# number of rings (size 3 to 8) (size 9 to 14) (size 15 to 20)
#    0.000    1.143    4.286    1.714    4.000    0.000 
#    2.571    1.429    6.286    0.000    0.000    0.000 
#    0.000    0.000    0.000    0.000    0.000    0.000 
#
# Total GULP energy -78313.868376 kJ/mol
# GULP energy per Si atom -5593.847741 kJ/mol
# Density = 2.361959 g / cm^3
# Si number density = 23.673473 Si / 1000 Ang^3
#
#
#
# Elastic Constant Matrix: (Units=GPa)
#
#
# Indices 1 2 3 4 5 6 
#
# 1 53.0258 12.5212 24.2648 0.0000 4.1556 0.0000
# 2 12.5212 82.9499 26.5174 0.0000 -3.8564 0.0000
# 3 24.2648 26.5174 122.2407 0.0000 -17.4135 0.0000
# 4 0.0000 0.0000 0.0000 41.3728 0.0000 -0.7037
# 5 4.1556 -3.8564 -17.4135 0.0000 26.0665 0.0000
# 6 0.0000 0.0000 0.0000 -0.7037 0.0000 31.5413
#
#
#
# Elastic Compliance Matrix: (Units=1/GPa)
#
#
# Indices 1 2 3 4 5 6 
#
# 1 0.022190 -0.002093 -0.004972 0.000000 -0.007169 0.000000
# 2 -0.002093 0.013151 -0.002335 0.000000 0.000720 0.000000
# 3 -0.004972 -0.002335 0.010762 0.000000 0.007637 0.000000
# 4 0.000000 0.000000 0.000000 0.024180 0.000000 0.000539
# 5 -0.007169 0.000720 0.007637 0.000000 0.044714 0.000000
# 6 0.000000 0.000000 0.000000 0.000539 0.000000 0.031716
#
#
# Mechanical properties :
#
#
# Convention : Reuss Voigt Hill
#
# Bulk Modulus (GPa) = 36.62597 42.75811 39.69204
# Shear Modulus (GPa) = 28.63450 32.79033 30.71242
#
# Velocity S-wave (km/s) = 3.48165 3.72574 3.60576
# Velocity P-wave (km/s) = 5.62738 6.05054 5.84279
#
# Compressibility (1/GPa) = 0.02730303
#
# Stress axis : x y z
#
# Youngs Moduli (GPa) = 45.06536 76.03799 92.92112
#
# Poissons Ratio (x) = 0.15918 0.46198
# Poissons Ratio (y) = 0.09434 0.21695
# Poissons Ratio (z) = 0.22405 0.17754
#
# Static dielectric constant tensor:
#      x y z
#    x 1.931860 0.000000 -0.005120 
#    y 0.000000 1.957250 0.000000 
#    z -0.005120 0.000000 1.922590 
# 
# From -- ./inp_files/10681.got.cif
#   From: 2010.05.17/outbox.cif.g08.bks.cpg/sg4_6_cif.got.tgz:10681.got - 2010.06.03 18:43:04.
