data_PCOD9116481
_publ_section_title
;
Structure prediction by ZEFSAII (Michael W. Deem and Ramdas Pophale) SiO2 
 PCOD9116481
Probable space group: P 21
;
_chemical_formula_sum "Si O2"
_cell_formula_units_Z 16
_cell_length_a 9.360752
_cell_length_b 13.820139
_cell_length_c 5.304017
_cell_angle_alpha 90.000000
_cell_angle_beta 66.170644
_cell_angle_gamma 90.000000
_cell_volume 627.670618
_symmetry_space_group_name_H-M "P 21"
_symmetry_group_IT_number 4
_symmetry_cell_setting 'monoclinic'
loop_
_space_group_symop_operation_xyz
x,y,z
-x,1/2+y,-z
loop_
_atom_site_type_symbol
_atom_site_label
_atom_site_fract_x
_atom_site_fract_y
_atom_site_fract_z
Si Si1 0.694677 0.525540 0.816127
Si Si2 0.766184 0.212274 0.954036
Si Si3 0.491885 0.694666 0.201275
Si Si4 0.879952 0.860981 0.710686
Si Si5 0.926841 0.393408 0.950350
Si Si6 0.419425 0.397629 0.786349
Si Si7 0.250511 0.559041 0.663805
Si Si8 0.035114 0.148539 0.395395
O O1 0.788603 0.462864 0.955233
O O2 0.575076 0.458353 0.747123
O O3 0.833805 0.581692 0.569503
O O4 0.607092 0.614451 0.012506
O O5 0.605728 0.247708 0.949963
O O6 0.835669 0.293157 0.086091
O O7 0.907679 0.195020 0.665694
O O8 0.734329 0.105404 0.072548
O O9 0.554766 0.785908 0.310527
O O10 0.361232 0.631631 0.432664
O O11 0.885941 0.745701 0.770024
O O12 0.960510 0.878674 0.379408
O O13 0.702338 0.893105 0.891208
O O14 0.977462 0.914515 0.864143
O O15 0.329223 0.455802 0.632204
O O16 0.072754 0.580712 0.707062
#
# Coordination Sequence:
#
# PCOD9116481 Si02
#       8
#     2   2   2   2   2   2   2   2
#     4  12  25  44  73 110 146 198 250 318 382 458
#     4  10  21  44  71 102 144 197 249 309 375 450
#     4  11  25  48  67 110 155 189 255 322 386 457
#     4  11  25  49  76 111 154 202 256 321 382 461
#     4  11  25  46  78 110 149 206 260 314 380 464
#     4  12  26  47  73 111 149 201 251 316 394 459
#     4  11  24  45  75  99 146 205 248 311 385 459
#     4  10  23  45  71 103 149 192 257 315 372 456
#
# _framework density 25.491078000000002
#
# number of rings (size 3 to 8) (size 9 to 14) (size 15 to 20)
#    0.000    1.000    5.000    0.750    1.750    3.000 
#    9.000    0.000    0.000    0.000    0.000    0.000 
#    0.000    0.000    0.000    0.000    0.000    0.000 
#
# Total GULP energy -89354.097649 kJ/mol
# GULP energy per Si atom -5584.631103 kJ/mol
# Density = 2.543306 g / cm^3
# Si number density = 25.491078 Si / 1000 Ang^3
#
#
#
# Elastic Constant Matrix: (Units=GPa)
#
#
# Indices 1 2 3 4 5 6 
#
# 1 122.5768 63.9644 27.0392 0.0000 -16.9823 0.0000
# 2 63.9644 139.5932 17.4313 0.0000 -9.7680 0.0000
# 3 27.0392 17.4313 49.2284 0.0000 -2.0842 0.0000
# 4 0.0000 0.0000 0.0000 21.6022 0.0000 -1.3252
# 5 -16.9823 -9.7680 -2.0842 0.0000 26.9156 0.0000
# 6 0.0000 0.0000 0.0000 -1.3252 0.0000 51.3333
#
#
#
# Elastic Compliance Matrix: (Units=1/GPa)
#
#
# Indices 1 2 3 4 5 6 
#
# 1 0.012513 -0.004708 -0.004960 0.000000 0.005802 0.000000
# 2 -0.004708 0.009441 -0.000740 0.000000 0.000398 0.000000
# 3 -0.004960 -0.000740 0.023232 0.000000 -0.001599 0.000000
# 4 0.000000 0.000000 0.000000 0.046365 0.000000 0.001197
# 5 0.005802 0.000398 -0.001599 0.000000 0.040835 0.000000
# 6 0.000000 0.000000 0.000000 0.001197 0.000000 0.019511
#
#
# Mechanical properties :
#
#
# Convention : Reuss Voigt Hill
#
# Bulk Modulus (GPa) = 41.03478 58.69646 49.86562
# Shear Modulus (GPa) = 27.64898 33.50113 30.57506
#
# Velocity S-wave (km/s) = 3.29698 3.62916 3.46705
# Velocity P-wave (km/s) = 5.53408 6.37474 5.96923
#
# Compressibility (1/GPa) = 0.02436957
#
# Stress axis : x y z
#
# Youngs Moduli (GPa) = 79.91594 105.91601 43.04363
#
# Poissons Ratio (x) = 0.49869 0.21350
# Poissons Ratio (y) = 0.37627 0.03186
# Poissons Ratio (z) = 0.39639 0.07839
#
# Static dielectric constant tensor:
#      x y z
#    x 2.043710 0.000000 -0.030400 
#    y 0.000000 2.085530 0.000000 
#    z -0.030400 0.000000 2.104260 
# 
# From -- ./inp_files/1676.got.cif
#   From: 2010.05.17/outbox.cif.g08.bks.cpg/sg4_1_cif.got.tgz:1676.got - 2010.06.03 18:43:04.
