data_PCOD9116943
_publ_section_title
;
Structure prediction by ZEFSAII (Michael W. Deem and Ramdas Pophale) SiO2 
 PCOD9116943
Probable space group: P 21
;
_chemical_formula_sum "Si O2"
_cell_formula_units_Z 16
_cell_length_a 9.439718
_cell_length_b 7.903041
_cell_length_c 17.591480
_cell_angle_alpha 90.000000
_cell_angle_beta 149.105548
_cell_angle_gamma 90.000000
_cell_volume 673.846065
_symmetry_space_group_name_H-M "P 21"
_symmetry_group_IT_number 4
_symmetry_cell_setting 'monoclinic'
loop_
_space_group_symop_operation_xyz
x,y,z
-x,1/2+y,-z
loop_
_atom_site_type_symbol
_atom_site_label
_atom_site_fract_x
_atom_site_fract_y
_atom_site_fract_z
Si Si1 0.941513 0.736210 0.226120
Si Si2 0.442017 0.750716 0.226404
Si Si3 0.563864 0.145309 0.447157
Si Si4 0.095730 0.324358 0.955431
Si Si5 0.021261 0.621029 0.741133
Si Si6 0.478317 0.365823 0.258719
Si Si7 0.063378 0.341435 0.446940
Si Si8 0.403663 0.662764 0.044336
O O1 0.910524 0.710056 0.122234
O O2 0.248839 0.712118 0.397330
O O3 0.716887 0.624696 0.165711
O O4 0.866116 0.930134 0.213172
O O5 0.366393 0.556862 0.213408
O O6 0.749494 0.774685 0.397579
O O7 0.217673 0.862334 0.166187
O O8 0.410658 0.776977 0.122365
O O9 0.266153 0.105695 0.345265
O O10 0.525155 0.279458 0.361252
O O11 0.750306 0.993424 0.500114
O O12 0.249678 0.493592 0.999911
O O13 0.263313 0.263827 0.106445
O O14 0.974758 0.707286 0.638719
O O15 0.235681 0.723311 0.893211
O O16 0.765503 0.380907 0.344882
#
# Coordination Sequence:
#
# PCOD9116943 Si02
#       8
#     2   2   2   2   2   2   2   2
#     4  11  23  43  67  94 130 171 213 265 324 384
#     4  11  23  43  67  94 130 171 213 265 324 384
#     4  12  24  42  66  97 133 171 217 269 318 382
#     4  10  22  42  65  95 129 168 215 267 322 386
#     4  11  24  43  65  96 130 172 217 265 324 384
#     4  11  24  43  65  96 130 172 217 265 324 384
#     4  12  24  42  66  97 133 171 217 269 318 382
#     4  10  22  42  65  95 129 168 215 267 322 386
#
# _framework density 23.744297
#
# number of rings (size 3 to 8) (size 9 to 14) (size 15 to 20)
#    0.000    1.000    0.000    8.250    0.000    4.000 
#    0.000    7.500    0.000    0.000    0.000    0.000 
#    0.000    0.000    0.000    0.000    0.000    0.000 
#
# Total GULP energy -89549.198262 kJ/mol
# GULP energy per Si atom -5596.824891 kJ/mol
# Density = 2.369025 g / cm^3
# Si number density = 23.744297 Si / 1000 Ang^3
#
#
#
# Elastic Constant Matrix: (Units=GPa)
#
#
# Indices 1 2 3 4 5 6 
#
# 1 75.0798 2.1503 36.3648 0.0000 15.2897 0.0000
# 2 2.1503 46.2966 9.2287 0.0000 -6.1468 0.0000
# 3 36.3648 9.2287 154.0597 0.0000 -13.9934 0.0000
# 4 0.0000 0.0000 0.0000 25.7704 0.0000 5.7871
# 5 15.2897 -6.1468 -13.9934 0.0000 38.2734 0.0000
# 6 0.0000 0.0000 0.0000 5.7871 0.0000 23.8381
#
#
#
# Elastic Compliance Matrix: (Units=1/GPa)
#
#
# Indices 1 2 3 4 5 6 
#
# 1 0.017544 -0.001029 -0.004894 0.000000 -0.008963 0.000000
# 2 -0.001029 0.022291 -0.000755 0.000000 0.003715 0.000000
# 3 -0.004894 -0.000755 0.008128 0.000000 0.004805 0.000000
# 4 0.000000 0.000000 0.000000 0.041042 0.000000 -0.009964
# 5 -0.008963 0.003715 0.004805 0.000000 0.032062 0.000000
# 6 0.000000 0.000000 0.000000 -0.009964 0.000000 0.044369
#
#
# Mechanical properties :
#
#
# Convention : Reuss Voigt Hill
#
# Bulk Modulus (GPa) = 28.89545 41.21373 35.05459
# Shear Modulus (GPa) = 26.27051 32.75586 29.51319
#
# Velocity S-wave (km/s) = 3.32986 3.71823 3.52939
# Velocity P-wave (km/s) = 5.19421 5.98570 5.60394
#
# Compressibility (1/GPa) = 0.03460752
#
# Stress axis : x y z
#
# Youngs Moduli (GPa) = 56.99888 44.86029 123.03448
#
# Poissons Ratio (x) = 0.04618 0.60209
# Poissons Ratio (y) = 0.05868 0.09288
# Poissons Ratio (z) = 0.27893 0.03386
#
# Static dielectric constant tensor:
#      x y z
#    x 1.869320 0.000000 -0.059030 
#    y 0.000000 1.992160 0.000000 
#    z -0.059030 0.000000 1.915840 
# 
# From -- ./inp_files/5496.got.cif
#   From: 2010.05.17/outbox.cif.g08.bks.cpg/sg4_3_cif.got.tgz:5496.got - 2010.06.03 18:43:04.
