data_PCOD9116508
_publ_section_title
;
Structure prediction by ZEFSAII (Michael W. Deem and Ramdas Pophale) SiO2 
 PCOD9116508
Probable space group: P 21
;
_chemical_formula_sum "Si O2"
_cell_formula_units_Z 16
_cell_length_a 11.786527
_cell_length_b 8.849077
_cell_length_c 11.106798
_cell_angle_alpha 90.000000
_cell_angle_beta 37.323850
_cell_angle_gamma 90.000000
_cell_volume 702.383368
_symmetry_space_group_name_H-M "P 21"
_symmetry_group_IT_number 4
_symmetry_cell_setting 'monoclinic'
loop_
_space_group_symop_operation_xyz
x,y,z
-x,1/2+y,-z
loop_
_atom_site_type_symbol
_atom_site_label
_atom_site_fract_x
_atom_site_fract_y
_atom_site_fract_z
Si Si1 0.183680 0.794660 0.585049
Si Si2 0.971570 0.062320 0.463529
Si Si3 0.125877 0.508763 0.061045
Si Si4 0.984054 0.750398 0.343432
Si Si5 0.529617 0.988046 0.865312
Si Si6 0.663273 0.071472 0.340687
Si Si7 0.574846 0.811291 0.589508
Si Si8 0.527097 0.830941 0.119691
O O1 0.042762 0.693616 0.623320
O O2 0.271074 0.682924 0.609609
O O3 0.349773 0.846905 0.357465
O O4 0.068274 0.927208 0.744095
O O5 0.754713 0.019665 0.675648
O O6 0.055212 0.907754 0.340486
O O7 0.486471 0.905807 0.025606
O O8 0.161834 0.524761 0.889380
O O9 0.294617 0.409818 0.971602
O O10 0.120723 0.667559 0.135689
O O11 0.791933 0.784726 0.436928
O O12 0.945682 0.634525 0.485855
O O13 0.439120 0.152612 0.928929
O O14 0.491510 0.887553 0.779795
O O15 0.525715 0.160210 0.367605
O O16 0.567951 0.929861 0.485599
#
# Coordination Sequence:
#
# PCOD9116508 Si02
#       8
#     2   2   2   2   2   2   2   2
#     4  11  26  52  74 108 155 198 245 319 368 444
#     4  10  21  45  75 107 156 192 242 314 389 435
#     4  12  29  45  74 114 144 204 255 297 380 448
#     4  11  23  46  74 114 149 190 248 316 373 444
#     4  10  23  46  73 112 149 195 253 306 382 450
#     4  12  27  52  75 107 153 202 261 302 372 455
#     4  11  27  50  78 109 149 204 253 316 371 445
#     4  11  24  50  73 113 153 193 251 310 379 445
#
# _framework density 22.779582999999999
#
# number of rings (size 3 to 8) (size 9 to 14) (size 15 to 20)
#    0.000    1.000    5.000    1.500    8.750    1.000 
#    9.000    0.000    0.000    0.000    0.000    0.000 
#    0.000    0.000    0.000    0.000    0.000    0.000 
#
# Total GULP energy -89670.430169 kJ/mol
# GULP energy per Si atom -5604.401886 kJ/mol
# Density = 2.272774 g / cm^3
# Si number density = 22.779583 Si / 1000 Ang^3
#
#
#
# Elastic Constant Matrix: (Units=GPa)
#
#
# Indices 1 2 3 4 5 6 
#
# 1 63.6971 9.4134 26.4179 0.0000 18.1129 0.0000
# 2 9.4134 75.7403 42.5309 0.0000 2.1561 0.0000
# 3 26.4179 42.5309 88.6029 0.0000 26.3702 0.0000
# 4 0.0000 0.0000 0.0000 45.5284 0.0000 3.3459
# 5 18.1129 2.1561 26.3702 0.0000 41.3763 0.0000
# 6 0.0000 0.0000 0.0000 3.3459 0.0000 52.9206
#
#
#
# Elastic Compliance Matrix: (Units=1/GPa)
#
#
# Indices 1 2 3 4 5 6 
#
# 1 0.018980 0.000021 -0.003944 0.000000 -0.005796 0.000000
# 2 0.000021 0.019218 -0.011021 0.000000 0.006013 0.000000
# 3 -0.003944 -0.011021 0.021063 0.000000 -0.011123 0.000000
# 4 0.000000 0.000000 0.000000 0.022067 0.000000 -0.001395
# 5 -0.005796 0.006013 -0.011123 0.000000 0.033481 0.000000
# 6 0.000000 0.000000 0.000000 -0.001395 0.000000 0.018984
#
#
# Mechanical properties :
#
#
# Convention : Reuss Voigt Hill
#
# Bulk Modulus (GPa) = 34.04504 42.75162 38.39833
# Shear Modulus (GPa) = 28.82300 37.94362 33.38331
#
# Velocity S-wave (km/s) = 3.56096 4.08571 3.83233
# Velocity P-wave (km/s) = 5.64669 6.40825 6.03949
#
# Compressibility (1/GPa) = 0.02937286
#
# Stress axis : x y z
#
# Youngs Moduli (GPa) = 52.68650 52.03512 47.47684
#
# Poissons Ratio (x) = -0.00108 0.18725
# Poissons Ratio (y) = -0.00109 0.52323
# Poissons Ratio (z) = 0.20780 0.57347
#
# Static dielectric constant tensor:
#      x y z
#    x 1.801710 0.000000 -0.009220 
#    y 0.000000 1.862600 0.000000 
#    z -0.009220 0.000000 1.859340 
# 
# From -- ./inp_files/15326.got.cif
#   From: 2010.05.17/outbox.cif.g08.bks.cpg/sg4_8_cif.got.tgz:15326.got - 2010.06.03 18:43:04.
