data_PCOD9116098
_publ_section_title
;
Structure prediction by ZEFSAII (Michael W. Deem and Ramdas Pophale) SiO2 
 PCOD9116098
Probable space group: P 21
;
_chemical_formula_sum "Si O2"
_cell_formula_units_Z 16
_cell_length_a 23.273252
_cell_length_b 7.276672
_cell_length_c 9.267198
_cell_angle_alpha 90.000000
_cell_angle_beta 150.483595
_cell_angle_gamma 90.000000
_cell_volume 773.208906
_symmetry_space_group_name_H-M "P 21"
_symmetry_group_IT_number 4
_symmetry_cell_setting 'monoclinic'
loop_
_space_group_symop_operation_xyz
x,y,z
-x,1/2+y,-z
loop_
_atom_site_type_symbol
_atom_site_label
_atom_site_fract_x
_atom_site_fract_y
_atom_site_fract_z
Si Si1 0.416350 0.022060 0.639131
Si Si2 0.260644 0.964091 0.546454
Si Si3 0.747292 0.230618 0.870141
Si Si4 0.877435 0.800404 0.715731
Si Si5 0.656690 0.919107 0.046529
Si Si6 0.411393 0.372324 0.415884
Si Si7 0.680033 0.346027 0.014824
Si Si8 0.107911 0.663189 0.075654
O O1 0.378193 0.028484 0.722692
O O2 0.409458 0.213880 0.534684
O O3 0.319907 0.888975 0.361720
O O4 0.538640 0.919880 0.881716
O O5 0.162109 0.112747 0.294121
O O6 0.213055 0.767269 0.390178
O O7 0.277167 0.956250 0.753768
O O8 0.764589 0.325128 0.063363
O O9 0.858334 0.174250 0.018320
O O10 0.661425 0.053272 0.697106
O O11 0.768164 0.856975 0.378257
O O12 0.899726 0.957785 0.880931
O O13 0.989463 0.763178 0.862431
O O14 0.639651 0.820702 0.853873
O O15 0.668367 0.134683 0.037471
O O16 0.548911 0.410384 0.687862
#
# Coordination Sequence:
#
# PCOD9116098 Si02
#       8
#     2   2   2   2   2   2   2   2
#     4  10  22  38  60  99 129 167 214 261 323 401
#     4  11  24  39  67  94 129 169 216 270 327 391
#     4  10  22  39  66  89 133 171 215 263 319 388
#     4  12  24  43  69  89 130 179 217 277 332 378
#     4  10  22  37  65  96 132 170 216 263 329 400
#     4  10  21  40  61  95 139 173 203 263 331 398
#     4  10  21  40  63  99 136 168 206 264 333 398
#     4  11  24  46  63  93 124 173 229 273 318 382
#
# _framework density 20.692983000000002
#
# number of rings (size 3 to 8) (size 9 to 14) (size 15 to 20)
#    0.000    1.500    3.750    0.750    3.500    3.000 
#    0.000    2.500    0.000    0.000    0.000    0.000 
#    0.000    0.000    0.000    0.000    0.000    0.000 
#
# Total GULP energy -89307.997447 kJ/mol
# GULP energy per Si atom -5581.749840 kJ/mol
# Density = 2.064589 g / cm^3
# Si number density = 20.692983 Si / 1000 Ang^3
#
#
#
# Elastic Constant Matrix: (Units=GPa)
#
#
# Indices 1 2 3 4 5 6 
#
# 1 177.4441 41.0118 26.8313 0.0000 10.6467 0.0000
# 2 41.0118 71.3197 3.7606 0.0000 -4.8390 0.0000
# 3 26.8313 3.7606 21.2168 0.0000 -4.0028 0.0000
# 4 0.0000 0.0000 0.0000 25.7385 0.0000 2.5663
# 5 10.6467 -4.8390 -4.0028 0.0000 22.0854 0.0000
# 6 0.0000 0.0000 0.0000 2.5663 0.0000 28.7596
#
#
#
# Elastic Compliance Matrix: (Units=1/GPa)
#
#
# Indices 1 2 3 4 5 6 
#
# 1 0.009104 -0.005122 -0.012058 0.000000 -0.007697 0.000000
# 2 -0.005122 0.017197 0.004769 0.000000 0.007101 0.000000
# 3 -0.012058 0.004769 0.065054 0.000000 0.018648 0.000000
# 4 0.000000 0.000000 0.000000 0.039201 0.000000 -0.003498
# 5 -0.007697 0.007101 0.018648 0.000000 0.053925 0.000000
# 6 0.000000 0.000000 0.000000 -0.003498 0.000000 0.035083
#
#
# Mechanical properties :
#
#
# Convention : Reuss Voigt Hill
#
# Bulk Modulus (GPa) = 15.02995 45.90979 30.46987
# Shear Modulus (GPa) = 18.75720 28.54184 23.64952
#
# Velocity S-wave (km/s) = 3.01400 3.71792 3.38431
# Velocity P-wave (km/s) = 4.40356 6.37691 5.47979
#
# Compressibility (1/GPa) = 0.06653381
#
# Stress axis : x y z
#
# Youngs Moduli (GPa) = 109.83641 58.14966 15.37181
#
# Poissons Ratio (x) = 0.29783 0.18535
# Poissons Ratio (y) = 0.56257 -0.07331
# Poissons Ratio (z) = 1.32440 -0.27731
#
# Static dielectric constant tensor:
#      x y z
#    x 1.823840 0.000000 -0.021850 
#    y 0.000000 1.766850 0.000000 
#    z -0.021850 0.000000 1.721770 
# 
# From -- ./inp_files/9943.got.cif
#   From: 2010.05.17/outbox.cif.g08.bks.cpg/sg4_5_cif.got.tgz:9943.got - 2010.06.03 18:43:04.
