data_PCOD9116312
_publ_section_title
;
Structure prediction by ZEFSAII (Michael W. Deem and Ramdas Pophale) SiO2 
 PCOD9116312
Probable space group: P 21
;
_chemical_formula_sum "Si O2"
_cell_formula_units_Z 16
_cell_length_a 13.427464
_cell_length_b 7.641883
_cell_length_c 9.103512
_cell_angle_alpha 90.000000
_cell_angle_beta 120.741812
_cell_angle_gamma 90.000000
_cell_volume 802.858219
_symmetry_space_group_name_H-M "P 21"
_symmetry_group_IT_number 4
_symmetry_cell_setting 'monoclinic'
loop_
_space_group_symop_operation_xyz
x,y,z
-x,1/2+y,-z
loop_
_atom_site_type_symbol
_atom_site_label
_atom_site_fract_x
_atom_site_fract_y
_atom_site_fract_z
Si Si1 0.294543 0.182050 0.732518
Si Si2 0.911762 0.551122 0.595661
Si Si3 0.135309 0.524747 0.229041
Si Si4 0.096366 0.901606 0.084698
Si Si5 0.310186 0.052356 0.076376
Si Si6 0.901120 0.927770 0.493691
Si Si7 0.620113 0.874565 0.668410
Si Si8 0.522338 0.237266 0.716038
O O1 0.220364 0.363075 0.667058
O O2 0.418023 0.207900 0.751483
O O3 0.214974 0.049719 0.575981
O O4 0.301346 0.112227 0.901921
O O5 0.007160 0.465921 0.562591
O O6 0.907263 0.481983 0.755325
O O7 0.942835 0.756129 0.613160
O O8 0.139251 0.703813 0.140188
O O9 0.112449 0.565954 0.384824
O O10 0.255095 0.420199 0.308211
O O11 0.030981 0.416341 0.078665
O O12 0.184691 0.007470 0.049003
O O13 0.364053 0.211878 0.210263
O O14 0.387298 0.878472 0.154000
O O15 0.532676 0.818425 0.473930
O O16 0.577436 0.049987 0.717277
#
# Coordination Sequence:
#
# PCOD9116312 Si02
#       8
#     2   2   2   2   2   2   2   2
#     4  10  26  44  67  98 148 183 234 288 349 433
#     4  10  22  41  66  99 139 183 227 284 354 416
#     4  12  24  43  69 107 141 185 239 293 360 422
#     4  12  25  42  71 107 145 182 237 299 355 425
#     4  12  26  47  73 104 145 186 238 298 352 432
#     4  10  21  42  65  97 142 180 229 281 354 418
#     4  12  25  46  74 104 140 190 244 298 351 420
#     4  12  25  49  71 106 140 191 244 291 359 416
#
# _framework density 19.928799999999999
#
# number of rings (size 3 to 8) (size 9 to 14) (size 15 to 20)
#    0.750    0.000    3.750    4.500    5.250    0.000 
#    0.000    1.250    0.000    0.000    0.000    0.000 
#    0.000    0.000    0.000    0.000    0.000    0.000 
#
# Total GULP energy -89394.132616 kJ/mol
# GULP energy per Si atom -5587.133289 kJ/mol
# Density = 1.988344 g / cm^3
# Si number density = 19.928800 Si / 1000 Ang^3
#
#
#
# Elastic Constant Matrix: (Units=GPa)
#
#
# Indices 1 2 3 4 5 6 
#
# 1 106.4278 18.4808 12.6920 0.0000 -5.8428 0.0000
# 2 18.4808 79.0189 11.8363 0.0000 -5.6033 0.0000
# 3 12.6920 11.8363 75.2322 0.0000 -15.1267 0.0000
# 4 0.0000 0.0000 0.0000 31.5333 0.0000 -3.3645
# 5 -5.8428 -5.6033 -15.1267 0.0000 33.1383 0.0000
# 6 0.0000 0.0000 0.0000 -3.3645 0.0000 40.1280
#
#
#
# Elastic Compliance Matrix: (Units=1/GPa)
#
#
# Indices 1 2 3 4 5 6 
#
# 1 0.009946 -0.002089 -0.001176 0.000000 0.000864 0.000000
# 2 -0.002089 0.013458 -0.001521 0.000000 0.001213 0.000000
# 3 -0.001176 -0.001521 0.015014 0.000000 0.006389 0.000000
# 4 0.000000 0.000000 0.000000 0.031999 0.000000 0.002683
# 5 0.000864 0.001213 0.006389 0.000000 0.033450 0.000000
# 6 0.000000 0.000000 0.000000 0.002683 0.000000 0.025145
#
#
# Mechanical properties :
#
#
# Convention : Reuss Voigt Hill
#
# Bulk Modulus (GPa) = 34.66525 38.52189 36.59357
# Shear Modulus (GPa) = 33.73826 35.47125 34.60475
#
# Velocity S-wave (km/s) = 4.11900 4.22346 4.17156
# Velocity P-wave (km/s) = 6.32881 6.56926 6.45016
#
# Compressibility (1/GPa) = 0.02884733
#
# Stress axis : x y z
#
# Youngs Moduli (GPa) = 100.53896 74.30759 66.60245
#
# Poissons Ratio (x) = 0.15522 0.07830
# Poissons Ratio (y) = 0.21001 0.10130
# Poissons Ratio (z) = 0.11820 0.11302
#
# Static dielectric constant tensor:
#      x y z
#    x 1.695390 0.000000 -0.001950 
#    y 0.000000 1.729070 0.000000 
#    z -0.001950 0.000000 1.685750 
# 
# From -- ./inp_files/8035.got.cif
#   From: 2010.05.17/outbox.cif.g08.bks.cpg/sg4_5_cif.got.tgz:8035.got - 2010.06.03 18:43:04.
