data_PCOD9116601
_publ_section_title
;
Structure prediction by ZEFSAII (Michael W. Deem and Ramdas Pophale) SiO2 
 PCOD9116601
Probable space group: P 21
;
_chemical_formula_sum "Si O2"
_cell_formula_units_Z 16
_cell_length_a 16.127098
_cell_length_b 5.143055
_cell_length_c 7.937550
_cell_angle_alpha 90.000000
_cell_angle_beta 63.591850
_cell_angle_gamma 90.000000
_cell_volume 589.659735
_symmetry_space_group_name_H-M "P 21"
_symmetry_group_IT_number 4
_symmetry_cell_setting 'monoclinic'
loop_
_space_group_symop_operation_xyz
x,y,z
-x,1/2+y,-z
loop_
_atom_site_type_symbol
_atom_site_label
_atom_site_fract_x
_atom_site_fract_y
_atom_site_fract_z
Si Si1 0.251579 0.379490 0.256335
Si Si2 0.854675 0.476706 0.064194
Si Si3 0.214201 0.593541 0.635831
Si Si4 0.689684 0.826029 0.146335
Si Si5 0.950298 0.696966 0.516580
Si Si6 0.415812 0.037916 0.232037
Si Si7 0.017675 0.273460 0.848549
Si Si8 0.508835 0.538213 0.219343
O O1 0.237679 0.584445 0.419132
O O2 0.149230 0.264518 0.325576
O O3 0.316668 0.160494 0.282143
O O4 0.303280 0.478468 0.039806
O O5 0.805086 0.376259 0.274499
O O6 0.777543 0.636814 0.044638
O O7 0.960334 0.586651 0.002096
O O8 0.902902 0.242120 0.923896
O O9 0.288639 0.478136 0.702252
O O10 0.119116 0.427825 0.750248
O O11 0.597384 0.655480 0.233550
O O12 0.954426 0.568669 0.329901
O O13 0.001684 0.474464 0.574499
O O14 0.472218 0.251620 0.290382
O O15 0.429568 0.757507 0.301211
O O16 0.461165 0.021589 0.004610
#
# Coordination Sequence:
#
# PCOD9116601 Si02
#       8
#     2   2   2   2   2   2   2   2
#     4  10  23  45  65  96 135 179 226 277 345 406
#     4  11  21  38  65  92 130 180 232 279 342 406
#     4  10  23  41  61  96 130 175 226 283 332 411
#     4  10  23  41  66  97 130 174 223 288 346 409
#     4  11  26  40  62  97 136 170 223 280 324 397
#     4   9  19  39  65  96 129 175 217 276 338 416
#     4  10  22  38  62  85 129 182 225 269 338 398
#     4   9  19  38  66  97 131 167 224 276 343 407
#
# _framework density 27.134294000000001
#
# number of rings (size 3 to 8) (size 9 to 14) (size 15 to 20)
#    0.000    2.000    1.250    0.750    7.000    1.000 
#    6.750    1.250    0.000    0.000    0.000    0.000 
#    0.000    0.000    0.000    0.000    0.000    0.000 
#
# Total GULP energy -89264.505570 kJ/mol
# GULP energy per Si atom -5579.031598 kJ/mol
# Density = 2.707254 g / cm^3
# Si number density = 27.134294 Si / 1000 Ang^3
#
#
#
# Elastic Constant Matrix: (Units=GPa)
#
#
# Indices 1 2 3 4 5 6 
#
# 1 119.8980 21.2106 -8.1392 0.0000 -13.0574 0.0000
# 2 21.2106 71.3121 11.4289 0.0000 -9.7048 0.0000
# 3 -8.1392 11.4289 76.7855 0.0000 7.0233 0.0000
# 4 0.0000 0.0000 0.0000 24.4079 0.0000 -8.2650
# 5 -13.0574 -9.7048 7.0233 0.0000 31.4835 0.0000
# 6 0.0000 0.0000 0.0000 -8.2650 0.0000 33.2075
#
#
#
# Elastic Compliance Matrix: (Units=1/GPa)
#
#
# Indices 1 2 3 4 5 6 
#
# 1 0.009163 -0.002522 0.001093 0.000000 0.002779 0.000000
# 2 -0.002522 0.015877 -0.003045 0.000000 0.004527 0.000000
# 3 0.001093 -0.003045 0.013921 0.000000 -0.003591 0.000000
# 4 0.000000 0.000000 0.000000 0.044741 0.000000 0.011136
# 5 0.002779 0.004527 -0.003591 0.000000 0.035112 0.000000
# 6 0.000000 0.000000 0.000000 0.011136 0.000000 0.032885
#
#
# Mechanical properties :
#
#
# Convention : Reuss Voigt Hill
#
# Bulk Modulus (GPa) = 33.31959 35.22180 34.27070
# Shear Modulus (GPa) = 29.29930 34.05280 31.67605
#
# Velocity S-wave (km/s) = 3.28958 3.54640 3.42040
# Velocity P-wave (km/s) = 5.17055 5.45692 5.31567
#
# Compressibility (1/GPa) = 0.03001237
#
# Stress axis : x y z
#
# Youngs Moduli (GPa) = 109.12878 62.98353 71.83541
#
# Poissons Ratio (x) = 0.15887 -0.07848
# Poissons Ratio (y) = 0.27527 0.21871
# Poissons Ratio (z) = -0.11923 0.19176
#
# Static dielectric constant tensor:
#      x y z
#    x 2.381150 0.000000 0.127580 
#    y 0.000000 2.669960 0.000000 
#    z 0.127580 0.000000 2.169100 
# 
# From -- ./inp_files/9038.got.cif
#   From: 2010.05.17/outbox.cif.g08.bks.cpg/sg4_5_cif.got.tgz:9038.got - 2010.06.03 18:43:04.
