data_PCOD9116264
_publ_section_title
;
Structure prediction by ZEFSAII (Michael W. Deem and Ramdas Pophale) SiO2 
 PCOD9116264
Probable space group: P 21
;
_chemical_formula_sum "Si O2"
_cell_formula_units_Z 16
_cell_length_a 21.821832
_cell_length_b 5.240015
_cell_length_c 18.646587
_cell_angle_alpha 90.000000
_cell_angle_beta 21.384013
_cell_angle_gamma 90.000000
_cell_volume 777.427648
_symmetry_space_group_name_H-M "P 21"
_symmetry_group_IT_number 4
_symmetry_cell_setting 'monoclinic'
loop_
_space_group_symop_operation_xyz
x,y,z
-x,1/2+y,-z
loop_
_atom_site_type_symbol
_atom_site_label
_atom_site_fract_x
_atom_site_fract_y
_atom_site_fract_z
Si Si1 0.570896 0.083080 0.383907
Si Si2 0.608643 0.113967 0.795708
Si Si3 0.612932 0.114167 0.961597
Si Si4 0.961465 0.108558 0.328094
Si Si5 0.739145 0.066008 0.441327
Si Si6 0.475779 0.067151 0.321116
Si Si7 0.112462 0.578717 0.877561
Si Si8 0.831177 0.108591 0.854099
O O1 0.498613 0.333438 0.500799
O O2 0.519033 0.077889 0.358251
O O3 0.769122 0.085874 0.182162
O O4 0.502974 0.369357 0.894910
O O5 0.782892 0.104369 0.563710
O O6 0.492369 0.869420 0.906325
O O7 0.644962 0.111746 0.841519
O O8 0.782154 0.105617 0.823580
O O9 0.909427 0.097223 0.301225
O O10 0.060863 0.364212 0.240175
O O11 0.070869 0.864082 0.230962
O O12 0.615915 0.300017 0.593886
O O13 0.777227 0.072736 0.315124
O O14 0.649990 0.800125 0.557676
O O15 0.649663 0.097012 0.089981
O O16 0.000500 0.328216 0.001112
#
# Coordination Sequence:
#
# PCOD9116264 Si02
#       8
#     2   2   2   2   2   2   2   2
#     4  12  23  44  65  93 118 159 214 253 309 370
#     4  10  21  41  68  94 125 169 206 254 298 373
#     4  10  21  41  68  94 124 167 216 243 301 369
#     4  12  26  41  62  95 132 162 204 258 317 360
#     4  12  25  45  64  89 123 170 208 248 314 373
#     4  12  24  44  67  87 122 167 211 257 298 375
#     4  12  26  41  65  93 125 159 198 262 320 370
#     4  12  26  41  63  97 127 165 205 261 309 358
#
# _framework density 20.580694000000001
#
# number of rings (size 3 to 8) (size 9 to 14) (size 15 to 20)
#    0.000    0.500    2.500    6.000    3.500    1.000 
#    0.000    0.000    0.000    0.000    0.000    0.000 
#    0.000    0.000    0.000    0.000    0.000    0.000 
#
# Total GULP energy -89605.604383 kJ/mol
# GULP energy per Si atom -5600.350274 kJ/mol
# Density = 2.053385 g / cm^3
# Si number density = 20.580694 Si / 1000 Ang^3
#
#
#
# Elastic Constant Matrix: (Units=GPa)
#
#
# Indices 1 2 3 4 5 6 
#
# 1 111.9537 3.6914 -9.3979 0.0000 -26.1255 0.0000
# 2 3.6914 124.6975 8.3599 0.0000 -11.9658 0.0000
# 3 -9.3979 8.3599 46.2456 0.0000 -1.9313 0.0000
# 4 0.0000 0.0000 0.0000 41.2672 0.0000 -20.3700
# 5 -26.1255 -11.9658 -1.9313 0.0000 40.6982 0.0000
# 6 0.0000 0.0000 0.0000 -20.3700 0.0000 20.3182
#
#
#
# Elastic Compliance Matrix: (Units=1/GPa)
#
#
# Indices 1 2 3 4 5 6 
#
# 1 0.010789 0.000197 0.002453 0.000000 0.007100 0.000000
# 2 0.000197 0.008346 -0.001364 0.000000 0.002516 0.000000
# 3 0.002453 -0.001364 0.022462 0.000000 0.002240 0.000000
# 4 0.000000 0.000000 0.000000 0.047972 0.000000 0.048094
# 5 0.007100 0.002516 0.002240 0.000000 0.029975 0.000000
# 6 0.000000 0.000000 0.000000 0.048094 0.000000 0.097434
#
#
# Mechanical properties :
#
#
# Convention : Reuss Voigt Hill
#
# Bulk Modulus (GPa) = 22.63908 32.02262 27.33085
# Shear Modulus (GPa) = 21.82191 39.13962 30.48077
#
# Velocity S-wave (km/s) = 3.25977 4.36565 3.85260
# Velocity P-wave (km/s) = 5.01918 6.40353 5.75315
#
# Compressibility (1/GPa) = 0.04417141
#
# Stress axis : x y z
#
# Youngs Moduli (GPa) = 92.69096 119.81197 44.51915
#
# Poissons Ratio (x) = -0.02366 -0.10922
# Poissons Ratio (y) = -0.01830 0.06071
# Poissons Ratio (z) = -0.22739 0.16337
#
# Static dielectric constant tensor:
#      x y z
#    x 1.756180 0.000000 0.014980 
#    y 0.000000 1.689650 0.000000 
#    z 0.014980 0.000000 1.700910 
# 
# From -- ./inp_files/15365.got.cif
#   From: 2010.05.17/outbox.cif.g08.bks.cpg/sg4_8_cif.got.tgz:15365.got - 2010.06.03 18:43:04.
