data_PCOD9116933
_publ_section_title
;
Structure prediction by ZEFSAII (Michael W. Deem and Ramdas Pophale) SiO2 
 PCOD9116933
Probable space group: P 21
;
_chemical_formula_sum "Si O2"
_cell_formula_units_Z 16
_cell_length_a 19.269258
_cell_length_b 8.276041
_cell_length_c 5.303024
_cell_angle_alpha 90.000000
_cell_angle_beta 55.668794
_cell_angle_gamma 90.000000
_cell_volume 698.363438
_symmetry_space_group_name_H-M "P 21"
_symmetry_group_IT_number 4
_symmetry_cell_setting 'monoclinic'
loop_
_space_group_symop_operation_xyz
x,y,z
-x,1/2+y,-z
loop_
_atom_site_type_symbol
_atom_site_label
_atom_site_fract_x
_atom_site_fract_y
_atom_site_fract_z
Si Si1 0.699249 0.209950 0.747302
Si Si2 0.205753 0.791303 0.967967
Si Si3 0.532860 0.059239 0.146619
Si Si4 0.589024 0.787571 0.345418
Si Si5 0.933312 0.778058 0.932045
Si Si6 0.248551 0.151085 0.771138
Si Si7 0.977103 0.152803 0.744535
Si Si8 0.611373 0.522361 0.892284
O O1 0.746365 0.243426 0.389034
O O2 0.646713 0.365362 0.956942
O O3 0.762386 0.189595 0.853134
O O4 0.624120 0.085996 0.840200
O O5 0.220379 0.985112 0.969551
O O6 0.108613 0.752288 0.121509
O O7 0.475477 0.212813 0.325187
O O8 0.462830 0.962225 0.136942
O O9 0.559088 0.964548 0.343014
O O10 0.686703 0.765695 0.212421
O O11 0.579453 0.667447 0.127670
O O12 0.969259 0.678357 0.619518
O O13 0.954403 0.965576 0.838740
O O14 0.833780 0.744927 0.146105
O O15 0.974964 0.719728 0.107488
O O16 0.308333 0.089009 0.424287
#
# Coordination Sequence:
#
# PCOD9116933 Si02
#       8
#     2   2   2   2   2   2   2   2
#     4  11  24  42  67  98 137 182 231 289 348 418
#     4  11  24  45  71 100 143 178 236 285 360 422
#     4  11  25  38  65  94 135 187 233 291 347 418
#     4  11  23  42  65  94 140 178 240 287 354 409
#     4  12  27  48  78 109 148 191 243 298 367 441
#     4  10  24  42  67 103 137 187 228 296 350 427
#     4  12  27  49  78 110 148 192 241 301 367 439
#     4  10  22  42  63  96 134 185 232 287 349 416
#
# _framework density 22.910705
#
# number of rings (size 3 to 8) (size 9 to 14) (size 15 to 20)
#    0.000    1.000    1.250    4.500    8.750    3.000 
#    0.000    0.000    0.000    0.000    0.000    0.000 
#    0.000    0.000    0.000    0.000    0.000    0.000 
#
# Total GULP energy -89397.344323 kJ/mol
# GULP energy per Si atom -5587.334020 kJ/mol
# Density = 2.285856 g / cm^3
# Si number density = 22.910705 Si / 1000 Ang^3
#
#
#
# Elastic Constant Matrix: (Units=GPa)
#
#
# Indices 1 2 3 4 5 6 
#
# 1 196.4798 30.7314 61.8330 0.0000 -30.5693 0.0000
# 2 30.7314 43.0626 10.7124 0.0000 -22.0643 0.0000
# 3 61.8330 10.7124 78.6382 0.0000 -14.8889 0.0000
# 4 0.0000 0.0000 0.0000 33.4208 0.0000 -4.2423
# 5 -30.5693 -22.0643 -14.8889 0.0000 39.7006 0.0000
# 6 0.0000 0.0000 0.0000 -4.2423 0.0000 26.8899
#
#
#
# Elastic Compliance Matrix: (Units=1/GPa)
#
#
# Indices 1 2 3 4 5 6 
#
# 1 0.007492 -0.002942 -0.005067 0.000000 0.002234 0.000000
# 2 -0.002942 0.033709 0.000903 0.000000 0.016808 0.000000
# 3 -0.005067 0.000903 0.017152 0.000000 0.003033 0.000000
# 4 0.000000 0.000000 0.000000 0.030533 0.000000 0.004817
# 5 0.002234 0.016808 0.003033 0.000000 0.037387 0.000000
# 6 0.000000 0.000000 0.000000 0.004817 0.000000 0.037949
#
#
# Mechanical properties :
#
#
# Convention : Reuss Voigt Hill
#
# Bulk Modulus (GPa) = 22.65443 58.30382 40.47912
# Shear Modulus (GPa) = 25.88716 34.32915 30.10815
#
# Velocity S-wave (km/s) = 3.36507 3.87510 3.62906
# Velocity P-wave (km/s) = 5.00079 6.74725 5.93857
#
# Compressibility (1/GPa) = 0.04414148
#
# Stress axis : x y z
#
# Youngs Moduli (GPa) = 133.47823 29.66602 58.30236
#
# Poissons Ratio (x) = 0.08726 0.29543
# Poissons Ratio (y) = 0.39264 -0.05267
# Poissons Ratio (z) = 0.67637 -0.02680
#
# Static dielectric constant tensor:
#      x y z
#    x 1.845650 0.000000 0.052670 
#    y 0.000000 1.930250 0.000000 
#    z 0.052670 0.000000 1.868430 
# 
# From -- ./inp_files/3502.got.cif
#   From: 2010.05.17/outbox.cif.g08.bks.cpg/sg4_2_cif.got.tgz:3502.got - 2010.06.03 18:43:04.
