data_PCOD9116637
_publ_section_title
;
Structure prediction by ZEFSAII (Michael W. Deem and Ramdas Pophale) SiO2 
 PCOD9116637
Probable space group: P 21
;
_chemical_formula_sum "Si O2"
_cell_formula_units_Z 14
_cell_length_a 12.578003
_cell_length_b 7.427185
_cell_length_c 10.223809
_cell_angle_alpha 90.000000
_cell_angle_beta 35.320268
_cell_angle_gamma 90.000000
_cell_volume 552.187292
_symmetry_space_group_name_H-M "P 21"
_symmetry_group_IT_number 4
_symmetry_cell_setting 'monoclinic'
loop_
_space_group_symop_operation_xyz
x,y,z
-x,1/2+y,-z
loop_
_atom_site_type_symbol
_atom_site_label
_atom_site_fract_x
_atom_site_fract_y
_atom_site_fract_z
Si Si1 0.801300 0.565130 0.226894
Si Si2 0.282112 0.749319 0.478784
Si Si3 0.870547 0.871121 0.446193
Si Si4 0.946126 0.828857 0.661701
Si Si5 0.149517 0.619079 0.028607
Si Si6 0.332804 0.089198 0.933244
Si Si7 0.544093 0.741342 0.666647
O O1 0.750987 0.386915 0.365688
O O2 0.750721 0.561070 0.127432
O O3 0.675674 0.729561 0.407076
O O4 0.016526 0.597235 0.037664
O O5 0.203095 0.542586 0.563263
O O6 0.499359 0.733201 0.237635
O O7 0.162195 0.810905 0.474064
O O8 0.897346 0.908690 0.571373
O O9 0.713792 0.712808 0.596115
O O10 0.052233 0.784028 0.202998
O O11 0.880178 0.952213 0.846732
O O12 0.825613 0.649940 0.809626
O O13 0.365991 0.635256 0.794964
O O14 0.442738 0.904627 0.842295
#
# Coordination Sequence:
#
# PCOD9116637 Si02
#       7
#     2   2   2   2   2   2   2
#     4  10  22  40  63  93 127 167 218 271 325 392
#     4  10  22  42  64  92 130 174 222 272 326 388
#     4  10  22  40  63  93 127 167 218 271 325 392
#     4  11  23  39  63  95 129 171 216 265 330 397
#     4  10  22  39  61  90 125 167 214 269 327 384
#     4  11  23  39  63  95 129 171 216 265 330 397
#     4  10  22  39  61  90 125 167 214 269 327 384
#
# _framework density 25.353714
#
# number of rings (size 3 to 8) (size 9 to 14) (size 15 to 20)
#    0.000    1.714    0.000    3.429    0.000    6.857 
#    0.000    2.857    0.000    0.000    0.000    0.000 
#    0.000    0.000    0.000    0.000    0.000    0.000 
#
# Total GULP energy -78068.015883 kJ/mol
# GULP energy per Si atom -5576.286849 kJ/mol
# Density = 2.529601 g / cm^3
# Si number density = 25.353714 Si / 1000 Ang^3
#
#
#
# Elastic Constant Matrix: (Units=GPa)
#
#
# Indices 1 2 3 4 5 6 
#
# 1 143.6856 -0.2814 77.3305 0.0000 -31.4535 0.0000
# 2 -0.2814 78.2459 20.9693 0.0000 -10.2896 0.0000
# 3 77.3305 20.9693 87.0868 0.0000 -30.8359 0.0000
# 4 0.0000 0.0000 0.0000 42.4049 0.0000 -5.4921
# 5 -31.4535 -10.2896 -30.8359 0.0000 42.8785 0.0000
# 6 0.0000 0.0000 0.0000 -5.4921 0.0000 36.2514
#
#
#
# Elastic Compliance Matrix: (Units=1/GPa)
#
#
# Indices 1 2 3 4 5 6 
#
# 1 0.014407 0.003806 -0.012939 0.000000 0.002177 0.000000
# 2 0.003806 0.014715 -0.006284 0.000000 0.001804 0.000000
# 3 -0.012939 -0.006284 0.027625 0.000000 0.008867 0.000000
# 4 0.000000 0.000000 0.000000 0.024054 0.000000 0.003644
# 5 0.002177 0.001804 0.008867 0.000000 0.031728 0.000000
# 6 0.000000 0.000000 0.000000 0.003644 0.000000 0.028137
#
#
# Mechanical properties :
#
#
# Convention : Reuss Voigt Hill
#
# Bulk Modulus (GPa) = 38.59027 56.11725 47.35376
# Shear Modulus (GPa) = 27.75657 38.37360 33.06509
#
# Velocity S-wave (km/s) = 3.31233 3.89463 3.61522
# Velocity P-wave (km/s) = 5.46649 6.51199 6.01201
#
# Compressibility (1/GPa) = 0.02591327
#
# Stress axis : x y z
#
# Youngs Moduli (GPa) = 69.41051 67.95739 36.19965
#
# Poissons Ratio (x) = -0.25861 0.46837
# Poissons Ratio (y) = -0.26414 0.22747
# Poissons Ratio (z) = 0.89807 0.42702
#
# Static dielectric constant tensor:
#      x y z
#    x 1.999950 0.000000 -0.038120 
#    y 0.000000 2.300340 0.000000 
#    z -0.038120 0.000000 1.955930 
# 
# From -- ./inp_files/7939.got.cif
#   From: 2010.05.17/outbox.cif.g08.bks.cpg/sg4_4_cif.got.tgz:7939.got - 2010.06.03 18:43:04.
