data_PCOD9116283
_publ_section_title
;
Structure prediction by ZEFSAII (Michael W. Deem and Ramdas Pophale) SiO2 
 PCOD9116283
Probable space group: P 21
;
_chemical_formula_sum "Si O2"
_cell_formula_units_Z 16
_cell_length_a 5.701910
_cell_length_b 13.054852
_cell_length_c 8.163110
_cell_angle_alpha 90.000000
_cell_angle_beta 87.579766
_cell_angle_gamma 90.000000
_cell_volume 607.100215
_symmetry_space_group_name_H-M "P 21"
_symmetry_group_IT_number 4
_symmetry_cell_setting 'monoclinic'
loop_
_space_group_symop_operation_xyz
x,y,z
-x,1/2+y,-z
loop_
_atom_site_type_symbol
_atom_site_label
_atom_site_fract_x
_atom_site_fract_y
_atom_site_fract_z
Si Si1 0.957080 0.086720 0.692656
Si Si2 0.663666 0.926488 0.721789
Si Si3 0.216600 0.876298 0.600530
Si Si4 0.165937 0.240440 0.448815
Si Si5 0.143460 0.386028 0.919690
Si Si6 0.085349 0.618324 0.928094
Si Si7 0.593266 0.624887 0.813746
Si Si8 0.351762 0.880742 0.213158
O O1 0.974554 0.100195 0.882598
O O2 0.066027 0.183770 0.606361
O O3 0.688793 0.046375 0.679388
O O4 0.079330 0.984531 0.618832
O O5 0.398008 0.892879 0.742671
O O6 0.734016 0.854872 0.564913
O O7 0.798339 0.899392 0.886746
O O8 0.297595 0.869476 0.408319
O O9 0.078428 0.770800 0.635238
O O10 0.368096 0.168773 0.369098
O O11 0.386319 0.338692 0.839542
O O12 0.883956 0.343109 0.878720
O O13 0.115899 0.503227 0.850656
O O14 0.349434 0.659687 0.898716
O O15 0.840250 0.666494 0.877153
O O16 0.615919 0.502419 0.824570
#
# Coordination Sequence:
#
# PCOD9116283 Si02
#       8
#     2   2   2   2   2   2   2   2
#     4  10  23  45  71  96 143 184 233 294 354 422
#     4  10  25  43  70 100 138 189 236 289 362 424
#     4  11  25  42  71 101 141 186 236 291 360 423
#     4  11  25  44  65 102 142 182 239 293 358 422
#     4   9  21  40  69  94 136 177 231 285 348 417
#     4   9  21  39  68 100 126 178 234 277 346 415
#     4  10  21  42  66  96 134 178 231 285 342 419
#     4  10  21  41  70  99 130 184 230 284 346 418
#
# _framework density 26.354790999999999
#
# number of rings (size 3 to 8) (size 9 to 14) (size 15 to 20)
#    0.000    2.000    1.250    0.000   15.750    2.000 
#    4.500    0.000    0.000    0.000    0.000    0.000 
#    0.000    0.000    0.000    0.000    0.000    0.000 
#
# Total GULP energy -89095.514649 kJ/mol
# GULP energy per Si atom -5568.469666 kJ/mol
# Density = 2.629481 g / cm^3
# Si number density = 26.354791 Si / 1000 Ang^3
#
#
#
# Elastic Constant Matrix: (Units=GPa)
#
#
# Indices 1 2 3 4 5 6 
#
# 1 173.7425 10.1524 56.3449 0.0000 6.8898 0.0000
# 2 10.1524 39.2950 11.9731 0.0000 -1.6707 0.0000
# 3 56.3449 11.9731 106.5458 0.0000 -16.6011 0.0000
# 4 0.0000 0.0000 0.0000 17.5469 0.0000 -10.7546
# 5 6.8898 -1.6707 -16.6011 0.0000 39.0456 0.0000
# 6 0.0000 0.0000 0.0000 -10.7546 0.0000 27.5650
#
#
#
# Elastic Compliance Matrix: (Units=1/GPa)
#
#
# Indices 1 2 3 4 5 6 
#
# 1 0.007308 -0.000720 -0.004272 0.000000 -0.003137 0.000000
# 2 -0.000720 0.026422 -0.002562 0.000000 0.000168 0.000000
# 3 -0.004272 -0.002562 0.012887 0.000000 0.006123 0.000000
# 4 0.000000 0.000000 0.000000 0.074901 0.000000 0.029223
# 5 -0.003137 0.000168 0.006123 0.000000 0.028775 0.000000
# 6 0.000000 0.000000 0.000000 0.029223 0.000000 0.047679
#
#
# Mechanical properties :
#
#
# Convention : Reuss Voigt Hill
#
# Bulk Modulus (GPa) = 31.73782 52.94710 42.34246
# Shear Modulus (GPa) = 22.36290 32.90569 27.63430
#
# Velocity S-wave (km/s) = 2.91612 3.53734 3.24164
# Velocity P-wave (km/s) = 4.83808 6.06774 5.48746
#
# Compressibility (1/GPa) = 0.03150815
#
# Stress axis : x y z
#
# Youngs Moduli (GPa) = 136.84331 37.84672 77.59702
#
# Poissons Ratio (x) = 0.02723 0.33153
# Poissons Ratio (y) = 0.09847 0.19884
# Poissons Ratio (z) = 0.58465 0.09698
#
# Static dielectric constant tensor:
#      x y z
#    x 2.483160 0.000000 0.009420 
#    y 0.000000 2.123030 0.000000 
#    z 0.009420 0.000000 2.192930 
# 
# From -- ./inp_files/4678.got.cif
#   From: 2010.05.17/outbox.cif.g08.bks.cpg/sg4_3_cif.got.tgz:4678.got - 2010.06.03 18:43:04.
