data_PCOD9116692
_publ_section_title
;
Structure prediction by ZEFSAII (Michael W. Deem and Ramdas Pophale) SiO2 
 PCOD9116692
Probable space group: P 21
;
_chemical_formula_sum "Si O2"
_cell_formula_units_Z 14
_cell_length_a 9.870089
_cell_length_b 7.577182
_cell_length_c 11.982549
_cell_angle_alpha 90.000000
_cell_angle_beta 144.854803
_cell_angle_gamma 90.000000
_cell_volume 515.865943
_symmetry_space_group_name_H-M "P 21"
_symmetry_group_IT_number 4
_symmetry_cell_setting 'monoclinic'
loop_
_space_group_symop_operation_xyz
x,y,z
-x,1/2+y,-z
loop_
_atom_site_type_symbol
_atom_site_label
_atom_site_fract_x
_atom_site_fract_y
_atom_site_fract_z
Si Si1 0.998578 0.575970 0.259821
Si Si2 0.479742 0.723312 0.924900
Si Si3 0.275082 0.047434 0.336242
Si Si4 0.247721 0.655115 0.223020
Si Si5 0.472091 0.681151 0.687800
Si Si6 0.028904 0.185398 0.377793
Si Si7 0.500438 0.782496 0.194402
O O1 0.041586 0.564128 0.154987
O O2 0.216170 0.688716 0.457465
O O3 0.743223 0.650421 0.109203
O O4 0.018199 0.388543 0.331965
O O5 0.457259 0.799769 0.034381
O O6 0.487228 0.807357 0.805306
O O7 0.222427 0.628064 0.743906
O O8 0.519070 0.063505 0.569232
O O9 0.324133 0.186993 0.268846
O O10 0.085697 0.084052 0.302647
O O11 0.241217 0.857741 0.260001
O O12 0.297530 0.676170 0.125559
O O13 0.491121 0.480389 0.748957
O O14 0.250436 0.186874 0.610824
#
# Coordination Sequence:
#
# PCOD9116692 Si02
#       7
#     2   2   2   2   2   2   2
#     4  10  22  40  61  88 123 159 199 251 304 357
#     4  12  22  36  58  86 120 164 204 240 292 358
#     4   9  18  37  64  89 117 155 199 249 302 356
#     4   9  18  37  64  89 117 155 199 249 302 356
#     4   9  20  39  59  85 121 156 197 250 303 356
#     4  10  22  40  61  88 123 159 199 251 304 357
#     4   9  20  39  59  85 121 156 197 250 303 356
#
# _framework density 27.138833999999999
#
# number of rings (size 3 to 8) (size 9 to 14) (size 15 to 20)
#    0.000    2.286    0.000    4.286    0.000    3.429 
#    0.000   17.143    0.000    0.000    0.000    0.000 
#    0.000    0.000    0.000    0.000    0.000    0.000 
#
# Total GULP energy -78246.363952 kJ/mol
# GULP energy per Si atom -5589.025997 kJ/mol
# Density = 2.707706 g / cm^3
# Si number density = 27.138834 Si / 1000 Ang^3
#
#
#
# Elastic Constant Matrix: (Units=GPa)
#
#
# Indices 1 2 3 4 5 6 
#
# 1 95.9825 337.4859 -59.6281 0.0000 133.5296 0.0000
# 2 337.4859-1133.2665 335.7522 0.0000 -554.5494 0.0000
# 3 -59.6281 335.7522 26.1724 0.0000 116.3484 0.0000
# 4 0.0000 0.0000 0.0000 33.3273 0.0000 16.9717
# 5 133.5296 -554.5494 116.3484 0.0000 -213.5433 0.0000
# 6 0.0000 0.0000 0.0000 16.9717 0.0000 35.9920
#
#
#
# Elastic Compliance Matrix: (Units=1/GPa)
#
#
# Indices 1 2 3 4 5 6 
#
# 1 0.005654 0.000273 -0.000931 0.000000 0.002320 0.000000
# 2 0.000273 0.003412 -0.001320 0.000000 -0.009409 0.000000
# 3 -0.000931 -0.001320 0.011797 0.000000 0.009274 0.000000
# 4 0.000000 0.000000 0.000000 0.039487 0.000000 -0.018620
# 5 0.002320 -0.009409 0.009274 0.000000 0.026255 0.000000
# 6 0.000000 0.000000 0.000000 -0.018620 0.000000 0.036564
#
#
# Mechanical properties :
#
#
# Convention : Reuss Voigt Hill
#
# Bulk Modulus (GPa) = 59.15015 24.01205 41.58110
# Shear Modulus (GPa) = 37.66174 -137.15957 -49.74891
#
# Velocity S-wave (km/s) = 3.72928 -7.11686 -4.28615
# Velocity P-wave (km/s) = 6.35501 7.65936 3.02322
#
# Compressibility (1/GPa) = 0.01690613
#
# Stress axis : x y z
#
# Youngs Moduli (GPa) = 176.87034 293.09311 84.76760
#
# Poissons Ratio (x) = -0.07998 0.07891
# Poissons Ratio (y) = -0.04827 0.11191
# Poissons Ratio (z) = 0.16465 0.38696
#
# Static dielectric constant tensor:
#      x y z
#    x 2.086990 0.000000 -0.006020 
#    y 0.000000 2.236740 0.000000 
#    z -0.006020 0.000000 2.079380 
# 
# From -- ./inp_files/10828.got.cif
#   From: 2010.05.17/outbox.cif.g08.bks.cpg/sg4_6_cif.got.tgz:10828.got - 2010.06.03 18:43:04.
