data_PCOD9116149
_publ_section_title
;
Structure prediction by ZEFSAII (Michael W. Deem and Ramdas Pophale) SiO2 
 PCOD9116149
Probable space group: P 21
;
_chemical_formula_sum "Si O2"
_cell_formula_units_Z 16
_cell_length_a 6.131335
_cell_length_b 9.073525
_cell_length_c 14.415166
_cell_angle_alpha 90.000000
_cell_angle_beta 54.805976
_cell_angle_gamma 90.000000
_cell_volume 655.362757
_symmetry_space_group_name_H-M "P 21"
_symmetry_group_IT_number 4
_symmetry_cell_setting 'monoclinic'
loop_
_space_group_symop_operation_xyz
x,y,z
-x,1/2+y,-z
loop_
_atom_site_type_symbol
_atom_site_label
_atom_site_fract_x
_atom_site_fract_y
_atom_site_fract_z
Si Si1 0.135532 0.065780 0.524288
Si Si2 0.154665 0.588179 0.585827
Si Si3 0.573250 0.835449 0.923150
Si Si4 0.304574 0.289166 0.907501
Si Si5 0.180699 0.809789 0.745392
Si Si6 0.768047 0.120193 0.098747
Si Si7 0.450150 0.535622 0.251303
Si Si8 0.441430 0.312029 0.547633
O O1 0.278877 0.222672 0.507474
O O2 0.076355 0.056435 0.430004
O O3 0.326593 0.935018 0.509987
O O4 0.862144 0.041971 0.648386
O O5 0.121263 0.718656 0.667267
O O6 0.215857 0.436192 0.625643
O O7 0.386419 0.667339 0.463223
O O8 0.466767 0.680116 0.909789
O O9 0.490462 0.952786 0.863386
O O10 0.890450 0.860518 0.849533
O O11 0.507829 0.823348 0.048667
O O12 0.205260 0.447716 0.901688
O O13 0.450109 0.200717 0.790801
O O14 0.045412 0.192097 0.997062
O O15 0.292166 0.686549 0.786850
O O16 0.383166 0.943979 0.712870
#
# Coordination Sequence:
#
# PCOD9116149 Si02
#       8
#     2   2   2   2   2   2   2   2
#     4  11  24  44  70 101 138 187 236 296 363 425
#     4  11  22  42  67  94 135 181 228 287 354 422
#     4  10  21  40  66  96 132 182 229 281 353 420
#     4  11  22  41  66  96 134 178 233 293 354 430
#     4  10  23  41  65  98 134 180 231 285 348 426
#     4  10  22  39  63  95 134 180 229 288 357 418
#     4  11  24  43  69 101 140 183 236 294 359 427
#     4  10  24  42  66  97 133 177 232 290 354 424
#
# _framework density 24.413959999999999
#
# number of rings (size 3 to 8) (size 9 to 14) (size 15 to 20)
#    0.000    1.500    0.000    5.250    0.000    9.000 
#    0.000    2.500    0.000    0.000    0.000    0.000 
#    0.000    0.000    0.000    0.000    0.000    0.000 
#
# Total GULP energy -89099.414198 kJ/mol
# GULP energy per Si atom -5568.713387 kJ/mol
# Density = 2.435839 g / cm^3
# Si number density = 24.413960 Si / 1000 Ang^3
#
#
#
# Elastic Constant Matrix: (Units=GPa)
#
#
# Indices 1 2 3 4 5 6 
#
# 1 62.5428 19.8319 9.9726 0.0000 -18.6392 0.0000
# 2 19.8319 131.4161 3.9061 0.0000 -6.0908 0.0000
# 3 9.9726 3.9061 50.2111 0.0000 -2.7348 0.0000
# 4 0.0000 0.0000 0.0000 33.8075 0.0000 -5.8274
# 5 -18.6392 -6.0908 -2.7348 0.0000 28.9378 0.0000
# 6 0.0000 0.0000 0.0000 -5.8274 0.0000 43.0839
#
#
#
# Elastic Compliance Matrix: (Units=1/GPa)
#
#
# Indices 1 2 3 4 5 6 
#
# 1 0.021110 -0.002496 -0.003304 0.000000 0.012760 0.000000
# 2 -0.002496 0.007993 -0.000123 0.000000 0.000063 0.000000
# 3 -0.003304 -0.000123 0.020570 0.000000 -0.000210 0.000000
# 4 0.000000 0.000000 0.000000 0.030285 0.000000 0.004096
# 5 0.012760 0.000063 -0.000210 0.000000 0.042769 0.000000
# 6 0.000000 0.000000 0.000000 0.004096 0.000000 0.023765
#
#
# Mechanical properties :
#
#
# Convention : Reuss Voigt Hill
#
# Bulk Modulus (GPa) = 26.43527 34.62125 30.52826
# Shear Modulus (GPa) = 29.24903 35.19645 32.22274
#
# Velocity S-wave (km/s) = 3.46503 3.80103 3.63691
# Velocity P-wave (km/s) = 5.18267 5.78580 5.49252
#
# Compressibility (1/GPa) = 0.03782825
#
# Stress axis : x y z
#
# Youngs Moduli (GPa) = 47.37088 125.11474 48.61409
#
# Poissons Ratio (x) = 0.31230 0.16060
# Poissons Ratio (y) = 0.11824 0.00596
# Poissons Ratio (z) = 0.15649 0.01534
#
# Static dielectric constant tensor:
#      x y z
#    x 1.947080 0.000000 0.004060 
#    y 0.000000 1.920220 0.000000 
#    z 0.004060 0.000000 2.116840 
# 
# From -- ./inp_files/13295.got.cif
#   From: 2010.05.17/outbox.cif.g08.bks.cpg/sg4_7_cif.got.tgz:13295.got - 2010.06.03 18:43:04.
