data_PCOD9116436
_publ_section_title
;
Structure prediction by ZEFSAII (Michael W. Deem and Ramdas Pophale) SiO2 
 PCOD9116436
Probable space group: P 21
;
_chemical_formula_sum "Si O2"
_cell_formula_units_Z 16
_cell_length_a 10.995077
_cell_length_b 9.469201
_cell_length_c 13.836856
_cell_angle_alpha 90.000000
_cell_angle_beta 28.577427
_cell_angle_gamma 90.000000
_cell_volume 689.114050
_symmetry_space_group_name_H-M "P 21"
_symmetry_group_IT_number 4
_symmetry_cell_setting 'monoclinic'
loop_
_space_group_symop_operation_xyz
x,y,z
-x,1/2+y,-z
loop_
_atom_site_type_symbol
_atom_site_label
_atom_site_fract_x
_atom_site_fract_y
_atom_site_fract_z
Si Si1 0.987361 0.639960 0.578772
Si Si2 0.554546 0.637719 0.654172
Si Si3 0.212579 0.579891 0.615632
Si Si4 0.929503 0.262263 0.122628
Si Si5 0.020418 0.289398 0.740905
Si Si6 0.000500 0.959300 0.621717
Si Si7 0.417873 0.607879 0.973500
Si Si8 0.801603 0.585134 0.211287
O O1 0.028239 0.570469 0.446518
O O2 0.182918 0.587156 0.521932
O O3 0.003856 0.808161 0.570210
O O4 0.702463 0.601740 0.814305
O O5 0.314345 0.686116 0.758859
O O6 0.761451 0.761540 0.491106
O O7 0.731972 0.499567 0.512569
O O8 0.461168 0.614795 0.828113
O O9 0.098919 0.717574 0.746387
O O10 0.053305 0.443937 0.760053
O O11 0.505276 0.561187 0.437550
O O12 0.924729 0.430349 0.113548
O O13 0.161081 0.184064 0.908448
O O14 0.084451 0.176706 0.780383
O O15 0.745608 0.249646 0.891634
O O16 0.766213 0.986247 0.857608
#
# Coordination Sequence:
#
# PCOD9116436 Si02
#       8
#     2   2   2   2   2   2   2   2
#     4  11  28  46  73 103 141 186 238 288 358 414
#     4  10  21  43  71  98 137 183 232 280 355 405
#     4  12  27  43  70 107 145 181 230 293 350 423
#     4  12  26  42  71 106 143 185 235 285 354 425
#     4  11  23  44  73  97 142 185 228 288 348 415
#     4  10  26  46  72 103 138 187 235 298 343 420
#     4  10  24  44  74  98 134 183 238 284 348 411
#     4  12  25  46  68 106 144 188 232 286 354 421
#
# _framework density 23.218216999999999
#
# number of rings (size 3 to 8) (size 9 to 14) (size 15 to 20)
#    0.000    1.000    3.750    0.750   10.500    4.000 
#    0.000    0.000    0.000    0.000    0.000    0.000 
#    0.000    0.000    0.000    0.000    0.000    0.000 
#
# Total GULP energy -89414.412663 kJ/mol
# GULP energy per Si atom -5588.400791 kJ/mol
# Density = 2.316537 g / cm^3
# Si number density = 23.218217 Si / 1000 Ang^3
#
#
#
# Elastic Constant Matrix: (Units=GPa)
#
#
# Indices 1 2 3 4 5 6 
#
# 1 63.0801 10.1448 -2.4698 0.0000 8.9603 0.0000
# 2 10.1448 134.2974 19.6564 0.0000 8.4895 0.0000
# 3 -2.4698 19.6564 70.4523 0.0000 17.8574 0.0000
# 4 0.0000 0.0000 0.0000 24.8111 0.0000 6.6094
# 5 8.9603 8.4895 17.8574 0.0000 23.2396 0.0000
# 6 0.0000 0.0000 0.0000 6.6094 0.0000 31.0219
#
#
#
# Elastic Compliance Matrix: (Units=1/GPa)
#
#
# Indices 1 2 3 4 5 6 
#
# 1 0.017408 -0.001228 0.003155 0.000000 -0.008687 0.000000
# 2 -0.001228 0.007890 -0.002029 0.000000 -0.000850 0.000000
# 3 0.003155 -0.002029 0.018617 0.000000 -0.014781 0.000000
# 4 0.000000 0.000000 0.000000 0.042730 0.000000 -0.009104
# 5 -0.008687 -0.000850 -0.014781 0.000000 0.058047 0.000000
# 6 0.000000 0.000000 0.000000 -0.009104 0.000000 0.034175
#
#
# Mechanical properties :
#
#
# Convention : Reuss Voigt Hill
#
# Bulk Modulus (GPa) = 22.87749 35.83252 29.35500
# Shear Modulus (GPa) = 25.82109 31.84775 28.83442
#
# Velocity S-wave (km/s) = 3.33844 3.70763 3.52787
# Velocity P-wave (km/s) = 4.97342 5.81335 5.40971
#
# Compressibility (1/GPa) = 0.04371110
#
# Stress axis : x y z
#
# Youngs Moduli (GPa) = 57.44541 126.74974 53.71424
#
# Poissons Ratio (x) = 0.15559 -0.16945
# Poissons Ratio (y) = 0.07052 0.10898
# Poissons Ratio (z) = -0.18122 0.25716
#
# Static dielectric constant tensor:
#      x y z
#    x 1.895110 0.000000 0.006570 
#    y 0.000000 1.877720 0.000000 
#    z 0.006570 0.000000 1.884780 
# 
# From -- ./inp_files/13945.got.cif
#   From: 2010.05.17/outbox.cif.g08.bks.cpg/sg4_7_cif.got.tgz:13945.got - 2010.06.03 18:43:04.
