data_PCOD9116501
_publ_section_title
;
Structure prediction by ZEFSAII (Michael W. Deem and Ramdas Pophale) SiO2 
 PCOD9116501
Probable space group: P 21
;
_chemical_formula_sum "Si O2"
_cell_formula_units_Z 16
_cell_length_a 5.202929
_cell_length_b 19.996536
_cell_length_c 6.659733
_cell_angle_alpha 90.000000
_cell_angle_beta 74.963228
_cell_angle_gamma 90.000000
_cell_volume 669.157707
_symmetry_space_group_name_H-M "P 21"
_symmetry_group_IT_number 4
_symmetry_cell_setting 'monoclinic'
loop_
_space_group_symop_operation_xyz
x,y,z
-x,1/2+y,-z
loop_
_atom_site_type_symbol
_atom_site_label
_atom_site_fract_x
_atom_site_fract_y
_atom_site_fract_z
Si Si1 0.518656 0.224570 0.709535
Si Si2 0.735178 0.792893 0.613908
Si Si3 0.048670 0.393513 0.170772
Si Si4 0.589828 0.074933 0.591294
Si Si5 0.227323 0.779775 0.987135
Si Si6 0.154982 0.042022 0.339375
Si Si7 0.591265 0.473893 0.063961
Si Si8 0.904371 0.679834 0.866617
O O1 0.377112 0.271135 0.575771
O O2 0.627829 0.155010 0.596647
O O3 0.728992 0.269362 0.787874
O O4 0.310767 0.199590 0.921096
O O5 0.920185 0.856873 0.619630
O O6 0.482539 0.805275 0.813374
O O7 0.869332 0.727233 0.681148
O O8 0.315822 0.435324 0.081770
O O9 0.005182 0.330738 0.027255
O O10 0.790635 0.438529 0.181611
O O11 0.378645 0.059659 0.458209
O O12 0.866157 0.036124 0.497479
O O13 0.481533 0.044713 0.820709
O O14 0.175470 0.705225 0.912372
O O15 0.112063 0.104973 0.199962
O O16 0.253580 0.982920 0.176248
#
# Coordination Sequence:
#
# PCOD9116501 Si02
#       8
#     2   2   2   2   2   2   2   2
#     4  11  23  41  74 114 150 184 245 309 380 446
#     4  10  21  45  69 106 145 188 241 308 364 433
#     4  11  24  49  77  99 148 202 252 299 368 439
#     4  12  27  46  75 117 145 192 250 303 381 446
#     4  10  23  42  72 108 142 196 241 303 375 433
#     4  12  26  47  74 109 150 189 244 307 369 445
#     4  12  26  51  76 103 152 202 246 309 361 443
#     4  10  22  39  69 108 148 183 233 300 382 429
#
# _framework density 23.910657
#
# number of rings (size 3 to 8) (size 9 to 14) (size 15 to 20)
#    0.000    1.000    3.750    2.250    3.500    3.000 
#    2.250    6.250    0.000    0.000    0.000    0.000 
#    0.000    0.000    0.000    0.000    0.000    0.000 
#
# Total GULP energy -89510.961964 kJ/mol
# GULP energy per Si atom -5594.435123 kJ/mol
# Density = 2.385624 g / cm^3
# Si number density = 23.910657 Si / 1000 Ang^3
#
#
#
# Elastic Constant Matrix: (Units=GPa)
#
#
# Indices 1 2 3 4 5 6 
#
# 1 131.0722 28.8165 37.6254 0.0000 16.3162 0.0000
# 2 28.8165 68.3755 21.1646 0.0000 4.7161 0.0000
# 3 37.6254 21.1646 95.6935 0.0000 20.3543 0.0000
# 4 0.0000 0.0000 0.0000 15.0157 0.0000 -6.2145
# 5 16.3162 4.7161 20.3543 0.0000 46.7249 0.0000
# 6 0.0000 0.0000 0.0000 -6.2145 0.0000 28.7243
#
#
#
# Elastic Compliance Matrix: (Units=1/GPa)
#
#
# Indices 1 2 3 4 5 6 
#
# 1 0.009252 -0.002971 -0.002598 0.000000 -0.001799 0.000000
# 2 -0.002971 0.016654 -0.002621 0.000000 0.000498 0.000000
# 3 -0.002598 -0.002621 0.013007 0.000000 -0.004494 0.000000
# 4 0.000000 0.000000 0.000000 0.073146 0.000000 0.015825
# 5 -0.001799 0.000498 -0.004494 0.000000 0.023938 0.000000
# 6 0.000000 0.000000 0.000000 0.015825 0.000000 0.038238
#
#
# Mechanical properties :
#
#
# Convention : Reuss Voigt Hill
#
# Bulk Modulus (GPa) = 44.37920 52.26158 48.32039
# Shear Modulus (GPa) = 25.23627 31.92862 28.58245
#
# Velocity S-wave (km/s) = 3.25228 3.65818 3.46119
# Velocity P-wave (km/s) = 5.71872 6.30456 6.01878
#
# Compressibility (1/GPa) = 0.02253308
#
# Stress axis : x y z
#
# Youngs Moduli (GPa) = 108.08059 60.04476 76.88002
#
# Poissons Ratio (x) = 0.17840 0.19974
# Poissons Ratio (y) = 0.32111 0.20152
# Poissons Ratio (z) = 0.28080 0.15739
#
# Static dielectric constant tensor:
#      x y z
#    x 1.955220 0.000000 -0.032390 
#    y 0.000000 1.929500 0.000000 
#    z -0.032390 0.000000 1.896560 
# 
# From -- ./inp_files/659.got.cif
#   From: 2010.05.17/outbox.cif.g08.bks.cpg/sg4_1_cif.got.tgz:659.got - 2010.06.03 18:43:04.
