data_PCOD9116551
_publ_section_title
;
Structure prediction by ZEFSAII (Michael W. Deem and Ramdas Pophale) SiO2 
 PCOD9116551
Probable space group: P 21
;
_chemical_formula_sum "Si O2"
_cell_formula_units_Z 16
_cell_length_a 6.634350
_cell_length_b 5.056117
_cell_length_c 22.722954
_cell_angle_alpha 90.000000
_cell_angle_beta 56.694714
_cell_angle_gamma 90.000000
_cell_volume 637.030394
_symmetry_space_group_name_H-M "P 21"
_symmetry_group_IT_number 4
_symmetry_cell_setting 'monoclinic'
loop_
_space_group_symop_operation_xyz
x,y,z
-x,1/2+y,-z
loop_
_atom_site_type_symbol
_atom_site_label
_atom_site_fract_x
_atom_site_fract_y
_atom_site_fract_z
Si Si1 0.574675 0.416560 0.277180
Si Si2 0.848015 0.901766 0.003731
Si Si3 0.205269 0.331825 0.694811
Si Si4 0.058994 0.183070 0.182397
Si Si5 0.064203 0.302296 0.527006
Si Si6 0.685743 0.165788 0.904616
Si Si7 0.055377 0.470892 0.345445
Si Si8 0.576008 0.205517 0.412463
O O1 0.645338 0.724789 0.273889
O O2 0.315378 0.352310 0.294817
O O3 0.551424 0.327889 0.350082
O O4 0.796179 0.294666 0.205770
O O5 0.590916 0.758758 0.059998
O O6 0.960684 0.153363 0.022429
O O7 0.770719 0.039270 0.953604
O O8 0.387787 0.403138 0.613107
O O9 0.024690 0.564160 0.741587
O O10 0.030057 0.110540 0.699635
O O11 0.244285 0.423646 0.149539
O O12 0.160025 0.931118 0.131520
O O13 0.019721 0.081803 0.483711
O O14 0.353119 0.292785 0.486497
O O15 0.931775 0.194348 0.605730
O O16 0.830569 0.288264 0.399054
#
# Coordination Sequence:
#
# PCOD9116551 Si02
#       8
#     2   2   2   2   2   2   2   2
#     4  10  21  48  67 100 143 192 236 306 369 443
#     4  12  26  50  82 122 166 212 261 312 383 458
#     4  10  23  44  71  99 146 188 243 304 372 438
#     4  11  23  46  79 107 150 202 252 300 372 447
#     4  12  27  45  70 101 132 180 242 306 380 468
#     4  12  25  50  83 116 163 210 248 323 374 429
#     4  11  25  42  73  98 141 188 238 311 386 441
#     4  10  24  41  67  97 137 178 238 300 382 440
#
# _framework density 25.116541999999999
#
# number of rings (size 3 to 8) (size 9 to 14) (size 15 to 20)
#    0.000    1.000    2.500    3.750    5.250    2.000 
#    2.250    6.250    0.000    0.000    0.000    0.000 
#    0.000    0.000    0.000    0.000    0.000    0.000 
#
# Total GULP energy -89339.897017 kJ/mol
# GULP energy per Si atom -5583.743564 kJ/mol
# Density = 2.505938 g / cm^3
# Si number density = 25.116542 Si / 1000 Ang^3
#
#
#
# Elastic Constant Matrix: (Units=GPa)
#
#
# Indices 1 2 3 4 5 6 
#
# 1 109.3776 41.4169 34.5236 0.0000 -41.8687 0.0000
# 2 41.4169 141.2371 46.3800 0.0000 -23.0164 0.0000
# 3 34.5236 46.3800 108.8637 0.0000 -37.1036 0.0000
# 4 0.0000 0.0000 0.0000 50.4326 0.0000 -2.1065
# 5 -41.8687 -23.0164 -37.1036 0.0000 44.2711 0.0000
# 6 0.0000 0.0000 0.0000 -2.1065 0.0000 35.6424
#
#
#
# Elastic Compliance Matrix: (Units=1/GPa)
#
#
# Indices 1 2 3 4 5 6 
#
# 1 0.015040 -0.002491 0.000977 0.000000 0.013748 0.000000
# 2 -0.002491 0.008757 -0.003069 0.000000 -0.000375 0.000000
# 3 0.000977 -0.003069 0.013935 0.000000 0.011008 0.000000
# 4 0.000000 0.000000 0.000000 0.019877 0.000000 0.001175
# 5 0.013748 -0.000375 0.011008 0.000000 0.044621 0.000000
# 6 0.000000 0.000000 0.000000 0.001175 0.000000 0.028126
#
#
# Mechanical properties :
#
#
# Convention : Reuss Voigt Hill
#
# Bulk Modulus (GPa) = 35.00469 67.12437 51.06453
# Shear Modulus (GPa) = 33.54717 41.87974 37.71346
#
# Velocity S-wave (km/s) = 3.65863 4.08783 3.87917
# Velocity P-wave (km/s) = 5.64045 7.00455 6.35918
#
# Compressibility (1/GPa) = 0.02856760
#
# Stress axis : x y z
#
# Youngs Moduli (GPa) = 66.48966 114.18907 71.76156
#
# Poissons Ratio (x) = 0.28443 -0.07013
# Poissons Ratio (y) = 0.16562 0.22022
# Poissons Ratio (z) = -0.06498 0.35042
#
# Static dielectric constant tensor:
#      x y z
#    x 2.025670 0.000000 0.032120 
#    y 0.000000 2.195250 0.000000 
#    z 0.032120 0.000000 2.016540 
# 
# From -- ./inp_files/16289.got.cif
#   From: 2010.05.17/outbox.cif.g08.bks.cpg/sg4_9_cif.got.tgz:16289.got - 2010.06.03 18:43:04.
