data_PCOD9116585
_publ_section_title
;
Structure prediction by ZEFSAII (Michael W. Deem and Ramdas Pophale) SiO2 
 PCOD9116585
Probable space group: P 21
;
_chemical_formula_sum "Si O2"
_cell_formula_units_Z 14
_cell_length_a 6.524320
_cell_length_b 12.388704
_cell_length_c 7.886601
_cell_angle_alpha 90.000000
_cell_angle_beta 117.676844
_cell_angle_gamma 90.000000
_cell_volume 564.520211
_symmetry_space_group_name_H-M "P 21"
_symmetry_group_IT_number 4
_symmetry_cell_setting 'monoclinic'
loop_
_space_group_symop_operation_xyz
x,y,z
-x,1/2+y,-z
loop_
_atom_site_type_symbol
_atom_site_label
_atom_site_fract_x
_atom_site_fract_y
_atom_site_fract_z
Si Si1 0.798259 0.890290 0.754558
Si Si2 0.654966 0.021312 0.181642
Si Si3 0.706449 0.652353 0.368335
Si Si4 0.280863 0.925056 0.824483
Si Si5 0.224655 0.621990 0.098690
Si Si6 0.723034 0.654701 0.776290
Si Si7 0.047140 0.358248 0.549852
O O1 0.686986 0.783256 0.785633
O O2 0.781170 0.883528 0.544542
O O3 0.077963 0.890672 0.877567
O O4 0.724861 0.004605 0.797883
O O5 0.709664 0.117027 0.073526
O O6 0.486619 0.076209 0.253300
O O7 0.892081 0.959648 0.312942
O O8 0.508261 0.931351 0.022599
O O9 0.743405 0.545873 0.267069
O O10 0.765593 0.639903 0.590408
O O11 0.874058 0.743263 0.355629
O O12 0.435391 0.689563 0.259039
O O13 0.205710 0.856472 0.630324
O O14 0.949535 0.635615 0.981831
#
# Coordination Sequence:
#
# PCOD9116585 Si02
#       7
#     2   2   2   2   2   2   2
#     4   9  21  42  59  85 129 156 201 256 305 351
#     4  11  22  38  66  89 123 161 205 250 309 357
#     4  10  22  37  64  88 120 164 203 245 317 353
#     4   9  20  41  57  91 125 154 201 263 289 364
#     4  11  23  39  61  92 123 158 203 261 294 371
#     4  11  22  41  63  90 121 168 203 252 305 368
#     4   9  20  38  62  87 121 161 204 249 299 372
#
# _framework density 24.799821999999999
#
# number of rings (size 3 to 8) (size 9 to 14) (size 15 to 20)
#    0.857    1.143    1.429    1.714    2.000    2.286 
#    2.571    0.000    3.143    0.000    0.000    0.000 
#    0.000    0.000    0.000    0.000    0.000    0.000 
#
# Total GULP energy -77966.825441 kJ/mol
# GULP energy per Si atom -5569.058960 kJ/mol
# Density = 2.474338 g / cm^3
# Si number density = 24.799822 Si / 1000 Ang^3
#
#
#
# Elastic Constant Matrix: (Units=GPa)
#
#
# Indices 1 2 3 4 5 6 
#
# 1 58.0048 16.5310 15.1866 0.0000 17.9081 0.0000
# 2 16.5310 64.6846 25.4334 0.0000 7.1037 0.0000
# 3 15.1866 25.4334 81.1356 0.0000 16.4034 0.0000
# 4 0.0000 0.0000 0.0000 30.1492 0.0000 -2.8126
# 5 17.9081 7.1037 16.4034 0.0000 30.1725 0.0000
# 6 0.0000 0.0000 0.0000 -2.8126 0.0000 29.0611
#
#
#
# Elastic Compliance Matrix: (Units=1/GPa)
#
#
# Indices 1 2 3 4 5 6 
#
# 1 0.022249 -0.004203 -0.000424 0.000000 -0.011985 0.000000
# 2 -0.004203 0.018472 -0.005200 0.000000 0.000973 0.000000
# 3 -0.000424 -0.005200 0.015432 0.000000 -0.006914 0.000000
# 4 0.000000 0.000000 0.000000 0.033471 0.000000 0.003239
# 5 -0.011985 0.000973 -0.006914 0.000000 0.043786 0.000000
# 6 0.000000 0.000000 0.000000 0.003239 0.000000 0.034724
#
#
# Mechanical properties :
#
#
# Convention : Reuss Voigt Hill
#
# Bulk Modulus (GPa) = 27.39828 35.34743 31.37285
# Shear Modulus (GPa) = 25.00573 27.65481 26.33027
#
# Velocity S-wave (km/s) = 3.17882 3.34297 3.26193
# Velocity P-wave (km/s) = 4.95429 5.40228 5.18313
#
# Compressibility (1/GPa) = 0.03649864
#
# Stress axis : x y z
#
# Youngs Moduli (GPa) = 44.94565 54.13707 64.79921
#
# Poissons Ratio (x) = 0.22755 0.02746
# Poissons Ratio (y) = 0.18891 0.33697
# Poissons Ratio (z) = 0.01905 0.28152
#
# Static dielectric constant tensor:
#      x y z
#    x 2.018660 0.000000 0.022140 
#    y 0.000000 1.999260 0.000000 
#    z 0.022140 0.000000 1.983860 
# 
# From -- ./inp_files/6310.got.cif
#   From: 2010.05.17/outbox.cif.g08.bks.cpg/sg4_4_cif.got.tgz:6310.got - 2010.06.03 18:43:04.
