data_PCOD9116439
_publ_section_title
;
Structure prediction by ZEFSAII (Michael W. Deem and Ramdas Pophale) SiO2 
 PCOD9116439
Probable space group: P 21
;
_chemical_formula_sum "Si O2"
_cell_formula_units_Z 16
_cell_length_a 9.358688
_cell_length_b 5.261442
_cell_length_c 22.040012
_cell_angle_alpha 90.000000
_cell_angle_beta 145.675912
_cell_angle_gamma 90.000000
_cell_volume 611.946022
_symmetry_space_group_name_H-M "P 21"
_symmetry_group_IT_number 4
_symmetry_cell_setting 'monoclinic'
loop_
_space_group_symop_operation_xyz
x,y,z
-x,1/2+y,-z
loop_
_atom_site_type_symbol
_atom_site_label
_atom_site_fract_x
_atom_site_fract_y
_atom_site_fract_z
Si Si1 0.350716 0.815030 0.963745
Si Si2 0.853212 0.849525 0.443203
Si Si3 0.073191 0.516957 0.963917
Si Si4 0.920445 0.145412 0.814512
Si Si5 0.124288 0.891923 0.323951
Si Si6 0.826986 0.633308 0.308314
Si Si7 0.354285 0.366332 0.181562
Si Si8 0.702970 0.797372 0.521218
O O1 0.250083 0.727279 0.994289
O O2 0.461517 0.556484 0.973708
O O3 0.090860 0.925755 0.843207
O O4 0.761253 0.812375 0.342211
O O5 0.704234 0.740929 0.449343
O O6 0.089489 0.649193 0.529985
O O7 0.087753 0.272918 0.926221
O O8 0.777223 0.594208 0.856775
O O9 0.170573 0.481900 0.065355
O O10 0.877627 0.361873 0.749422
O O11 0.693260 0.010376 0.771441
O O12 0.410324 0.783958 0.435918
O O13 0.149029 0.137186 0.375639
O O14 0.861890 0.765721 0.256070
O O15 0.630053 0.406096 0.249843
O O16 0.117534 0.544163 0.417825
#
# Coordination Sequence:
#
# PCOD9116439 Si02
#       8
#     2   2   2   2   2   2   2   2
#     4  11  24  46  75 115 156 205 257 322 390 464
#     4  10  21  43  72 104 145 188 244 301 370 437
#     4  11  24  48  76 109 157 204 256 330 394 455
#     4  11  26  47  75 110 154 206 257 323 390 468
#     4  12  25  47  72 110 151 197 253 318 398 458
#     4  11  25  44  73 107 141 200 255 313 374 476
#     4  11  25  48  73 108 150 200 264 314 392 460
#     4  11  24  47  70 105 154 194 246 319 388 462
#
# _framework density 26.146097999999999
#
# number of rings (size 3 to 8) (size 9 to 14) (size 15 to 20)
#    0.000    1.000    5.000    0.750    1.750    3.000 
#   13.500    0.000    0.000    0.000    0.000    0.000 
#    0.000    0.000    0.000    0.000    0.000    0.000 
#
# Total GULP energy -89148.284938 kJ/mol
# GULP energy per Si atom -5571.767809 kJ/mol
# Density = 2.608659 g / cm^3
# Si number density = 26.146098 Si / 1000 Ang^3
#
#
#
# Elastic Constant Matrix: (Units=GPa)
#
#
# Indices 1 2 3 4 5 6 
#
# 1 143.9452 24.5518 32.6824 0.0000 13.6577 0.0000
# 2 24.5518 83.3360 17.8673 0.0000 5.9153 0.0000
# 3 32.6824 17.8673 55.6648 0.0000 -1.3347 0.0000
# 4 0.0000 0.0000 0.0000 27.9910 0.0000 1.7825
# 5 13.6577 5.9153 -1.3347 0.0000 54.9403 0.0000
# 6 0.0000 0.0000 0.0000 1.7825 0.0000 38.2148
#
#
#
# Elastic Compliance Matrix: (Units=1/GPa)
#
#
# Indices 1 2 3 4 5 6 
#
# 1 0.008406 -0.001355 -0.004550 0.000000 -0.002054 0.000000
# 2 -0.001355 0.013228 -0.003478 0.000000 -0.001172 0.000000
# 3 -0.004550 -0.003478 0.021801 0.000000 0.002035 0.000000
# 4 0.000000 0.000000 0.000000 0.035832 0.000000 -0.001671
# 5 -0.002054 -0.001172 0.002035 0.000000 0.018888 0.000000
# 6 0.000000 0.000000 0.000000 -0.001671 0.000000 0.026246
#
#
# Mechanical properties :
#
#
# Convention : Reuss Voigt Hill
#
# Bulk Modulus (GPa) = 40.53728 48.12768 44.33248
# Shear Modulus (GPa) = 33.02718 38.08553 35.55635
#
# Velocity S-wave (km/s) = 3.55798 3.82074 3.69170
# Velocity P-wave (km/s) = 5.69357 6.15721 5.92992
#
# Compressibility (1/GPa) = 0.02466865
#
# Stress axis : x y z
#
# Youngs Moduli (GPa) = 118.96024 75.59834 45.86906
#
# Poissons Ratio (x) = 0.10246 0.20869
# Poissons Ratio (y) = 0.16122 0.15954
# Poissons Ratio (z) = 0.54124 0.26295
#
# Static dielectric constant tensor:
#      x y z
#    x 2.105710 0.000000 -0.021000 
#    y 0.000000 2.186910 0.000000 
#    z -0.021000 0.000000 2.146950 
# 
# From -- ./inp_files/15600.got.cif
#   From: 2010.05.17/outbox.cif.g08.bks.cpg/sg4_8_cif.got.tgz:15600.got - 2010.06.03 18:43:04.
