data_PCOD9116050
_publ_section_title
;
Structure prediction by ZEFSAII (Michael W. Deem and Ramdas Pophale) SiO2 
 PCOD9116050
Probable space group: P 21
;
_chemical_formula_sum "Si O2"
_cell_formula_units_Z 16
_cell_length_a 5.352036
_cell_length_b 10.284352
_cell_length_c 10.807308
_cell_angle_alpha 90.000000
_cell_angle_beta 85.538902
_cell_angle_gamma 90.000000
_cell_volume 593.056050
_symmetry_space_group_name_H-M "P 21"
_symmetry_group_IT_number 4
_symmetry_cell_setting 'monoclinic'
loop_
_space_group_symop_operation_xyz
x,y,z
-x,1/2+y,-z
loop_
_atom_site_type_symbol
_atom_site_label
_atom_site_fract_x
_atom_site_fract_y
_atom_site_fract_z
Si Si1 0.898779 0.524870 0.479093
Si Si2 0.612090 0.758510 0.622955
Si Si3 0.160534 0.175203 0.162683
Si Si4 0.307886 0.123635 0.763388
Si Si5 0.978058 0.827219 0.058420
Si Si6 0.574122 0.343662 0.615304
Si Si7 0.478753 0.989244 0.009085
Si Si8 0.238146 0.569733 0.668379
O O1 0.713293 0.628539 0.551618
O O2 0.835497 0.540613 0.337682
O O3 0.843617 0.388638 0.553457
O O4 0.158516 0.571231 0.527336
O O5 0.780960 0.782214 0.734354
O O6 0.571769 0.849589 0.510764
O O7 0.348550 0.712066 0.686060
O O8 0.411858 0.117029 0.092615
O O9 0.007687 0.062487 0.238742
O O10 0.250779 0.892257 0.056148
O O11 0.118132 0.232812 0.827535
O O12 0.523903 0.210864 0.688531
O O13 0.423489 0.036321 0.869373
O O14 0.748939 0.924931 0.025836
O O15 0.996660 0.730172 0.942067
O O16 0.430120 0.456640 0.694892
#
# Coordination Sequence:
#
# PCOD9116050 Si02
#       8
#     2   2   2   2   2   2   2   2
#     4   9  21  40  61 101 132 182 226 284 346 426
#     4   9  21  38  62  96 133 175 223 281 345 419
#     4  10  24  41  71  96 134 181 231 291 344 419
#     4  10  24  45  67 104 145 181 240 298 346 430
#     4  11  27  47  72 104 139 191 236 291 359 404
#     4  10  21  40  65  97 138 177 226 281 359 406
#     4  11  27  48  70 106 138 186 245 286 351 420
#     4  10  21  39  66  94 139 177 233 282 350 420
#
# _framework density 26.978901
#
# number of rings (size 3 to 8) (size 9 to 14) (size 15 to 20)
#    0.000    2.000    0.000    0.750   10.500    7.000 
#   13.500    0.000    0.000    0.000    0.000    0.000 
#    0.000    0.000    0.000    0.000    0.000    0.000 
#
# Total GULP energy -89385.214808 kJ/mol
# GULP energy per Si atom -5586.575926 kJ/mol
# Density = 2.691750 g / cm^3
# Si number density = 26.978901 Si / 1000 Ang^3
#
#
#
# Elastic Constant Matrix: (Units=GPa)
#
#
# Indices 1 2 3 4 5 6 
#
# 1 107.6159 29.1152 23.5985 0.0000 7.9238 0.0000
# 2 29.1152 62.7761 24.8722 0.0000 -6.9543 0.0000
# 3 23.5985 24.8722 154.7519 0.0000 1.1290 0.0000
# 4 0.0000 0.0000 0.0000 47.9898 0.0000 -1.6853
# 5 7.9238 -6.9543 1.1290 0.0000 32.3921 0.0000
# 6 0.0000 0.0000 0.0000 -1.6853 0.0000 39.3565
#
#
#
# Elastic Compliance Matrix: (Units=1/GPa)
#
#
# Indices 1 2 3 4 5 6 
#
# 1 0.011187 -0.005286 -0.000828 0.000000 -0.003843 0.000000
# 2 -0.005286 0.019978 -0.002446 0.000000 0.005667 0.000000
# 3 -0.000828 -0.002446 0.006986 0.000000 -0.000566 0.000000
# 4 0.000000 0.000000 0.000000 0.020869 0.000000 0.000894
# 5 -0.003843 0.005667 -0.000566 0.000000 0.033048 0.000000
# 6 0.000000 0.000000 0.000000 0.000894 0.000000 0.025447
#
#
# Mechanical properties :
#
#
# Convention : Reuss Voigt Hill
#
# Bulk Modulus (GPa) = 47.55160 53.36840 50.46000
# Shear Modulus (GPa) = 35.29924 40.45156 37.87540
#
# Velocity S-wave (km/s) = 3.62111 3.87638 3.75092
# Velocity P-wave (km/s) = 5.92849 6.31344 6.12399
#
# Compressibility (1/GPa) = 0.02102979
#
# Stress axis : x y z
#
# Youngs Moduli (GPa) = 89.38976 50.05433 143.15221
#
# Poissons Ratio (x) = 0.26458 0.11858
# Poissons Ratio (y) = 0.47251 0.35019
# Poissons Ratio (z) = 0.07404 0.12245
#
# Static dielectric constant tensor:
#      x y z
#    x 2.188890 0.000000 -0.024590 
#    y 0.000000 2.221570 0.000000 
#    z -0.024590 0.000000 2.122220 
# 
# From -- ./inp_files/10529.got.cif
#   From: 2010.05.17/outbox.cif.g08.bks.cpg/sg4_6_cif.got.tgz:10529.got - 2010.06.03 18:43:04.
