data_PCOD9116219
_publ_section_title
;
Structure prediction by ZEFSAII (Michael W. Deem and Ramdas Pophale) SiO2 
 PCOD9116219
Probable space group: P 21
;
_chemical_formula_sum "Si O2"
_cell_formula_units_Z 14
_cell_length_a 8.301151
_cell_length_b 12.342361
_cell_length_c 6.098447
_cell_angle_alpha 90.000000
_cell_angle_beta 88.517395
_cell_angle_gamma 90.000000
_cell_volume 624.612107
_symmetry_space_group_name_H-M "P 21"
_symmetry_group_IT_number 4
_symmetry_cell_setting 'monoclinic'
loop_
_space_group_symop_operation_xyz
x,y,z
-x,1/2+y,-z
loop_
_atom_site_type_symbol
_atom_site_label
_atom_site_fract_x
_atom_site_fract_y
_atom_site_fract_z
Si Si1 0.868529 0.775520 0.337670
Si Si2 0.121301 0.935436 0.130755
Si Si3 0.274681 0.741477 0.849263
Si Si4 0.574458 0.771959 0.071761
Si Si5 0.315259 0.419544 0.310755
Si Si6 0.369277 0.884664 0.452635
Si Si7 0.931294 0.093657 0.845597
O O1 0.780765 0.824200 0.554390
O O2 0.959640 0.878482 0.227587
O O3 0.000854 0.681197 0.329625
O O4 0.732677 0.727360 0.180241
O O5 0.237588 0.958949 0.334360
O O6 0.217621 0.844705 0.992878
O O7 0.070181 0.024029 0.956857
O O8 0.455358 0.706577 0.916565
O O9 0.284085 0.794786 0.610040
O O10 0.155037 0.650551 0.941681
O O11 0.634818 0.872072 0.924615
O O12 0.465789 0.814916 0.271892
O O13 0.485540 0.444531 0.423912
O O14 0.196192 0.518622 0.275986
#
# Coordination Sequence:
#
# PCOD9116219 Si02
#       7
#     2   2   2   2   2   2   2
#     4  10  22  41  66  98 140 172 223 281 341 387
#     4  10  21  41  65 100 135 167 225 280 334 392
#     4   9  21  42  68  91 139 177 222 277 334 402
#     4   9  18  43  64  91 132 177 215 286 326 389
#     4  10  21  43  71  95 140 181 222 278 337 402
#     4   9  20  41  71  88 133 181 215 278 343 388
#     4  11  23  43  71 101 133 183 228 274 339 404
#
# _framework density 22.413910999999999
#
# number of rings (size 3 to 8) (size 9 to 14) (size 15 to 20)
#    0.000    2.286    1.429    0.000    2.000    0.000 
#   18.000    0.000   12.571    0.000    0.000    0.000 
#    0.000    0.000    0.000    0.000    0.000    0.000 
#
# Total GULP energy -78062.636671 kJ/mol
# GULP energy per Si atom -5575.902619 kJ/mol
# Density = 2.236290 g / cm^3
# Si number density = 22.413911 Si / 1000 Ang^3
#
#
#
# Elastic Constant Matrix: (Units=GPa)
#
#
# Indices 1 2 3 4 5 6 
#
# 1 115.5495 32.0797 29.3141 0.0000 20.8240 0.0000
# 2 32.0797 54.6505 13.2720 0.0000 13.6070 0.0000
# 3 29.3141 13.2720 72.5575 0.0000 4.1169 0.0000
# 4 0.0000 0.0000 0.0000 16.0868 0.0000 5.4351
# 5 20.8240 13.6070 4.1169 0.0000 37.9178 0.0000
# 6 0.0000 0.0000 0.0000 5.4351 0.0000 18.7025
#
#
#
# Elastic Compliance Matrix: (Units=1/GPa)
#
#
# Indices 1 2 3 4 5 6 
#
# 1 0.011703 -0.004937 -0.003583 0.000000 -0.004266 0.000000
# 2 -0.004937 0.022987 -0.001908 0.000000 -0.005330 0.000000
# 3 -0.003583 -0.001908 0.015524 0.000000 0.000967 0.000000
# 4 0.000000 0.000000 0.000000 0.068931 0.000000 -0.020032
# 5 -0.004266 -0.005330 0.000967 0.000000 0.030524 0.000000
# 6 0.000000 0.000000 0.000000 -0.020032 0.000000 0.059290
#
#
# Mechanical properties :
#
#
# Convention : Reuss Voigt Hill
#
# Bulk Modulus (GPa) = 34.06229 43.56545 38.81387
# Shear Modulus (GPa) = 20.86820 25.74754 23.30787
#
# Velocity S-wave (km/s) = 3.05460 3.39297 3.22822
# Velocity P-wave (km/s) = 5.26030 5.90158 5.59014
#
# Compressibility (1/GPa) = 0.02935798
#
# Stress axis : x y z
#
# Youngs Moduli (GPa) = 85.44952 43.50357 64.41734
#
# Poissons Ratio (x) = 0.21479 0.23080
# Poissons Ratio (y) = 0.42188 0.12288
# Poissons Ratio (z) = 0.30616 0.08298
#
# Static dielectric constant tensor:
#      x y z
#    x 1.929670 0.000000 0.047520 
#    y 0.000000 1.800660 0.000000 
#    z 0.047520 0.000000 1.846160 
# 
# From -- ./inp_files/1223.got.cif
#   From: 2010.05.17/outbox.cif.g08.bks.cpg/sg4_1_cif.got.tgz:1223.got - 2010.06.03 18:43:04.
