data_PCOD9116069
_publ_section_title
;
Structure prediction by ZEFSAII (Michael W. Deem and Ramdas Pophale) SiO2 
 PCOD9116069
Probable space group: P 21
;
_chemical_formula_sum "Si O2"
_cell_formula_units_Z 16
_cell_length_a 12.752848
_cell_length_b 9.424893
_cell_length_c 15.979337
_cell_angle_alpha 90.000000
_cell_angle_beta 156.808429
_cell_angle_gamma 90.000000
_cell_volume 756.354604
_symmetry_space_group_name_H-M "P 21"
_symmetry_group_IT_number 4
_symmetry_cell_setting 'monoclinic'
loop_
_space_group_symop_operation_xyz
x,y,z
-x,1/2+y,-z
loop_
_atom_site_type_symbol
_atom_site_label
_atom_site_fract_x
_atom_site_fract_y
_atom_site_fract_z
Si Si1 0.315793 0.983580 0.595196
Si Si2 0.720487 0.383624 0.622729
Si Si3 0.700512 0.184100 0.357431
Si Si4 0.105302 0.399549 0.173068
Si Si5 0.899821 0.087732 0.998776
Si Si6 0.260384 0.218337 0.839020
Si Si7 0.247601 0.546315 0.783920
Si Si8 0.142210 0.147573 0.939618
O O1 0.290340 0.906789 0.485644
O O2 0.297621 0.855963 0.649206
O O3 0.055079 0.080385 0.411918
O O4 0.598650 0.059531 0.808771
O O5 0.412796 0.376819 0.422944
O O6 0.884316 0.512575 0.783156
O O7 0.889175 0.245787 0.773980
O O8 0.721088 0.091642 0.289125
O O9 0.977240 0.152933 0.606072
O O10 0.415965 0.155100 0.193992
O O11 0.971186 0.252583 0.049097
O O12 0.951237 0.485888 0.131873
O O13 0.087727 0.507582 0.081335
O O14 0.281222 0.379222 0.823489
O O15 0.243388 0.213342 0.926830
O O16 0.516007 0.130239 0.996836
#
# Coordination Sequence:
#
# PCOD9116069 Si02
#       8
#     2   2   2   2   2   2   2   2
#     4  10  22  43  66  98 130 175 217 264 337 381
#     4  11  21  41  72  92 130 178 216 270 328 383
#     4  10  21  39  69  94 126 176 213 267 329 387
#     4  11  26  41  67 103 129 174 222 267 329 386
#     4  11  24  44  68  96 136 170 219 275 318 398
#     4  10  23  44  67  97 132 172 217 273 323 395
#     4  10  22  42  68  98 125 173 222 263 335 387
#     4  11  21  42  67  98 132 174 218 263 335 383
#
# _framework density 21.154098000000001
#
# number of rings (size 3 to 8) (size 9 to 14) (size 15 to 20)
#    0.000    1.500    3.750    1.500    1.750    7.000 
#   15.750    0.000    0.000    0.000    0.000    0.000 
#    0.000    0.000    0.000    0.000    0.000    0.000 
#
# Total GULP energy -89259.174147 kJ/mol
# GULP energy per Si atom -5578.698384 kJ/mol
# Density = 2.110595 g / cm^3
# Si number density = 21.154098 Si / 1000 Ang^3
#
#
#
# Elastic Constant Matrix: (Units=GPa)
#
#
# Indices 1 2 3 4 5 6 
#
# 1 31.2408 33.7329 30.0606 0.0000 4.8371 0.0000
# 2 33.7329 132.0218 65.0075 0.0000 11.5581 0.0000
# 3 30.0606 65.0075 168.7241 0.0000 38.2805 0.0000
# 4 0.0000 0.0000 0.0000 34.5566 0.0000 1.1258
# 5 4.8371 11.5581 38.2805 0.0000 39.3401 0.0000
# 6 0.0000 0.0000 0.0000 1.1258 0.0000 34.4246
#
#
#
# Elastic Compliance Matrix: (Units=1/GPa)
#
#
# Indices 1 2 3 4 5 6 
#
# 1 0.047078 -0.009688 -0.005117 0.000000 0.002037 0.000000
# 2 -0.009688 0.011371 -0.002781 0.000000 0.000557 0.000000
# 3 -0.005117 -0.002781 0.009730 0.000000 -0.008022 0.000000
# 4 0.000000 0.000000 0.000000 0.028969 0.000000 -0.000947
# 5 0.002037 0.000557 -0.008022 0.000000 0.032811 0.000000
# 6 0.000000 0.000000 0.000000 -0.000947 0.000000 0.029080
#
#
# Mechanical properties :
#
#
# Convention : Reuss Voigt Hill
#
# Bulk Modulus (GPa) = 30.29694 65.50986 47.90340
# Shear Modulus (GPa) = 24.36485 35.20996 29.78740
#
# Velocity S-wave (km/s) = 3.39747 4.08419 3.75656
# Velocity P-wave (km/s) = 5.45376 7.29904 6.44281
#
# Compressibility (1/GPa) = 0.03300664
#
# Stress axis : x y z
#
# Youngs Moduli (GPa) = 21.24116 87.94659 102.77314
#
# Poissons Ratio (x) = 0.85199 0.52593
# Poissons Ratio (y) = 0.20577 0.28585
# Poissons Ratio (z) = 0.10870 0.24461
#
# Static dielectric constant tensor:
#      x y z
#    x 1.831230 0.000000 0.009220 
#    y 0.000000 1.742680 0.000000 
#    z 0.009220 0.000000 1.852780 
# 
# From -- ./inp_files/15234.got.cif
#   From: 2010.05.17/outbox.cif.g08.bks.cpg/sg4_8_cif.got.tgz:15234.got - 2010.06.03 18:43:04.
