data_PCOD9116266
_publ_section_title
;
Structure prediction by ZEFSAII (Michael W. Deem and Ramdas Pophale) SiO2 
 PCOD9116266
Probable space group: P 21
;
_chemical_formula_sum "Si O2"
_cell_formula_units_Z 16
_cell_length_a 8.842778
_cell_length_b 17.200177
_cell_length_c 7.745963
_cell_angle_alpha 90.000000
_cell_angle_beta 146.123953
_cell_angle_gamma 90.000000
_cell_volume 656.693192
_symmetry_space_group_name_H-M "P 21"
_symmetry_group_IT_number 4
_symmetry_cell_setting 'monoclinic'
loop_
_space_group_symop_operation_xyz
x,y,z
-x,1/2+y,-z
loop_
_atom_site_type_symbol
_atom_site_label
_atom_site_fract_x
_atom_site_fract_y
_atom_site_fract_z
Si Si1 0.628165 0.719960 0.693840
Si Si2 0.304591 0.977691 0.848186
Si Si3 0.871841 0.719966 0.306160
Si Si4 0.620057 0.133874 0.059605
Si Si5 0.879930 0.133868 0.940391
Si Si6 0.195157 0.389920 0.655710
Si Si7 0.195398 0.977685 0.151812
Si Si8 0.304851 0.389914 0.344305
O O1 0.365839 0.666723 0.409674
O O2 0.569827 0.809855 0.601994
O O3 0.750001 0.708406 1.000000
O O4 0.885696 0.698432 0.818814
O O5 0.451966 0.059189 0.962068
O O6 0.010567 0.960047 0.493024
O O7 0.514454 0.911077 0.990300
O O8 0.249995 0.970736 0.999998
O O9 0.930166 0.809863 0.397984
O O10 0.134174 0.666732 0.590335
O O11 0.614317 0.698438 0.181198
O O12 0.749992 0.116454 0.999997
O O13 0.048019 0.059181 0.037936
O O14 0.250003 0.385855 0.500007
O O15 0.489424 0.960039 0.506971
O O16 0.985537 0.911068 0.009689
#
# Coordination Sequence:
#
# PCOD9116266 Si02
#       8
#     2   2   2   2   2   2   2   2
#     4  12  26  44  69 101 139 180 226 281 340 405
#     4  10  22  41  68  97 132 175 222 276 335 400
#     4  12  26  44  69 101 139 180 226 281 340 405
#     4  12  25  44  69 100 138 180 229 281 337 404
#     4  12  25  44  69 100 138 180 229 281 337 404
#     4  10  21  41  68  98 131 173 222 276 337 399
#     4  10  22  41  68  97 132 175 222 276 335 400
#     4  10  21  41  68  98 131 173 222 276 337 399
#
# _framework density 24.364497
#
# number of rings (size 3 to 8) (size 9 to 14) (size 15 to 20)
#    0.000    1.000    0.000    6.750    0.000    7.000 
#    0.000    2.500    0.000    0.000    0.000    0.000 
#    0.000    0.000    0.000    0.000    0.000    0.000 
#
# Total GULP energy -89544.575914 kJ/mol
# GULP energy per Si atom -5596.535995 kJ/mol
# Density = 2.430904 g / cm^3
# Si number density = 24.364497 Si / 1000 Ang^3
#
#
#
# Elastic Constant Matrix: (Units=GPa)
#
#
# Indices 1 2 3 4 5 6 
#
# 1 68.8786 31.8622 60.5833 0.0000 19.7950 0.0000
# 2 31.8622 125.3525 59.7332 0.0000 15.7253 0.0000
# 3 60.5833 59.7332 152.4254 0.0000 18.5874 0.0000
# 4 0.0000 0.0000 0.0000 46.0343 0.0000 16.7712
# 5 19.7950 15.7253 18.5874 0.0000 33.8703 0.0000
# 6 0.0000 0.0000 0.0000 16.7712 0.0000 26.6591
#
#
#
# Elastic Compliance Matrix: (Units=1/GPa)
#
#
# Indices 1 2 3 4 5 6 
#
# 1 0.025191 -0.001215 -0.008370 0.000000 -0.009565 0.000000
# 2 -0.001215 0.010090 -0.003201 0.000000 -0.002218 0.000000
# 3 -0.008370 -0.003201 0.011107 0.000000 0.000282 0.000000
# 4 0.000000 0.000000 0.000000 0.028182 0.000000 -0.017729
# 5 -0.009565 -0.002218 0.000282 0.000000 0.035990 0.000000
# 6 0.000000 0.000000 0.000000 -0.017729 0.000000 0.048664
#
#
# Mechanical properties :
#
#
# Convention : Reuss Voigt Hill
#
# Bulk Modulus (GPa) = 48.03711 72.33490 60.18601
# Shear Modulus (GPa) = 26.07773 34.27791 30.17782
#
# Velocity S-wave (km/s) = 3.27512 3.75491 3.52319
# Velocity P-wave (km/s) = 5.83615 6.96794 6.42701
#
# Compressibility (1/GPa) = 0.02081724
#
# Stress axis : x y z
#
# Youngs Moduli (GPa) = 39.69628 99.11071 90.03086
#
# Poissons Ratio (x) = 0.12038 0.75357
# Poissons Ratio (y) = 0.04822 0.28817
# Poissons Ratio (z) = 0.33226 0.31723
#
# Static dielectric constant tensor:
#      x y z
#    x 1.926430 0.000000 -0.025710 
#    y 0.000000 1.953930 0.000000 
#    z -0.025710 0.000000 1.908870 
# 
# From -- ./inp_files/6964.got.cif
#   From: 2010.05.17/outbox.cif.g08.bks.cpg/sg4_4_cif.got.tgz:6964.got - 2010.06.03 18:43:04.
