data_PCOD9116275
_publ_section_title
;
Structure prediction by ZEFSAII (Michael W. Deem and Ramdas Pophale) SiO2 
 PCOD9116275
Probable space group: P 21
;
_chemical_formula_sum "Si O2"
_cell_formula_units_Z 16
_cell_length_a 15.294980
_cell_length_b 9.604658
_cell_length_c 15.041587
_cell_angle_alpha 90.000000
_cell_angle_beta 18.773112
_cell_angle_gamma 90.000000
_cell_volume 711.114305
_symmetry_space_group_name_H-M "P 21"
_symmetry_group_IT_number 4
_symmetry_cell_setting 'monoclinic'
loop_
_space_group_symop_operation_xyz
x,y,z
-x,1/2+y,-z
loop_
_atom_site_type_symbol
_atom_site_label
_atom_site_fract_x
_atom_site_fract_y
_atom_site_fract_z
Si Si1 0.264728 0.490580 0.896345
Si Si2 0.629954 0.690342 0.243927
Si Si3 0.694250 0.933591 0.773607
Si Si4 0.560637 0.985271 0.701761
Si Si5 0.174194 0.077013 0.569328
Si Si6 0.159515 0.557152 0.804710
Si Si7 0.029946 0.858364 0.146787
Si Si8 0.218932 0.103529 0.316992
O O1 0.399884 0.353300 0.724872
O O2 0.511777 0.562461 0.709163
O O3 0.157011 0.568059 0.912444
O O4 0.020741 0.459446 0.200000
O O5 0.541973 0.635678 0.231126
O O6 0.447392 0.605345 0.489405
O O7 0.936977 0.653388 0.971975
O O8 0.743061 0.767981 0.744208
O O9 0.560905 0.949381 0.804399
O O10 0.973149 0.022189 0.505284
O O11 0.489118 0.013122 0.037405
O O12 0.861165 0.961369 0.374560
O O13 0.347683 0.886141 0.854465
O O14 0.054822 0.210399 0.735007
O O15 0.149253 0.096079 0.488600
O O16 0.075330 0.404116 0.848789
#
# Coordination Sequence:
#
# PCOD9116275 Si02
#       8
#     2   2   2   2   2   2   2   2
#     4  12  26  40  68  99 139 182 226 291 349 412
#     4  10  23  44  61  99 135 172 231 288 338 419
#     4  12  26  47  76 111 143 194 238 314 358 452
#     4  10  21  42  73  91 129 178 228 274 349 409
#     4  12  26  45  68 100 138 184 223 284 356 418
#     4  10  23  40  66  96 131 181 225 283 334 403
#     4  10  21  41  69  96 127 172 231 273 321 419
#     4  12  28  47  75 108 150 183 254 295 379 436
#
# _framework density 22.499898000000002
#
# number of rings (size 3 to 8) (size 9 to 14) (size 15 to 20)
#    0.000    1.000    1.250    4.500    5.250    3.000 
#    0.000    0.000    0.000    0.000    0.000    0.000 
#    0.000    0.000    0.000    0.000    0.000    0.000 
#
# Total GULP energy -89427.911264 kJ/mol
# GULP energy per Si atom -5589.244454 kJ/mol
# Density = 2.244869 g / cm^3
# Si number density = 22.499898 Si / 1000 Ang^3
#
#
#
# Elastic Constant Matrix: (Units=GPa)
#
#
# Indices 1 2 3 4 5 6 
#
# 1 72.0944 25.6174 17.4624 0.0000 0.6447 0.0000
# 2 25.6174 86.1023 20.1661 0.0000 0.5083 0.0000
# 3 17.4624 20.1661 107.8409 0.0000 -0.7858 0.0000
# 4 0.0000 0.0000 0.0000 25.3572 0.0000 2.9712
# 5 0.6447 0.5083 -0.7858 0.0000 34.9587 0.0000
# 6 0.0000 0.0000 0.0000 2.9712 0.0000 21.1028
#
#
#
# Elastic Compliance Matrix: (Units=1/GPa)
#
#
# Indices 1 2 3 4 5 6 
#
# 1 0.015826 -0.004294 -0.001762 0.000000 -0.000269 0.000000
# 2 -0.004294 0.013313 -0.001795 0.000000 -0.000155 0.000000
# 3 -0.001762 -0.001795 0.009896 0.000000 0.000281 0.000000
# 4 0.000000 0.000000 0.000000 0.040098 0.000000 -0.005646
# 5 -0.000269 -0.000155 0.000281 0.000000 0.028619 0.000000
# 6 0.000000 0.000000 0.000000 -0.005646 0.000000 0.048182
#
#
# Mechanical properties :
#
#
# Convention : Reuss Voigt Hill
#
# Bulk Modulus (GPa) = 42.85883 43.61437 43.23660
# Shear Modulus (GPa) = 27.86860 29.80317 28.83589
#
# Velocity S-wave (km/s) = 3.52321 3.64344 3.58383
# Velocity P-wave (km/s) = 5.96996 6.09310 6.03185
#
# Compressibility (1/GPa) = 0.02333242
#
# Stress axis : x y z
#
# Youngs Moduli (GPa) = 63.18829 75.11366 101.05165
#
# Poissons Ratio (x) = 0.32256 0.17801
# Poissons Ratio (y) = 0.27135 0.18142
# Poissons Ratio (z) = 0.11131 0.13485
#
# Static dielectric constant tensor:
#      x y z
#    x 1.796380 0.000000 0.006470 
#    y 0.000000 1.936430 0.000000 
#    z 0.006470 0.000000 1.806460 
# 
# From -- ./inp_files/14186.got.cif
#   From: 2010.05.17/outbox.cif.g08.bks.cpg/sg4_8_cif.got.tgz:14186.got - 2010.06.03 18:43:04.
