data_PCOD9116816
_publ_section_title
;
Structure prediction by ZEFSAII (Michael W. Deem and Ramdas Pophale) SiO2 
 PCOD9116816
Probable space group: P 21
;
_chemical_formula_sum "Si O2"
_cell_formula_units_Z 14
_cell_length_a 7.146801
_cell_length_b 12.486473
_cell_length_c 8.241021
_cell_angle_alpha 90.000000
_cell_angle_beta 84.846523
_cell_angle_gamma 90.000000
_cell_volume 732.442219
_symmetry_space_group_name_H-M "P 21"
_symmetry_group_IT_number 4
_symmetry_cell_setting 'monoclinic'
loop_
_space_group_symop_operation_xyz
x,y,z
-x,1/2+y,-z
loop_
_atom_site_type_symbol
_atom_site_label
_atom_site_fract_x
_atom_site_fract_y
_atom_site_fract_z
Si Si1 0.365168 0.594400 0.738038
Si Si2 0.814356 0.274480 0.020298
Si Si3 0.051660 0.479310 0.565687
Si Si4 0.429656 0.381473 0.940487
Si Si5 0.118826 0.367154 0.227143
Si Si6 0.236614 0.156445 0.412471
Si Si7 0.130814 0.262138 0.751140
O O1 0.264281 0.680261 0.860692
O O2 0.222042 0.553144 0.612963
O O3 0.427431 0.491354 0.839072
O O4 0.544916 0.647660 0.641779
O O5 0.946203 0.353361 0.116479
O O6 0.636403 0.337331 0.961204
O O7 0.956408 0.226469 0.874992
O O8 0.073591 0.447216 0.376752
O O9 0.063562 0.371706 0.669910
O O10 0.863756 0.544535 0.615383
O O11 0.308549 0.294066 0.848304
O O12 0.305952 0.397390 0.113055
O O13 0.153805 0.251236 0.307440
O O14 0.191492 0.184784 0.602109
#
# Coordination Sequence:
#
# PCOD9116816 Si02
#       7
#     2   2   2   2   2   2   2
#     4  11  23  39  66  89 123 163 204 254 308 362
#     4  11  21  42  64  88 121 170 196 250 317 359
#     4  10  22  41  62  89 123 162 206 254 306 363
#     4  10  22  42  61  92 126 158 209 255 297 372
#     4  10  22  41  64  91 124 157 206 259 301 362
#     4  11  21  41  62  93 121 160 205 253 305 371
#     4   9  23  40  61  88 126 158 204 255 304 363
#
# _framework density 19.114135999999998
#
# number of rings (size 3 to 8) (size 9 to 14) (size 15 to 20)
#    0.000    1.714    2.857    0.857    2.000    2.286 
#    5.143    0.000    0.000    0.000    0.000    0.000 
#    0.000    0.000    0.000    0.000    0.000    0.000 
#
# Total GULP energy -78206.858821 kJ/mol
# GULP energy per Si atom -5586.204202 kJ/mol
# Density = 1.907063 g / cm^3
# Si number density = 19.114136 Si / 1000 Ang^3
#
#
#
# Elastic Constant Matrix: (Units=GPa)
#
#
# Indices 1 2 3 4 5 6 
#
# 1 125.6489 26.7021 60.3182 0.0000 -20.2877 0.0000
# 2 26.7021 36.6484 12.5676 0.0000 -9.7410 0.0000
# 3 60.3182 12.5676 103.5116 0.0000 -17.7155 0.0000
# 4 0.0000 0.0000 0.0000 15.8250 0.0000 -6.5490
# 5 -20.2877 -9.7410 -17.7155 0.0000 28.5932 0.0000
# 6 0.0000 0.0000 0.0000 -6.5490 0.0000 26.1939
#
#
#
# Elastic Compliance Matrix: (Units=1/GPa)
#
#
# Indices 1 2 3 4 5 6 
#
# 1 0.012753 -0.006371 -0.006131 0.000000 0.003080 0.000000
# 2 -0.006371 0.033607 0.000915 0.000000 0.007496 0.000000
# 3 -0.006131 0.000915 0.013906 0.000000 0.004577 0.000000
# 4 0.000000 0.000000 0.000000 0.070484 0.000000 0.017622
# 5 0.003080 0.007496 0.004577 0.000000 0.042548 0.000000
# 6 0.000000 0.000000 0.000000 0.017622 0.000000 0.042583
#
#
# Mechanical properties :
#
#
# Convention : Reuss Voigt Hill
#
# Bulk Modulus (GPa) = 26.96013 51.66494 39.31253
# Shear Modulus (GPa) = 19.88727 25.20383 22.54555
#
# Velocity S-wave (km/s) = 3.22910 3.63519 3.43814
# Velocity P-wave (km/s) = 5.29511 6.68639 6.03100
#
# Compressibility (1/GPa) = 0.03709181
#
# Stress axis : x y z
#
# Youngs Moduli (GPa) = 78.41322 29.75604 71.91362
#
# Poissons Ratio (x) = 0.18957 0.44089
# Poissons Ratio (y) = 0.49956 -0.06580
# Poissons Ratio (z) = 0.48074 -0.02723
#
# Static dielectric constant tensor:
#      x y z
#    x 1.635970 0.000000 0.012330 
#    y 0.000000 1.649160 0.000000 
#    z 0.012330 0.000000 1.661070 
# 
# From -- ./inp_files/1110.got.cif
#   From: 2010.05.17/outbox.cif.g08.bks.cpg/sg4_1_cif.got.tgz:1110.got - 2010.06.03 18:43:04.
