data_PCOD9116158
_publ_section_title
;
Structure prediction by ZEFSAII (Michael W. Deem and Ramdas Pophale) SiO2 
 PCOD9116158
Probable space group: P 21
;
_chemical_formula_sum "Si O2"
_cell_formula_units_Z 14
_cell_length_a 5.785097
_cell_length_b 19.559641
_cell_length_c 5.089348
_cell_angle_alpha 90.000000
_cell_angle_beta 98.514123
_cell_angle_gamma 90.000000
_cell_volume 569.535656
_symmetry_space_group_name_H-M "P 21"
_symmetry_group_IT_number 4
_symmetry_cell_setting 'monoclinic'
loop_
_space_group_symop_operation_xyz
x,y,z
-x,1/2+y,-z
loop_
_atom_site_type_symbol
_atom_site_label
_atom_site_fract_x
_atom_site_fract_y
_atom_site_fract_z
Si Si1 0.569843 0.113130 0.829359
Si Si2 0.799638 0.860517 0.142969
Si Si3 0.463326 0.968088 0.961004
Si Si4 0.095198 0.730171 0.992982
Si Si5 0.563832 0.298329 0.585538
Si Si6 0.336116 0.172373 0.302885
Si Si7 0.202838 0.933542 0.439619
O O1 0.807440 0.158361 0.863205
O O2 0.419691 0.119585 0.538223
O O3 0.608550 0.035269 0.917383
O O4 0.402490 0.144484 0.028937
O O5 0.674499 0.834727 0.383907
O O6 0.916393 0.791565 0.051005
O O7 0.958635 0.924640 0.255292
O O8 0.607309 0.898488 0.933359
O O9 0.243756 0.968549 0.723632
O O10 0.376719 0.962856 0.246455
O O11 0.329201 0.772562 0.117441
O O12 0.932716 0.698376 0.732395
O O13 0.510576 0.235172 0.393688
O O14 0.742424 0.352849 0.504444
#
# Coordination Sequence:
#
# PCOD9116158 Si02
#       7
#     2   2   2   2   2   2   2
#     4  11  26  42  63  94 133 175 224 273 325 395
#     4  10  22  42  69  99 130 170 219 275 334 389
#     4  11  24  44  63  93 133 174 223 275 326 393
#     4  10  21  40  67  95 128 168 213 268 329 385
#     4   9  21  39  64  97 127 159 211 272 326 388
#     4  11  23  42  64  92 128 170 214 265 326 391
#     4  10  23  41  66  92 125 168 214 266 328 389
#
# _framework density 24.581430000000001
#
# number of rings (size 3 to 8) (size 9 to 14) (size 15 to 20)
#    0.000    1.714    0.000    3.429    0.000   17.143 
#    0.000    0.000    0.000    0.000    0.000    0.000 
#    0.000    0.000    0.000    0.000    0.000    0.000 
#
# Total GULP energy -77946.527993 kJ/mol
# GULP energy per Si atom -5567.609142 kJ/mol
# Density = 2.452548 g / cm^3
# Si number density = 24.581430 Si / 1000 Ang^3
#
#
#
# Elastic Constant Matrix: (Units=GPa)
#
#
# Indices 1 2 3 4 5 6 
#
# 1 45.1217 8.9242 28.4576 0.0000 11.7046 0.0000
# 2 8.9242 86.7957 15.8057 0.0000 -3.5718 0.0000
# 3 28.4576 15.8057 90.7331 0.0000 16.3313 0.0000
# 4 0.0000 0.0000 0.0000 33.5996 0.0000 4.4435
# 5 11.7046 -3.5718 16.3313 0.0000 35.1130 0.0000
# 6 0.0000 0.0000 0.0000 4.4435 0.0000 24.7538
#
#
#
# Elastic Compliance Matrix: (Units=1/GPa)
#
#
# Indices 1 2 3 4 5 6 
#
# 1 0.028975 -0.001848 -0.007632 0.000000 -0.006297 0.000000
# 2 -0.001848 0.012201 -0.002052 0.000000 0.002811 0.000000
# 3 -0.007632 -0.002052 0.014572 0.000000 -0.004442 0.000000
# 4 0.000000 0.000000 0.000000 0.030486 0.000000 -0.005472
# 5 -0.006297 0.002811 -0.004442 0.000000 0.032930 0.000000
# 6 0.000000 0.000000 0.000000 -0.005472 0.000000 0.041380
#
#
# Mechanical properties :
#
#
# Convention : Reuss Voigt Hill
#
# Bulk Modulus (GPa) = 30.59714 36.55837 33.57776
# Shear Modulus (GPa) = 25.70648 29.99078 27.84863
#
# Velocity S-wave (km/s) = 3.23734 3.49672 3.36953
# Velocity P-wave (km/s) = 5.14277 5.58636 5.36915
#
# Compressibility (1/GPa) = 0.03268279
#
# Stress axis : x y z
#
# Youngs Moduli (GPa) = 34.51269 81.96270 68.62430
#
# Poissons Ratio (x) = 0.15150 0.52376
# Poissons Ratio (y) = 0.06379 0.14079
# Poissons Ratio (z) = 0.26341 0.16816
#
# Static dielectric constant tensor:
#      x y z
#    x 2.027740 0.000000 -0.001100 
#    y 0.000000 1.967770 0.000000 
#    z -0.001100 0.000000 1.973000 
# 
# From -- ./inp_files/624.got.cif
#   From: 2010.05.17/outbox.cif.g08.bks.cpg/sg4_1_cif.got.tgz:624.got - 2010.06.03 18:43:04.
