data_PCOD9116531
_publ_section_title
;
Structure prediction by ZEFSAII (Michael W. Deem and Ramdas Pophale) SiO2 
 PCOD9116531
Probable space group: P 21
;
_chemical_formula_sum "Si O2"
_cell_formula_units_Z 16
_cell_length_a 5.804188
_cell_length_b 9.291634
_cell_length_c 11.760444
_cell_angle_alpha 90.000000
_cell_angle_beta 103.764436
_cell_angle_gamma 90.000000
_cell_volume 616.031177
_symmetry_space_group_name_H-M "P 21"
_symmetry_group_IT_number 4
_symmetry_cell_setting 'monoclinic'
loop_
_space_group_symop_operation_xyz
x,y,z
-x,1/2+y,-z
loop_
_atom_site_type_symbol
_atom_site_label
_atom_site_fract_x
_atom_site_fract_y
_atom_site_fract_z
Si Si1 0.055823 0.134260 0.569110
Si Si2 0.887157 0.595070 0.954556
Si Si3 0.743437 0.374053 0.622617
Si Si4 0.483167 0.292662 0.222435
Si Si5 0.593754 0.328089 0.853592
Si Si6 0.826519 0.051557 0.227782
Si Si7 0.707825 0.582106 0.164199
Si Si8 0.723830 0.866387 0.556993
O O1 0.203316 0.134912 0.703504
O O2 0.214824 0.212421 0.492494
O O3 0.842512 0.245557 0.559515
O O4 0.939516 0.975870 0.555711
O O5 0.694037 0.706561 0.881382
O O6 0.785339 0.431804 0.932903
O O7 0.092107 0.605944 0.886144
O O8 0.907527 0.610016 0.091997
O O9 0.676691 0.306064 0.735282
O O10 0.507479 0.428959 0.534001
O O11 0.946464 0.489255 0.679204
O O12 0.687505 0.176769 0.277085
O O13 0.611850 0.422267 0.172435
O O14 0.342260 0.347027 0.317840
O O15 0.356394 0.423843 0.816069
O O16 0.515252 0.179678 0.898450
#
# Coordination Sequence:
#
# PCOD9116531 Si02
#       8
#     2   2   2   2   2   2   2   2
#     4  12  30  52  77 113 152 207 256 330 382 470
#     4  10  25  46  81 106 151 205 250 321 388 467
#     4  11  23  48  77 105 148 202 256 309 387 464
#     4  11  28  50  74 119 157 198 259 327 381 462
#     4  10  21  46  75 106 143 200 252 306 384 456
#     4  10  23  48  72 112 144 202 258 303 387 461
#     4  12  24  52  71 114 154 194 260 322 386 456
#     4  12  30  52  79 113 161 200 265 320 393 460
#
# _framework density 25.972709999999999
#
# number of rings (size 3 to 8) (size 9 to 14) (size 15 to 20)
#    0.000    1.000    2.500    1.500    3.500    9.000 
#    9.000    0.000    0.000    0.000    0.000    0.000 
#    0.000    0.000    0.000    0.000    0.000    0.000 
#
# Total GULP energy -89687.153085 kJ/mol
# GULP energy per Si atom -5605.447068 kJ/mol
# Density = 2.591359 g / cm^3
# Si number density = 25.972710 Si / 1000 Ang^3
#
#
#
# Elastic Constant Matrix: (Units=GPa)
#
#
# Indices 1 2 3 4 5 6 
#
# 1 96.7693 43.4691 40.3457 0.0000 -14.4922 0.0000
# 2 43.4691 126.5261 38.4929 0.0000 -4.5523 0.0000
# 3 40.3457 38.4929 126.6193 0.0000 -25.8312 0.0000
# 4 0.0000 0.0000 0.0000 22.9221 0.0000 -9.4515
# 5 -14.4922 -4.5523 -25.8312 0.0000 50.3630 0.0000
# 6 0.0000 0.0000 0.0000 -9.4515 0.0000 35.7330
#
#
#
# Elastic Compliance Matrix: (Units=1/GPa)
#
#
# Indices 1 2 3 4 5 6 
#
# 1 0.013460 -0.003719 -0.002721 0.000000 0.002141 0.000000
# 2 -0.003719 0.009755 -0.002032 0.000000 -0.001230 0.000000
# 3 -0.002721 -0.002032 0.010259 0.000000 0.004295 0.000000
# 4 0.000000 0.000000 0.000000 0.048966 0.000000 0.012952
# 5 0.002141 -0.001230 0.004295 0.000000 0.022564 0.000000
# 6 0.000000 0.000000 0.000000 0.012952 0.000000 0.031411
#
#
# Mechanical properties :
#
#
# Convention : Reuss Voigt Hill
#
# Bulk Modulus (GPa) = 60.49873 66.05889 63.27881
# Shear Modulus (GPa) = 31.47255 36.97744 34.22499
#
# Velocity S-wave (km/s) = 3.48480 3.77729 3.63399
# Velocity P-wave (km/s) = 6.28773 6.67181 6.48262
#
# Compressibility (1/GPa) = 0.01652927
#
# Stress axis : x y z
#
# Youngs Moduli (GPa) = 74.29516 102.51079 97.47938
#
# Poissons Ratio (x) = 0.38127 0.26527
# Poissons Ratio (y) = 0.27633 0.19803
# Poissons Ratio (z) = 0.20218 0.20825
#
# Static dielectric constant tensor:
#      x y z
#    x 2.048070 0.000000 0.020190 
#    y 0.000000 2.024510 0.000000 
#    z 0.020190 0.000000 2.029690 
# 
# From -- ./inp_files/10352.got.cif
#   From: 2010.05.17/outbox.cif.g08.bks.cpg/sg4_6_cif.got.tgz:10352.got - 2010.06.03 18:43:04.
