data_PCOD9116628
_publ_section_title
;
Structure prediction by ZEFSAII (Michael W. Deem and Ramdas Pophale) SiO2 
 PCOD9116628
Probable space group: P 21
;
_chemical_formula_sum "Si O2"
_cell_formula_units_Z 16
_cell_length_a 8.772374
_cell_length_b 10.776109
_cell_length_c 9.041918
_cell_angle_alpha 90.000000
_cell_angle_beta 63.164913
_cell_angle_gamma 90.000000
_cell_volume 762.702580
_symmetry_space_group_name_H-M "P 21"
_symmetry_group_IT_number 4
_symmetry_cell_setting 'monoclinic'
loop_
_space_group_symop_operation_xyz
x,y,z
-x,1/2+y,-z
loop_
_atom_site_type_symbol
_atom_site_label
_atom_site_fract_x
_atom_site_fract_y
_atom_site_fract_z
Si Si1 0.079227 0.264110 0.934886
Si Si2 0.687952 0.997246 0.205344
Si Si3 0.349168 0.941408 0.506375
Si Si4 0.655453 0.541949 0.176078
Si Si5 0.868173 0.200691 0.322215
Si Si6 0.481958 0.650132 0.979811
Si Si7 0.211954 0.852092 0.109746
Si Si8 0.820375 0.582894 0.665039
O O1 0.167423 0.398041 0.892430
O O2 0.222570 0.159647 0.855942
O O3 0.943170 0.261455 0.860886
O O4 0.983139 0.241711 0.131479
O O5 0.751235 0.091725 0.304662
O O6 0.634683 0.075053 0.084525
O O7 0.518159 0.927307 0.334453
O O8 0.243757 0.815055 0.571277
O O9 0.404289 0.989303 0.642848
O O10 0.237143 0.047973 0.474350
O O11 0.512372 0.579486 0.120001
O O12 0.764000 0.435276 0.047323
O O13 0.000759 0.150008 0.386204
O O14 0.666906 0.656401 0.817114
O O15 0.387560 0.778429 0.053986
O O16 0.173567 0.949199 0.255134
#
# Coordination Sequence:
#
# PCOD9116628 Si02
#       8
#     2   2   2   2   2   2   2   2
#     4  12  22  41  75  96 134 179 234 283 333 404
#     4  11  25  44  69 102 138 180 222 285 352 397
#     4  11  27  44  68 101 145 181 224 283 351 407
#     4  11  24  40  66 101 131 178 232 274 339 411
#     4  12  23  47  73  99 140 181 228 289 337 410
#     4  10  22  38  69  99 135 173 232 283 330 405
#     4  11  21  42  69 101 129 179 226 287 334 406
#     4  10  24  44  65 103 142 177 226 278 352 404
#
# _framework density 20.978034000000001
#
# number of rings (size 3 to 8) (size 9 to 14) (size 15 to 20)
#    0.000    1.000    6.250    0.000    7.000    1.000 
#    0.000    1.250    0.000    0.000    0.000    0.000 
#    0.000    0.000    0.000    0.000    0.000    0.000 
#
# Total GULP energy -89465.282613 kJ/mol
# GULP energy per Si atom -5591.580163 kJ/mol
# Density = 2.093029 g / cm^3
# Si number density = 20.978034 Si / 1000 Ang^3
#
#
#
# Elastic Constant Matrix: (Units=GPa)
#
#
# Indices 1 2 3 4 5 6 
#
# 1 109.3458 32.9067 9.2392 0.0000 -3.9439 0.0000
# 2 32.9067 73.9419 20.7555 0.0000 -18.6290 0.0000
# 3 9.2392 20.7555 46.4170 0.0000 -0.5548 0.0000
# 4 0.0000 0.0000 0.0000 33.4513 0.0000 -5.6745
# 5 -3.9439 -18.6290 -0.5548 0.0000 29.9551 0.0000
# 6 0.0000 0.0000 0.0000 -5.6745 0.0000 41.7795
#
#
#
# Elastic Compliance Matrix: (Units=1/GPa)
#
#
# Indices 1 2 3 4 5 6 
#
# 1 0.010645 -0.005269 0.000215 0.000000 -0.001871 0.000000
# 2 -0.005269 0.021342 -0.008346 0.000000 0.012424 0.000000
# 3 0.000215 -0.008346 0.025177 0.000000 -0.004696 0.000000
# 4 0.000000 0.000000 0.000000 0.030599 0.000000 0.004156
# 5 -0.001871 0.012424 -0.004696 0.000000 0.040776 0.000000
# 6 0.000000 0.000000 0.000000 0.004156 0.000000 0.024500
#
#
# Mechanical properties :
#
#
# Convention : Reuss Voigt Hill
#
# Bulk Modulus (GPa) = 32.93410 39.50084 36.21747
# Shear Modulus (GPa) = 26.32117 32.15740 29.23929
#
# Velocity S-wave (km/s) = 3.54602 3.91948 3.73742
# Velocity P-wave (km/s) = 5.70080 6.27325 5.99386
#
# Compressibility (1/GPa) = 0.03036366
#
# Stress axis : x y z
#
# Youngs Moduli (GPa) = 93.93713 46.85602 39.71920
#
# Poissons Ratio (x) = 0.24690 -0.00854
# Poissons Ratio (y) = 0.49499 0.33149
# Poissons Ratio (z) = -0.02019 0.39105
#
# Static dielectric constant tensor:
#      x y z
#    x 1.778100 0.000000 0.015610 
#    y 0.000000 1.748780 0.000000 
#    z 0.015610 0.000000 1.722820 
# 
# From -- ./inp_files/6221.got.cif
#   From: 2010.05.17/outbox.cif.g08.bks.cpg/sg4_4_cif.got.tgz:6221.got - 2010.06.03 18:43:04.
