data_PCOD9116318
_publ_section_title
;
Structure prediction by ZEFSAII (Michael W. Deem and Ramdas Pophale) SiO2 
 PCOD9116318
Probable space group: P 21
;
_chemical_formula_sum "Si O2"
_cell_formula_units_Z 16
_cell_length_a 6.622074
_cell_length_b 17.520588
_cell_length_c 6.467283
_cell_angle_alpha 90.000000
_cell_angle_beta 63.404109
_cell_angle_gamma 90.000000
_cell_volume 670.953784
_symmetry_space_group_name_H-M "P 21"
_symmetry_group_IT_number 4
_symmetry_cell_setting 'monoclinic'
loop_
_space_group_symop_operation_xyz
x,y,z
-x,1/2+y,-z
loop_
_atom_site_type_symbol
_atom_site_label
_atom_site_fract_x
_atom_site_fract_y
_atom_site_fract_z
Si Si1 0.189877 0.200220 0.476122
Si Si2 0.927804 0.804705 0.127219
Si Si3 0.956112 0.422947 0.263314
Si Si4 0.950546 0.091164 0.288029
Si Si5 0.693123 0.964601 0.598030
Si Si6 0.281803 0.073941 0.775431
Si Si7 0.546675 0.339089 0.582844
Si Si8 0.665778 0.205898 0.222572
O O1 0.109074 0.279571 0.615079
O O2 0.271658 0.145980 0.628199
O O3 0.417884 0.209247 0.234801
O O4 0.000302 0.153172 0.442926
O O5 0.663362 0.812682 0.177911
O O6 0.039112 0.876871 0.956888
O O7 0.110123 0.739654 0.984858
O O8 0.204925 0.428584 0.243440
O O9 0.867335 0.507535 0.261854
O O10 0.784516 0.382638 0.505938
O O11 0.737962 0.121226 0.253497
O O12 0.900430 0.006743 0.389641
O O13 0.165468 0.092750 0.043438
O O14 0.573830 0.901517 0.512270
O O15 0.520373 0.034177 0.710108
O O16 0.624855 0.262543 0.433234
#
# Coordination Sequence:
#
# PCOD9116318 Si02
#       8
#     2   2   2   2   2   2   2   2
#     4  11  23  42  64  99 135 173 225 279 326 405
#     4  10  21  42  66  92 136 175 211 279 327 384
#     4  10  22  42  67  94 132 176 220 279 336 392
#     4  12  24  39  69  99 130 186 223 272 351 396
#     4  11  23  42  68  99 133 176 225 278 339 397
#     4  11  23  42  65  99 134 169 226 278 328 402
#     4   9  22  41  64  92 132 170 222 277 322 403
#     4  10  22  42  63  94 138 171 220 280 329 395
#
# _framework density 23.846651999999999
#
# number of rings (size 3 to 8) (size 9 to 14) (size 15 to 20)
#    0.000    1.500    3.750    0.750    0.000    7.000 
#    0.000    7.500    0.000    0.000    0.000    0.000 
#    0.000    0.000    0.000    0.000    0.000    0.000 
#
# Total GULP energy -89151.880193 kJ/mol
# GULP energy per Si atom -5571.992512 kJ/mol
# Density = 2.379238 g / cm^3
# Si number density = 23.846652 Si / 1000 Ang^3
#
#
#
# Elastic Constant Matrix: (Units=GPa)
#
#
# Indices 1 2 3 4 5 6 
#
# 1 93.5502 25.7761 29.8759 0.0000 -8.1157 0.0000
# 2 25.7761 86.3021 17.9805 0.0000 2.8995 0.0000
# 3 29.8759 17.9805 66.8642 0.0000 -28.7993 0.0000
# 4 0.0000 0.0000 0.0000 41.3726 0.0000 -7.7970
# 5 -8.1157 2.8995 -28.7993 0.0000 36.1234 0.0000
# 6 0.0000 0.0000 0.0000 -7.7970 0.0000 46.9582
#
#
#
# Elastic Compliance Matrix: (Units=1/GPa)
#
#
# Indices 1 2 3 4 5 6 
#
# 1 0.013145 -0.002676 -0.005771 0.000000 -0.001433 0.000000
# 2 -0.002676 0.013584 -0.004852 0.000000 -0.005560 0.000000
# 3 -0.005771 -0.004852 0.028096 0.000000 0.021493 0.000000
# 4 0.000000 0.000000 0.000000 0.024951 0.000000 0.004143
# 5 -0.001433 -0.005560 0.021493 0.000000 0.044942 0.000000
# 6 0.000000 0.000000 0.000000 0.004143 0.000000 0.021983
#
#
# Mechanical properties :
#
#
# Convention : Reuss Voigt Hill
#
# Bulk Modulus (GPa) = 35.42610 43.77574 39.60092
# Shear Modulus (GPa) = 27.36579 36.42977 31.89778
#
# Velocity S-wave (km/s) = 3.39126 3.91278 3.66132
# Velocity P-wave (km/s) = 5.49748 6.22978 5.87505
#
# Compressibility (1/GPa) = 0.02822778
#
# Stress axis : x y z
#
# Youngs Moduli (GPa) = 76.07192 73.61583 35.59191
#
# Poissons Ratio (x) = 0.19697 0.20541
# Poissons Ratio (y) = 0.20354 0.17269
# Poissons Ratio (z) = 0.43904 0.35719
#
# Static dielectric constant tensor:
#      x y z
#    x 1.970000 0.000000 -0.030970 
#    y 0.000000 1.864670 0.000000 
#    z -0.030970 0.000000 1.953520 
# 
# From -- ./inp_files/604.got.cif
#   From: 2010.05.17/outbox.cif.g08.bks.cpg/sg4_1_cif.got.tgz:604.got - 2010.06.03 18:43:04.
