data_PCOD9116533
_publ_section_title
;
Structure prediction by ZEFSAII (Michael W. Deem and Ramdas Pophale) SiO2 
 PCOD9116533
Probable space group: P 21
;
_chemical_formula_sum "Si O2"
_cell_formula_units_Z 16
_cell_length_a 9.542652
_cell_length_b 9.277356
_cell_length_c 11.054311
_cell_angle_alpha 90.000000
_cell_angle_beta 138.198590
_cell_angle_gamma 90.000000
_cell_volume 652.316331
_symmetry_space_group_name_H-M "P 21"
_symmetry_group_IT_number 4
_symmetry_cell_setting 'monoclinic'
loop_
_space_group_symop_operation_xyz
x,y,z
-x,1/2+y,-z
loop_
_atom_site_type_symbol
_atom_site_label
_atom_site_fract_x
_atom_site_fract_y
_atom_site_fract_z
Si Si1 0.295111 0.844750 0.195567
Si Si2 0.240294 0.113449 0.766327
Si Si3 0.149947 0.657700 0.306693
Si Si4 0.445406 0.159931 0.264978
Si Si5 0.086007 0.643769 0.862908
Si Si6 0.605954 0.282997 0.113909
Si Si7 0.319700 0.131589 0.545903
Si Si8 0.731354 0.949200 0.822781
O O1 0.177329 0.802015 0.243934
O O2 0.525606 0.769933 0.355807
O O3 0.331299 0.008082 0.184637
O O4 0.815967 0.005375 0.005945
O O5 0.201259 0.122105 0.597961
O O6 0.042709 0.143240 0.725720
O O7 0.335284 0.952399 0.850244
O O8 0.410032 0.237747 0.904016
O O9 0.365720 0.644302 0.519455
O O10 0.146638 0.530717 0.204924
O O11 0.543116 0.221916 0.204210
O O12 0.276782 0.280165 0.191430
O O13 0.845782 0.628700 0.668433
O O14 0.164977 0.766731 0.006435
O O15 0.204415 0.688866 0.816820
O O16 0.489535 0.002603 0.652672
#
# Coordination Sequence:
#
# PCOD9116533 Si02
#       8
#     2   2   2   2   2   2   2   2
#     4  10  24  48  80 114 159 202 256 324 389 466
#     4  12  25  50  76 116 156 201 267 319 399 458
#     4  10  25  49  76 111 156 210 258 317 391 477
#     4  12  23  47  77 114 156 204 254 325 393 458
#     4  10  21  46  78 109 154 212 253 316 392 461
#     4  12  24  44  75 115 158 200 255 335 375 465
#     4  10  21  47  80 106 155 205 261 312 386 477
#     4  10  23  51  76 113 158 202 258 320 389 462
#
# _framework density 24.527977
#
# number of rings (size 3 to 8) (size 9 to 14) (size 15 to 20)
#    0.000    1.500    3.750    2.250    1.750    0.000 
#   13.500    2.500    0.000    0.000    0.000    0.000 
#    0.000    0.000    0.000    0.000    0.000    0.000 
#
# Total GULP energy -89686.414511 kJ/mol
# GULP energy per Si atom -5605.400907 kJ/mol
# Density = 2.447215 g / cm^3
# Si number density = 24.527977 Si / 1000 Ang^3
#
#
#
# Elastic Constant Matrix: (Units=GPa)
#
#
# Indices 1 2 3 4 5 6 
#
# 1 173.9226 56.5454 48.4324 0.0000 1.3608 0.0000
# 2 56.5454 186.6888 58.6108 0.0000 11.1532 0.0000
# 3 48.4324 58.6108 171.9491 0.0000 16.1243 0.0000
# 4 0.0000 0.0000 0.0000 14.7798 0.0000 8.9165
# 5 1.3608 11.1532 16.1243 0.0000 44.0000 0.0000
# 6 0.0000 0.0000 0.0000 8.9165 0.0000 25.6188
#
#
#
# Elastic Compliance Matrix: (Units=1/GPa)
#
#
# Indices 1 2 3 4 5 6 
#
# 1 0.006659 -0.001623 -0.001389 0.000000 0.000715 0.000000
# 2 -0.001623 0.006421 -0.001640 0.000000 -0.000977 0.000000
# 3 -0.001389 -0.001640 0.006962 0.000000 -0.002093 0.000000
# 4 0.000000 0.000000 0.000000 0.085643 0.000000 -0.029808
# 5 0.000715 -0.000977 -0.002093 0.000000 0.023720 0.000000
# 6 0.000000 0.000000 0.000000 -0.029808 0.000000 0.049408
#
#
# Mechanical properties :
#
#
# Convention : Reuss Voigt Hill
#
# Bulk Modulus (GPa) = 93.13416 95.52641 94.33028
# Shear Modulus (GPa) = 26.08284 41.47786 33.78035
#
# Velocity S-wave (km/s) = 3.26451 4.11669 3.71511
# Velocity P-wave (km/s) = 7.22927 7.85026 7.54616
#
# Compressibility (1/GPa) = 0.01073720
#
# Stress axis : x y z
#
# Youngs Moduli (GPa) = 150.17856 155.72879 143.63233
#
# Poissons Ratio (x) = 0.25281 0.19954
# Poissons Ratio (y) = 0.24380 0.23556
# Poissons Ratio (z) = 0.20863 0.25539
#
# Static dielectric constant tensor:
#      x y z
#    x 1.994050 0.000000 -0.000600 
#    y 0.000000 1.931040 0.000000 
#    z -0.000600 0.000000 1.923710 
# 
# From -- ./inp_files/11086.got.cif
#   From: 2010.05.17/outbox.cif.g08.bks.cpg/sg4_6_cif.got.tgz:11086.got - 2010.06.03 18:43:04.
