data_PCOD9116791
_publ_section_title
;
Structure prediction by ZEFSAII (Michael W. Deem and Ramdas Pophale) SiO2 
 PCOD9116791
Probable space group: P 21
;
_chemical_formula_sum "Si O2"
_cell_formula_units_Z 16
_cell_length_a 9.212237
_cell_length_b 10.927155
_cell_length_c 14.545402
_cell_angle_alpha 90.000000
_cell_angle_beta 31.662867
_cell_angle_gamma 90.000000
_cell_volume 768.583695
_symmetry_space_group_name_H-M "P 21"
_symmetry_group_IT_number 4
_symmetry_cell_setting 'monoclinic'
loop_
_space_group_symop_operation_xyz
x,y,z
-x,1/2+y,-z
loop_
_atom_site_type_symbol
_atom_site_label
_atom_site_fract_x
_atom_site_fract_y
_atom_site_fract_z
Si Si1 0.563662 0.222070 0.019584
Si Si2 0.586619 0.080276 0.185729
Si Si3 0.291806 0.556897 0.501705
Si Si4 0.899150 0.786138 0.375295
Si Si5 0.703968 0.194336 0.316318
Si Si6 0.282557 0.478192 0.155292
Si Si7 0.028039 0.591097 0.460870
Si Si8 0.909647 0.461827 0.193011
O O1 0.551049 0.195081 0.134860
O O2 0.383363 0.339322 0.088779
O O3 0.868663 0.263143 0.825078
O O4 0.526351 0.089184 0.988834
O O5 0.684493 0.115345 0.234505
O O6 0.273289 0.030603 0.360078
O O7 0.827231 0.001694 0.009021
O O8 0.139507 0.426744 0.579911
O O9 0.206997 0.622249 0.641577
O O10 0.181285 0.626093 0.471794
O O11 0.621632 0.528438 0.323491
O O12 0.606310 0.740260 0.496524
O O13 0.973062 0.708108 0.425719
O O14 0.871646 0.316957 0.205929
O O15 0.221541 0.504975 0.294288
O O16 0.998966 0.490572 0.249789
#
# Coordination Sequence:
#
# PCOD9116791 Si02
#       8
#     2   2   2   2   2   2   2   2
#     4  10  22  40  70  94 129 169 223 272 331 383
#     4  10  22  43  63  94 135 174 215 276 325 392
#     4  11  23  41  68  94 132 176 218 270 328 396
#     4   9  22  43  64  95 134 172 217 274 326 396
#     4  10  22  41  66  92 133 175 217 265 337 393
#     4  10  23  43  68  94 136 174 217 278 333 396
#     4  10  23  41  66  95 128 173 219 268 327 391
#     4  10  23  42  63  96 133 167 220 271 331 393
#
# _framework density 20.817512000000001
#
# number of rings (size 3 to 8) (size 9 to 14) (size 15 to 20)
#    0.000    2.000    0.000    3.000   10.500    1.000 
#    4.500    1.250    0.000    0.000    0.000    0.000 
#    0.000    0.000    0.000    0.000    0.000    0.000 
#
# Total GULP energy -89322.656252 kJ/mol
# GULP energy per Si atom -5582.666016 kJ/mol
# Density = 2.077013 g / cm^3
# Si number density = 20.817512 Si / 1000 Ang^3
#
#
#
# Elastic Constant Matrix: (Units=GPa)
#
#
# Indices 1 2 3 4 5 6 
#
# 1 108.1159 24.4926 19.2161 0.0000 7.0325 0.0000
# 2 24.4926 85.9585 19.5022 0.0000 -16.6640 0.0000
# 3 19.2161 19.5022 70.3337 0.0000 7.5938 0.0000
# 4 0.0000 0.0000 0.0000 16.3220 0.0000 -9.7177
# 5 7.0325 -16.6640 7.5938 0.0000 25.1772 0.0000
# 6 0.0000 0.0000 0.0000 -9.7177 0.0000 19.0112
#
#
#
# Elastic Compliance Matrix: (Units=1/GPa)
#
#
# Indices 1 2 3 4 5 6 
#
# 1 0.010654 -0.003705 -0.001341 0.000000 -0.005024 0.000000
# 2 -0.003705 0.016420 -0.004988 0.000000 0.013408 0.000000
# 3 -0.001341 -0.004988 0.016832 0.000000 -0.008004 0.000000
# 4 0.000000 0.000000 0.000000 0.088069 0.000000 0.045017
# 5 -0.005024 0.013408 -0.008004 0.000000 0.052410 0.000000
# 6 0.000000 0.000000 0.000000 0.045017 0.000000 0.075611
#
#
# Mechanical properties :
#
#
# Convention : Reuss Voigt Hill
#
# Bulk Modulus (GPa) = 41.95231 43.42554 42.68892
# Shear Modulus (GPa) = 17.36047 25.51523 21.43785
#
# Velocity S-wave (km/s) = 2.89093 3.50474 3.21253
# Velocity P-wave (km/s) = 5.59816 6.10598 5.85758
#
# Compressibility (1/GPa) = 0.02383659
#
# Stress axis : x y z
#
# Youngs Moduli (GPa) = 93.86272 60.90048 59.41217
#
# Poissons Ratio (x) = 0.22566 0.07967
# Poissons Ratio (y) = 0.34779 0.29636
# Poissons Ratio (z) = 0.12586 0.30379
#
# Static dielectric constant tensor:
#      x y z
#    x 1.745260 0.000000 -0.002720 
#    y 0.000000 1.783980 0.000000 
#    z -0.002720 0.000000 1.758120 
# 
# From -- ./inp_files/6439.got.cif
#   From: 2010.05.17/outbox.cif.g08.bks.cpg/sg4_4_cif.got.tgz:6439.got - 2010.06.03 18:43:04.
