data_PCOD9116754
_publ_section_title
;
Structure prediction by ZEFSAII (Michael W. Deem and Ramdas Pophale) SiO2 
 PCOD9116754
Probable space group: P 21
;
_chemical_formula_sum "Si O2"
_cell_formula_units_Z 14
_cell_length_a 8.570311
_cell_length_b 7.893237
_cell_length_c 18.242069
_cell_angle_alpha 90.000000
_cell_angle_beta 28.888122
_cell_angle_gamma 90.000000
_cell_volume 596.161118
_symmetry_space_group_name_H-M "P 21"
_symmetry_group_IT_number 4
_symmetry_cell_setting 'monoclinic'
loop_
_space_group_symop_operation_xyz
x,y,z
-x,1/2+y,-z
loop_
_atom_site_type_symbol
_atom_site_label
_atom_site_fract_x
_atom_site_fract_y
_atom_site_fract_z
Si Si1 0.352573 0.608250 0.175147
Si Si2 0.346328 0.917678 0.065308
Si Si3 0.637782 0.963677 0.284772
Si Si4 0.133236 0.291781 0.946442
Si Si5 0.114523 0.555668 0.069027
Si Si6 0.506867 0.131462 0.579319
Si Si7 0.686090 0.747774 0.500821
O O1 0.362992 0.747585 0.105618
O O2 0.635686 0.646954 0.116008
O O3 0.026669 0.653031 0.350574
O O4 0.424422 0.437992 0.100515
O O5 0.983858 0.955904 0.186533
O O6 0.522664 0.036254 0.052374
O O7 0.680821 0.927367 0.181230
O O8 0.426055 0.803006 0.401652
O O9 0.490103 0.145125 0.362850
O O10 0.009561 0.388838 0.067902
O O11 0.907049 0.205981 0.980129
O O12 0.847668 0.581293 0.242143
O O13 0.697969 0.952163 0.504285
O O14 0.492431 0.198744 0.502125
#
# Coordination Sequence:
#
# PCOD9116754 Si02
#       7
#     2   2   2   2   2   2   2
#     4  11  23  42  66 103 138 176 237 288 345 421
#     4  11  21  40  71 101 130 172 238 294 330 406
#     4  11  24  44  70  97 140 183 226 291 351 414
#     4  10  23  42  64  96 141 178 219 287 357 408
#     4  10  22  40  66 100 136 174 232 288 345 413
#     4  11  22  41  66  99 135 174 233 287 335 415
#     4  12  23  43  69  98 138 183 227 287 355 403
#
# _framework density 23.483585000000001
#
# number of rings (size 3 to 8) (size 9 to 14) (size 15 to 20)
#    0.000    1.143    4.286    1.714    6.000    0.000 
#    7.714    0.000    0.000    0.000    0.000    0.000 
#    0.000    0.000    0.000    0.000    0.000    0.000 
#
# Total GULP energy -78065.727169 kJ/mol
# GULP energy per Si atom -5576.123369 kJ/mol
# Density = 2.343014 g / cm^3
# Si number density = 23.483585 Si / 1000 Ang^3
#
#
#
# Elastic Constant Matrix: (Units=GPa)
#
#
# Indices 1 2 3 4 5 6 
#
# 1 68.3800 12.5780 27.8476 0.0000 4.9152 0.0000
# 2 12.5780 67.7676 45.0993 0.0000 2.4310 0.0000
# 3 27.8476 45.0993 35.5542 0.0000 13.3900 0.0000
# 4 0.0000 0.0000 0.0000 46.1260 0.0000 21.1097
# 5 4.9152 2.4310 13.3900 0.0000 28.2105 0.0000
# 6 0.0000 0.0000 0.0000 21.1097 0.0000 51.4639
#
#
#
# Elastic Compliance Matrix: (Units=1/GPa)
#
#
# Indices 1 2 3 4 5 6 
#
# 1 -0.002270 -0.042012 0.065214 0.000000 -0.026938 0.000000
# 2 -0.042012 -0.072396 0.145671 0.000000 -0.055584 0.000000
# 3 0.065214 0.145671 -0.241979 0.000000 0.090939 0.000000
# 4 0.000000 0.000000 0.000000 0.026690 0.000000 -0.010948
# 5 -0.026938 -0.055584 0.090939 0.000000 0.001767 0.000000
# 6 0.000000 0.000000 0.000000 -0.010948 0.000000 0.023922
#
#
# Mechanical properties :
#
#
# Convention : Reuss Voigt Hill
#
# Bulk Modulus (GPa) = 47.39366 38.08349 42.73858
# Shear Modulus (GPa) = -8.40367 30.90520 11.25076
#
# Velocity S-wave (km/s) = -1.89375 3.63165 2.19119
# Velocity P-wave (km/s) = 3.92985 5.81700 4.96393
#
# Compressibility (1/GPa) = 0.02109987
#
# Stress axis : x y z
#
# Youngs Moduli (GPa) = -440.56415 -13.81290 -4.13259
#
# Poissons Ratio (x) = -0.58031 0.26950
# Poissons Ratio (y) = -18.50898 0.60200
# Poissons Ratio (z) = 28.73076 2.01214
#
# Static dielectric constant tensor:
#      x y z
#    x 1.889390 0.000000 -0.021960 
#    y 0.000000 2.030840 0.000000 
#    z -0.021960 0.000000 1.932440 
# 
# From -- ./inp_files/11018.got.cif
#   From: 2010.05.17/outbox.cif.g08.bks.cpg/sg4_6_cif.got.tgz:11018.got - 2010.06.03 18:43:04.
