data_PCOD9116560
_publ_section_title
;
Structure prediction by ZEFSAII (Michael W. Deem and Ramdas Pophale) SiO2 
 PCOD9116560
Probable space group: P 21
;
_chemical_formula_sum "Si O2"
_cell_formula_units_Z 14
_cell_length_a 15.532305
_cell_length_b 5.113624
_cell_length_c 11.526574
_cell_angle_alpha 90.000000
_cell_angle_beta 137.029970
_cell_angle_gamma 90.000000
_cell_volume 624.028663
_symmetry_space_group_name_H-M "P 21"
_symmetry_group_IT_number 4
_symmetry_cell_setting 'monoclinic'
loop_
_space_group_symop_operation_xyz
x,y,z
-x,1/2+y,-z
loop_
_atom_site_type_symbol
_atom_site_label
_atom_site_fract_x
_atom_site_fract_y
_atom_site_fract_z
Si Si1 0.418369 0.669030 0.883077
Si Si2 0.236036 0.089615 0.043870
Si Si3 0.589686 0.710719 0.570878
Si Si4 0.617925 0.799176 0.338394
Si Si5 0.665473 0.089548 0.972569
Si Si6 0.861272 0.608929 0.453333
Si Si7 0.984425 0.611414 0.327521
O O1 0.388190 0.590956 0.722309
O O2 0.505599 0.427715 0.013154
O O3 0.304327 0.649779 0.862648
O O4 0.297976 0.146986 0.228702
O O5 0.314812 0.289080 0.038995
O O6 0.255078 0.787536 0.027850
O O7 0.092611 0.150496 0.867071
O O8 0.496697 0.458086 0.475620
O O9 0.647385 0.780478 0.502552
O O10 0.477503 0.680741 0.192271
O O11 0.719292 0.656093 0.356375
O O12 0.887491 0.627498 0.341464
O O13 0.914136 0.335700 0.550460
O O14 0.946116 0.835643 0.594618
#
# Coordination Sequence:
#
# PCOD9116560 Si02
#       7
#     2   2   2   2   2   2   2
#     4  10  22  35  56  94 132 163 202 267 333 395
#     4  12  22  42  65  91 130 178 214 269 315 396
#     4  12  25  43  63  96 135 178 218 263 328 392
#     4  11  23  41  64  96 134 166 218 266 332 390
#     4  11  22  37  64  95 130 165 212 265 339 393
#     4  10  23  41  65  92 124 170 212 276 323 388
#     4  10  23  43  63  90 127 168 220 262 332 382
#
# _framework density 22.434866
#
# number of rings (size 3 to 8) (size 9 to 14) (size 15 to 20)
#    0.000    1.143    2.857    3.429    0.000    9.143 
#    0.000    1.429    0.000    0.000    0.000    0.000 
#    0.000    0.000    0.000    0.000    0.000    0.000 
#
# Total GULP energy -78296.146339 kJ/mol
# GULP energy per Si atom -5592.581881 kJ/mol
# Density = 2.238380 g / cm^3
# Si number density = 22.434866 Si / 1000 Ang^3
#
#
#
# Elastic Constant Matrix: (Units=GPa)
#
#
# Indices 1 2 3 4 5 6 
#
# 1 44.4112 13.6150 14.9695 0.0000 -0.4335 0.0000
# 2 13.6150 91.7149 28.0013 0.0000 -6.5983 0.0000
# 3 14.9695 28.0013 129.0151 0.0000 -11.9045 0.0000
# 4 0.0000 0.0000 0.0000 29.6609 0.0000 6.0413
# 5 -0.4335 -6.5983 -11.9045 0.0000 41.2647 0.0000
# 6 0.0000 0.0000 0.0000 6.0413 0.0000 29.9150
#
#
#
# Elastic Compliance Matrix: (Units=1/GPa)
#
#
# Indices 1 2 3 4 5 6 
#
# 1 0.024173 -0.002967 -0.002241 0.000000 -0.000867 0.000000
# 2 -0.002967 0.012096 -0.002163 0.000000 0.001279 0.000000
# 3 -0.002241 -0.002163 0.008677 0.000000 0.002134 0.000000
# 4 0.000000 0.000000 0.000000 0.035161 0.000000 -0.007101
# 5 -0.000867 0.001279 0.002134 0.000000 0.025045 0.000000
# 6 0.000000 0.000000 0.000000 -0.007101 0.000000 0.034862
#
#
# Mechanical properties :
#
#
# Convention : Reuss Voigt Hill
#
# Bulk Modulus (GPa) = 33.10665 42.03474 37.57070
# Shear Modulus (GPa) = 30.33536 34.07181 32.20358
#
# Velocity S-wave (km/s) = 3.68115 3.90128 3.79281
# Velocity P-wave (km/s) = 5.73207 6.25062 5.99696
#
# Compressibility (1/GPa) = 0.03020541
#
# Stress axis : x y z
#
# Youngs Moduli (GPa) = 41.36813 82.67064 115.24167
#
# Poissons Ratio (x) = 0.24526 0.25824
# Poissons Ratio (y) = 0.12273 0.24928
# Poissons Ratio (z) = 0.09270 0.17883
#
# Static dielectric constant tensor:
#      x y z
#    x 1.873610 0.000000 -0.024410 
#    y 0.000000 1.874460 0.000000 
#    z -0.024410 0.000000 1.877650 
# 
# From -- ./inp_files/12509.got.cif
#   From: 2010.05.17/outbox.cif.g08.bks.cpg/sg4_7_cif.got.tgz:12509.got - 2010.06.03 18:43:04.
