data_PCOD9116447
_publ_section_title
;
Structure prediction by ZEFSAII (Michael W. Deem and Ramdas Pophale) SiO2 
 PCOD9116447
Probable space group: P 21
;
_chemical_formula_sum "Si O2"
_cell_formula_units_Z 16
_cell_length_a 9.480124
_cell_length_b 13.144253
_cell_length_c 5.408719
_cell_angle_alpha 90.000000
_cell_angle_beta 67.237344
_cell_angle_gamma 90.000000
_cell_volume 621.483614
_symmetry_space_group_name_H-M "P 21"
_symmetry_group_IT_number 4
_symmetry_cell_setting 'monoclinic'
loop_
_space_group_symop_operation_xyz
x,y,z
-x,1/2+y,-z
loop_
_atom_site_type_symbol
_atom_site_label
_atom_site_fract_x
_atom_site_fract_y
_atom_site_fract_z
Si Si1 0.476043 0.312240 0.358766
Si Si2 0.366022 0.486500 0.694474
Si Si3 0.360894 0.163890 0.818699
Si Si4 0.161730 0.979932 0.082626
Si Si5 0.885661 0.360365 0.402532
Si Si6 0.778827 0.845880 0.842651
Si Si7 0.646885 0.162923 0.960253
Si Si8 0.128262 0.619138 0.556407
O O1 0.494191 0.404670 0.533956
O O2 0.377102 0.219630 0.544262
O O3 0.365934 0.363402 0.232542
O O4 0.624601 0.261581 0.144863
O O5 0.424587 0.567725 0.848804
O O6 0.270937 0.554412 0.567014
O O7 0.240213 0.415874 0.907744
O O8 0.302761 0.050834 0.895308
O O9 0.241605 0.231552 0.052788
O O10 0.528724 0.183040 0.818743
O O11 0.022817 0.057164 0.263156
O O12 0.199287 0.913358 0.305298
O O13 0.121884 0.916947 0.858176
O O14 0.863992 0.238725 0.376324
O O15 0.060488 0.366102 0.385082
O O16 0.818253 0.131701 0.767801
#
# Coordination Sequence:
#
# PCOD9116447 Si02
#       8
#     2   2   2   2   2   2   2   2
#     4  10  23  45  74 106 145 199 272 304 383 475
#     4  11  22  45  72 108 143 204 249 315 388 458
#     4  10  24  48  72 105 148 201 252 317 385 458
#     4  12  28  50  79 114 155 206 253 329 393 461
#     4  12  28  47  76 120 154 197 264 320 396 458
#     4  10  21  43  75 103 140 197 253 307 376 473
#     4  11  25  47  71 109 150 202 256 321 386 463
#     4  12  27  49  77 111 157 198 259 325 391 468
#
# _framework density 25.744847
#
# number of rings (size 3 to 8) (size 9 to 14) (size 15 to 20)
#    0.000    1.000    2.500    3.000    7.000    0.000 
#   13.500    0.000    0.000    0.000    0.000    0.000 
#    0.000    0.000    0.000    0.000    0.000    0.000 
#
# Total GULP energy -89356.658906 kJ/mol
# GULP energy per Si atom -5584.791182 kJ/mol
# Density = 2.568625 g / cm^3
# Si number density = 25.744847 Si / 1000 Ang^3
#
#
#
# Elastic Constant Matrix: (Units=GPa)
#
#
# Indices 1 2 3 4 5 6 
#
# 1 51.4586 32.4721 27.3942 0.0000 1.8974 0.0000
# 2 32.4721 171.0328 78.9257 0.0000 -10.0447 0.0000
# 3 27.3942 78.9257 122.2891 0.0000 -11.4633 0.0000
# 4 0.0000 0.0000 0.0000 63.8836 0.0000 -4.5683
# 5 1.8974 -10.0447 -11.4633 0.0000 26.2097 0.0000
# 6 0.0000 0.0000 0.0000 -4.5683 0.0000 33.1759
#
#
#
# Elastic Compliance Matrix: (Units=1/GPa)
#
#
# Indices 1 2 3 4 5 6 
#
# 1 0.023483 -0.002991 -0.003750 0.000000 -0.004487 0.000000
# 2 -0.002991 0.008727 -0.004827 0.000000 0.001450 0.000000
# 3 -0.003750 -0.004827 0.012497 0.000000 0.003888 0.000000
# 4 0.000000 0.000000 0.000000 0.015809 0.000000 0.002177
# 5 -0.004487 0.001450 0.003888 0.000000 0.040735 0.000000
# 6 0.000000 0.000000 0.000000 0.002177 0.000000 0.030442
#
#
# Mechanical properties :
#
#
# Convention : Reuss Voigt Hill
#
# Bulk Modulus (GPa) = 46.35977 69.15161 57.75569
# Shear Modulus (GPa) = 30.86055 38.38642 34.62348
#
# Velocity S-wave (km/s) = 3.46599 3.86558 3.67123
# Velocity P-wave (km/s) = 5.83643 6.84414 6.36028
#
# Compressibility (1/GPa) = 0.02157043
#
# Stress axis : x y z
#
# Youngs Moduli (GPa) = 42.58473 114.58446 80.01948
#
# Poissons Ratio (x) = 0.34274 0.30011
# Poissons Ratio (y) = 0.12738 0.38622
# Poissons Ratio (z) = 0.15971 0.55305
#
# Static dielectric constant tensor:
#      x y z
#    x 2.018420 0.000000 0.006170 
#    y 0.000000 2.029220 0.000000 
#    z 0.006170 0.000000 2.096510 
# 
# From -- ./inp_files/3030.got.cif
#   From: 2010.05.17/outbox.cif.g08.bks.cpg/sg4_2_cif.got.tgz:3030.got - 2010.06.03 18:43:04.
