data_PCOD9116041
_publ_section_title
;
Structure prediction by ZEFSAII (Michael W. Deem and Ramdas Pophale) SiO2 
 PCOD9116041
Probable space group: P 21
;
_chemical_formula_sum "Si O2"
_cell_formula_units_Z 16
_cell_length_a 13.237979
_cell_length_b 5.220565
_cell_length_c 11.996162
_cell_angle_alpha 90.000000
_cell_angle_beta 58.859073
_cell_angle_gamma 90.000000
_cell_volume 709.583451
_symmetry_space_group_name_H-M "P 21"
_symmetry_group_IT_number 4
_symmetry_cell_setting 'monoclinic'
loop_
_space_group_symop_operation_xyz
x,y,z
-x,1/2+y,-z
loop_
_atom_site_type_symbol
_atom_site_label
_atom_site_fract_x
_atom_site_fract_y
_atom_site_fract_z
Si Si1 0.619480 0.398350 0.189789
Si Si2 0.269829 0.724612 0.655362
Si Si3 0.202623 0.432798 0.394449
Si Si4 0.278842 0.176128 0.056026
Si Si5 0.598321 0.231758 0.626024
Si Si6 0.137830 0.674207 0.207135
Si Si7 0.130563 0.218027 0.662095
Si Si8 0.567561 0.643111 0.835463
O O1 0.687297 0.236287 0.241953
O O2 0.504126 0.522190 0.312390
O O3 0.561332 0.244760 0.120775
O O4 0.701267 0.606143 0.083634
O O5 0.383500 0.804662 0.513091
O O6 0.210099 0.448414 0.666875
O O7 0.178175 0.951009 0.681377
O O8 0.266633 0.651342 0.428531
O O9 0.128817 0.564511 0.338998
O O10 0.144092 0.250583 0.519401
O O11 0.317733 0.300956 0.274087
O O12 0.209284 0.442289 0.108125
O O13 0.404575 0.168641 0.049794
O O14 0.208496 0.941040 0.155965
O O15 0.572497 0.402358 0.749103
O O16 0.008243 0.729629 0.234607
#
# Coordination Sequence:
#
# PCOD9116041 Si02
#       8
#     2   2   2   2   2   2   2   2
#     4  11  28  40  70  98 138 194 222 277 342 412
#     4  11  26  45  67 103 141 175 236 281 336 421
#     4   9  20  38  62 104 136 170 212 285 348 416
#     4  11  26  45  67 103 141 175 236 281 336 421
#     4  10  21  39  65  98 138 175 214 278 341 412
#     4  11  24  44  70 100 137 180 228 290 348 399
#     4  11  24  44  70 100 137 180 228 290 348 399
#     4  10  21  39  65  98 138 175 214 278 341 412
#
# _framework density 22.548441
#
# number of rings (size 3 to 8) (size 9 to 14) (size 15 to 20)
#    0.000    1.500    2.500    0.750    7.000    4.000 
#    0.000    2.500    0.000    0.000    0.000    0.000 
#    0.000    0.000    0.000    0.000    0.000    0.000 
#
# Total GULP energy -89200.989456 kJ/mol
# GULP energy per Si atom -5575.061841 kJ/mol
# Density = 2.249712 g / cm^3
# Si number density = 22.548441 Si / 1000 Ang^3
#
#
#
# Elastic Constant Matrix: (Units=GPa)
#
#
# Indices 1 2 3 4 5 6 
#
# 1 65.1937 9.4499 28.9256 0.0000 1.6450 0.0000
# 2 9.4499 66.4820 0.5977 0.0000 -5.4565 0.0000
# 3 28.9256 0.5977 61.2448 0.0000 11.6234 0.0000
# 4 0.0000 0.0000 0.0000 28.1562 0.0000 4.4398
# 5 1.6450 -5.4565 11.6234 0.0000 22.8800 0.0000
# 6 0.0000 0.0000 0.0000 4.4398 0.0000 31.1935
#
#
#
# Elastic Compliance Matrix: (Units=1/GPa)
#
#
# Indices 1 2 3 4 5 6 
#
# 1 0.020080 -0.002513 -0.010040 0.000000 0.003057 0.000000
# 2 -0.002513 0.015705 0.000319 0.000000 0.003764 0.000000
# 3 -0.010040 0.000319 0.023147 0.000000 -0.010961 0.000000
# 4 0.000000 0.000000 0.000000 0.036332 0.000000 -0.005171
# 5 0.003057 0.003764 -0.010961 0.000000 0.049952 0.000000
# 6 0.000000 0.000000 0.000000 -0.005171 0.000000 0.032794
#
#
# Mechanical properties :
#
#
# Convention : Reuss Voigt Hill
#
# Bulk Modulus (GPa) = 29.01465 30.09632 29.55549
# Shear Modulus (GPa) = 23.36829 26.70909 25.03869
#
# Velocity S-wave (km/s) = 3.22275 3.44542 3.33594
# Velocity P-wave (km/s) = 5.17144 5.40410 5.28905
#
# Compressibility (1/GPa) = 0.03446535
#
# Stress axis : x y z
#
# Youngs Moduli (GPa) = 49.79959 63.67429 43.20277
#
# Poissons Ratio (x) = 0.16002 0.43374
# Poissons Ratio (y) = 0.12515 -0.01380
# Poissons Ratio (z) = 0.49997 -0.02033
#
# Static dielectric constant tensor:
#      x y z
#    x 1.846050 0.000000 0.114180 
#    y 0.000000 1.916840 0.000000 
#    z 0.114180 0.000000 1.979550 
# 
# From -- ./inp_files/11735.got.cif
#   From: 2010.05.17/outbox.cif.g08.bks.cpg/sg4_6_cif.got.tgz:11735.got - 2010.06.03 18:43:04.
