data_PCOD9116955
_publ_section_title
;
Structure prediction by ZEFSAII (Michael W. Deem and Ramdas Pophale) SiO2 
 PCOD9116955
Probable space group: P 21
;
_chemical_formula_sum "Si O2"
_cell_formula_units_Z 14
_cell_length_a 5.758743
_cell_length_b 8.241445
_cell_length_c 13.818079
_cell_angle_alpha 90.000000
_cell_angle_beta 70.137384
_cell_angle_gamma 90.000000
_cell_volume 616.796866
_symmetry_space_group_name_H-M "P 21"
_symmetry_group_IT_number 4
_symmetry_cell_setting 'monoclinic'
loop_
_space_group_symop_operation_xyz
x,y,z
-x,1/2+y,-z
loop_
_atom_site_type_symbol
_atom_site_label
_atom_site_fract_x
_atom_site_fract_y
_atom_site_fract_z
Si Si1 0.691450 0.210120 0.786881
Si Si2 0.377953 0.990251 0.574467
Si Si3 0.344780 0.380902 0.961461
Si Si4 0.196085 0.387114 0.333317
Si Si5 0.334331 0.190123 0.143705
Si Si6 0.542889 0.851237 0.355032
Si Si7 0.038709 0.443382 0.852278
O O1 0.434017 0.233007 0.879465
O O2 0.680584 0.302214 0.685076
O O3 0.869328 0.301135 0.834401
O O4 0.758220 0.031236 0.749578
O O5 0.605749 0.917667 0.607867
O O6 0.470155 0.969253 0.451749
O O7 0.104160 0.902453 0.610923
O O8 0.358899 0.178219 0.613912
O O9 0.072872 0.411523 0.961102
O O10 0.481322 0.543059 0.905354
O O11 0.395930 0.336765 0.063261
O O12 0.290733 0.230690 0.261385
O O13 0.075657 0.119345 0.143332
O O14 0.734035 0.931343 0.254158
#
# Coordination Sequence:
#
# PCOD9116955 Si02
#       7
#     2   2   2   2   2   2   2
#     4   9  20  44  65  92 132 173 223 281 335 401
#     4  11  26  42  71 100 138 181 228 279 340 407
#     4  10  23  43  64  98 128 180 222 282 342 406
#     4  11  25  44  66 104 135 181 226 282 336 403
#     4  11  25  41  68  95 139 172 230 279 342 409
#     4  10  23  42  66  97 138 174 227 279 342 399
#     4  10  22  42  66  96 130 177 222 284 335 405
#
# _framework density 22.69791
#
# number of rings (size 3 to 8) (size 9 to 14) (size 15 to 20)
#    0.000    1.714    1.429    0.857    6.000    5.714 
#    0.000    0.000    0.000    0.000    0.000    0.000 
#    0.000    0.000    0.000    0.000    0.000    0.000 
#
# Total GULP energy -77971.331824 kJ/mol
# GULP energy per Si atom -5569.380845 kJ/mol
# Density = 2.264625 g / cm^3
# Si number density = 22.697910 Si / 1000 Ang^3
#
#
#
# Elastic Constant Matrix: (Units=GPa)
#
#
# Indices 1 2 3 4 5 6 
#
# 1 84.3467 11.2573 21.5189 0.0000 0.7794 0.0000
# 2 11.2573 33.1340 0.8247 0.0000 -1.4634 0.0000
# 3 21.5189 0.8247 57.6572 0.0000 10.1663 0.0000
# 4 0.0000 0.0000 0.0000 41.7745 0.0000 0.0092
# 5 0.7794 -1.4634 10.1663 0.0000 17.3156 0.0000
# 6 0.0000 0.0000 0.0000 0.0092 0.0000 26.6526
#
#
#
# Elastic Compliance Matrix: (Units=1/GPa)
#
#
# Indices 1 2 3 4 5 6 
#
# 1 0.013832 -0.004465 -0.005491 0.000000 0.002224 0.000000
# 2 -0.004465 0.031785 0.000784 0.000000 0.002427 0.000000
# 3 -0.005491 0.000784 0.021558 0.000000 -0.012344 0.000000
# 4 0.000000 0.000000 0.000000 0.023938 0.000000 -0.000008
# 5 0.002224 0.002427 -0.012344 0.000000 0.065104 0.000000
# 6 0.000000 0.000000 0.000000 -0.000008 0.000000 0.037520
#
#
# Mechanical properties :
#
#
# Convention : Reuss Voigt Hill
#
# Bulk Modulus (GPa) = 20.47821 26.92663 23.70242
# Shear Modulus (GPa) = 21.89550 26.58434 24.23992
#
# Velocity S-wave (km/s) = 3.10925 3.42603 3.27147
# Velocity P-wave (km/s) = 4.68311 5.24776 4.97346
#
# Compressibility (1/GPa) = 0.04883240
#
# Stress axis : x y z
#
# Youngs Moduli (GPa) = 72.29649 31.46142 46.38554
#
# Poissons Ratio (x) = 0.14046 0.25469
# Poissons Ratio (y) = 0.32277 -0.03635
# Poissons Ratio (z) = 0.39695 -0.02466
#
# Static dielectric constant tensor:
#      x y z
#    x 2.083850 0.000000 -0.034140 
#    y 0.000000 1.882360 0.000000 
#    z -0.034140 0.000000 1.820950 
# 
# From -- ./inp_files/13202.got.cif
#   From: 2010.05.17/outbox.cif.g08.bks.cpg/sg4_7_cif.got.tgz:13202.got - 2010.06.03 18:43:04.
