data_PCOD9116878
_publ_section_title
;
Structure prediction by ZEFSAII (Michael W. Deem and Ramdas Pophale) SiO2 
 PCOD9116878
Probable space group: P 21
;
_chemical_formula_sum "Si O2"
_cell_formula_units_Z 12
_cell_length_a 15.602796
_cell_length_b 5.180841
_cell_length_c 9.317776
_cell_angle_alpha 90.000000
_cell_angle_beta 144.784195
_cell_angle_gamma 90.000000
_cell_volume 434.343231
_symmetry_space_group_name_H-M "P 21"
_symmetry_group_IT_number 4
_symmetry_cell_setting 'monoclinic'
loop_
_space_group_symop_operation_xyz
x,y,z
-x,1/2+y,-z
loop_
_atom_site_type_symbol
_atom_site_label
_atom_site_fract_x
_atom_site_fract_y
_atom_site_fract_z
Si Si1 0.761077 0.931020 0.572671
Si Si2 0.125436 0.101441 0.817000
Si Si3 0.919417 0.604022 0.562883
Si Si4 0.596851 0.198605 0.112122
Si Si5 0.480945 0.611070 0.283793
Si Si6 0.286453 0.780619 0.269036
O O1 0.838712 0.687234 0.601559
O O2 0.602326 0.830650 0.415398
O O3 0.729095 0.123716 0.396808
O O4 0.825528 0.102290 0.791994
O O5 0.176733 0.104083 0.718629
O O6 0.026780 0.354544 0.713917
O O7 0.023762 0.849340 0.681067
O O8 0.232326 0.026211 0.098925
O O9 0.534116 0.485900 0.041561
O O10 0.635387 0.128304 0.003001
O O11 0.380950 0.619868 0.285514
O O12 0.589835 0.372111 0.448025
#
# Coordination Sequence:
#
# PCOD9116878 Si02
#       6
#     2   2   2   2   2   2
#     4  11  25  45  77 113 158 209 266 326 394 484
#     4  10  26  50  80 109 154 210 268 341 401 468
#     4  10  25  51  79 111 148 210 282 328 396 481
#     4  10  22  41  67 105 153 200 247 305 381 480
#     4  11  25  43  70 113 163 203 250 310 411 485
#     4  12  25  46  75 117 164 206 259 330 407 478
#
# _framework density 27.627917
#
# number of rings (size 3 to 8) (size 9 to 14) (size 15 to 20)
#    0.000    1.333    3.333    0.000    4.667   10.667 
#    3.000    0.000    0.000    0.000    0.000    0.000 
#    0.000    0.000    0.000    0.000    0.000    0.000 
#
# Total GULP energy -67071.114835 kJ/mol
# GULP energy per Si atom -5589.259570 kJ/mol
# Density = 2.756503 g / cm^3
# Si number density = 27.627917 Si / 1000 Ang^3
#
#
#
# Elastic Constant Matrix: (Units=GPa)
#
#
# Indices 1 2 3 4 5 6 
#
# 1 149.4683 57.6241 56.0752 0.0000 -25.5797 0.0000
# 2 57.6241 180.2411 47.5108 0.0000 5.5979 0.0000
# 3 56.0752 47.5108 81.9967 0.0000 -15.6805 0.0000
# 4 0.0000 0.0000 0.0000 51.2608 0.0000 5.1401
# 5 -25.5797 5.5979 -15.6805 0.0000 37.8833 0.0000
# 6 0.0000 0.0000 0.0000 5.1401 0.0000 41.5856
#
#
#
# Elastic Compliance Matrix: (Units=1/GPa)
#
#
# Indices 1 2 3 4 5 6 
#
# 1 0.010197 -0.002184 -0.004702 0.000000 0.005262 0.000000
# 2 -0.002184 0.007292 -0.003497 0.000000 -0.004000 0.000000
# 3 -0.004702 -0.003497 0.018384 0.000000 0.004951 0.000000
# 4 0.000000 0.000000 0.000000 0.019753 0.000000 -0.002442
# 5 0.005262 -0.004000 0.004951 0.000000 0.032590 0.000000
# 6 0.000000 0.000000 0.000000 -0.002442 0.000000 0.024349
#
#
# Mechanical properties :
#
#
# Convention : Reuss Voigt Hill
#
# Bulk Modulus (GPa) = 66.18820 81.56958 73.87889
# Shear Modulus (GPa) = 36.13635 42.84567 39.49101
#
# Velocity S-wave (km/s) = 3.62050 3.94231 3.78483
# Velocity P-wave (km/s) = 6.44099 7.09301 6.77485
#
# Compressibility (1/GPa) = 0.01510843
#
# Stress axis : x y z
#
# Youngs Moduli (GPa) = 98.07057 137.13137 54.39604
#
# Poissons Ratio (x) = 0.29950 0.25574
# Poissons Ratio (y) = 0.21419 0.19020
# Poissons Ratio (z) = 0.46108 0.47949
#
# Static dielectric constant tensor:
#      x y z
#    x 2.170000 0.000000 -0.068570 
#    y 0.000000 2.175630 0.000000 
#    z -0.068570 0.000000 2.267590 
# 
# From -- ./inp_files/7049.got.cif
#   From: 2010.05.17/outbox.cif.g08.bks.cpg/sg4_4_cif.got.tgz:7049.got - 2010.06.03 18:43:04.
