data_PCOD9116837
_publ_section_title
;
Structure prediction by ZEFSAII (Michael W. Deem and Ramdas Pophale) SiO2 
 PCOD9116837
Probable space group: P 21
;
_chemical_formula_sum "Si O2"
_cell_formula_units_Z 16
_cell_length_a 20.545647
_cell_length_b 4.929332
_cell_length_c 4.925337
_cell_angle_alpha 90.000000
_cell_angle_beta 92.184642
_cell_angle_gamma 90.000000
_cell_volume 498.457425
_symmetry_space_group_name_H-M "P 21"
_symmetry_group_IT_number 4
_symmetry_cell_setting 'monoclinic'
loop_
_space_group_symop_operation_xyz
x,y,z
-x,1/2+y,-z
loop_
_atom_site_type_symbol
_atom_site_label
_atom_site_fract_x
_atom_site_fract_y
_atom_site_fract_z
Si Si1 0.779103 0.463230 0.170153
Si Si2 0.106016 0.405222 0.478425
Si Si3 0.001461 0.630845 0.736923
Si Si4 0.359386 0.166414 0.936875
Si Si5 0.487693 0.004374 0.804667
Si Si6 0.761079 0.086150 0.645236
Si Si7 0.095796 0.872210 0.035486
Si Si8 0.381253 0.651030 0.289414
O O1 0.717668 0.649234 0.110771
O O2 0.772964 0.344295 0.462074
O O3 0.771161 0.208511 0.951375
O O4 0.852923 0.552676 0.121891
O O5 0.016509 0.368318 0.518450
O O6 0.186831 0.374842 0.471361
O O7 0.083107 0.127272 0.282596
O O8 0.107114 0.641302 0.252517
O O9 0.984358 0.397885 0.019383
O O10 0.087103 0.621176 0.754038
O O11 0.411302 0.049419 0.727517
O O12 0.377424 0.469579 0.014006
O O13 0.370921 0.955568 0.187132
O O14 0.545003 0.087242 0.604061
O O15 0.498315 0.220789 0.051128
O O16 0.683925 0.034317 0.581474
#
# Coordination Sequence:
#
# PCOD9116837 Si02
#       8
#     2   2   2   2   2   2   2   2
#     4  10  22  41  64  91 130 169 214 270 331 394
#     4  11  23  38  60  87 121 159 211 263 326 384
#     4  12  22  38  60  86 116 162 210 266 322 388
#     4   9  18  35  62  95 133 174 220 270 327 391
#     4   8  14  28  56  92 128 170 216 266 320 384
#     4  10  22  41  64  91 130 169 214 270 331 394
#     4  11  23  38  60  87 121 159 211 263 326 384
#     4   9  18  35  62  95 133 174 220 270 327 391
#
# _framework density 32.099027
#
# number of rings (size 3 to 8) (size 9 to 14) (size 15 to 20)
#    0.000    2.000    3.750    0.000    1.750    0.000 
#    0.000    5.000    0.000   19.500    0.000    0.000 
#    0.000    0.000    0.000    0.000    0.000    0.000 
#
# Total GULP energy -89482.012593 kJ/mol
# GULP energy per Si atom -5592.625787 kJ/mol
# Density = 3.202597 g / cm^3
# Si number density = 32.099027 Si / 1000 Ang^3
#
#
#
# Elastic Constant Matrix: (Units=GPa)
#
#
# Indices 1 2 3 4 5 6 
#
# 1 196.1550 1.8173 41.1900 0.0000 -68.5114 0.0000
# 2 1.8173 173.7600 31.4803 0.0000 -10.8227 0.0000
# 3 41.1900 31.4803 171.1156 0.0000 -11.5571 0.0000
# 4 0.0000 0.0000 0.0000 37.3712 0.0000 -34.5276
# 5 -68.5114 -10.8227 -11.5571 0.0000 70.5251 0.0000
# 6 0.0000 0.0000 0.0000 -34.5276 0.0000 45.8763
#
#
#
# Elastic Compliance Matrix: (Units=1/GPa)
#
#
# Indices 1 2 3 4 5 6 
#
# 1 0.008122 0.000679 -0.001557 0.000000 0.007739 0.000000
# 2 0.000679 0.006049 -0.001182 0.000000 0.001394 0.000000
# 3 -0.001557 -0.001182 0.006393 0.000000 -0.000647 0.000000
# 4 0.000000 0.000000 0.000000 0.087836 0.000000 0.066107
# 5 0.007739 0.001394 -0.000647 0.000000 0.021805 0.000000
# 6 0.000000 0.000000 0.000000 0.066107 0.000000 0.071552
#
#
# Mechanical properties :
#
#
# Convention : Reuss Voigt Hill
#
# Bulk Modulus (GPa) = 60.81668 76.66731 68.74199
# Shear Modulus (GPa) = 23.65663 61.85738 42.75701
#
# Velocity S-wave (km/s) = 2.71770 4.39461 3.65366
# Velocity P-wave (km/s) = 5.36988 7.04888 6.26587
#
# Compressibility (1/GPa) = 0.01644286
#
# Stress axis : x y z
#
# Youngs Moduli (GPa) = 123.12741 165.31705 156.42912
#
# Poissons Ratio (x) = -0.11228 0.24360
# Poissons Ratio (y) = -0.08363 0.18492
# Poissons Ratio (z) = 0.19174 0.19543
#
# Static dielectric constant tensor:
#      x y z
#    x 2.883860 0.000000 0.023290 
#    y 0.000000 2.584890 0.000000 
#    z 0.023290 0.000000 2.583060 
# 
# From -- ./inp_files/4302.got.cif
#   From: 2010.05.17/outbox.cif.g08.bks.cpg/sg4_3_cif.got.tgz:4302.got - 2010.06.03 18:43:04.
