data_PCOD9116046
_publ_section_title
;
Structure prediction by ZEFSAII (Michael W. Deem and Ramdas Pophale) SiO2 
 PCOD9116046
Probable space group: P 21
;
_chemical_formula_sum "Si O2"
_cell_formula_units_Z 14
_cell_length_a 8.438773
_cell_length_b 4.923572
_cell_length_c 14.751276
_cell_angle_alpha 90.000000
_cell_angle_beta 101.299514
_cell_angle_gamma 90.000000
_cell_volume 601.019141
_symmetry_space_group_name_H-M "P 21"
_symmetry_group_IT_number 4
_symmetry_cell_setting 'monoclinic'
loop_
_space_group_symop_operation_xyz
x,y,z
-x,1/2+y,-z
loop_
_atom_site_type_symbol
_atom_site_label
_atom_site_fract_x
_atom_site_fract_y
_atom_site_fract_z
Si Si1 0.910851 0.754650 0.956360
Si Si2 0.765411 0.708944 0.233743
Si Si3 0.601653 0.553420 0.030431
Si Si4 0.177929 0.700165 0.659171
Si Si5 0.920329 0.520260 0.759221
Si Si6 0.709426 0.878740 0.490174
Si Si7 0.341126 0.873012 0.399214
O O1 0.916180 0.681227 0.851567
O O2 0.743359 0.660790 0.981436
O O3 0.047883 0.565542 0.018367
O O4 0.664578 0.593425 0.139780
O O5 0.763380 0.505486 0.319483
O O6 0.714944 0.005870 0.262990
O O7 0.949494 0.772406 0.220971
O O8 0.551906 0.246476 0.004513
O O9 0.171536 0.536863 0.564667
O O10 0.003932 0.691511 0.687758
O O11 0.746037 0.436734 0.704129
O O12 0.533100 0.908717 0.423632
O O13 0.698718 0.067143 0.577561
O O14 0.725028 0.573529 0.528281
#
# Coordination Sequence:
#
# PCOD9116046 Si02
#       7
#     2   2   2   2   2   2   2
#     4  12  24  45  70  96 136 180 220 280 340 390
#     4  10  22  41  60  94 127 163 216 274 316 387
#     4  12  25  43  66  99 135 176 224 277 339 401
#     4  10  21  39  66  87 127 165 209 268 325 378
#     4  10  25  39  68  93 126 168 226 267 319 401
#     4  10  22  42  61  91 130 168 202 272 329 391
#     4  10  23  39  63  92 127 164 217 260 330 390
#
# _framework density 23.293765
#
# number of rings (size 3 to 8) (size 9 to 14) (size 15 to 20)
#    0.857    0.571    1.429    3.429    2.000    3.429 
#    0.000    0.000    0.000    0.000    0.000    0.000 
#    0.000    0.000    0.000    0.000    0.000    0.000 
#
# Total GULP energy -78189.393403 kJ/mol
# GULP energy per Si atom -5584.956672 kJ/mol
# Density = 2.324075 g / cm^3
# Si number density = 23.293765 Si / 1000 Ang^3
#
#
#
# Elastic Constant Matrix: (Units=GPa)
#
#
# Indices 1 2 3 4 5 6 
#
# 1 49.7053 -4.2633 13.8218 0.0000 -9.8630 0.0000
# 2 -4.2633 86.6333 -15.9792 0.0000 8.8445 0.0000
# 3 13.8218 -15.9792 59.0350 0.0000 23.3542 0.0000
# 4 0.0000 0.0000 0.0000 23.1883 0.0000 -1.7390
# 5 -9.8630 8.8445 23.3542 0.0000 38.5053 0.0000
# 6 0.0000 0.0000 0.0000 -1.7390 0.0000 22.3175
#
#
#
# Elastic Compliance Matrix: (Units=1/GPa)
#
#
# Indices 1 2 3 4 5 6 
#
# 1 0.026526 -0.002645 -0.012966 0.000000 0.015266 0.000000
# 2 -0.002645 0.013696 0.007682 0.000000 -0.008482 0.000000
# 3 -0.012966 0.007682 0.031663 0.000000 -0.024290 0.000000
# 4 0.000000 0.000000 0.000000 0.043379 0.000000 0.003380
# 5 0.015266 -0.008482 -0.024290 0.000000 0.046561 0.000000
# 6 0.000000 0.000000 0.000000 0.003380 0.000000 0.045071
#
#
# Mechanical properties :
#
#
# Convention : Reuss Voigt Hill
#
# Bulk Modulus (GPa) = 17.84815 20.28136 19.06476
# Shear Modulus (GPa) = 20.70997 30.25516 25.48256
#
# Velocity S-wave (km/s) = 2.98498 3.60787 3.31110
# Velocity P-wave (km/s) = 4.42255 5.10699 4.77704
#
# Compressibility (1/GPa) = 0.05602822
#
# Stress axis : x y z
#
# Youngs Moduli (GPa) = 37.69820 73.01599 31.58256
#
# Poissons Ratio (x) = 0.19310 0.40949
# Poissons Ratio (y) = 0.09970 -0.24261
# Poissons Ratio (z) = 0.48878 -0.56090
#
# Static dielectric constant tensor:
#      x y z
#    x 1.887720 0.000000 -0.019480 
#    y 0.000000 1.842840 0.000000 
#    z -0.019480 0.000000 1.861440 
# 
# From -- ./inp_files/13480.got.cif
#   From: 2010.05.17/outbox.cif.g08.bks.cpg/sg4_7_cif.got.tgz:13480.got - 2010.06.03 18:43:04.
