data_PCOD9116863
_publ_section_title
;
Structure prediction by ZEFSAII (Michael W. Deem and Ramdas Pophale) SiO2 
 PCOD9116863
Probable space group: P 21
;
_chemical_formula_sum "Si O2"
_cell_formula_units_Z 14
_cell_length_a 9.371994
_cell_length_b 10.929470
_cell_length_c 10.746144
_cell_angle_alpha 90.000000
_cell_angle_beta 29.398866
_cell_angle_gamma 90.000000
_cell_volume 540.337188
_symmetry_space_group_name_H-M "P 21"
_symmetry_group_IT_number 4
_symmetry_cell_setting 'monoclinic'
loop_
_space_group_symop_operation_xyz
x,y,z
-x,1/2+y,-z
loop_
_atom_site_type_symbol
_atom_site_label
_atom_site_fract_x
_atom_site_fract_y
_atom_site_fract_z
Si Si1 0.321459 0.141310 0.374043
Si Si2 0.278317 0.031806 0.887351
Si Si3 0.751639 0.957135 0.133350
Si Si4 0.073297 0.768173 0.477710
Si Si5 0.577359 0.836119 0.506709
Si Si6 0.423424 0.832109 0.976142
Si Si7 0.986109 0.262285 0.200978
O O1 0.045575 0.141389 0.493790
O O2 0.262316 0.244726 0.523037
O O3 0.448478 0.023063 0.341248
O O4 0.580929 0.200855 0.092797
O O5 0.271506 0.932518 0.004660
O O6 0.007355 0.036942 0.997716
O O7 0.233666 0.160893 0.989225
O O8 0.526407 0.968647 0.611690
O O9 0.717845 0.856601 0.267155
O O10 0.861885 0.893448 0.926158
O O11 0.156108 0.744689 0.556306
O O12 0.293064 0.824371 0.212132
O O13 0.774090 0.847640 0.710680
O O14 0.268102 0.773568 0.708798
#
# Coordination Sequence:
#
# PCOD9116863 Si02
#       7
#     2   2   2   2   2   2   2
#     4   9  21  42  65  97 129 181 211 270 333 392
#     4  10  22  42  66  95 129 176 217 275 332 395
#     4  11  23  40  67  97 132 169 221 282 324 392
#     4  10  23  44  68  98 136 173 221 268 329 396
#     4  10  22  41  66  94 126 170 220 273 327 393
#     4   9  22  45  68  93 133 180 218 261 335 394
#     4  11  25  40  64 102 127 167 226 277 324 396
#
# _framework density 25.909746999999999
#
# number of rings (size 3 to 8) (size 9 to 14) (size 15 to 20)
#    0.857    1.143    1.429    0.857    4.000    3.429 
#    2.571    0.000    0.000    0.000    0.000    0.000 
#    0.000    0.000    0.000    0.000    0.000    0.000 
#
# Total GULP energy -78187.288129 kJ/mol
# GULP energy per Si atom -5584.806295 kJ/mol
# Density = 2.585078 g / cm^3
# Si number density = 25.909747 Si / 1000 Ang^3
#
#
#
# Elastic Constant Matrix: (Units=GPa)
#
#
# Indices 1 2 3 4 5 6 
#
# 1 94.8559 15.3192 25.0652 0.0000 23.2566 0.0000
# 2 15.3192 42.6989 5.8016 0.0000 7.2498 0.0000
# 3 25.0652 5.8016 127.9986 0.0000 27.2965 0.0000
# 4 0.0000 0.0000 0.0000 5.8308 0.0000 -2.8145
# 5 23.2566 7.2498 27.2965 0.0000 39.7902 0.0000
# 6 0.0000 0.0000 0.0000 -2.8145 0.0000 26.8897
#
#
#
# Elastic Compliance Matrix: (Units=1/GPa)
#
#
# Indices 1 2 3 4 5 6 
#
# 1 0.012891 -0.003432 -0.001049 0.000000 -0.006190 0.000000
# 2 -0.003432 0.025085 0.000096 0.000000 -0.002631 0.000000
# 3 -0.001049 0.000096 0.009238 0.000000 -0.005742 0.000000
# 4 0.000000 0.000000 0.000000 0.180629 0.000000 0.018906
# 5 -0.006190 -0.002631 -0.005742 0.000000 0.033168 0.000000
# 6 0.000000 0.000000 0.000000 0.018906 0.000000 0.039168
#
#
# Mechanical properties :
#
#
# Convention : Reuss Voigt Hill
#
# Bulk Modulus (GPa) = 26.01104 39.76948 32.89026
# Shear Modulus (GPa) = 15.53938 29.12663 22.33301
#
# Velocity S-wave (km/s) = 2.45164 3.35648 2.93909
# Velocity P-wave (km/s) = 4.25146 5.51397 4.92335
#
# Compressibility (1/GPa) = 0.03844521
#
# Stress axis : x y z
#
# Youngs Moduli (GPa) = 77.57165 39.86517 108.24713
#
# Poissons Ratio (x) = 0.13680 0.11353
# Poissons Ratio (y) = 0.26619 -0.01039
# Poissons Ratio (z) = 0.08136 -0.00383
#
# Static dielectric constant tensor:
#      x y z
#    x 2.082510 0.000000 -0.062680 
#    y 0.000000 2.104570 0.000000 
#    z -0.062680 0.000000 2.025410 
# 
# From -- ./inp_files/10372.got.cif
#   From: 2010.05.17/outbox.cif.g08.bks.cpg/sg4_6_cif.got.tgz:10372.got - 2010.06.03 18:43:04.
