data_PCOD9116339
_publ_section_title
;
Structure prediction by ZEFSAII (Michael W. Deem and Ramdas Pophale) SiO2 
 PCOD9116339
Probable space group: P 21
;
_chemical_formula_sum "Si O2"
_cell_formula_units_Z 16
_cell_length_a 7.240210
_cell_length_b 8.253359
_cell_length_c 14.482136
_cell_angle_alpha 90.000000
_cell_angle_beta 49.136252
_cell_angle_gamma 90.000000
_cell_volume 654.470395
_symmetry_space_group_name_H-M "P 21"
_symmetry_group_IT_number 4
_symmetry_cell_setting 'monoclinic'
loop_
_space_group_symop_operation_xyz
x,y,z
-x,1/2+y,-z
loop_
_atom_site_type_symbol
_atom_site_label
_atom_site_fract_x
_atom_site_fract_y
_atom_site_fract_z
Si Si1 0.996375 0.472670 0.043039
Si Si2 0.982804 0.793493 0.144199
Si Si3 0.165293 0.888894 0.550516
Si Si4 0.291042 0.277518 0.189975
Si Si5 0.420962 0.567871 0.026296
Si Si6 0.417509 0.780304 0.726522
Si Si7 0.803454 0.051134 0.537911
Si Si8 0.315068 0.489954 0.619139
O O1 0.892182 0.646173 0.109037
O O2 0.983523 0.437647 0.939659
O O3 0.418709 0.444032 0.111815
O O4 0.836534 0.342266 0.149442
O O5 0.763849 0.242060 0.541239
O O6 0.797086 0.849410 0.281995
O O7 0.729536 0.975271 0.005923
O O8 0.365530 0.646707 0.666199
O O9 0.586372 0.932882 0.641349
O O10 0.416862 0.951607 0.507626
O O11 0.976874 0.830506 0.690445
O O12 0.335172 0.143946 0.096511
O O13 0.430462 0.213912 0.235249
O O14 0.766554 0.219509 0.895513
O O15 0.855690 0.007152 0.414047
O O16 0.024927 0.019588 0.534797
#
# Coordination Sequence:
#
# PCOD9116339 Si02
#       8
#     2   2   2   2   2   2   2   2
#     4  10  21  42  68  98 136 187 234 302 356 429
#     4  10  22  41  69 104 139 183 244 301 358 438
#     4  11  26  47  69 106 149 195 240 309 368 432
#     4  11  24  47  67 101 151 184 240 304 363 435
#     4  10  25  41  68 101 135 191 242 290 369 431
#     4  11  23  45  72 102 148 182 237 306 364 427
#     4  11  26  43  73 104 146 196 241 297 366 439
#     4  12  25  44  76 110 142 192 252 297 372 443
#
# _framework density 24.447247000000001
#
# number of rings (size 3 to 8) (size 9 to 14) (size 15 to 20)
#    0.750    0.500    1.250    4.500    3.500    5.000 
#    0.000    2.500    0.000    0.000    0.000    0.000 
#    0.000    0.000    0.000    0.000    0.000    0.000 
#
# Total GULP energy -89465.541749 kJ/mol
# GULP energy per Si atom -5591.596359 kJ/mol
# Density = 2.439160 g / cm^3
# Si number density = 24.447247 Si / 1000 Ang^3
#
#
#
# Elastic Constant Matrix: (Units=GPa)
#
#
# Indices 1 2 3 4 5 6 
#
# 1 74.2188 -2.1900 24.5669 0.0000 4.7285 0.0000
# 2 -2.1900 30.9392 7.6506 0.0000 -5.1774 0.0000
# 3 24.5669 7.6506 99.2555 0.0000 -12.7169 0.0000
# 4 0.0000 0.0000 0.0000 28.2043 0.0000 7.1014
# 5 4.7285 -5.1774 -12.7169 0.0000 30.5611 0.0000
# 6 0.0000 0.0000 0.0000 7.1014 0.0000 36.9039
#
#
#
# Elastic Compliance Matrix: (Units=1/GPa)
#
#
# Indices 1 2 3 4 5 6 
#
# 1 0.015220 0.001505 -0.004386 0.000000 -0.003925 0.000000
# 2 0.001505 0.033773 -0.002400 0.000000 0.004490 0.000000
# 3 -0.004386 -0.002400 0.012021 0.000000 0.005274 0.000000
# 4 0.000000 0.000000 0.000000 0.037261 0.000000 -0.007170
# 5 -0.003925 0.004490 0.005274 0.000000 0.036284 0.000000
# 6 0.000000 0.000000 0.000000 -0.007170 0.000000 0.028477
#
#
# Mechanical properties :
#
#
# Convention : Reuss Voigt Hill
#
# Bulk Modulus (GPa) = 19.82106 29.38540 24.60323
# Shear Modulus (GPa) = 26.25830 30.75960 28.50895
#
# Velocity S-wave (km/s) = 3.28087 3.55096 3.41859
# Velocity P-wave (km/s) = 4.74104 5.37201 5.06636
#
# Compressibility (1/GPa) = 0.05045138
#
# Stress axis : x y z
#
# Youngs Moduli (GPa) = 65.70324 29.60955 83.18522
#
# Poissons Ratio (x) = -0.04456 0.36485
# Poissons Ratio (y) = -0.09889 0.19969
# Poissons Ratio (z) = 0.28817 0.07108
#
# Static dielectric constant tensor:
#      x y z
#    x 1.956540 0.000000 -0.035790 
#    y 0.000000 1.988830 0.000000 
#    z -0.035790 0.000000 1.912870 
# 
# From -- ./inp_files/10583.got.cif
#   From: 2010.05.17/outbox.cif.g08.bks.cpg/sg4_6_cif.got.tgz:10583.got - 2010.06.03 18:43:04.
