data_PCOD9116642
_publ_section_title
;
Structure prediction by ZEFSAII (Michael W. Deem and Ramdas Pophale) SiO2 
 PCOD9116642
Probable space group: P 21
;
_chemical_formula_sum "Si O2"
_cell_formula_units_Z 14
_cell_length_a 8.084331
_cell_length_b 5.147573
_cell_length_c 25.838587
_cell_angle_alpha 90.000000
_cell_angle_beta 147.384108
_cell_angle_gamma 90.000000
_cell_volume 579.572404
_symmetry_space_group_name_H-M "P 21"
_symmetry_group_IT_number 4
_symmetry_cell_setting 'monoclinic'
loop_
_space_group_symop_operation_xyz
x,y,z
-x,1/2+y,-z
loop_
_atom_site_type_symbol
_atom_site_label
_atom_site_fract_x
_atom_site_fract_y
_atom_site_fract_z
Si Si1 0.817929 0.325660 0.255233
Si Si2 0.246597 0.969774 0.325254
Si Si3 0.205917 0.237550 0.871987
Si Si4 0.106313 0.739996 0.910341
Si Si5 0.111907 0.477410 0.555658
Si Si6 0.169641 0.409639 0.062890
Si Si7 0.002238 0.330723 0.642753
O O1 0.124608 0.261744 0.303095
O O2 0.871657 0.548833 0.310907
O O3 0.526538 0.389847 0.143185
O O4 0.779226 0.052992 0.275169
O O5 0.526274 0.946940 0.360153
O O6 0.957855 0.818738 0.224043
O O7 0.293210 0.866171 0.396588
O O8 0.087530 0.454482 0.881972
O O9 0.120691 0.954265 0.869683
O O10 0.573906 0.264197 0.973218
O O11 0.848071 0.818858 0.882481
O O12 0.963301 0.275880 0.475944
O O13 0.988049 0.389134 0.578793
O O14 0.023888 0.693314 0.018907
#
# Coordination Sequence:
#
# PCOD9116642 Si02
#       7
#     2   2   2   2   2   2   2
#     4  10  24  43  70 104 142 191 245 290 355 425
#     4  10  27  44  79 101 146 191 238 293 371 431
#     4  10  22  39  62  92 136 186 235 289 343 414
#     4  10  23  37  58  97 136 183 245 289 338 397
#     4  12  29  49  79 112 144 182 239 304 386 456
#     4  12  24  38  64  94 146 194 242 300 357 406
#     4  10  25  48  72 106 142 181 242 297 362 447
#
# _framework density 24.155739000000001
#
# number of rings (size 3 to 8) (size 9 to 14) (size 15 to 20)
#    0.857    0.571    0.000    3.429   10.000    2.286 
#    0.000    0.000    0.000    0.000    0.000    0.000 
#    0.000    0.000    0.000    0.000    0.000    0.000 
#
# Total GULP energy -78258.289089 kJ/mol
# GULP energy per Si atom -5589.877792 kJ/mol
# Density = 2.410076 g / cm^3
# Si number density = 24.155739 Si / 1000 Ang^3
#
#
#
# Elastic Constant Matrix: (Units=GPa)
#
#
# Indices 1 2 3 4 5 6 
#
# 1 85.2054 -4.9616 13.0969 0.0000 -19.7414 0.0000
# 2 -4.9616 59.9056 0.7551 0.0000 0.2628 0.0000
# 3 13.0969 0.7551 32.1565 0.0000 -13.0325 0.0000
# 4 0.0000 0.0000 0.0000 41.2417 0.0000 -8.9055
# 5 -19.7414 0.2628 -13.0325 0.0000 38.3635 0.0000
# 6 0.0000 0.0000 0.0000 -8.9055 0.0000 26.7097
#
#
#
# Elastic Compliance Matrix: (Units=1/GPa)
#
#
# Indices 1 2 3 4 5 6 
#
# 1 0.013670 0.001146 -0.003185 0.000000 0.005944 0.000000
# 2 0.001146 0.016797 -0.000776 0.000000 0.000211 0.000000
# 3 -0.003185 -0.000776 0.036821 0.000000 0.010875 0.000000
# 4 0.000000 0.000000 0.000000 0.026128 0.000000 0.008712
# 5 0.005944 0.000211 0.010875 0.000000 0.032818 0.000000
# 6 0.000000 0.000000 0.000000 0.008712 0.000000 0.040344
#
#
# Mechanical properties :
#
#
# Convention : Reuss Voigt Hill
#
# Bulk Modulus (GPa) = 16.21847 21.67203 18.94525
# Shear Modulus (GPa) = 25.93893 32.48812 29.21353
#
# Velocity S-wave (km/s) = 3.28048 3.67133 3.48139
# Velocity P-wave (km/s) = 4.59101 5.19257 4.90103
#
# Compressibility (1/GPa) = 0.06165808
#
# Stress axis : x y z
#
# Youngs Moduli (GPa) = 73.15290 59.53539 27.15854
#
# Poissons Ratio (x) = -0.06824 0.08651
# Poissons Ratio (y) = -0.08385 0.02107
# Poissons Ratio (z) = 0.23302 0.04618
#
# Static dielectric constant tensor:
#      x y z
#    x 2.037310 0.000000 -0.003060 
#    y 0.000000 1.907180 0.000000 
#    z -0.003060 0.000000 1.925110 
# 
# From -- ./inp_files/16080.got.cif
#   From: 2010.05.17/outbox.cif.g08.bks.cpg/sg4_9_cif.got.tgz:16080.got - 2010.06.03 18:43:04.
