data_PCOD9116207
_publ_section_title
;
Structure prediction by ZEFSAII (Michael W. Deem and Ramdas Pophale) SiO2 
 PCOD9116207
Probable space group: P 21
;
_chemical_formula_sum "Si O2"
_cell_formula_units_Z 16
_cell_length_a 12.828030
_cell_length_b 4.820008
_cell_length_c 22.482971
_cell_angle_alpha 90.000000
_cell_angle_beta 153.787213
_cell_angle_gamma 90.000000
_cell_volume 614.037382
_symmetry_space_group_name_H-M "P 21"
_symmetry_group_IT_number 4
_symmetry_cell_setting 'monoclinic'
loop_
_space_group_symop_operation_xyz
x,y,z
-x,1/2+y,-z
loop_
_atom_site_type_symbol
_atom_site_label
_atom_site_fract_x
_atom_site_fract_y
_atom_site_fract_z
Si Si1 0.744698 0.903210 0.804165
Si Si2 0.601846 0.379442 0.796886
Si Si3 0.242073 0.376772 0.898912
Si Si4 0.327968 0.088428 0.825802
Si Si5 0.866885 0.555028 0.405412
Si Si6 0.230588 0.949517 0.995080
Si Si7 0.193193 0.237443 0.325430
Si Si8 0.444384 0.733931 0.397991
O O1 0.615812 0.624745 0.756781
O O2 0.585517 0.099599 0.680959
O O3 0.981629 0.828722 0.889709
O O4 0.790154 0.131078 0.879632
O O5 0.363925 0.207940 0.686694
O O6 0.658250 0.549409 0.885969
O O7 0.194194 0.257907 0.808480
O O8 0.076445 0.648318 0.817351
O O9 0.170880 0.190793 0.918860
O O10 0.525819 0.372752 0.057415
O O11 0.181855 0.014603 0.691169
O O12 0.557378 0.257631 0.919866
O O13 0.925077 0.269550 0.469369
O O14 0.348528 0.040339 0.361531
O O15 0.293739 0.193418 0.443037
O O16 0.274369 0.545997 0.352443
#
# Coordination Sequence:
#
# PCOD9116207 Si02
#       8
#     2   2   2   2   2   2   2   2
#     4  12  23  43  69 104 140 189 236 294 362 435
#     4  11  27  42  71 105 139 182 246 296 352 442
#     4  12  24  44  71 108 139 196 243 315 369 436
#     4  11  27  44  75 108 146 188 260 309 368 450
#     4  11  27  52  79 105 151 201 243 307 374 436
#     4  11  25  43  68  99 147 188 232 307 374 428
#     4  10  22  39  66  96 138 184 228 288 366 422
#     4  10  21  41  63  97 138 184 232 286 351 441
#
# _framework density 26.057048000000002
#
# number of rings (size 3 to 8) (size 9 to 14) (size 15 to 20)
#    0.000    1.000    2.500    3.000    8.750    2.000 
#    0.000    0.000    0.000    0.000    0.000    0.000 
#    0.000    0.000    0.000    0.000    0.000    0.000 
#
# Total GULP energy -89416.418366 kJ/mol
# GULP energy per Si atom -5588.526148 kJ/mol
# Density = 2.599774 g / cm^3
# Si number density = 26.057048 Si / 1000 Ang^3
#
#
#
# Elastic Constant Matrix: (Units=GPa)
#
#
# Indices 1 2 3 4 5 6 
#
# 1 119.0234 17.4027 25.9453 0.0000 -9.5604 0.0000
# 2 17.4027 90.0675 12.8024 0.0000 -1.6990 0.0000
# 3 25.9453 12.8024 120.1620 0.0000 -22.2592 0.0000
# 4 0.0000 0.0000 0.0000 34.1024 0.0000 3.6793
# 5 -9.5604 -1.6990 -22.2592 0.0000 40.9347 0.0000
# 6 0.0000 0.0000 0.0000 3.6793 0.0000 41.2101
#
#
#
# Elastic Compliance Matrix: (Units=1/GPa)
#
#
# Indices 1 2 3 4 5 6 
#
# 1 0.009061 -0.001504 -0.001574 0.000000 0.001198 0.000000
# 2 -0.001504 0.011525 -0.000978 0.000000 -0.000405 0.000000
# 3 -0.001574 -0.000978 0.009664 0.000000 0.004847 0.000000
# 4 0.000000 0.000000 0.000000 0.029609 0.000000 -0.002644
# 5 0.001198 -0.000405 0.004847 0.000000 0.027328 0.000000
# 6 0.000000 0.000000 0.000000 -0.002644 0.000000 0.024502
#
#
# Mechanical properties :
#
#
# Convention : Reuss Voigt Hill
#
# Bulk Modulus (GPa) = 45.17437 49.06152 47.11794
# Shear Modulus (GPa) = 39.31422 41.45629 40.38526
#
# Velocity S-wave (km/s) = 3.88851 3.99304 3.94112
# Velocity P-wave (km/s) = 6.12658 6.33471 6.23151
#
# Compressibility (1/GPa) = 0.02213645
#
# Stress axis : x y z
#
# Youngs Moduli (GPa) = 110.36256 86.76900 103.47622
#
# Poissons Ratio (x) = 0.13053 0.16290
# Poissons Ratio (y) = 0.16603 0.10121
# Poissons Ratio (z) = 0.17374 0.08487
#
# Static dielectric constant tensor:
#      x y z
#    x 2.122380 0.000000 -0.062050 
#    y 0.000000 2.109340 0.000000 
#    z -0.062050 0.000000 2.163010 
# 
# From -- ./inp_files/15686.got.cif
#   From: 2010.05.17/outbox.cif.g08.bks.cpg/sg4_8_cif.got.tgz:15686.got - 2010.06.03 18:43:04.
