data_PCOD9116799
_publ_section_title
;
Structure prediction by ZEFSAII (Michael W. Deem and Ramdas Pophale) SiO2 
 PCOD9116799
Probable space group: P 21
;
_chemical_formula_sum "Si O2"
_cell_formula_units_Z 12
_cell_length_a 5.182058
_cell_length_b 10.867720
_cell_length_c 9.688214
_cell_angle_alpha 90.000000
_cell_angle_beta 69.064804
_cell_angle_gamma 90.000000
_cell_volume 509.594120
_symmetry_space_group_name_H-M "P 21"
_symmetry_group_IT_number 4
_symmetry_cell_setting 'monoclinic'
loop_
_space_group_symop_operation_xyz
x,y,z
-x,1/2+y,-z
loop_
_atom_site_type_symbol
_atom_site_label
_atom_site_fract_x
_atom_site_fract_y
_atom_site_fract_z
Si Si1 0.330338 0.781690 0.516359
Si Si2 0.456080 0.002480 0.972117
Si Si3 0.994219 0.124157 0.902077
Si Si4 0.307306 0.512269 0.565066
Si Si5 0.097347 0.458007 0.329850
Si Si6 0.378907 0.351430 0.800509
O O1 0.417973 0.649854 0.553970
O O2 0.030689 0.822844 0.625546
O O3 0.388177 0.784291 0.339905
O O4 0.505737 0.900487 0.528421
O O5 0.485490 0.906852 0.089882
O O6 0.157008 0.047815 0.987101
O O7 0.663914 0.114477 0.976300
O O8 0.609387 0.952371 0.805097
O O9 0.135557 0.255884 0.875515
O O10 0.054272 0.051737 0.746908
O O11 0.256635 0.458242 0.725352
O O12 0.082869 0.516900 0.485804
#
# Coordination Sequence:
#
# PCOD9116799 Si02
#       6
#     2   2   2   2   2   2
#     4  10  22  41  67 104 140 179 240 293 355 418
#     4  10  24  44  69 101 133 194 230 287 362 418
#     4  10  24  45  72  94 145 184 231 297 357 417
#     4  10  24  40  71 101 137 191 233 296 355 422
#     4  10  22  40  72  95 144 180 235 287 366 412
#     4  10  24  44  71 101 141 184 241 290 359 423
#
# _framework density 23.548152999999999
#
# number of rings (size 3 to 8) (size 9 to 14) (size 15 to 20)
#    2.000    0.000    0.000    3.000    2.333    4.000 
#    6.000    0.000    0.000    0.000    0.000    0.000 
#    0.000    0.000    0.000    0.000    0.000    0.000 
#
# Total GULP energy -66843.538204 kJ/mol
# GULP energy per Si atom -5570.294850 kJ/mol
# Density = 2.349456 g / cm^3
# Si number density = 23.548153 Si / 1000 Ang^3
#
#
#
# Elastic Constant Matrix: (Units=GPa)
#
#
# Indices 1 2 3 4 5 6 
#
# 1 50.2450 11.9264 27.9234 0.0000 12.1734 0.0000
# 2 11.9264 132.0666 25.2636 0.0000 -6.5424 0.0000
# 3 27.9234 25.2636 91.6052 0.0000 8.9793 0.0000
# 4 0.0000 0.0000 0.0000 26.4878 0.0000 1.9031
# 5 12.1734 -6.5424 8.9793 0.0000 27.2232 0.0000
# 6 0.0000 0.0000 0.0000 1.9031 0.0000 18.5038
#
#
#
# Elastic Compliance Matrix: (Units=1/GPa)
#
#
# Indices 1 2 3 4 5 6 
#
# 1 0.026387 -0.001612 -0.006618 0.000000 -0.010004 0.000000
# 2 -0.001612 0.008294 -0.002131 0.000000 0.003417 0.000000
# 3 -0.006618 -0.002131 0.013725 0.000000 -0.002080 0.000000
# 4 0.000000 0.000000 0.000000 0.038034 0.000000 -0.003912
# 5 -0.010004 0.003417 -0.002080 0.000000 0.042714 0.000000
# 6 0.000000 0.000000 0.000000 -0.003912 0.000000 0.054445
#
#
# Mechanical properties :
#
#
# Convention : Reuss Voigt Hill
#
# Bulk Modulus (GPa) = 36.12226 44.90485 40.51355
# Shear Modulus (GPa) = 23.41357 28.36318 25.88838
#
# Velocity S-wave (km/s) = 3.15665 3.47432 3.31929
# Velocity P-wave (km/s) = 5.35341 5.93341 5.65085
#
# Compressibility (1/GPa) = 0.02768376
#
# Stress axis : x y z
#
# Youngs Moduli (GPa) = 37.89753 120.56202 72.85803
#
# Poissons Ratio (x) = 0.19441 0.48218
# Poissons Ratio (y) = 0.06111 0.15526
# Poissons Ratio (z) = 0.25081 0.25691
#
# Static dielectric constant tensor:
#      x y z
#    x 2.054500 0.000000 0.044440 
#    y 0.000000 1.895410 0.000000 
#    z 0.044440 0.000000 1.909240 
# 
# From -- ./inp_files/4635.got.cif
#   From: 2010.05.17/outbox.cif.g08.bks.cpg/sg4_3_cif.got.tgz:4635.got - 2010.06.03 18:43:04.
