data_PCOD9116840
_publ_section_title
;
Structure prediction by ZEFSAII (Michael W. Deem and Ramdas Pophale) SiO2 
 PCOD9116840
Probable space group: P 21
;
_chemical_formula_sum "Si O2"
_cell_formula_units_Z 16
_cell_length_a 5.361730
_cell_length_b 12.646614
_cell_length_c 10.114459
_cell_angle_alpha 90.000000
_cell_angle_beta 98.901746
_cell_angle_gamma 90.000000
_cell_volume 677.577680
_symmetry_space_group_name_H-M "P 21"
_symmetry_group_IT_number 4
_symmetry_cell_setting 'monoclinic'
loop_
_space_group_symop_operation_xyz
x,y,z
-x,1/2+y,-z
loop_
_atom_site_type_symbol
_atom_site_label
_atom_site_fract_x
_atom_site_fract_y
_atom_site_fract_z
Si Si1 0.168943 0.648450 0.393457
Si Si2 0.436036 0.295025 0.974172
Si Si3 0.849686 0.681091 0.839483
Si Si4 0.132980 0.875157 0.815090
Si Si5 0.351821 0.842161 0.265944
Si Si6 0.061754 0.471944 0.935472
Si Si7 0.479104 0.550896 0.631861
Si Si8 0.340508 0.043773 0.637689
O O1 0.250850 0.768048 0.373329
O O2 0.241697 0.609524 0.547081
O O3 0.365662 0.577025 0.321960
O O4 0.877791 0.626931 0.341648
O O5 0.532890 0.268013 0.838359
O O6 0.328627 0.414298 0.956068
O O7 0.225481 0.222065 0.020842
O O8 0.660769 0.302725 0.095737
O O9 0.056051 0.590033 0.880485
O O10 0.617640 0.621737 0.751022
O O11 0.920331 0.787784 0.766072
O O12 0.257383 0.938612 0.706441
O O13 0.039669 0.955264 0.923018
O O14 0.125081 0.904755 0.174906
O O15 0.554298 0.930743 0.324305
O O16 0.668118 0.536582 0.522108
#
# Coordination Sequence:
#
# PCOD9116840 Si02
#       8
#     2   2   2   2   2   2   2   2
#     4  10  25  44  69 100 132 183 222 278 336 399
#     4  10  23  40  64  96 130 179 220 284 342 405
#     4  10  22  41  64  95 130 175 222 281 344 403
#     4  10  23  39  64  95 130 174 221 280 334 410
#     4  10  22  43  64  98 131 178 224 275 343 405
#     4   9  22  39  61  94 133 172 224 279 340 404
#     4   9  24  42  64  97 132 176 226 281 331 404
#     4  10  25  44  64 101 132 175 223 276 334 392
#
# _framework density 23.613530000000001
#
# number of rings (size 3 to 8) (size 9 to 14) (size 15 to 20)
#    0.750    1.500    0.000    0.000    7.000   11.000 
#    0.000    0.000    0.000    0.000    0.000    0.000 
#    0.000    0.000    0.000    0.000    0.000    0.000 
#
# Total GULP energy -89310.480584 kJ/mol
# GULP energy per Si atom -5581.905036 kJ/mol
# Density = 2.355978 g / cm^3
# Si number density = 23.613530 Si / 1000 Ang^3
#
#
#
# Elastic Constant Matrix: (Units=GPa)
#
#
# Indices 1 2 3 4 5 6 
#
# 1 51.8768 -7.6474 11.8080 0.0000 -1.3824 0.0000
# 2 -7.6474 73.7032 38.3816 0.0000 -0.2238 0.0000
# 3 11.8080 38.3816 52.0646 0.0000 -7.1013 0.0000
# 4 0.0000 0.0000 0.0000 29.7898 0.0000 2.9543
# 5 -1.3824 -0.2238 -7.1013 0.0000 28.8215 0.0000
# 6 0.0000 0.0000 0.0000 2.9543 0.0000 21.3641
#
#
#
# Elastic Compliance Matrix: (Units=1/GPa)
#
#
# Indices 1 2 3 4 5 6 
#
# 1 0.023170 0.008534 -0.011782 0.000000 -0.001725 0.000000
# 2 0.008534 0.025612 -0.021454 0.000000 -0.004678 0.000000
# 3 -0.011782 -0.021454 0.038902 0.000000 0.008853 0.000000
# 4 0.000000 0.000000 0.000000 0.034035 0.000000 -0.004707
# 5 -0.001725 -0.004678 0.008853 0.000000 0.036759 0.000000
# 6 0.000000 0.000000 0.000000 -0.004707 0.000000 0.047458
#
#
# Mechanical properties :
#
#
# Convention : Reuss Voigt Hill
#
# Bulk Modulus (GPa) = 26.12257 29.19210 27.65733
# Shear Modulus (GPa) = 18.64972 25.00192 21.82582
#
# Velocity S-wave (km/s) = 2.81337 3.25745 3.04352
# Velocity P-wave (km/s) = 4.65188 5.15143 4.90801
#
# Compressibility (1/GPa) = 0.03828107
#
# Stress axis : x y z
#
# Youngs Moduli (GPa) = 43.15887 39.04450 25.70530
#
# Poissons Ratio (x) = -0.33322 0.30285
# Poissons Ratio (y) = -0.36833 0.55149
# Poissons Ratio (z) = 0.50848 0.83768
#
# Static dielectric constant tensor:
#      x y z
#    x 1.909740 0.000000 -0.022660 
#    y 0.000000 1.878720 0.000000 
#    z -0.022660 0.000000 1.897370 
# 
# From -- ./inp_files/10479.got.cif
#   From: 2010.05.17/outbox.cif.g08.bks.cpg/sg4_6_cif.got.tgz:10479.got - 2010.06.03 18:43:04.
