data_PCOD9116989
_publ_section_title
;
Structure prediction by ZEFSAII (Michael W. Deem and Ramdas Pophale) SiO2 
 PCOD9116989
Probable space group: P 21
;
_chemical_formula_sum "Si O2"
_cell_formula_units_Z 14
_cell_length_a 7.463135
_cell_length_b 8.454639
_cell_length_c 9.307685
_cell_angle_alpha 90.000000
_cell_angle_beta 92.001660
_cell_angle_gamma 90.000000
_cell_volume 586.938993
_symmetry_space_group_name_H-M "P 21"
_symmetry_group_IT_number 4
_symmetry_cell_setting 'monoclinic'
loop_
_space_group_symop_operation_xyz
x,y,z
-x,1/2+y,-z
loop_
_atom_site_type_symbol
_atom_site_label
_atom_site_fract_x
_atom_site_fract_y
_atom_site_fract_z
Si Si1 0.943023 0.938450 0.843214
Si Si2 0.300564 0.979285 0.142759
Si Si3 0.287548 0.156897 0.865546
Si Si4 0.534021 0.253767 0.627876
Si Si5 0.796844 0.200418 0.040312
Si Si6 0.106314 0.475743 0.752679
Si Si7 0.753208 0.952930 0.545413
O O1 0.847815 0.897837 0.693350
O O2 0.012279 0.788618 0.932994
O O3 0.127805 0.034622 0.824479
O O4 0.820667 0.057095 0.930881
O O5 0.397848 0.912333 0.286666
O O6 0.092782 0.989276 0.187571
O O7 0.325516 0.831596 0.033088
O O8 0.344064 0.122077 0.033372
O O9 0.439474 0.146144 0.748342
O O10 0.205547 0.326996 0.825368
O O11 0.397198 0.326386 0.507832
O O12 0.678273 0.131631 0.567241
O O13 0.770759 0.123910 0.194514
O O14 0.107966 0.458616 0.582923
#
# Coordination Sequence:
#
# PCOD9116989 Si02
#       7
#     2   2   2   2   2   2   2
#     4  11  21  43  67 101 125 181 236 292 334 404
#     4  11  21  42  71  96 132 181 236 294 333 410
#     4  10  22  42  68  97 133 178 234 294 340 405
#     4  11  26  46  62 103 149 185 222 280 373 428
#     4  11  20  37  73  99 127 166 239 297 329 388
#     4  11  21  41  70 104 131 176 238 287 342 406
#     4  11  27  45  67  98 149 185 227 286 351 435
#
# _framework density 23.852563
#
# number of rings (size 3 to 8) (size 9 to 14) (size 15 to 20)
#    0.000    1.143    5.714    0.000    0.000   10.286 
#    2.571    0.000    0.000    0.000    0.000    0.000 
#    0.000    0.000    0.000    0.000    0.000    0.000 
#
# Total GULP energy -78152.849852 kJ/mol
# GULP energy per Si atom -5582.346418 kJ/mol
# Density = 2.379827 g / cm^3
# Si number density = 23.852563 Si / 1000 Ang^3
#
#
#
# Elastic Constant Matrix: (Units=GPa)
#
#
# Indices 1 2 3 4 5 6 
#
# 1 44.4333 6.8988 19.5343 0.0000 -1.9261 0.0000
# 2 6.8988 34.3256 9.1144 0.0000 -13.4890 0.0000
# 3 19.5343 9.1144 128.9301 0.0000 7.0875 0.0000
# 4 0.0000 0.0000 0.0000 41.0673 0.0000 0.4837
# 5 -1.9261 -13.4890 7.0875 0.0000 43.9551 0.0000
# 6 0.0000 0.0000 0.0000 0.4837 0.0000 18.9653
#
#
#
# Elastic Compliance Matrix: (Units=1/GPa)
#
#
# Indices 1 2 3 4 5 6 
#
# 1 0.024657 -0.003847 -0.003489 0.000000 0.000462 0.000000
# 2 -0.003847 0.034860 -0.002482 0.000000 0.010930 0.000000
# 3 -0.003489 -0.002482 0.008587 0.000000 -0.002299 0.000000
# 4 0.000000 0.000000 0.000000 0.024358 0.000000 -0.000621
# 5 0.000462 0.010930 -0.002299 0.000000 0.026496 0.000000
# 6 0.000000 0.000000 0.000000 -0.000621 0.000000 0.052744
#
#
# Mechanical properties :
#
#
# Convention : Reuss Voigt Hill
#
# Bulk Modulus (GPa) = 20.63302 30.97601 25.80452
# Shear Modulus (GPa) = 24.09708 32.27363 28.18535
#
# Velocity S-wave (km/s) = 3.18189 3.68237 3.44124
# Velocity P-wave (km/s) = 4.70832 5.57624 5.16056
#
# Compressibility (1/GPa) = 0.04846600
#
# Stress axis : x y z
#
# Youngs Moduli (GPa) = 40.55635 28.68606 116.45958
#
# Poissons Ratio (x) = 0.11037 0.40636
# Poissons Ratio (y) = 0.15604 0.28908
# Poissons Ratio (z) = 0.14151 0.07121
#
# Static dielectric constant tensor:
#      x y z
#    x 1.971850 0.000000 0.013680 
#    y 0.000000 1.974870 0.000000 
#    z 0.013680 0.000000 1.897130 
# 
# From -- ./inp_files/5632.got.cif
#   From: 2010.05.17/outbox.cif.g08.bks.cpg/sg4_3_cif.got.tgz:5632.got - 2010.06.03 18:43:04.
