data_PCOD9116244
_publ_section_title
;
Structure prediction by ZEFSAII (Michael W. Deem and Ramdas Pophale) SiO2 
 PCOD9116244
Probable space group: P 21
;
_chemical_formula_sum "Si O2"
_cell_formula_units_Z 14
_cell_length_a 8.099968
_cell_length_b 9.648577
_cell_length_c 7.889613
_cell_angle_alpha 90.000000
_cell_angle_beta 119.207915
_cell_angle_gamma 90.000000
_cell_volume 538.200644
_symmetry_space_group_name_H-M "P 21"
_symmetry_group_IT_number 4
_symmetry_cell_setting 'monoclinic'
loop_
_space_group_symop_operation_xyz
x,y,z
-x,1/2+y,-z
loop_
_atom_site_type_symbol
_atom_site_label
_atom_site_fract_x
_atom_site_fract_y
_atom_site_fract_z
Si Si1 0.171458 0.231290 0.750574
Si Si2 0.056387 0.489093 0.306215
Si Si3 0.503359 0.025612 0.500604
Si Si4 0.209371 0.743603 0.835161
Si Si5 0.578310 0.729276 0.825358
Si Si6 0.514520 0.278044 0.721125
Si Si7 0.119471 0.457140 0.962863
O O1 0.309874 0.315517 0.697408
O O2 0.051569 0.101389 0.633715
O O3 0.327401 0.166363 0.958189
O O4 0.044597 0.336028 0.800434
O O5 0.275137 0.522497 0.431635
O O6 0.018544 0.507326 0.083087
O O7 0.972197 0.337035 0.295442
O O8 0.394737 0.123954 0.312752
O O9 0.489805 0.116381 0.662965
O O10 0.442092 0.869514 0.423710
O O11 0.360284 0.751570 0.760042
O O12 0.325111 0.799781 0.058296
O O13 0.160397 0.588358 0.866891
O O14 0.695589 0.872584 0.871776
#
# Coordination Sequence:
#
# PCOD9116244 Si02
#       7
#     2   2   2   2   2   2   2
#     4   9  23  44  72  95 129 182 233 270 332 420
#     4  12  24  38  66 101 136 168 221 285 347 384
#     4  12  25  44  65 105 139 172 223 296 349 391
#     4  11  23  43  71  94 130 184 234 271 329 423
#     4   9  23  41  74  92 130 178 231 272 332 411
#     4  11  25  45  69  95 135 185 233 275 336 421
#     4  10  21  41  67 100 123 175 227 279 317 400
#
# _framework density 26.012599999999999
#
# number of rings (size 3 to 8) (size 9 to 14) (size 15 to 20)
#    0.857    0.571    1.429    3.429    4.000    1.143 
#    2.571    0.000    0.000    0.000    0.000    0.000 
#    0.000    0.000    0.000    0.000    0.000    0.000 
#
# Total GULP energy -78196.916703 kJ/mol
# GULP energy per Si atom -5585.494050 kJ/mol
# Density = 2.595339 g / cm^3
# Si number density = 26.012600 Si / 1000 Ang^3
#
#
#
# Elastic Constant Matrix: (Units=GPa)
#
#
# Indices 1 2 3 4 5 6 
#
# 1 61.2942 10.9152 3.8511 0.0000 3.8029 0.0000
# 2 10.9152 124.3249 11.6192 0.0000 -8.5187 0.0000
# 3 3.8511 11.6192 58.8330 0.0000 1.5133 0.0000
# 4 0.0000 0.0000 0.0000 38.8921 0.0000 -5.4236
# 5 3.8029 -8.5187 1.5133 0.0000 32.2004 0.0000
# 6 0.0000 0.0000 0.0000 -5.4236 0.0000 40.1037
#
#
#
# Elastic Compliance Matrix: (Units=1/GPa)
#
#
# Indices 1 2 3 4 5 6 
#
# 1 0.016786 -0.001568 -0.000728 0.000000 -0.002363 0.000000
# 2 -0.001568 0.008507 -0.001642 0.000000 0.002513 0.000000
# 3 -0.000728 -0.001642 0.017399 0.000000 -0.001166 0.000000
# 4 0.000000 0.000000 0.000000 0.026206 0.000000 0.003544
# 5 -0.002363 0.002513 -0.001166 0.000000 0.032054 0.000000
# 6 0.000000 0.000000 0.000000 0.003544 0.000000 0.025415
#
#
# Mechanical properties :
#
#
# Convention : Reuss Voigt Hill
#
# Bulk Modulus (GPa) = 28.72236 33.02479 30.87358
# Shear Modulus (GPa) = 34.28204 36.77701 35.52952
#
# Velocity S-wave (km/s) = 3.63423 3.76415 3.69976
# Velocity P-wave (km/s) = 5.35498 5.62273 5.49049
#
# Compressibility (1/GPa) = 0.03481608
#
# Stress axis : x y z
#
# Youngs Moduli (GPa) = 59.57241 117.55425 57.47381
#
# Poissons Ratio (x) = 0.18428 0.04187
# Poissons Ratio (y) = 0.09339 0.09437
# Poissons Ratio (z) = 0.04339 0.19303
#
# Static dielectric constant tensor:
#      x y z
#    x 2.012420 0.000000 -0.015180 
#    y 0.000000 2.064680 0.000000 
#    z -0.015180 0.000000 2.122030 
# 
# From -- ./inp_files/5469.got.cif
#   From: 2010.05.17/outbox.cif.g08.bks.cpg/sg4_3_cif.got.tgz:5469.got - 2010.06.03 18:43:04.
