data_PCOD9116068
_publ_section_title
;
Structure prediction by ZEFSAII (Michael W. Deem and Ramdas Pophale) SiO2 
 PCOD9116068
Probable space group: P 21
;
_chemical_formula_sum "Si O2"
_cell_formula_units_Z 14
_cell_length_a 8.381079
_cell_length_b 5.311446
_cell_length_c 11.852446
_cell_angle_alpha 90.000000
_cell_angle_beta 100.513167
_cell_angle_gamma 90.000000
_cell_volume 518.762176
_symmetry_space_group_name_H-M "P 21"
_symmetry_group_IT_number 4
_symmetry_cell_setting 'monoclinic'
loop_
_space_group_symop_operation_xyz
x,y,z
-x,1/2+y,-z
loop_
_atom_site_type_symbol
_atom_site_label
_atom_site_fract_x
_atom_site_fract_y
_atom_site_fract_z
Si Si1 0.142995 0.382320 0.804827
Si Si2 0.133176 0.203451 0.255827
Si Si3 0.522403 0.034640 0.081447
Si Si4 0.572945 0.436159 0.673638
Si Si5 0.079695 0.368293 0.019312
Si Si6 0.087707 0.998328 0.612917
Si Si7 0.275014 0.640013 0.496538
O O1 0.296649 0.560336 0.841374
O O2 0.152690 0.230323 0.692241
O O3 0.948868 0.438390 0.788511
O O4 0.162921 0.225947 0.924598
O O5 0.296237 0.153768 0.341623
O O6 0.167461 0.360632 0.149246
O O7 0.976610 0.302461 0.301861
O O8 0.431192 0.953885 0.189069
O O9 0.507094 0.799023 0.990261
O O10 0.405437 0.498516 0.589669
O O11 0.651530 0.198810 0.617615
O O12 0.062298 0.659940 0.982410
O O13 0.911781 0.040514 0.532056
O O14 0.230725 0.900769 0.554073
#
# Coordination Sequence:
#
# PCOD9116068 Si02
#       7
#     2   2   2   2   2   2   2
#     4  11  25  46  78 110 156 212 270 338 410 511
#     4  11  23  46  77 114 158 206 276 336 419 498
#     4  12  32  54  83 124 172 224 284 355 439 515
#     4  12  28  51  79 125 168 219 278 365 427 503
#     4  10  21  39  69 111 147 196 256 328 396 474
#     4  12  26  50  78 115 154 223 277 345 414 520
#     4  12  29  48  82 117 169 216 287 347 433 507
#
# _framework density 26.987323
#
# number of rings (size 3 to 8) (size 9 to 14) (size 15 to 20)
#    0.000    0.571    2.857    3.429    8.000    6.857 
#    0.000    0.000    0.000    0.000    0.000    0.000 
#    0.000    0.000    0.000    0.000    0.000    0.000 
#
# Total GULP energy -77982.361931 kJ/mol
# GULP energy per Si atom -5570.168709 kJ/mol
# Density = 2.692590 g / cm^3
# Si number density = 26.987323 Si / 1000 Ang^3
#
#
#
# Elastic Constant Matrix: (Units=GPa)
#
#
# Indices 1 2 3 4 5 6 
#
# 1 120.2195 28.4916 40.9104 0.0000 14.2323 0.0000
# 2 28.4916 92.0476 32.5778 0.0000 16.2714 0.0000
# 3 40.9104 32.5778 143.2647 0.0000 -13.8183 0.0000
# 4 0.0000 0.0000 0.0000 40.3082 0.0000 10.2343
# 5 14.2323 16.2714 -13.8183 0.0000 52.1847 0.0000
# 6 0.0000 0.0000 0.0000 10.2343 0.0000 12.3049
#
#
#
# Elastic Compliance Matrix: (Units=1/GPa)
#
#
# Indices 1 2 3 4 5 6 
#
# 1 0.009990 -0.001585 -0.002779 0.000000 -0.002966 0.000000
# 2 -0.001585 0.013200 -0.002981 0.000000 -0.004473 0.000000
# 3 -0.002779 -0.002981 0.008840 0.000000 0.004028 0.000000
# 4 0.000000 0.000000 0.000000 0.031450 0.000000 -0.026158
# 5 -0.002966 -0.004473 0.004028 0.000000 0.022433 0.000000
# 6 0.000000 0.000000 0.000000 -0.026158 0.000000 0.103025
#
#
# Mechanical properties :
#
#
# Convention : Reuss Voigt Hill
#
# Bulk Modulus (GPa) = 57.66113 62.16571 59.91342
# Shear Modulus (GPa) = 23.87695 37.86303 30.86999
#
# Velocity S-wave (km/s) = 2.97770 3.74972 3.38578
# Velocity P-wave (km/s) = 5.76495 6.46779 6.12646
#
# Compressibility (1/GPa) = 0.01734271
#
# Stress axis : x y z
#
# Youngs Moduli (GPa) = 100.09623 75.75771 113.12452
#
# Poissons Ratio (x) = 0.12004 0.31433
# Poissons Ratio (y) = 0.15861 0.33717
# Poissons Ratio (z) = 0.27813 0.22580
#
# Static dielectric constant tensor:
#      x y z
#    x 2.309320 0.000000 -0.102820 
#    y 0.000000 2.539570 0.000000 
#    z -0.102820 0.000000 2.483080 
# 
# From -- ./inp_files/10665.got.cif
#   From: 2010.05.17/outbox.cif.g08.bks.cpg/sg4_6_cif.got.tgz:10665.got - 2010.06.03 18:43:04.
