data_PCOD9116065
_publ_section_title
;
Structure prediction by ZEFSAII (Michael W. Deem and Ramdas Pophale) SiO2 
 PCOD9116065
Probable space group: P 21
;
_chemical_formula_sum "Si O2"
_cell_formula_units_Z 10
_cell_length_a 13.712254
_cell_length_b 4.725916
_cell_length_c 8.426817
_cell_angle_alpha 90.000000
_cell_angle_beta 43.063159
_cell_angle_gamma 90.000000
_cell_volume 372.867522
_symmetry_space_group_name_H-M "P 21"
_symmetry_group_IT_number 4
_symmetry_cell_setting 'monoclinic'
loop_
_space_group_symop_operation_xyz
x,y,z
-x,1/2+y,-z
loop_
_atom_site_type_symbol
_atom_site_label
_atom_site_fract_x
_atom_site_fract_y
_atom_site_fract_z
Si Si1 0.104212 0.269740 0.856640
Si Si2 0.814995 0.571280 0.761659
Si Si3 0.478669 0.826687 0.912391
Si Si4 0.879810 0.072485 0.480121
Si Si5 0.414749 0.087933 0.536622
O O1 0.161675 0.445854 0.637219
O O2 0.248746 0.159484 0.769947
O O3 0.998338 0.502102 0.062879
O O4 0.818572 0.892802 0.700970
O O5 0.949332 0.524395 0.713548
O O6 0.846287 0.392973 0.563324
O O7 0.664076 0.456977 0.994518
O O8 0.561565 0.669191 0.675408
O O9 0.451654 0.594981 0.082285
O O10 0.529837 0.272102 0.499535
#
# Coordination Sequence:
#
# PCOD9116065 Si02
#       5
#     2   2   2   2   2
#     4  12  26  44  71  97 140 187 234 276 346 425
#     4  10  21  39  68  94 127 167 222 284 331 396
#     4  12  25  44  73  98 140 185 237 281 357 418
#     4  10  22  41  64  97 130 167 224 279 331 396
#     4  12  28  48  72 108 149 186 237 300 361 427
#
# _framework density 26.819178000000001
#
# number of rings (size 3 to 8) (size 9 to 14) (size 15 to 20)
#    0.000    0.800    0.000    7.200    5.600    0.000 
#    0.000    0.000    0.000    0.000    0.000    0.000 
#    0.000    0.000    0.000    0.000    0.000    0.000 
#
# Total GULP energy -56036.261881 kJ/mol
# GULP energy per Si atom -5603.626188 kJ/mol
# Density = 2.675814 g / cm^3
# Si number density = 26.819178 Si / 1000 Ang^3
#
#
#
# Elastic Constant Matrix: (Units=GPa)
#
#
# Indices 1 2 3 4 5 6 
#
# 1 105.9359 2.2194 8.2931 0.0000 -23.9010 0.0000
# 2 2.2194 86.3203 -3.2020 0.0000 -0.2740 0.0000
# 3 8.2931 -3.2020 77.2824 0.0000 -4.2588 0.0000
# 4 0.0000 0.0000 0.0000 43.8281 0.0000 1.0139
# 5 -23.9010 -0.2740 -4.2588 0.0000 47.3091 0.0000
# 6 0.0000 0.0000 0.0000 1.0139 0.0000 46.4478
#
#
#
# Elastic Compliance Matrix: (Units=1/GPa)
#
#
# Indices 1 2 3 4 5 6 
#
# 1 0.010717 -0.000291 -0.000868 0.000000 0.005335 0.000000
# 2 -0.000291 0.011611 0.000510 0.000000 -0.000034 0.000000
# 3 -0.000868 0.000510 0.013095 0.000000 0.000743 0.000000
# 4 0.000000 0.000000 0.000000 0.022828 0.000000 -0.000498
# 5 0.005335 -0.000034 0.000743 0.000000 0.023899 0.000000
# 6 0.000000 0.000000 0.000000 -0.000498 0.000000 0.021540
#
#
# Mechanical properties :
#
#
# Convention : Reuss Voigt Hill
#
# Bulk Modulus (GPa) = 29.30307 31.57329 30.43818
# Shear Modulus (GPa) = 42.96885 44.99888 43.98386
#
# Velocity S-wave (km/s) = 4.00705 4.10062 4.05410
# Velocity P-wave (km/s) = 5.68845 5.84964 5.76961
#
# Compressibility (1/GPa) = 0.03412612
#
# Stress axis : x y z
#
# Youngs Moduli (GPa) = 93.30701 86.12473 76.36613
#
# Poissons Ratio (x) = 0.02505 0.06630
# Poissons Ratio (y) = 0.02714 -0.03898
# Poissons Ratio (z) = 0.08100 -0.04396
#
# Static dielectric constant tensor:
#      x y z
#    x 2.099080 0.000000 -0.001080 
#    y 0.000000 1.980970 0.000000 
#    z -0.001080 0.000000 2.145070 
# 
# From -- ./inp_files/5058.got.cif
#   From: 2010.05.17/outbox.cif.g08.bks.cpg/sg4_3_cif.got.tgz:5058.got - 2010.06.03 18:43:04.
