data_PCOD9116127
_publ_section_title
;
Structure prediction by ZEFSAII (Michael W. Deem and Ramdas Pophale) SiO2 
 PCOD9116127
Probable space group: P 21
;
_chemical_formula_sum "Si O2"
_cell_formula_units_Z 14
_cell_length_a 7.153860
_cell_length_b 16.436705
_cell_length_c 7.961386
_cell_angle_alpha 90.000000
_cell_angle_beta 144.222046
_cell_angle_gamma 90.000000
_cell_volume 547.313965
_symmetry_space_group_name_H-M "P 21"
_symmetry_group_IT_number 4
_symmetry_cell_setting 'monoclinic'
loop_
_space_group_symop_operation_xyz
x,y,z
-x,1/2+y,-z
loop_
_atom_site_type_symbol
_atom_site_label
_atom_site_fract_x
_atom_site_fract_y
_atom_site_fract_z
Si Si1 0.635242 0.801290 0.660570
Si Si2 0.224169 0.459895 0.378953
Si Si3 0.441688 0.593873 0.998296
Si Si4 0.010491 0.324766 0.737004
Si Si5 0.355393 0.908441 0.826024
Si Si6 0.772104 0.657497 0.550298
Si Si7 0.735600 0.571415 0.882240
O O1 0.299121 0.763243 0.482699
O O2 0.779260 0.750272 0.613246
O O3 0.552318 0.890410 0.529973
O O4 0.887442 0.818469 0.991934
O O5 0.918154 0.417238 0.236102
O O6 0.431129 0.511369 0.658712
O O7 0.064627 0.521532 0.131189
O O8 0.484028 0.497853 0.068122
O O9 0.507855 0.642248 0.218037
O O10 0.682639 0.617168 0.020864
O O11 0.084768 0.619483 0.693111
O O12 0.834929 0.388818 0.483877
O O13 0.378132 0.339615 0.940547
O O14 0.724237 0.615659 0.696800
#
# Coordination Sequence:
#
# PCOD9116127 Si02
#       7
#     2   2   2   2   2   2   2
#     4  11  25  43  63 104 138 180 227 277 353 431
#     4  11  23  42  69  99 137 169 236 292 342 397
#     4  11  24  42  70  97 137 174 241 285 344 418
#     4  10  22  38  65  91 134 165 221 274 332 415
#     4  10  21  40  65 103 122 174 226 295 344 399
#     4  12  26  45  70  99 144 190 226 282 365 415
#     4  11  25  44  70 105 132 182 235 295 336 415
#
# _framework density 25.579466
#
# number of rings (size 3 to 8) (size 9 to 14) (size 15 to 20)
#    0.000    1.143    0.000    6.857   12.000    0.000 
#    7.714    0.000    0.000    0.000    0.000    0.000 
#    0.000    0.000    0.000    0.000    0.000    0.000 
#
# Total GULP energy -78082.167599 kJ/mol
# GULP energy per Si atom -5577.297686 kJ/mol
# Density = 2.552125 g / cm^3
# Si number density = 25.579466 Si / 1000 Ang^3
#
#
#
# Elastic Constant Matrix: (Units=GPa)
#
#
# Indices 1 2 3 4 5 6 
#
# 1 93.1653 16.6450 11.0377 0.0000 -3.4839 0.0000
# 2 16.6450 25.5605 21.3739 0.0000 -9.3142 0.0000
# 3 11.0377 21.3739 130.5761 0.0000 13.7008 0.0000
# 4 0.0000 0.0000 0.0000 0.7448 0.0000 25.2574
# 5 -3.4839 -9.3142 13.7008 0.0000 42.1793 0.0000
# 6 0.0000 0.0000 0.0000 25.2574 0.0000 6.3821
#
#
#
# Elastic Compliance Matrix: (Units=1/GPa)
#
#
# Indices 1 2 3 4 5 6 
#
# 1 0.012200 -0.008782 0.000522 0.000000 -0.001101 0.000000
# 2 -0.008782 0.059560 -0.010675 0.000000 0.015894 0.000000
# 3 0.000522 -0.010675 0.009943 0.000000 -0.005544 0.000000
# 4 0.000000 0.000000 0.000000 -0.010079 0.000000 0.039890
# 5 -0.001101 0.015894 -0.005544 0.000000 0.028928 0.000000
# 6 0.000000 0.000000 0.000000 0.039890 0.000000 -0.001176
#
#
# Mechanical properties :
#
#
# Convention : Reuss Voigt Hill
#
# Bulk Modulus (GPa) = 22.81388 38.60168 30.70778
# Shear Modulus (GPa) = 32.92605 23.21092 28.06849
#
# Velocity S-wave (km/s) = 3.59166 3.01558 3.31615
# Velocity P-wave (km/s) = 5.11255 5.22002 5.16657
#
# Compressibility (1/GPa) = 0.04383297
#
# Stress axis : x y z
#
# Youngs Moduli (GPa) = 81.96987 16.78989 100.57033
#
# Poissons Ratio (x) = 0.14745 -0.05248
# Poissons Ratio (y) = 0.71985 1.07355
# Poissons Ratio (z) = -0.04277 0.17923
#
# Static dielectric constant tensor:
#      x y z
#    x 2.168930 0.000000 0.107640 
#    y 0.000000 2.151680 0.000000 
#    z 0.107640 0.000000 2.028520 
# 
# From -- ./inp_files/6930.got.cif
#   From: 2010.05.17/outbox.cif.g08.bks.cpg/sg4_4_cif.got.tgz:6930.got - 2010.06.03 18:43:04.
