data_PCOD9116542
_publ_section_title
;
Structure prediction by ZEFSAII (Michael W. Deem and Ramdas Pophale) SiO2 
 PCOD9116542
Probable space group: P 21
;
_chemical_formula_sum "Si O2"
_cell_formula_units_Z 16
_cell_length_a 12.021820
_cell_length_b 8.984553
_cell_length_c 9.806632
_cell_angle_alpha 90.000000
_cell_angle_beta 142.510447
_cell_angle_gamma 90.000000
_cell_volume 644.659645
_symmetry_space_group_name_H-M "P 21"
_symmetry_group_IT_number 4
_symmetry_cell_setting 'monoclinic'
loop_
_space_group_symop_operation_xyz
x,y,z
-x,1/2+y,-z
loop_
_atom_site_type_symbol
_atom_site_label
_atom_site_fract_x
_atom_site_fract_y
_atom_site_fract_z
Si Si1 0.945834 0.425040 0.571733
Si Si2 0.619690 0.874963 0.356264
Si Si3 0.697833 0.331372 0.786183
Si Si4 0.613649 0.527375 0.099900
Si Si5 0.356432 0.343255 0.006871
Si Si6 0.780522 0.670921 0.875583
Si Si7 0.818350 0.174498 0.626546
Si Si8 0.058009 0.208975 0.258543
O O1 0.826718 0.495673 0.335202
O O2 0.834848 0.279425 0.511093
O O3 0.950478 0.538148 0.705020
O O4 0.158437 0.392450 0.756865
O O5 0.496641 0.784888 0.343827
O O6 0.801947 0.783437 0.499723
O O7 0.700445 0.029189 0.490339
O O8 0.478887 0.920910 0.102117
O O9 0.689646 0.510394 0.770840
O O10 0.742911 0.263042 0.683630
O O11 0.858245 0.277713 0.044673
O O12 0.587492 0.692855 0.018290
O O13 0.498582 0.477445 0.121672
O O14 0.326487 0.287966 0.133671
O O15 0.847684 0.731607 0.796422
O O16 0.971311 0.635692 0.138074
#
# Coordination Sequence:
#
# PCOD9116542 Si02
#       8
#     2   2   2   2   2   2   2   2
#     4  11  26  46  74 100 140 192 243 295 359 423
#     4  12  26  42  69 104 147 191 239 298 353 423
#     4  11  23  42  74 106 143 185 234 295 373 428
#     4  12  27  48  70 105 146 194 251 291 345 425
#     4  11  27  49  73 103 144 192 241 305 355 422
#     4  10  21  47  71 103 144 183 229 300 369 425
#     4  10  23  43  71 107 140 184 234 304 363 432
#     4  11  25  45  72 110 142 181 243 294 365 440
#
# _framework density 24.819296999999999
#
# number of rings (size 3 to 8) (size 9 to 14) (size 15 to 20)
#    0.000    1.000    3.750    1.500    1.750    7.000 
#    0.000    0.000    0.000    0.000    0.000    0.000 
#    0.000    0.000    0.000    0.000    0.000    0.000 
#
# Total GULP energy -89589.252114 kJ/mol
# GULP energy per Si atom -5599.328257 kJ/mol
# Density = 2.476281 g / cm^3
# Si number density = 24.819297 Si / 1000 Ang^3
#
#
#
# Elastic Constant Matrix: (Units=GPa)
#
#
# Indices 1 2 3 4 5 6 
#
# 1 75.4666 30.5901 8.1328 0.0000 12.4990 0.0000
# 2 30.5901 66.8299 -2.1121 0.0000 9.7552 0.0000
# 3 8.1328 -2.1121 74.6931 0.0000 23.8383 0.0000
# 4 0.0000 0.0000 0.0000 26.9492 0.0000 5.9833
# 5 12.4990 9.7552 23.8383 0.0000 40.8315 0.0000
# 6 0.0000 0.0000 0.0000 5.9833 0.0000 40.1424
#
#
#
# Elastic Compliance Matrix: (Units=1/GPa)
#
#
# Indices 1 2 3 4 5 6 
#
# 1 0.016797 -0.007331 -0.001173 0.000000 -0.002706 0.000000
# 2 -0.007331 0.018948 0.002535 0.000000 -0.003763 0.000000
# 3 -0.001173 0.002535 0.016796 0.000000 -0.010052 0.000000
# 4 0.000000 0.000000 0.000000 0.038377 0.000000 -0.005720
# 5 -0.002706 -0.003763 -0.010052 0.000000 0.032087 0.000000
# 6 0.000000 0.000000 0.000000 -0.005720 0.000000 0.025764
#
#
# Mechanical properties :
#
#
# Convention : Reuss Voigt Hill
#
# Bulk Modulus (GPa) = 24.62807 32.24571 28.43689
# Shear Modulus (GPa) = 28.69613 33.60986 31.15300
#
# Velocity S-wave (km/s) = 3.40399 3.68391 3.54671
# Velocity P-wave (km/s) = 5.03925 5.57811 5.31551
#
# Compressibility (1/GPa) = 0.04060407
#
# Stress axis : x y z
#
# Youngs Moduli (GPa) = 59.53518 52.77561 59.53920
#
# Poissons Ratio (x) = 0.38687 0.06982
# Poissons Ratio (y) = 0.43642 -0.15093
# Poissons Ratio (z) = 0.06981 -0.13378
#
# Static dielectric constant tensor:
#      x y z
#    x 2.016430 0.000000 -0.053330 
#    y 0.000000 1.923030 0.000000 
#    z -0.053330 0.000000 1.986930 
# 
# From -- ./inp_files/8099.got.cif
#   From: 2010.05.17/outbox.cif.g08.bks.cpg/sg4_5_cif.got.tgz:8099.got - 2010.06.03 18:43:04.
