data_PCOD9116181
_publ_section_title
;
Structure prediction by ZEFSAII (Michael W. Deem and Ramdas Pophale) SiO2 
 PCOD9116181
Probable space group: P 21
;
_chemical_formula_sum "Si O2"
_cell_formula_units_Z 14
_cell_length_a 9.421818
_cell_length_b 8.127852
_cell_length_c 8.461430
_cell_angle_alpha 90.000000
_cell_angle_beta 58.049454
_cell_angle_gamma 90.000000
_cell_volume 549.805092
_symmetry_space_group_name_H-M "P 21"
_symmetry_group_IT_number 4
_symmetry_cell_setting 'monoclinic'
loop_
_space_group_symop_operation_xyz
x,y,z
-x,1/2+y,-z
loop_
_atom_site_type_symbol
_atom_site_label
_atom_site_fract_x
_atom_site_fract_y
_atom_site_fract_z
Si Si1 0.736355 0.100490 0.375200
Si Si2 0.176078 0.322034 0.470939
Si Si3 0.430563 0.082444 0.347542
Si Si4 0.127061 0.595288 0.242129
Si Si5 0.045447 0.418693 0.964525
Si Si6 0.416273 0.734308 0.240791
Si Si7 0.264982 0.084869 0.793085
O O1 0.604526 0.142039 0.318339
O O2 0.716209 0.220012 0.533565
O O3 0.911382 0.053943 0.196228
O O4 0.704482 0.921234 0.475818
O O5 0.017355 0.229490 0.638968
O O6 0.896264 0.000987 0.906770
O O7 0.113019 0.456701 0.385802
O O8 0.325878 0.061424 0.575716
O O9 0.307210 0.195520 0.318952
O O10 0.469773 0.921336 0.223769
O O11 0.308668 0.678288 0.155978
O O12 0.147916 0.250071 0.878051
O O13 0.845234 0.426918 0.093461
O O14 0.572729 0.621210 0.196177
#
# Coordination Sequence:
#
# PCOD9116181 Si02
#       7
#     2   2   2   2   2   2   2
#     4  10  21  40  72  98 133 177 237 288 340 412
#     4  11  22  44  65 102 131 190 237 272 356 427
#     4  11  19  43  71  94 132 180 242 281 320 441
#     4  11  25  41  69 100 144 179 228 291 357 419
#     4  12  23  45  64 105 141 168 236 297 355 402
#     4  10  23  44  70  99 131 186 235 278 348 433
#     4  11  25  43  69 102 136 184 233 289 354 408
#
# _framework density 25.463569
#
# number of rings (size 3 to 8) (size 9 to 14) (size 15 to 20)
#    0.000    1.143    4.286    1.714    2.000    1.143 
#    2.571    1.429    0.000    0.000    0.000    0.000 
#    0.000    0.000    0.000    0.000    0.000    0.000 
#
# Total GULP energy -78238.124318 kJ/mol
# GULP energy per Si atom -5588.437451 kJ/mol
# Density = 2.540561 g / cm^3
# Si number density = 25.463569 Si / 1000 Ang^3
#
#
#
# Elastic Constant Matrix: (Units=GPa)
#
#
# Indices 1 2 3 4 5 6 
#
# 1 128.8004 38.9763 10.6333 0.0000 -16.3081 0.0000
# 2 38.9763 63.9164 21.7558 0.0000 -6.4684 0.0000
# 3 10.6333 21.7558 62.2110 0.0000 -19.6351 0.0000
# 4 0.0000 0.0000 0.0000 48.7443 0.0000 -9.6810
# 5 -16.3081 -6.4684 -19.6351 0.0000 35.8200 0.0000
# 6 0.0000 0.0000 0.0000 -9.6810 0.0000 43.4115
#
#
#
# Elastic Compliance Matrix: (Units=1/GPa)
#
#
# Indices 1 2 3 4 5 6 
#
# 1 0.010099 -0.006355 0.001917 0.000000 0.004501 0.000000
# 2 -0.006355 0.021760 -0.007493 0.000000 -0.003071 0.000000
# 3 0.001917 -0.007493 0.022026 0.000000 0.011594 0.000000
# 4 0.000000 0.000000 0.000000 0.021466 0.000000 0.004787
# 5 0.004501 -0.003071 0.011594 0.000000 0.035767 0.000000
# 6 0.000000 0.000000 0.000000 0.004787 0.000000 0.024103
#
#
# Mechanical properties :
#
#
# Convention : Reuss Voigt Hill
#
# Bulk Modulus (GPa) = 33.30778 44.18427 38.74602
# Shear Modulus (GPa) = 29.56985 37.83267 33.70126
#
# Velocity S-wave (km/s) = 3.41142 3.85873 3.64195
# Velocity P-wave (km/s) = 5.35033 6.10268 5.73885
#
# Compressibility (1/GPa) = 0.03002301
#
# Stress axis : x y z
#
# Youngs Moduli (GPa) = 99.02243 45.95489 45.40058
#
# Poissons Ratio (x) = 0.29205 -0.08703
# Poissons Ratio (y) = 0.62931 0.34018
# Poissons Ratio (z) = -0.18982 0.34434
#
# Static dielectric constant tensor:
#      x y z
#    x 1.976560 0.000000 0.012110 
#    y 0.000000 2.073780 0.000000 
#    z 0.012110 0.000000 2.077540 
# 
# From -- ./inp_files/11145.got.cif
#   From: 2010.05.17/outbox.cif.g08.bks.cpg/sg4_6_cif.got.tgz:11145.got - 2010.06.03 18:43:04.
