data_PCOD9116769
_publ_section_title
;
Structure prediction by ZEFSAII (Michael W. Deem and Ramdas Pophale) SiO2 
 PCOD9116769
Probable space group: P 21
;
_chemical_formula_sum "Si O2"
_cell_formula_units_Z 14
_cell_length_a 17.655592
_cell_length_b 5.036583
_cell_length_c 9.696948
_cell_angle_alpha 90.000000
_cell_angle_beta 39.368757
_cell_angle_gamma 90.000000
_cell_volume 546.958349
_symmetry_space_group_name_H-M "P 21"
_symmetry_group_IT_number 4
_symmetry_cell_setting 'monoclinic'
loop_
_space_group_symop_operation_xyz
x,y,z
-x,1/2+y,-z
loop_
_atom_site_type_symbol
_atom_site_label
_atom_site_fract_x
_atom_site_fract_y
_atom_site_fract_z
Si Si1 0.843202 0.730680 0.666755
Si Si2 0.576868 0.037838 0.701430
Si Si3 0.910438 0.088218 0.801286
Si Si4 0.343169 0.053481 0.888919
Si Si5 0.293418 0.018947 0.399408
Si Si6 0.325196 0.585542 0.739883
Si Si7 0.959396 0.326591 0.138447
O O1 0.764759 0.677778 0.644717
O O2 0.977470 0.735343 0.421869
O O3 0.836798 0.984283 0.773175
O O4 0.786823 0.525568 0.857402
O O5 0.437758 0.099854 0.877758
O O6 0.636323 0.243939 0.724779
O O7 0.632136 0.108563 0.474365
O O8 0.614591 0.733498 0.669295
O O9 0.977698 0.860052 0.799820
O O10 0.812129 0.182844 0.048927
O O11 0.337346 0.292220 0.786627
O O12 0.391334 0.794466 0.744103
O O13 0.176226 0.929564 0.651967
O O14 0.975811 0.029358 0.059124
#
# Coordination Sequence:
#
# PCOD9116769 Si02
#       7
#     2   2   2   2   2   2   2
#     4  10  24  42  63  96 125 170 217 250 315 376
#     4  12  24  43  65  93 129 169 209 264 319 360
#     4  10  22  40  67  91 131 166 204 266 313 376
#     4  11  24  41  66  92 127 166 214 264 306 379
#     4  11  25  41  64  93 130 168 212 259 307 380
#     4  11  22  40  66  97 123 162 212 262 322 375
#     4  11  23  41  65  98 129 163 208 259 320 378
#
# _framework density 25.596094999999998
#
# number of rings (size 3 to 8) (size 9 to 14) (size 15 to 20)
#    0.000    1.143    0.000    6.000    0.000   11.429 
#    0.000    0.000    0.000    0.000    0.000    0.000 
#    0.000    0.000    0.000    0.000    0.000    0.000 
#
# Total GULP energy -78223.047837 kJ/mol
# GULP energy per Si atom -5587.360560 kJ/mol
# Density = 2.553784 g / cm^3
# Si number density = 25.596095 Si / 1000 Ang^3
#
#
#
# Elastic Constant Matrix: (Units=GPa)
#
#
# Indices 1 2 3 4 5 6 
#
# 1 44.6774 14.4240 2.3679 0.0000 -3.1202 0.0000
# 2 14.4240 102.7858 5.1810 0.0000 -0.9845 0.0000
# 3 2.3679 5.1810 123.2130 0.0000 -18.7659 0.0000
# 4 0.0000 0.0000 0.0000 21.7374 0.0000 -3.4034
# 5 -3.1202 -0.9845 -18.7659 0.0000 28.6013 0.0000
# 6 0.0000 0.0000 0.0000 -3.4034 0.0000 26.5097
#
#
#
# Elastic Compliance Matrix: (Units=1/GPa)
#
#
# Indices 1 2 3 4 5 6 
#
# 1 0.023618 -0.003294 0.000066 0.000000 0.002507 0.000000
# 2 -0.003294 0.010209 -0.000408 0.000000 -0.000276 0.000000
# 3 0.000066 -0.000408 0.009034 0.000000 0.005920 0.000000
# 4 0.000000 0.000000 0.000000 0.046947 0.000000 0.006027
# 5 0.002507 -0.000276 0.005920 0.000000 0.039112 0.000000
# 6 0.000000 0.000000 0.000000 0.006027 0.000000 0.038496
#
#
# Mechanical properties :
#
#
# Convention : Reuss Voigt Hill
#
# Bulk Modulus (GPa) = 28.09787 34.95802 31.52795
# Shear Modulus (GPa) = 26.80262 31.94989 29.37626
#
# Velocity S-wave (km/s) = 3.23946 3.53687 3.39143
# Velocity P-wave (km/s) = 4.99934 5.51058 5.26117
#
# Compressibility (1/GPa) = 0.03558988
#
# Stress axis : x y z
#
# Youngs Moduli (GPa) = 42.34139 97.95190 110.69791
#
# Poissons Ratio (x) = 0.32262 -0.00735
# Poissons Ratio (y) = 0.13946 0.04516
# Poissons Ratio (z) = -0.00281 0.03996
#
# Static dielectric constant tensor:
#      x y z
#    x 2.108570 0.000000 -0.041880 
#    y 0.000000 2.052230 0.000000 
#    z -0.041880 0.000000 2.029820 
# 
# From -- ./inp_files/7140.got.cif
#   From: 2010.05.17/outbox.cif.g08.bks.cpg/sg4_4_cif.got.tgz:7140.got - 2010.06.03 18:43:04.
