data_PCOD9116053
_publ_section_title
;
Structure prediction by ZEFSAII (Michael W. Deem and Ramdas Pophale) SiO2 
 PCOD9116053
Probable space group: P 21
;
_chemical_formula_sum "Si O2"
_cell_formula_units_Z 16
_cell_length_a 26.537009
_cell_length_b 5.268096
_cell_length_c 14.765976
_cell_angle_alpha 90.000000
_cell_angle_beta 158.463138
_cell_angle_gamma 90.000000
_cell_volume 757.795280
_symmetry_space_group_name_H-M "P 21"
_symmetry_group_IT_number 4
_symmetry_cell_setting 'monoclinic'
loop_
_space_group_symop_operation_xyz
x,y,z
-x,1/2+y,-z
loop_
_atom_site_type_symbol
_atom_site_label
_atom_site_fract_x
_atom_site_fract_y
_atom_site_fract_z
Si Si1 0.368872 0.955520 0.199974
Si Si2 0.501871 0.821481 0.713346
Si Si3 0.500271 0.006635 0.117682
Si Si4 0.045586 0.496022 0.388898
Si Si5 0.781750 0.077995 0.150008
Si Si6 0.661960 0.003942 0.215009
Si Si7 0.865723 0.989761 0.083974
Si Si8 0.356943 0.177503 0.362983
O O1 0.484672 0.740941 0.394937
O O2 0.454764 0.190677 0.307674
O O3 0.309182 0.005520 0.198386
O O4 0.256587 0.871080 0.937688
O O5 0.376528 0.014225 0.486651
O O6 0.472155 0.595638 0.733777
O O7 0.646067 0.965976 0.972593
O O8 0.402677 0.234244 0.920434
O O9 0.423252 0.739205 0.972592
O O10 0.632321 0.021036 0.273100
O O11 0.095650 0.518910 0.577331
O O12 0.181947 0.501832 0.555583
O O13 0.964311 0.751804 0.233397
O O14 0.955138 0.244119 0.223072
O O15 0.810754 0.979291 0.096533
O O16 0.737997 0.925423 0.803584
#
# Coordination Sequence:
#
# PCOD9116053 Si02
#       8
#     2   2   2   2   2   2   2   2
#     4  11  20  36  62  85 128 169 211 285 313 368
#     4  11  22  35  65  91 128 161 211 279 321 376
#     4  10  21  39  66  99 123 160 198 285 340 386
#     4  12  25  40  61  88 129 177 212 255 310 392
#     4  11  23  37  57  90 129 166 221 257 316 375
#     4  10  21  41  64  93 133 154 211 265 343 392
#     4  12  26  39  58  86 131 184 213 248 301 398
#     4  11  22  37  55  92 127 175 221 258 322 373
#
# _framework density 21.113883999999999
#
# number of rings (size 3 to 8) (size 9 to 14) (size 15 to 20)
#    0.000    1.000    3.750    3.750    5.250    0.000 
#    0.000    0.000    0.000    0.000    3.250    0.000 
#    0.000    0.000    0.000    0.000    0.000    0.000 
#
# Total GULP energy -89294.516407 kJ/mol
# GULP energy per Si atom -5580.907275 kJ/mol
# Density = 2.106583 g / cm^3
# Si number density = 21.113884 Si / 1000 Ang^3
#
#
#
# Elastic Constant Matrix: (Units=GPa)
#
#
# Indices 1 2 3 4 5 6 
#
# 1 89.6329 22.0483 28.7772 0.0000 28.1278 0.0000
# 2 22.0483 125.2219 48.1988 0.0000 10.5680 0.0000
# 3 28.7772 48.1988 97.6996 0.0000 15.5534 0.0000
# 4 0.0000 0.0000 0.0000 40.4238 0.0000 0.0223
# 5 28.1278 10.5680 15.5534 0.0000 29.7447 0.0000
# 6 0.0000 0.0000 0.0000 0.0223 0.0000 31.1891
#
#
#
# Elastic Compliance Matrix: (Units=1/GPa)
#
#
# Indices 1 2 3 4 5 6 
#
# 1 0.016518 -0.000874 -0.002178 0.000000 -0.014170 0.000000
# 2 -0.000874 0.009934 -0.004596 0.000000 -0.000300 0.000000
# 3 -0.002178 -0.004596 0.013696 0.000000 -0.003469 0.000000
# 4 0.000000 0.000000 0.000000 0.024738 0.000000 -0.000018
# 5 -0.014170 -0.000300 -0.003469 0.000000 0.048940 0.000000
# 6 0.000000 0.000000 0.000000 -0.000018 0.000000 0.032062
#
#
# Mechanical properties :
#
#
# Convention : Reuss Voigt Hill
#
# Bulk Modulus (GPa) = 40.23729 56.73364 48.48547
# Shear Modulus (GPa) = 29.50400 34.50686 32.00543
#
# Velocity S-wave (km/s) = 3.74220 4.04706 3.89761
# Velocity P-wave (km/s) = 6.14579 6.98333 6.57790
#
# Compressibility (1/GPa) = 0.02485257
#
# Stress axis : x y z
#
# Youngs Moduli (GPa) = 60.54085 100.66554 73.01139
#
# Poissons Ratio (x) = 0.08799 0.15903
# Poissons Ratio (y) = 0.05292 0.33553
# Poissons Ratio (z) = 0.13187 0.46261
#
# Static dielectric constant tensor:
#      x y z
#    x 1.786850 0.000000 -0.045550 
#    y 0.000000 1.843540 0.000000 
#    z -0.045550 0.000000 1.820160 
# 
# From -- ./inp_files/14614.got.cif
#   From: 2010.05.17/outbox.cif.g08.bks.cpg/sg4_8_cif.got.tgz:14614.got - 2010.06.03 18:43:04.
