data_PCOD9116272
_publ_section_title
;
Structure prediction by ZEFSAII (Michael W. Deem and Ramdas Pophale) SiO2 
 PCOD9116272
Probable space group: P 21
;
_chemical_formula_sum "Si O2"
_cell_formula_units_Z 16
_cell_length_a 22.924338
_cell_length_b 5.167298
_cell_length_c 12.691386
_cell_angle_alpha 90.000000
_cell_angle_beta 156.349309
_cell_angle_gamma 90.000000
_cell_volume 603.096154
_symmetry_space_group_name_H-M "P 21"
_symmetry_group_IT_number 4
_symmetry_cell_setting 'monoclinic'
loop_
_space_group_symop_operation_xyz
x,y,z
-x,1/2+y,-z
loop_
_atom_site_type_symbol
_atom_site_label
_atom_site_fract_x
_atom_site_fract_y
_atom_site_fract_z
Si Si1 0.825550 0.843420 0.791816
Si Si2 0.660272 0.986861 0.946956
Si Si3 0.443068 0.653897 0.659921
Si Si4 0.041592 0.764429 0.752620
Si Si5 0.857404 0.488002 0.288922
Si Si6 0.568644 0.376993 0.066535
Si Si7 0.867694 0.568503 0.644923
Si Si8 0.674950 0.965012 0.727652
O O1 0.728112 0.101780 0.605719
O O2 0.813260 0.682943 0.665277
O O3 0.753336 0.748830 0.783104
O O4 0.992096 0.898806 0.093204
O O5 0.511920 0.935835 0.764947
O O6 0.629706 0.954032 0.772410
O O7 0.762227 0.744239 0.143553
O O8 0.754247 0.239454 0.125520
O O9 0.458855 0.536525 0.568490
O O10 0.526112 0.486798 0.882877
O O11 0.978162 0.522979 0.578683
O O12 0.930558 0.784911 0.666591
O O13 0.069721 0.971007 0.706735
O O14 0.196989 0.679125 0.054732
O O15 0.737119 0.418798 0.372535
O O16 0.480756 0.585077 0.993586
#
# Coordination Sequence:
#
# PCOD9116272 Si02
#       8
#     2   2   2   2   2   2   2   2
#     4   9  22  44  69 111 149 193 253 308 366 449
#     4  11  24  45  73 107 154 198 248 309 383 440
#     4  10  23  48  71 110 151 197 253 309 371 453
#     4  10  21  41  69 106 151 197 249 306 371 447
#     4  11  24  43  71 112 153 200 251 311 371 453
#     4  12  27  48  75 105 146 194 245 307 372 443
#     4  11  23  44  76 108 150 197 251 306 383 437
#     4   8  20  41  66 105 148 192 246 306 367 440
#
# _framework density 26.529765999999999
#
# number of rings (size 3 to 8) (size 9 to 14) (size 15 to 20)
#    0.750    1.000    1.250    2.250    1.750    5.000 
#    0.000    8.750    0.000    0.000    0.000    0.000 
#    0.000    0.000    0.000    0.000    0.000    0.000 
#
# Total GULP energy -89470.401260 kJ/mol
# GULP energy per Si atom -5591.900079 kJ/mol
# Density = 2.646938 g / cm^3
# Si number density = 26.529766 Si / 1000 Ang^3
#
#
#
# Elastic Constant Matrix: (Units=GPa)
#
#
# Indices 1 2 3 4 5 6 
#
# 1 118.1966 35.7309 39.0655 0.0000 -24.3976 0.0000
# 2 35.7309 91.3208 31.1053 0.0000 -8.7517 0.0000
# 3 39.0655 31.1053 160.9303 0.0000 -19.1741 0.0000
# 4 0.0000 0.0000 0.0000 26.2596 0.0000 2.6725
# 5 -24.3976 -8.7517 -19.1741 0.0000 41.6438 0.0000
# 6 0.0000 0.0000 0.0000 2.6725 0.0000 37.3680
#
#
#
# Elastic Compliance Matrix: (Units=1/GPa)
#
#
# Indices 1 2 3 4 5 6 
#
# 1 0.010984 -0.003328 -0.001418 0.000000 0.005083 0.000000
# 2 -0.003328 0.012820 -0.001673 0.000000 -0.000026 0.000000
# 3 -0.001418 -0.001673 0.007132 0.000000 0.002102 0.000000
# 4 0.000000 0.000000 0.000000 0.038361 0.000000 -0.002744
# 5 0.005083 -0.000026 0.002102 0.000000 0.027953 0.000000
# 6 0.000000 0.000000 0.000000 -0.002744 0.000000 0.026957
#
#
# Mechanical properties :
#
#
# Convention : Reuss Voigt Hill
#
# Bulk Modulus (GPa) = 55.25192 64.69459 59.97325
# Shear Modulus (GPa) = 34.94622 38.69067 36.81844
#
# Velocity S-wave (km/s) = 3.63333 3.82303 3.72938
# Velocity P-wave (km/s) = 6.20266 6.62767 6.41868
#
# Compressibility (1/GPa) = 0.01809892
#
# Stress axis : x y z
#
# Youngs Moduli (GPa) = 91.03952 78.00376 140.21772
#
# Poissons Ratio (x) = 0.25958 0.19877
# Poissons Ratio (y) = 0.30296 0.23460
# Poissons Ratio (z) = 0.12905 0.13051
#
# Static dielectric constant tensor:
#      x y z
#    x 2.146620 0.000000 0.039020 
#    y 0.000000 2.117940 0.000000 
#    z 0.039020 0.000000 2.077300 
# 
# From -- ./inp_files/14593.got.cif
#   From: 2010.05.17/outbox.cif.g08.bks.cpg/sg4_8_cif.got.tgz:14593.got - 2010.06.03 18:43:04.
