data_PCOD9116057
_publ_section_title
;
Structure prediction by ZEFSAII (Michael W. Deem and Ramdas Pophale) SiO2 
 PCOD9116057
Probable space group: P 21
;
_chemical_formula_sum "Si O2"
_cell_formula_units_Z 14
_cell_length_a 11.327550
_cell_length_b 12.650541
_cell_length_c 5.057151
_cell_angle_alpha 90.000000
_cell_angle_beta 68.979250
_cell_angle_gamma 90.000000
_cell_volume 676.460337
_symmetry_space_group_name_H-M "P 21"
_symmetry_group_IT_number 4
_symmetry_cell_setting 'monoclinic'
loop_
_space_group_symop_operation_xyz
x,y,z
-x,1/2+y,-z
loop_
_atom_site_type_symbol
_atom_site_label
_atom_site_fract_x
_atom_site_fract_y
_atom_site_fract_z
Si Si1 0.442023 0.223580 0.854627
Si Si2 0.159767 0.785767 0.489812
Si Si3 0.544340 0.113097 0.276527
Si Si4 0.228289 0.064400 0.046127
Si Si5 0.833088 0.141769 0.028964
Si Si6 0.934460 0.508462 0.335980
Si Si7 0.404692 0.916470 0.240859
O O1 0.493673 0.199985 0.520844
O O2 0.474936 0.342375 0.914083
O O3 0.520360 0.152486 0.998715
O O4 0.301321 0.175938 0.974007
O O5 0.168506 0.732112 0.196607
O O6 0.296948 0.838579 0.439688
O O7 0.065824 0.884781 0.589990
O O8 0.127911 0.698238 0.731306
O O9 0.458344 0.009404 0.381511
O O10 0.692856 0.096777 0.186549
O O11 0.124277 0.065921 0.361389
O O12 0.330504 0.976308 0.063532
O O13 0.161916 0.030660 0.828796
O O14 0.931747 0.054311 0.856562
#
# Coordination Sequence:
#
# PCOD9116057 Si02
#       7
#     2   2   2   2   2   2   2
#     4  11  21  38  64  91 128 157 205 258 319 372
#     4  11  22  41  68  90 121 176 210 246 328 379
#     4  11  23  38  61 101 122 159 207 264 307 373
#     4  10  22  40  64  95 121 168 214 258 309 376
#     4  12  23  43  65  94 129 164 215 258 309 378
#     4  11  24  43  65  91 127 168 217 258 298 380
#     4  10  21  39  67  90 126 162 206 260 318 380
#
# _framework density 20.695965999999999
#
# number of rings (size 3 to 8) (size 9 to 14) (size 15 to 20)
#    0.000    1.143    2.857    5.143    0.000    3.429 
#    5.143    0.000    0.000    0.000    0.000    0.000 
#    0.000    0.000    0.000    0.000    0.000    0.000 
#
# Total GULP energy -78190.411507 kJ/mol
# GULP energy per Si atom -5585.029393 kJ/mol
# Density = 2.064886 g / cm^3
# Si number density = 20.695966 Si / 1000 Ang^3
#
#
#
# Elastic Constant Matrix: (Units=GPa)
#
#
# Indices 1 2 3 4 5 6 
#
# 1 52.4772 6.1538 15.7968 0.0000 -5.0003 0.0000
# 2 6.1538 34.7702 -4.7716 0.0000 -3.6709 0.0000
# 3 15.7968 -4.7716 73.5645 0.0000 4.8336 0.0000
# 4 0.0000 0.0000 0.0000 27.1711 0.0000 -9.8077
# 5 -5.0003 -3.6709 4.8336 0.0000 17.8556 0.0000
# 6 0.0000 0.0000 0.0000 -9.8077 0.0000 32.8979
#
#
#
# Elastic Compliance Matrix: (Units=1/GPa)
#
#
# Indices 1 2 3 4 5 6 
#
# 1 0.021771 -0.003877 -0.005370 0.000000 0.006753 0.000000
# 2 -0.003877 0.030261 0.002502 0.000000 0.004458 0.000000
# 3 -0.005370 0.002502 0.015245 0.000000 -0.005116 0.000000
# 4 0.000000 0.000000 0.000000 0.041242 0.000000 0.012295
# 5 0.006753 0.004458 -0.005116 0.000000 0.060197 0.000000
# 6 0.000000 0.000000 0.000000 0.012295 0.000000 0.034063
#
#
# Mechanical properties :
#
#
# Convention : Reuss Voigt Hill
#
# Bulk Modulus (GPa) = 18.59194 21.68555 20.13875
# Shear Modulus (GPa) = 21.34961 25.16046 23.25504
#
# Velocity S-wave (km/s) = 3.21531 3.49050 3.35573
# Velocity P-wave (km/s) = 4.77359 5.17162 4.97659
#
# Compressibility (1/GPa) = 0.05378674
#
# Stress axis : x y z
#
# Youngs Moduli (GPa) = 45.93366 33.04635 65.59469
#
# Poissons Ratio (x) = 0.12812 0.35225
# Poissons Ratio (y) = 0.17809 -0.16414
# Poissons Ratio (z) = 0.24667 -0.08270
#
# Static dielectric constant tensor:
#      x y z
#    x 1.739310 0.000000 -0.017340 
#    y 0.000000 1.765920 0.000000 
#    z -0.017340 0.000000 1.738800 
# 
# From -- ./inp_files/2749.got.cif
#   From: 2010.05.17/outbox.cif.g08.bks.cpg/sg4_2_cif.got.tgz:2749.got - 2010.06.03 18:43:04.
