data_PCOD9116752
_publ_section_title
;
Structure prediction by ZEFSAII (Michael W. Deem and Ramdas Pophale) SiO2 
 PCOD9116752
Probable space group: P 21
;
_chemical_formula_sum "Si O2"
_cell_formula_units_Z 16
_cell_length_a 10.665431
_cell_length_b 12.334517
_cell_length_c 11.281631
_cell_angle_alpha 90.000000
_cell_angle_beta 25.798558
_cell_angle_gamma 90.000000
_cell_volume 645.906654
_symmetry_space_group_name_H-M "P 21"
_symmetry_group_IT_number 4
_symmetry_cell_setting 'monoclinic'
loop_
_space_group_symop_operation_xyz
x,y,z
-x,1/2+y,-z
loop_
_atom_site_type_symbol
_atom_site_label
_atom_site_fract_x
_atom_site_fract_y
_atom_site_fract_z
Si Si1 0.460680 0.507730 0.340788
Si Si2 0.489164 0.394731 0.923022
Si Si3 0.344361 0.423665 0.798314
Si Si4 0.047745 0.591308 0.898720
Si Si5 0.546000 0.290304 0.402414
Si Si6 0.565921 0.603100 0.756877
Si Si7 0.871895 0.895855 0.559300
Si Si8 0.999840 0.227686 0.731115
O O1 0.238476 0.542752 0.630487
O O2 0.583511 0.388266 0.275323
O O3 0.301754 0.496842 0.350074
O O4 0.723444 0.590694 0.129153
O O5 0.316036 0.365606 0.950334
O O6 0.467447 0.526361 0.947590
O O7 0.832905 0.388360 0.617989
O O8 0.358101 0.344907 0.153010
O O9 0.085048 0.499557 0.970896
O O10 0.468191 0.347356 0.592479
O O11 0.567712 0.518127 0.646273
O O12 0.190217 0.707022 0.809007
O O13 0.257010 0.226548 0.607558
O O14 0.872941 0.658343 0.488188
O O15 0.305407 0.687256 0.965993
O O16 0.986536 0.845098 0.338228
#
# Coordination Sequence:
#
# PCOD9116752 Si02
#       8
#     2   2   2   2   2   2   2   2
#     4  10  25  40  64 100 131 178 221 277 339 399
#     4  10  22  40  67  89 131 177 210 281 322 389
#     4   9  23  40  68 102 135 174 223 271 351 394
#     4  11  22  41  66  98 138 171 220 276 340 417
#     4  10  22  42  69 100 140 176 219 286 341 405
#     4  10  22  40  65  99 129 173 228 267 334 397
#     4  11  22  43  66  95 132 171 231 270 335 390
#     4  11  22  40  69 101 126 178 230 274 324 415
#
# _framework density 24.771384000000001
#
# number of rings (size 3 to 8) (size 9 to 14) (size 15 to 20)
#    0.750    1.000    1.250    2.250    1.750    9.000 
#    0.000    5.000    0.000    1.500    0.000    0.000 
#    0.000    0.000    0.000    0.000    0.000    0.000 
#
# Total GULP energy -89181.899742 kJ/mol
# GULP energy per Si atom -5573.868734 kJ/mol
# Density = 2.471500 g / cm^3
# Si number density = 24.771384 Si / 1000 Ang^3
#
#
#
# Elastic Constant Matrix: (Units=GPa)
#
#
# Indices 1 2 3 4 5 6 
#
# 1 71.1160 14.3455 50.5020 0.0000 13.8955 0.0000
# 2 14.3455 53.5266 16.3807 0.0000 9.9332 0.0000
# 3 50.5020 16.3807 110.0514 0.0000 -2.2911 0.0000
# 4 0.0000 0.0000 0.0000 23.0373 0.0000 -0.2344
# 5 13.8955 9.9332 -2.2911 0.0000 34.3583 0.0000
# 6 0.0000 0.0000 0.0000 -0.2344 0.0000 27.5466
#
#
#
# Elastic Compliance Matrix: (Units=1/GPa)
#
#
# Indices 1 2 3 4 5 6 
#
# 1 0.024205 -0.001186 -0.011143 0.000000 -0.010189 0.000000
# 2 -0.001186 0.020886 -0.002684 0.000000 -0.005738 0.000000
# 3 -0.011143 -0.002684 0.014730 0.000000 0.006265 0.000000
# 4 0.000000 0.000000 0.000000 0.043412 0.000000 0.000369
# 5 -0.010189 -0.005738 0.006265 0.000000 0.035302 0.000000
# 6 0.000000 0.000000 0.000000 0.000369 0.000000 0.036305
#
#
# Mechanical properties :
#
#
# Convention : Reuss Voigt Hill
#
# Bulk Modulus (GPa) = 33.56277 44.12782 38.84530
# Shear Modulus (GPa) = 23.27767 27.21949 25.24858
#
# Velocity S-wave (km/s) = 3.06878 3.31845 3.19606
# Velocity P-wave (km/s) = 5.11224 5.70399 5.41620
#
# Compressibility (1/GPa) = 0.02979492
#
# Stress axis : x y z
#
# Youngs Moduli (GPa) = 41.31431 47.87818 67.88851
#
# Poissons Ratio (x) = 0.05679 0.75648
# Poissons Ratio (y) = 0.04900 0.18221
# Poissons Ratio (z) = 0.46036 0.12850
#
# Static dielectric constant tensor:
#      x y z
#    x 2.080970 0.000000 -0.025610 
#    y 0.000000 2.056980 0.000000 
#    z -0.025610 0.000000 1.913180 
# 
# From -- ./inp_files/12347.got.cif
#   From: 2010.05.17/outbox.cif.g08.bks.cpg/sg4_7_cif.got.tgz:12347.got - 2010.06.03 18:43:04.
