data_PCOD9116671
_publ_section_title
;
Structure prediction by ZEFSAII (Michael W. Deem and Ramdas Pophale) SiO2 
 PCOD9116671
Probable space group: P 21
;
_chemical_formula_sum "Si O2"
_cell_formula_units_Z 14
_cell_length_a 9.091358
_cell_length_b 9.129856
_cell_length_c 12.943184
_cell_angle_alpha 90.000000
_cell_angle_beta 37.740894
_cell_angle_gamma 90.000000
_cell_volume 657.582486
_symmetry_space_group_name_H-M "P 21"
_symmetry_group_IT_number 4
_symmetry_cell_setting 'monoclinic'
loop_
_space_group_symop_operation_xyz
x,y,z
-x,1/2+y,-z
loop_
_atom_site_type_symbol
_atom_site_label
_atom_site_fract_x
_atom_site_fract_y
_atom_site_fract_z
Si Si1 0.297826 0.909620 0.305383
Si Si2 0.854666 0.273061 0.010448
Si Si3 0.815309 0.210476 0.806468
Si Si4 0.266350 0.492500 0.808340
Si Si5 0.861242 0.098413 0.574745
Si Si6 0.476660 0.953379 0.651264
Si Si7 0.376034 0.170957 0.537734
O O1 0.264143 0.860939 0.205376
O O2 0.178561 0.769319 0.429841
O O3 0.569160 0.925819 0.191805
O O4 0.137182 0.050350 0.418749
O O5 0.737636 0.218656 0.967936
O O6 0.092458 0.369644 0.858542
O O7 0.887845 0.127266 0.060172
O O8 0.687951 0.380017 0.170384
O O9 0.748204 0.092737 0.754048
O O10 0.102099 0.186452 0.653642
O O11 0.458547 0.564815 0.624313
O O12 0.721959 0.997095 0.572082
O O13 0.510365 0.829501 0.545331
O O14 0.381840 0.098062 0.647112
#
# Coordination Sequence:
#
# PCOD9116671 Si02
#       7
#     2   2   2   2   2   2   2
#     4  10  22  42  67  97 131 174 228 289 326 409
#     4  11  26  43  64  98 141 176 222 287 346 409
#     4  10  22  39  67  92 132 170 223 279 334 402
#     4  11  24  43  66  96 137 179 230 282 345 401
#     4  10  22  41  68  99 126 179 226 291 328 403
#     4  11  24  40  68  99 135 177 229 283 345 397
#     4  11  22  40  68  99 128 181 232 279 326 411
#
# _framework density 21.290106000000002
#
# number of rings (size 3 to 8) (size 9 to 14) (size 15 to 20)
#    0.857    0.571    2.857    1.714    8.000    1.143 
#    0.000    0.000    0.000    0.000    0.000    0.000 
#    0.000    0.000    0.000    0.000    0.000    0.000 
#
# Total GULP energy -78019.243869 kJ/mol
# GULP energy per Si atom -5572.803134 kJ/mol
# Density = 2.124165 g / cm^3
# Si number density = 21.290106 Si / 1000 Ang^3
#
#
#
# Elastic Constant Matrix: (Units=GPa)
#
#
# Indices 1 2 3 4 5 6 
#
# 1 74.4783 19.9076 -1.1201 0.0000 13.5355 0.0000
# 2 19.9076 59.8761 9.2318 0.0000 8.6523 0.0000
# 3 -1.1201 9.2318 37.5500 0.0000 14.0329 0.0000
# 4 0.0000 0.0000 0.0000 36.3606 0.0000 6.2271
# 5 13.5355 8.6523 14.0329 0.0000 37.3260 0.0000
# 6 0.0000 0.0000 0.0000 6.2271 0.0000 37.5439
#
#
#
# Elastic Compliance Matrix: (Units=1/GPa)
#
#
# Indices 1 2 3 4 5 6 
#
# 1 0.015944 -0.005034 0.004000 0.000000 -0.006119 0.000000
# 2 -0.005034 0.019206 -0.004526 0.000000 -0.000925 0.000000
# 3 0.004000 -0.004526 0.032592 0.000000 -0.012655 0.000000
# 4 0.000000 0.000000 0.000000 0.028306 0.000000 -0.004695
# 5 -0.006119 -0.000925 -0.012655 0.000000 0.033982 0.000000
# 6 0.000000 0.000000 0.000000 -0.004695 0.000000 0.027414
#
#
# Mechanical properties :
#
#
# Convention : Reuss Voigt Hill
#
# Bulk Modulus (GPa) = 17.66080 25.32701 21.49390
# Shear Modulus (GPa) = 26.67516 31.83843 29.25679
#
# Velocity S-wave (km/s) = 3.54352 3.87131 3.71104
# Velocity P-wave (km/s) = 5.00554 5.64842 5.33667
#
# Compressibility (1/GPa) = 0.05662258
#
# Stress axis : x y z
#
# Youngs Moduli (GPa) = 62.71801 52.06617 30.68194
#
# Poissons Ratio (x) = 0.26209 -0.12272
# Poissons Ratio (y) = 0.31570 0.13888
# Poissons Ratio (z) = -0.25086 0.23567
#
# Static dielectric constant tensor:
#      x y z
#    x 1.781750 0.000000 0.036980 
#    y 0.000000 1.765950 0.000000 
#    z 0.036980 0.000000 1.797820 
# 
# From -- ./inp_files/13645.got.cif
#   From: 2010.05.17/outbox.cif.g08.bks.cpg/sg4_7_cif.got.tgz:13645.got - 2010.06.03 18:43:04.
