data_PCOD9116297
_publ_section_title
;
Structure prediction by ZEFSAII (Michael W. Deem and Ramdas Pophale) SiO2 
 PCOD9116297
Probable space group: P 21
;
_chemical_formula_sum "Si O2"
_cell_formula_units_Z 16
_cell_length_a 13.095435
_cell_length_b 10.037335
_cell_length_c 6.633055
_cell_angle_alpha 90.000000
_cell_angle_beta 135.509853
_cell_angle_gamma 90.000000
_cell_volume 610.995110
_symmetry_space_group_name_H-M "P 21"
_symmetry_group_IT_number 4
_symmetry_cell_setting 'monoclinic'
loop_
_space_group_symop_operation_xyz
x,y,z
-x,1/2+y,-z
loop_
_atom_site_type_symbol
_atom_site_label
_atom_site_fract_x
_atom_site_fract_y
_atom_site_fract_z
Si Si1 0.655777 0.406050 0.770484
Si Si2 0.962560 0.574140 0.606229
Si Si3 0.858377 0.906049 0.852907
Si Si4 0.646223 0.637523 0.079523
Si Si5 0.020084 0.906049 0.698982
Si Si6 0.373469 0.406050 0.168328
Si Si7 0.353778 0.674577 0.920475
Si Si8 0.037439 0.737957 0.393770
O O1 0.624590 0.532825 0.868613
O O2 0.546833 0.406049 0.430702
O O3 0.624590 0.279278 0.868618
O O4 0.826447 0.406049 0.964666
O O5 0.965558 0.406049 0.535554
O O6 0.063722 0.536177 0.940996
O O7 0.984374 0.578380 0.366308
O O8 0.789203 0.591420 0.401668
O O9 0.936277 0.775920 0.059003
O O10 0.694930 0.906050 0.705322
O O11 0.881473 0.906049 0.650305
O O12 0.682394 0.777182 0.024932
O O13 0.500000 0.656050 0.999998
O O14 0.015626 0.733717 0.633691
O O15 0.317608 0.534919 0.975072
O O16 0.210796 0.720678 0.598329
#
# Coordination Sequence:
#
# PCOD9116297 Si02
#       8
#     2   2   2   2   2   2   2   2
#     4  10  24  45  60  96 136 166 216 272 323 397
#     4  10  21  42  62  92 131 161 218 273 316 390
#     4  11  23  41  65  94 128 176 214 272 330 383
#     4  11  24  43  68  95 130 175 214 268 336 381
#     4   9  23  39  63  88 126 176 208 258 340 383
#     4  12  24  41  66 100 128 164 232 266 313 405
#     4  11  24  43  68  95 130 175 214 268 336 381
#     4  10  21  42  62  92 131 161 218 273 316 390
#
# _framework density 26.186792000000001
#
# number of rings (size 3 to 8) (size 9 to 14) (size 15 to 20)
#    0.000    1.500    2.500    2.250    3.500    3.000 
#    0.000    0.000    0.000    0.000    0.000    0.000 
#    0.000    0.000    0.000    0.000    0.000    0.000 
#
# Total GULP energy -89556.511110 kJ/mol
# GULP energy per Si atom -5597.281944 kJ/mol
# Density = 2.612719 g / cm^3
# Si number density = 26.186792 Si / 1000 Ang^3
#
#
#
# Elastic Constant Matrix: (Units=GPa)
#
#
# Indices 1 2 3 4 5 6 
#
# 1 141.6694 6.8175 0.9512 0.0000 -1.5891 0.0000
# 2 6.8175 214.0316 24.8154 0.0000 -22.4493 0.0000
# 3 0.9512 24.8154 90.0706 0.0000 27.2446 0.0000
# 4 0.0000 0.0000 0.0000 28.6355 0.0000 6.4582
# 5 -1.5891 -22.4493 27.2446 0.0000 29.2735 0.0000
# 6 0.0000 0.0000 0.0000 6.4582 0.0000 37.7658
#
#
#
# Elastic Compliance Matrix: (Units=1/GPa)
#
#
# Indices 1 2 3 4 5 6 
#
# 1 0.007072 -0.000167 -0.000148 0.000000 0.000393 0.000000
# 2 -0.000167 0.006082 -0.004289 0.000000 0.008647 0.000000
# 3 -0.000148 -0.004289 0.018488 0.000000 -0.020504 0.000000
# 4 0.000000 0.000000 0.000000 0.036323 0.000000 -0.006211
# 5 0.000393 0.008647 -0.020504 0.000000 0.059896 0.000000
# 6 0.000000 0.000000 0.000000 -0.006211 0.000000 0.027541
#
#
# Mechanical properties :
#
#
# Convention : Reuss Voigt Hill
#
# Bulk Modulus (GPa) = 44.57573 56.77108 50.67341
# Shear Modulus (GPa) = 29.05491 46.68078 37.86785
#
# Velocity S-wave (km/s) = 3.33457 4.22667 3.80684
# Velocity P-wave (km/s) = 5.64668 6.74878 6.22218
#
# Compressibility (1/GPa) = 0.02243373
#
# Stress axis : x y z
#
# Youngs Moduli (GPa) = 141.40030 164.42405 54.08959
#
# Poissons Ratio (x) = 0.02744 0.00799
# Poissons Ratio (y) = 0.02360 0.23201
# Poissons Ratio (z) = 0.02089 0.70529
#
# Static dielectric constant tensor:
#      x y z
#    x 2.050960 0.000000 -0.073090 
#    y 0.000000 2.173610 0.000000 
#    z -0.073090 0.000000 1.915960 
# 
# From -- ./inp_files/2839.got.cif
#   From: 2010.05.17/outbox.cif.g08.bks.cpg/sg4_2_cif.got.tgz:2839.got - 2010.06.03 18:43:04.
