data_PCOD9116371
_publ_section_title
;
Structure prediction by ZEFSAII (Michael W. Deem and Ramdas Pophale) SiO2 
 PCOD9116371
Probable space group: P 21
;
_chemical_formula_sum "Si O2"
_cell_formula_units_Z 16
_cell_length_a 11.717461
_cell_length_b 8.961564
_cell_length_c 13.974897
_cell_angle_alpha 90.000000
_cell_angle_beta 145.993290
_cell_angle_gamma 90.000000
_cell_volume 820.735066
_symmetry_space_group_name_H-M "P 21"
_symmetry_group_IT_number 4
_symmetry_cell_setting 'monoclinic'
loop_
_space_group_symop_operation_xyz
x,y,z
-x,1/2+y,-z
loop_
_atom_site_type_symbol
_atom_site_label
_atom_site_fract_x
_atom_site_fract_y
_atom_site_fract_z
Si Si1 0.497669 0.973070 0.121546
Si Si2 0.570633 0.472459 0.558082
Si Si3 0.074445 0.798076 0.816744
Si Si4 0.751541 0.739874 0.972318
Si Si5 0.870102 0.256779 0.650683
Si Si6 0.196340 0.472924 0.839911
Si Si7 0.304909 0.457864 0.546893
Si Si8 0.759634 0.782374 0.752605
O O1 0.626725 0.978822 0.114706
O O2 0.639750 0.917574 0.306980
O O3 0.421038 0.133664 0.105426
O O4 0.292451 0.877993 0.965659
O O5 0.737603 0.369216 0.623007
O O6 0.500415 0.423750 0.615591
O O7 0.647373 0.642403 0.620989
O O8 0.365850 0.434094 0.356078
O O9 0.105513 0.633012 0.798127
O O10 0.896588 0.875673 0.631007
O O11 0.981165 0.793357 0.858943
O O12 0.757996 0.749497 0.863514
O O13 0.730103 0.900071 0.008713
O O14 0.967859 0.680420 0.164434
O O15 0.015465 0.357966 0.684788
O O16 0.742300 0.133416 0.506059
#
# Coordination Sequence:
#
# PCOD9116371 Si02
#       8
#     2   2   2   2   2   2   2   2
#     4  12  23  43  69  91 129 180 222 265 329 384
#     4  11  20  39  61  95 132 161 217 263 327 401
#     4  11  24  43  62 101 135 157 229 275 314 400
#     4  10  22  42  66  90 131 176 210 265 344 370
#     4  10  21  43  62  90 136 160 213 274 322 387
#     4  10  24  42  66  93 129 174 222 276 313 389
#     4  11  24  41  66  97 127 177 208 269 338 382
#     4  11  22  39  66  97 131 175 205 277 339 389
#
# _framework density 19.494719
#
# number of rings (size 3 to 8) (size 9 to 14) (size 15 to 20)
#    0.750    0.500    5.000    0.750    1.750    2.000 
#    4.500    1.250    0.000    0.000    0.000    0.000 
#    0.000    0.000    0.000    0.000    0.000    0.000 
#
# Total GULP energy -89219.068721 kJ/mol
# GULP energy per Si atom -5576.191795 kJ/mol
# Density = 1.945035 g / cm^3
# Si number density = 19.494719 Si / 1000 Ang^3
#
#
#
# Elastic Constant Matrix: (Units=GPa)
#
#
# Indices 1 2 3 4 5 6 
#
# 1 123.2623 26.6827 41.9483 0.0000 35.5054 0.0000
# 2 26.6827 75.5731 23.0946 0.0000 13.6465 0.0000
# 3 41.9483 23.0946 69.2209 0.0000 9.8605 0.0000
# 4 0.0000 0.0000 0.0000 20.9522 0.0000 2.5412
# 5 35.5054 13.6465 9.8605 0.0000 24.5556 0.0000
# 6 0.0000 0.0000 0.0000 2.5412 0.0000 17.3688
#
#
#
# Elastic Compliance Matrix: (Units=1/GPa)
#
#
# Indices 1 2 3 4 5 6 
#
# 1 0.016619 0.000137 -0.007089 0.000000 -0.021260 0.000000
# 2 0.000137 0.015815 -0.004327 0.000000 -0.007250 0.000000
# 3 -0.007089 -0.004327 0.019499 0.000000 0.004825 0.000000
# 4 0.000000 0.000000 0.000000 0.048590 0.000000 -0.007109
# 5 -0.021260 -0.007250 0.004825 0.000000 0.073556 0.000000
# 6 0.000000 0.000000 0.000000 -0.007109 0.000000 0.058615
#
#
# Mechanical properties :
#
#
# Convention : Reuss Voigt Hill
#
# Bulk Modulus (GPa) = 34.04072 50.16751 42.10412
# Shear Modulus (GPa) = 18.86486 24.33071 21.59779
#
# Velocity S-wave (km/s) = 3.11415 3.53663 3.33209
# Velocity P-wave (km/s) = 5.51634 6.51665 6.03725
#
# Compressibility (1/GPa) = 0.02937658
#
# Stress axis : x y z
#
# Youngs Moduli (GPa) = 60.17065 63.23028 51.28535
#
# Poissons Ratio (x) = -0.00869 0.36355
# Poissons Ratio (y) = -0.00827 0.22191
# Poissons Ratio (z) = 0.42654 0.27360
#
# Static dielectric constant tensor:
#      x y z
#    x 1.660750 0.000000 0.011860 
#    y 0.000000 1.710880 0.000000 
#    z 0.011860 0.000000 1.708660 
# 
# From -- ./inp_files/13970.got.cif
#   From: 2010.05.17/outbox.cif.g08.bks.cpg/sg4_7_cif.got.tgz:13970.got - 2010.06.03 18:43:04.
