data_PCOD9116511
_publ_section_title
;
Structure prediction by ZEFSAII (Michael W. Deem and Ramdas Pophale) SiO2 
 PCOD9116511
Probable space group: P 21
;
_chemical_formula_sum "Si O2"
_cell_formula_units_Z 10
_cell_length_a 7.003812
_cell_length_b 7.068814
_cell_length_c 11.982722
_cell_angle_alpha 90.000000
_cell_angle_beta 42.366298
_cell_angle_gamma 90.000000
_cell_volume 399.771003
_symmetry_space_group_name_H-M "P 21"
_symmetry_group_IT_number 4
_symmetry_cell_setting 'monoclinic'
loop_
_space_group_symop_operation_xyz
x,y,z
-x,1/2+y,-z
loop_
_atom_site_type_symbol
_atom_site_label
_atom_site_fract_x
_atom_site_fract_y
_atom_site_fract_z
Si Si1 0.360957 0.153690 0.183517
Si Si2 0.841829 0.176704 0.245158
Si Si3 0.803241 0.430049 0.054147
Si Si4 0.667804 0.248722 0.730668
Si Si5 0.746076 0.566715 0.525861
O O1 0.647686 0.269683 0.047797
O O2 0.591432 0.606706 0.154209
O O3 0.292123 0.189105 0.343680
O O4 0.091848 0.200019 0.224957
O O5 0.395722 0.928183 0.163594
O O6 0.528881 0.127398 0.426264
O O7 0.920707 0.001701 0.129066
O O8 0.279564 0.855044 0.411685
O O9 0.848602 0.353313 0.158541
O O10 0.947731 0.132815 0.646970
#
# Coordination Sequence:
#
# PCOD9116511 Si02
#       5
#     2   2   2   2   2
#     4   9  24  41  65  96 131 178 217 267 334 393
#     4  11  23  43  67  99 126 176 225 268 327 397
#     4  11  24  42  66  96 136 170 218 279 331 387
#     4  10  21  46  65  92 141 169 210 280 333 383
#     4   9  20  42  65  91 130 169 212 270 325 384
#
# _framework density 25.014320000000001
#
# number of rings (size 3 to 8) (size 9 to 14) (size 15 to 20)
#    1.200    0.800    0.000    3.600    2.800    0.000 
#   10.800    0.000    0.000    0.000    0.000    0.000 
#    0.000    0.000    0.000    0.000    0.000    0.000 
#
# Total GULP energy -55870.444410 kJ/mol
# GULP energy per Si atom -5587.044441 kJ/mol
# Density = 2.495739 g / cm^3
# Si number density = 25.014320 Si / 1000 Ang^3
#
#
#
# Elastic Constant Matrix: (Units=GPa)
#
#
# Indices 1 2 3 4 5 6 
#
# 1 131.8659 53.1918 3.3125 0.0000 -19.0787 0.0000
# 2 53.1918 124.2197 40.0344 0.0000 -17.9601 0.0000
# 3 3.3125 40.0344 45.0471 0.0000 -23.7982 0.0000
# 4 0.0000 0.0000 0.0000 31.3188 0.0000 -12.0215
# 5 -19.0787 -17.9601 -23.7982 0.0000 38.5247 0.0000
# 6 0.0000 0.0000 0.0000 -12.0215 0.0000 38.8726
#
#
#
# Elastic Compliance Matrix: (Units=1/GPa)
#
#
# Indices 1 2 3 4 5 6 
#
# 1 0.011241 -0.006672 0.009501 0.000000 0.008326 0.000000
# 2 -0.006672 0.015291 -0.016446 0.000000 -0.006334 0.000000
# 3 0.009501 -0.016446 0.051290 0.000000 0.028722 0.000000
# 4 0.000000 0.000000 0.000000 0.036230 0.000000 0.011204
# 5 0.008326 -0.006334 0.028722 0.000000 0.044870 0.000000
# 6 0.000000 0.000000 0.000000 0.011204 0.000000 0.029190
#
#
# Mechanical properties :
#
#
# Convention : Reuss Voigt Hill
#
# Bulk Modulus (GPa) = 19.76713 54.91222 37.33967
# Shear Modulus (GPa) = 21.53245 35.38282 28.45763
#
# Velocity S-wave (km/s) = 2.93713 3.76507 3.37657
# Velocity P-wave (km/s) = 4.40702 6.39538 5.49194
#
# Compressibility (1/GPa) = 0.05058905
#
# Stress axis : x y z
#
# Youngs Moduli (GPa) = 88.96377 65.39599 19.49715
#
# Poissons Ratio (x) = 0.43629 -0.18524
# Poissons Ratio (y) = 0.59353 0.32064
# Poissons Ratio (z) = -0.84524 1.07548
#
# Static dielectric constant tensor:
#      x y z
#    x 1.987560 0.000000 0.026650 
#    y 0.000000 1.982680 0.000000 
#    z 0.026650 0.000000 2.008420 
# 
# From -- ./inp_files/3740.got.cif
#   From: 2010.05.17/outbox.cif.g08.bks.cpg/sg4_2_cif.got.tgz:3740.got - 2010.06.03 18:43:04.
