data_PCOD9116048
_publ_section_title
;
Structure prediction by ZEFSAII (Michael W. Deem and Ramdas Pophale) SiO2 
 PCOD9116048
Probable space group: P 21
;
_chemical_formula_sum "Si O2"
_cell_formula_units_Z 16
_cell_length_a 5.248268
_cell_length_b 8.386736
_cell_length_c 15.801560
_cell_angle_alpha 90.000000
_cell_angle_beta 67.894469
_cell_angle_gamma 90.000000
_cell_volume 644.392918
_symmetry_space_group_name_H-M "P 21"
_symmetry_group_IT_number 4
_symmetry_cell_setting 'monoclinic'
loop_
_space_group_symop_operation_xyz
x,y,z
-x,1/2+y,-z
loop_
_atom_site_type_symbol
_atom_site_label
_atom_site_fract_x
_atom_site_fract_y
_atom_site_fract_z
Si Si1 0.693170 0.367220 0.882525
Si Si2 0.753252 0.687161 0.154863
Si Si3 0.869858 0.961837 0.399364
Si Si4 0.113188 0.868831 0.532820
Si Si5 0.221280 0.208864 0.286648
Si Si6 0.811507 0.343684 0.199806
Si Si7 0.754364 0.693556 0.964420
Si Si8 0.438157 0.141612 0.539915
O O1 0.504686 0.304071 0.828738
O O2 0.713791 0.553475 0.901533
O O3 0.990172 0.286253 0.842845
O O4 0.521740 0.294470 0.984522
O O5 0.709540 0.526467 0.212832
O O6 0.817427 0.629894 0.050587
O O7 0.601469 0.079773 0.432775
O O8 0.992207 0.983555 0.478006
O O9 0.090015 0.031591 0.307169
O O10 0.791884 0.776092 0.413100
O O11 0.300293 0.971379 0.575004
O O12 0.310862 0.748148 0.457777
O O13 0.867298 0.787026 0.612961
O O14 0.543636 0.231675 0.234807
O O15 0.036734 0.306285 0.243215
O O16 0.994185 0.303245 0.094957
#
# Coordination Sequence:
#
# PCOD9116048 Si02
#       8
#     2   2   2   2   2   2   2   2
#     4  10  22  37  71 100 129 171 251 276 332 396
#     4  10  23  41  69  98 133 183 233 276 331 426
#     4  10  21  39  66  97 128 174 233 270 329 413
#     4  10  21  39  66  94 128 178 229 272 328 417
#     4  11  28  42  69 100 139 180 214 285 367 394
#     4  12  26  46  66 101 147 176 222 289 360 410
#     4  10  24  40  74 100 136 180 239 284 340 414
#     4   9  19  34  67  90 122 160 237 268 319 376
#
# _framework density 24.829574000000001
#
# number of rings (size 3 to 8) (size 9 to 14) (size 15 to 20)
#    0.750    1.000    0.000    3.750   15.750    0.000 
#    0.000    3.750    0.000    0.000    0.000    0.000 
#    0.000    0.000    0.000    0.000    0.000    0.000 
#
# Total GULP energy -89152.574045 kJ/mol
# GULP energy per Si atom -5572.035878 kJ/mol
# Density = 2.477306 g / cm^3
# Si number density = 24.829574 Si / 1000 Ang^3
#
#
#
# Elastic Constant Matrix: (Units=GPa)
#
#
# Indices 1 2 3 4 5 6 
#
# 1 133.1625 38.1739 10.8925 0.0000 -15.2244 0.0000
# 2 38.1739 109.8426 -2.5578 0.0000 -20.4225 0.0000
# 3 10.8925 -2.5578 29.2732 0.0000 7.2557 0.0000
# 4 0.0000 0.0000 0.0000 33.3010 0.0000 -4.8024
# 5 -15.2244 -20.4225 7.2557 0.0000 22.2398 0.0000
# 6 0.0000 0.0000 0.0000 -4.8024 0.0000 47.6108
#
#
#
# Elastic Compliance Matrix: (Units=1/GPa)
#
#
# Indices 1 2 3 4 5 6 
#
# 1 0.009246 -0.002226 -0.005111 0.000000 0.005953 0.000000
# 2 -0.002226 0.011590 -0.000456 0.000000 0.009268 0.000000
# 3 -0.005111 -0.000456 0.040248 0.000000 -0.017049 0.000000
# 4 0.000000 0.000000 0.000000 0.030472 0.000000 0.003074
# 5 0.005953 0.009268 -0.017049 0.000000 0.063113 0.000000
# 6 0.000000 0.000000 0.000000 0.003074 0.000000 0.021314
#
#
# Mechanical properties :
#
#
# Convention : Reuss Voigt Hill
#
# Bulk Modulus (GPa) = 21.97825 40.58839 31.28332
# Shear Modulus (GPa) = 24.18551 35.68161 29.93356
#
# Velocity S-wave (km/s) = 3.12438 3.79497 3.47589
# Velocity P-wave (km/s) = 4.67830 5.96529 5.36056
#
# Compressibility (1/GPa) = 0.04549953
#
# Stress axis : x y z
#
# Youngs Moduli (GPa) = 108.15151 86.28148 24.84570
#
# Poissons Ratio (x) = 0.19202 0.12698
# Poissons Ratio (y) = 0.24069 0.01134
# Poissons Ratio (z) = 0.55272 0.03939
#
# Static dielectric constant tensor:
#      x y z
#    x 1.965750 0.000000 0.024280 
#    y 0.000000 2.012660 0.000000 
#    z 0.024280 0.000000 2.027840 
# 
# From -- ./inp_files/14690.got.cif
#   From: 2010.05.17/outbox.cif.g08.bks.cpg/sg4_8_cif.got.tgz:14690.got - 2010.06.03 18:43:04.
