data_PCOD9116489
_publ_section_title
;
Structure prediction by ZEFSAII (Michael W. Deem and Ramdas Pophale) SiO2 
 PCOD9116489
Probable space group: P 21
;
_chemical_formula_sum "Si O2"
_cell_formula_units_Z 14
_cell_length_a 9.432815
_cell_length_b 7.746968
_cell_length_c 11.463844
_cell_angle_alpha 90.000000
_cell_angle_beta 38.061727
_cell_angle_gamma 90.000000
_cell_volume 516.468125
_symmetry_space_group_name_H-M "P 21"
_symmetry_group_IT_number 4
_symmetry_cell_setting 'monoclinic'
loop_
_space_group_symop_operation_xyz
x,y,z
-x,1/2+y,-z
loop_
_atom_site_type_symbol
_atom_site_label
_atom_site_fract_x
_atom_site_fract_y
_atom_site_fract_z
Si Si1 0.750159 0.804800 0.464308
Si Si2 0.680831 0.120069 0.224428
Si Si3 0.350107 0.313851 0.197854
Si Si4 0.390867 0.827833 0.312571
Si Si5 0.014630 0.941905 0.726846
Si Si6 0.148326 0.288308 0.920825
Si Si7 0.216936 0.944096 0.184682
O O1 0.479331 0.762742 0.610440
O O2 0.733854 0.815384 0.616383
O O3 0.867884 0.627953 0.343659
O O4 0.953507 0.943278 0.318345
O O5 0.921555 0.194304 0.025390
O O6 0.518271 0.017363 0.237516
O O7 0.766154 0.936678 0.225398
O O8 0.207878 0.449578 0.211534
O O9 0.291927 0.136001 0.170295
O O10 0.615633 0.364391 0.019866
O O11 0.271176 0.828654 0.265451
O O12 0.200872 0.827593 0.535475
O O13 0.606230 0.702276 0.202620
O O14 0.944103 0.863722 0.895939
#
# Coordination Sequence:
#
# PCOD9116489 Si02
#       7
#     2   2   2   2   2   2   2
#     4  11  23  42  64  96 131 170 211 268 326 387
#     4   9  21  44  63  88 131 166 221 263 321 370
#     4  12  21  40  61 100 129 172 210 257 333 388
#     4   9  20  42  61  90 129 166 209 262 318 373
#     4  11  21  41  67  89 136 168 213 272 319 378
#     4  10  21  45  64  89 125 178 215 266 321 374
#     4  12  23  38  66  96 133 170 209 264 328 386
#
# _framework density 27.107191
#
# number of rings (size 3 to 8) (size 9 to 14) (size 15 to 20)
#    0.857    0.571    5.714    0.857    2.000    0.000 
#   10.286    0.000    0.000    0.000    0.000    0.000 
#    0.000    0.000    0.000    0.000    0.000    0.000 
#
# Total GULP energy -78109.070082 kJ/mol
# GULP energy per Si atom -5579.219292 kJ/mol
# Density = 2.704549 g / cm^3
# Si number density = 27.107191 Si / 1000 Ang^3
#
#
#
# Elastic Constant Matrix: (Units=GPa)
#
#
# Indices 1 2 3 4 5 6 
#
# 1 82.6733 -10.0698 -7.8197 0.0000 1.6536 0.0000
# 2 -10.0698 54.9282 9.4081 0.0000 -23.3871 0.0000
# 3 -7.8197 9.4081 102.7966 0.0000 -1.9538 0.0000
# 4 0.0000 0.0000 0.0000 30.1332 0.0000 -21.9852
# 5 1.6536 -23.3871 -1.9538 0.0000 50.0256 0.0000
# 6 0.0000 0.0000 0.0000 -21.9852 0.0000 24.9227
#
#
#
# Elastic Compliance Matrix: (Units=1/GPa)
#
#
# Indices 1 2 3 4 5 6 
#
# 1 0.012453 0.002490 0.000734 0.000000 0.000781 0.000000
# 2 0.002490 0.023597 -0.001763 0.000000 0.010880 0.000000
# 3 0.000734 -0.001763 0.009936 0.000000 -0.000461 0.000000
# 4 0.000000 0.000000 0.000000 0.093117 0.000000 0.082142
# 5 0.000781 0.010880 -0.000461 0.000000 0.025033 0.000000
# 6 0.000000 0.000000 0.000000 0.082142 0.000000 0.112584
#
#
# Mechanical properties :
#
#
# Convention : Reuss Voigt Hill
#
# Bulk Modulus (GPa) = 20.44692 24.82614 22.63653
# Shear Modulus (GPa) = 17.23537 37.60826 27.42182
#
# Velocity S-wave (km/s) = 2.52429 3.72881 3.18403
# Velocity P-wave (km/s) = 4.00692 5.26470 4.67827
#
# Compressibility (1/GPa) = 0.04890713
#
# Stress axis : x y z
#
# Youngs Moduli (GPa) = 80.30265 42.37889 100.63974
#
# Poissons Ratio (x) = -0.10551 -0.07390
# Poissons Ratio (y) = -0.19993 0.17747
# Poissons Ratio (z) = -0.05896 0.07473
#
# Static dielectric constant tensor:
#      x y z
#    x 2.184180 0.000000 -0.011150 
#    y 0.000000 2.317120 0.000000 
#    z -0.011150 0.000000 2.118640 
# 
# From -- ./inp_files/13921.got.cif
#   From: 2010.05.17/outbox.cif.g08.bks.cpg/sg4_7_cif.got.tgz:13921.got - 2010.06.03 18:43:04.
