data_PCOD9116828
_publ_section_title
;
Structure prediction by ZEFSAII (Michael W. Deem and Ramdas Pophale) SiO2 
 PCOD9116828
Probable space group: P 21
;
_chemical_formula_sum "Si O2"
_cell_formula_units_Z 14
_cell_length_a 18.547899
_cell_length_b 4.993141
_cell_length_c 15.047723
_cell_angle_alpha 90.000000
_cell_angle_beta 23.113281
_cell_angle_gamma 90.000000
_cell_volume 547.059639
_symmetry_space_group_name_H-M "P 21"
_symmetry_group_IT_number 4
_symmetry_cell_setting 'monoclinic'
loop_
_space_group_symop_operation_xyz
x,y,z
-x,1/2+y,-z
loop_
_atom_site_type_symbol
_atom_site_label
_atom_site_fract_x
_atom_site_fract_y
_atom_site_fract_z
Si Si1 0.265581 0.221910 0.307064
Si Si2 0.184251 0.658249 0.708791
Si Si3 0.710914 0.861372 0.002139
Si Si4 0.188464 0.899592 0.889400
Si Si5 0.295391 0.711955 0.164462
Si Si6 0.529816 0.375211 0.281543
Si Si7 0.049959 0.003288 0.716611
O O1 0.225128 0.521311 0.322913
O O2 0.150842 0.153446 0.523354
O O3 0.233679 0.009859 0.262245
O O4 0.482230 0.203617 0.084091
O O5 0.314505 0.409051 0.540083
O O6 0.964780 0.615674 0.964866
O O7 0.194559 0.843858 0.611167
O O8 0.250691 0.774308 0.726388
O O9 0.755943 0.042301 0.864769
O O10 0.900228 0.811434 0.839528
O O11 0.589130 0.073426 0.195759
O O12 0.603053 0.579425 0.121214
O O13 0.360198 0.974375 0.755588
O O14 0.067953 0.696666 0.086188
#
# Coordination Sequence:
#
# PCOD9116828 Si02
#       7
#     2   2   2   2   2   2   2
#     4  10  23  39  65  97 132 182 229 283 351 419
#     4  12  25  45  75  97 146 191 233 300 359 416
#     4  11  24  46  68 104 143 178 238 294 341 433
#     4  11  26  46  67 108 141 181 249 294 349 431
#     4  10  22  41  63  98 137 173 234 285 341 426
#     4  11  27  44  73 104 142 187 236 287 358 419
#     4  11  25  43  69  98 141 184 235 295 353 420
#
# _framework density 25.591360000000002
#
# number of rings (size 3 to 8) (size 9 to 14) (size 15 to 20)
#    0.000    1.143    2.857    1.714    6.000    5.714 
#    0.000    0.000    0.000    0.000    0.000    0.000 
#    0.000    0.000    0.000    0.000    0.000    0.000 
#
# Total GULP energy -78404.459354 kJ/mol
# GULP energy per Si atom -5600.318525 kJ/mol
# Density = 2.553311 g / cm^3
# Si number density = 25.591360 Si / 1000 Ang^3
#
#
#
# Elastic Constant Matrix: (Units=GPa)
#
#
# Indices 1 2 3 4 5 6 
#
# 1 96.4990 5.5737 30.4145 0.0000 2.6010 0.0000
# 2 5.5737 80.7836 7.5112 0.0000 -16.2717 0.0000
# 3 30.4145 7.5112 79.5502 0.0000 -10.0483 0.0000
# 4 0.0000 0.0000 0.0000 39.0023 0.0000 3.6968
# 5 2.6010 -16.2717 -10.0483 0.0000 25.2007 0.0000
# 6 0.0000 0.0000 0.0000 3.6968 0.0000 29.7015
#
#
#
# Elastic Compliance Matrix: (Units=1/GPa)
#
#
# Indices 1 2 3 4 5 6 
#
# 1 0.012125 -0.001178 -0.005032 0.000000 -0.004019 0.000000
# 2 -0.001178 0.014347 0.000296 0.000000 0.009503 0.000000
# 3 -0.005032 0.000296 0.015328 0.000000 0.006823 0.000000
# 4 0.000000 0.000000 0.000000 0.025946 0.000000 -0.003229
# 5 -0.004019 0.009503 0.006823 0.000000 0.048953 0.000000
# 6 0.000000 0.000000 0.000000 -0.003229 0.000000 0.034070
#
#
# Mechanical properties :
#
#
# Convention : Reuss Voigt Hill
#
# Bulk Modulus (GPa) = 33.36451 38.20353 35.78402
# Shear Modulus (GPa) = 28.97076 33.00312 30.98694
#
# Velocity S-wave (km/s) = 3.36825 3.59502 3.48348
# Velocity P-wave (km/s) = 5.30966 5.67388 5.49479
#
# Compressibility (1/GPa) = 0.02997197
#
# Stress axis : x y z
#
# Youngs Moduli (GPa) = 82.47282 69.70278 65.23815
#
# Poissons Ratio (x) = 0.08212 0.32829
# Poissons Ratio (y) = 0.09716 -0.01932
# Poissons Ratio (z) = 0.41502 -0.02065
#
# Static dielectric constant tensor:
#      x y z
#    x 2.043280 0.000000 0.010610 
#    y 0.000000 2.016740 0.000000 
#    z 0.010610 0.000000 1.976400 
# 
# From -- ./inp_files/10150.got.cif
#   From: 2010.05.17/outbox.cif.g08.bks.cpg/sg4_6_cif.got.tgz:10150.got - 2010.06.03 18:43:04.
