data_PCOD9116159
_publ_section_title
;
Structure prediction by ZEFSAII (Michael W. Deem and Ramdas Pophale) SiO2 
 PCOD9116159
Probable space group: P 21
;
_chemical_formula_sum "Si O2"
_cell_formula_units_Z 16
_cell_length_a 10.259980
_cell_length_b 8.319542
_cell_length_c 13.573059
_cell_angle_alpha 90.000000
_cell_angle_beta 30.960647
_cell_angle_gamma 90.000000
_cell_volume 596.027339
_symmetry_space_group_name_H-M "P 21"
_symmetry_group_IT_number 4
_symmetry_cell_setting 'monoclinic'
loop_
_space_group_symop_operation_xyz
x,y,z
-x,1/2+y,-z
loop_
_atom_site_type_symbol
_atom_site_label
_atom_site_fract_x
_atom_site_fract_y
_atom_site_fract_z
Si Si1 0.840507 0.883880 0.997993
Si Si2 0.887358 0.720752 0.449692
Si Si3 0.369010 0.593761 0.040759
Si Si4 0.732027 0.943264 0.382930
Si Si5 0.230858 0.643672 0.810871
Si Si6 0.400991 0.658840 0.347751
Si Si7 0.693725 0.384087 0.057714
Si Si8 0.115218 0.062134 0.357500
O O1 0.600895 0.800223 0.206149
O O2 0.741386 0.959299 0.961547
O O3 0.930098 0.028511 0.011004
O O4 0.064423 0.755374 0.846126
O O5 0.742672 0.776248 0.441929
O O6 0.767663 0.608368 0.612185
O O7 0.971837 0.893099 0.439076
O O8 0.146950 0.625392 0.260474
O O9 0.392628 0.765406 0.971298
O O10 0.662756 0.557079 0.867251
O O11 0.614861 0.016734 0.357441
O O12 0.619021 0.069867 0.534467
O O13 0.023519 0.936110 0.155719
O O14 0.318237 0.774775 0.835432
O O15 0.514783 0.533060 0.194899
O O16 0.106171 0.691588 0.517734
#
# Coordination Sequence:
#
# PCOD9116159 Si02
#       8
#     2   2   2   2   2   2   2   2
#     4  11  22  41  67 102 133 177 228 279 340 403
#     4  10  24  44  67  99 133 180 224 284 336 406
#     4  10  23  42  65 101 132 180 225 269 341 413
#     4  10  21  40  67  96 130 179 221 271 338 405
#     4  11  21  42  70  95 137 179 223 281 341 395
#     4  11  23  40  66  97 134 177 224 284 338 397
#     4  10  21  42  68  94 139 173 223 284 332 398
#     4  11  23  45  68 100 140 173 226 284 342 391
#
# _framework density 26.844405999999999
#
# number of rings (size 3 to 8) (size 9 to 14) (size 15 to 20)
#    0.000    1.500    2.500    2.250    0.000    5.000 
#   11.250    0.000    0.000    0.000    0.000    0.000 
#    0.000    0.000    0.000    0.000    0.000    0.000 
#
# Total GULP energy -89262.057357 kJ/mol
# GULP energy per Si atom -5578.878585 kJ/mol
# Density = 2.678331 g / cm^3
# Si number density = 26.844406 Si / 1000 Ang^3
#
#
#
# Elastic Constant Matrix: (Units=GPa)
#
#
# Indices 1 2 3 4 5 6 
#
# 1 56.6698 38.7682 -0.2458 0.0000 10.3695 0.0000
# 2 38.7682 104.0956 16.4502 0.0000 -1.7366 0.0000
# 3 -0.2458 16.4502 132.2660 0.0000 18.9708 0.0000
# 4 0.0000 0.0000 0.0000 49.4342 0.0000 12.9033
# 5 10.3695 -1.7366 18.9708 0.0000 24.3298 0.0000
# 6 0.0000 0.0000 0.0000 12.9033 0.0000 45.6426
#
#
#
# Elastic Compliance Matrix: (Units=1/GPa)
#
#
# Indices 1 2 3 4 5 6 
#
# 1 0.028372 -0.011422 0.003743 0.000000 -0.015826 0.000000
# 2 -0.011422 0.014473 -0.003004 0.000000 0.008243 0.000000
# 3 0.003743 -0.003004 0.009233 0.000000 -0.009009 0.000000
# 4 0.000000 0.000000 0.000000 0.021841 0.000000 -0.006174
# 5 -0.015826 0.008243 -0.009009 0.000000 0.055460 0.000000
# 6 0.000000 0.000000 0.000000 -0.006174 0.000000 0.023655
#
#
# Mechanical properties :
#
#
# Convention : Reuss Voigt Hill
#
# Bulk Modulus (GPa) = 32.55922 44.77519 38.66720
# Shear Modulus (GPa) = 27.08021 39.75191 33.41606
#
# Velocity S-wave (km/s) = 3.17958 3.85233 3.53201
# Velocity P-wave (km/s) = 5.06309 6.04177 5.57395
#
# Compressibility (1/GPa) = 0.03071327
#
# Stress axis : x y z
#
# Youngs Moduli (GPa) = 35.24564 69.09565 108.30459
#
# Poissons Ratio (x) = 0.78923 -0.40542
# Poissons Ratio (y) = 0.40258 0.32530
# Poissons Ratio (z) = -0.13194 0.20753
#
# Static dielectric constant tensor:
#      x y z
#    x 2.276000 0.000000 -0.065080 
#    y 0.000000 2.116650 0.000000 
#    z -0.065080 0.000000 2.089450 
# 
# From -- ./inp_files/12634.got.cif
#   From: 2010.05.17/outbox.cif.g08.bks.cpg/sg4_7_cif.got.tgz:12634.got - 2010.06.03 18:43:04.
