data_PCOD9116582
_publ_section_title
;
Structure prediction by ZEFSAII (Michael W. Deem and Ramdas Pophale) SiO2 
 PCOD9116582
Probable space group: P 21
;
_chemical_formula_sum "Si O2"
_cell_formula_units_Z 14
_cell_length_a 12.162191
_cell_length_b 8.550078
_cell_length_c 5.251483
_cell_angle_alpha 90.000000
_cell_angle_beta 70.710962
_cell_angle_gamma 90.000000
_cell_volume 515.434353
_symmetry_space_group_name_H-M "P 21"
_symmetry_group_IT_number 4
_symmetry_cell_setting 'monoclinic'
loop_
_space_group_symop_operation_xyz
x,y,z
-x,1/2+y,-z
loop_
_atom_site_type_symbol
_atom_site_label
_atom_site_fract_x
_atom_site_fract_y
_atom_site_fract_z
Si Si1 0.463125 0.208060 0.841579
Si Si2 0.970246 0.465392 0.337404
Si Si3 0.189905 0.525904 0.493573
Si Si4 0.567482 0.353122 0.263604
Si Si5 0.763417 0.698500 0.721937
Si Si6 0.018351 0.170774 0.069769
Si Si7 0.759209 0.347226 0.755023
O O1 0.524535 0.305584 0.572827
O O2 0.473796 0.027926 0.759926
O O3 0.513071 0.245586 0.082935
O O4 0.326298 0.243385 0.981935
O O5 0.896450 0.369461 0.599720
O O6 0.096804 0.506025 0.337242
O O7 0.975077 0.346259 0.099488
O O8 0.920638 0.617706 0.235416
O O9 0.244064 0.351869 0.454652
O O10 0.265197 0.679692 0.362459
O O11 0.101208 0.576556 0.783460
O O12 0.704522 0.344521 0.078648
O O13 0.888110 0.669815 0.770413
O O14 0.720911 0.520881 0.674795
#
# Coordination Sequence:
#
# PCOD9116582 Si02
#       7
#     2   2   2   2   2   2   2
#     4  11  26  49  76 108 144 189 248 312 370 439
#     4  10  22  37  61  97 130 178 221 277 343 420
#     4  10  22  42  62  92 138 174 220 276 342 428
#     4  11  26  49  76 108 144 189 248 312 370 439
#     4  10  23  41  68  96 131 182 227 288 355 423
#     4  10  22  37  61  97 130 178 221 277 343 420
#     4  10  23  41  68  96 131 182 227 288 355 423
#
# _framework density 27.161556000000001
#
# number of rings (size 3 to 8) (size 9 to 14) (size 15 to 20)
#    0.000    1.714    1.429    0.857    8.000    4.571 
#    5.143    0.000    0.000    0.000    0.000    0.000 
#    0.000    0.000    0.000    0.000    0.000    0.000 
#
# Total GULP energy -78145.574542 kJ/mol
# GULP energy per Si atom -5581.826753 kJ/mol
# Density = 2.709974 g / cm^3
# Si number density = 27.161556 Si / 1000 Ang^3
#
#
#
# Elastic Constant Matrix: (Units=GPa)
#
#
# Indices 1 2 3 4 5 6 
#
# 1 67.1510 18.5231 20.6541 0.0000 -8.3911 0.0000
# 2 18.5231 164.8446 27.1327 0.0000 -23.3804 0.0000
# 3 20.6541 27.1327 82.3780 0.0000 -18.8720 0.0000
# 4 0.0000 0.0000 0.0000 62.2652 0.0000 -6.7681
# 5 -8.3911 -23.3804 -18.8720 0.0000 40.9029 0.0000
# 6 0.0000 0.0000 0.0000 -6.7681 0.0000 28.2326
#
#
#
# Elastic Compliance Matrix: (Units=1/GPa)
#
#
# Indices 1 2 3 4 5 6 
#
# 1 0.016412 -0.001110 -0.003492 0.000000 0.001121 0.000000
# 2 -0.001110 0.006839 -0.001264 0.000000 0.003098 0.000000
# 3 -0.003492 -0.001264 0.014650 0.000000 0.005320 0.000000
# 4 0.000000 0.000000 0.000000 0.016490 0.000000 0.003953
# 5 0.001121 0.003098 0.005320 0.000000 0.028903 0.000000
# 6 0.000000 0.000000 0.000000 0.003953 0.000000 0.036368
#
#
# Mechanical properties :
#
#
# Convention : Reuss Voigt Hill
#
# Bulk Modulus (GPa) = 38.21662 49.66593 43.94127
# Shear Modulus (GPa) = 35.68400 42.81770 39.25085
#
# Velocity S-wave (km/s) = 3.62853 3.97471 3.80556
# Velocity P-wave (km/s) = 5.62633 6.27610 5.96008
#
# Compressibility (1/GPa) = 0.02616663
#
# Stress axis : x y z
#
# Youngs Moduli (GPa) = 60.92964 146.22948 68.25924
#
# Poissons Ratio (x) = 0.16237 0.23839
# Poissons Ratio (y) = 0.06766 0.08630
# Poissons Ratio (z) = 0.21279 0.18488
#
# Static dielectric constant tensor:
#      x y z
#    x 2.140190 0.000000 -0.067650 
#    y 0.000000 2.236010 0.000000 
#    z -0.067650 0.000000 2.104890 
# 
# From -- ./inp_files/3524.got.cif
#   From: 2010.05.17/outbox.cif.g08.bks.cpg/sg4_2_cif.got.tgz:3524.got - 2010.06.03 18:43:04.
