data_PCOD9116085
_publ_section_title
;
Structure prediction by ZEFSAII (Michael W. Deem and Ramdas Pophale) SiO2 
 PCOD9116085
Probable space group: P 21
;
_chemical_formula_sum "Si O2"
_cell_formula_units_Z 16
_cell_length_a 10.112459
_cell_length_b 5.436603
_cell_length_c 11.086698
_cell_angle_alpha 90.000000
_cell_angle_beta 101.821689
_cell_angle_gamma 90.000000
_cell_volume 596.590172
_symmetry_space_group_name_H-M "P 21"
_symmetry_group_IT_number 4
_symmetry_cell_setting 'monoclinic'
loop_
_space_group_symop_operation_xyz
x,y,z
-x,1/2+y,-z
loop_
_atom_site_type_symbol
_atom_site_label
_atom_site_fract_x
_atom_site_fract_y
_atom_site_fract_z
Si Si1 0.616704 0.566980 0.197801
Si Si2 0.208657 0.014596 0.384487
Si Si3 0.788410 0.067153 0.224523
Si Si4 0.378864 0.094286 0.066778
Si Si5 0.120166 0.739590 0.014818
Si Si6 0.500479 0.909007 0.337508
Si Si7 0.836269 0.834742 0.857322
Si Si8 0.199500 0.518725 0.519950
O O1 0.694063 0.310325 0.220111
O O2 0.529463 0.625858 0.301216
O O3 0.720090 0.797523 0.210876
O O4 0.552693 0.579639 0.050632
O O5 0.162470 0.148174 0.251234
O O6 0.180062 0.240908 0.470431
O O7 0.370148 0.971541 0.391216
O O8 0.164424 0.748710 0.427654
O O9 0.855693 0.107308 0.109638
O O10 0.871542 0.063326 0.364168
O O11 0.466273 0.010221 0.196029
O O12 0.307500 0.341351 0.100600
O O13 0.239739 0.939363 0.032449
O O14 0.963837 0.803002 0.969385
O O15 0.140853 0.625201 0.153052
O O16 0.637233 0.016366 0.420745
#
# Coordination Sequence:
#
# PCOD9116085 Si02
#       8
#     2   2   2   2   2   2   2   2
#     4  10  21  40  59  99 134 175 215 279 344 420
#     4  11  26  42  67  96 133 178 235 276 334 405
#     4  10  22  41  70  93 133 178 227 279 348 408
#     4  10  22  40  62 102 139 176 223 281 349 428
#     4  11  22  42  69 100 138 176 230 293 363 412
#     4  10  23  40  66  94 134 184 227 278 339 409
#     4  11  23  41  69  99 134 182 222 296 348 415
#     4  11  23  46  62  93 135 181 227 280 329 405
#
# _framework density 26.819082999999999
#
# number of rings (size 3 to 8) (size 9 to 14) (size 15 to 20)
#    0.000    1.500    2.500    2.250    3.500    6.000 
#    6.750    1.250    0.000    0.000    0.000    0.000 
#    0.000    0.000    0.000    0.000    0.000    0.000 
#
# Total GULP energy -89234.607110 kJ/mol
# GULP energy per Si atom -5577.162944 kJ/mol
# Density = 2.675804 g / cm^3
# Si number density = 26.819083 Si / 1000 Ang^3
#
#
#
# Elastic Constant Matrix: (Units=GPa)
#
#
# Indices 1 2 3 4 5 6 
#
# 1 65.2181 35.3426 23.8584 0.0000 3.9179 0.0000
# 2 35.3426 133.6268 49.9329 0.0000 -19.1054 0.0000
# 3 23.8584 49.9329 121.8961 0.0000 -17.0048 0.0000
# 4 0.0000 0.0000 0.0000 55.1551 0.0000 -9.0431
# 5 3.9179 -19.1054 -17.0048 0.0000 34.5730 0.0000
# 6 0.0000 0.0000 0.0000 -9.0431 0.0000 22.3822
#
#
#
# Elastic Compliance Matrix: (Units=1/GPa)
#
#
# Indices 1 2 3 4 5 6 
#
# 1 0.019402 -0.005056 -0.002601 0.000000 -0.006272 0.000000
# 2 -0.005056 0.010526 -0.002610 0.000000 0.005106 0.000000
# 3 -0.002601 -0.002610 0.010331 0.000000 0.003934 0.000000
# 4 0.000000 0.000000 0.000000 0.019417 0.000000 0.007845
# 5 -0.006272 0.005106 0.003934 0.000000 0.034392 0.000000
# 6 0.000000 0.000000 0.000000 0.007845 0.000000 0.047848
#
#
# Mechanical properties :
#
#
# Convention : Reuss Voigt Hill
#
# Bulk Modulus (GPa) = 50.70028 59.88984 55.29506
# Shear Modulus (GPa) = 29.58157 36.52920 33.05538
#
# Velocity S-wave (km/s) = 3.32475 3.69461 3.51455
# Velocity P-wave (km/s) = 5.80381 6.37022 6.09360
#
# Compressibility (1/GPa) = 0.01972376
#
# Stress axis : x y z
#
# Youngs Moduli (GPa) = 51.54217 95.00146 96.79883
#
# Poissons Ratio (x) = 0.48035 0.25179
# Poissons Ratio (y) = 0.26061 0.25264
# Poissons Ratio (z) = 0.13407 0.24795
#
# Static dielectric constant tensor:
#      x y z
#    x 2.131420 0.000000 0.005540 
#    y 0.000000 2.592060 0.000000 
#    z 0.005540 0.000000 2.163500 
# 
# From -- ./inp_files/11646.got.cif
#   From: 2010.05.17/outbox.cif.g08.bks.cpg/sg4_6_cif.got.tgz:11646.got - 2010.06.03 18:43:04.
