data_PCOD9116480
_publ_section_title
;
Structure prediction by ZEFSAII (Michael W. Deem and Ramdas Pophale) SiO2 
 PCOD9116480
Probable space group: P 21
;
_chemical_formula_sum "Si O2"
_cell_formula_units_Z 16
_cell_length_a 5.376690
_cell_length_b 11.910057
_cell_length_c 9.658674
_cell_angle_alpha 90.000000
_cell_angle_beta 96.307164
_cell_angle_gamma 90.000000
_cell_volume 614.765761
_symmetry_space_group_name_H-M "P 21"
_symmetry_group_IT_number 4
_symmetry_cell_setting 'monoclinic'
loop_
_space_group_symop_operation_xyz
x,y,z
-x,1/2+y,-z
loop_
_atom_site_type_symbol
_atom_site_label
_atom_site_fract_x
_atom_site_fract_y
_atom_site_fract_z
Si Si1 0.732599 0.276110 0.883962
Si Si2 0.927702 0.272034 0.477046
Si Si3 0.712861 0.029166 0.446021
Si Si4 0.167239 0.998064 0.283130
Si Si5 0.725357 0.716751 0.835814
Si Si6 0.566195 0.827328 0.556855
Si Si7 0.873289 0.378110 0.165560
Si Si8 0.747032 0.638478 0.125792
O O1 0.791476 0.397551 0.821181
O O2 0.480046 0.210632 0.819395
O O3 0.979593 0.199893 0.864650
O O4 0.698988 0.310766 0.045817
O O5 0.829278 0.147053 0.486644
O O6 0.696688 0.333026 0.536710
O O7 0.907539 0.330321 0.323503
O O8 0.220302 0.269524 0.521367
O O9 0.445113 0.030510 0.355639
O O10 0.658586 0.954412 0.577765
O O11 0.930966 0.972000 0.368222
O O12 0.086335 0.121887 0.217818
O O13 0.557578 0.760211 0.698915
O O14 0.863476 0.833815 0.884472
O O15 0.645755 0.643623 0.961415
O O16 0.797368 0.508600 0.168833
#
# Coordination Sequence:
#
# PCOD9116480 Si02
#       8
#     2   2   2   2   2   2   2   2
#     4  11  25  41  65 105 145 185 225 285 355 429
#     4  11  22  43  67  99 132 171 234 284 345 421
#     4  12  24  43  71  97 136 183 237 294 349 411
#     4  12  23  45  70 101 140 185 232 294 351 427
#     4  10  21  44  71 102 136 186 237 283 347 427
#     4  11  23  42  67 101 127 179 232 287 347 406
#     4  10  22  42  72 103 138 188 229 284 354 428
#     4  11  24  42  67 104 144 183 230 283 352 427
#
# _framework density 26.026171999999999
#
# number of rings (size 3 to 8) (size 9 to 14) (size 15 to 20)
#    0.000    1.000    5.000    2.250    0.000    4.000 
#    0.000   11.250    0.000    0.000    0.000    0.000 
#    0.000    0.000    0.000    0.000    0.000    0.000 
#
# Total GULP energy -89103.141319 kJ/mol
# GULP energy per Si atom -5568.946332 kJ/mol
# Density = 2.596693 g / cm^3
# Si number density = 26.026172 Si / 1000 Ang^3
#
#
#
# Elastic Constant Matrix: (Units=GPa)
#
#
# Indices 1 2 3 4 5 6 
#
# 1 146.2309 45.4458 15.3375 0.0000 -7.1455 0.0000
# 2 45.4458 153.6134 20.6102 0.0000 9.5088 0.0000
# 3 15.3375 20.6102 64.4300 0.0000 5.4730 0.0000
# 4 0.0000 0.0000 0.0000 31.7479 0.0000 -2.3240
# 5 -7.1455 9.5088 5.4730 0.0000 25.3228 0.0000
# 6 0.0000 0.0000 0.0000 -2.3240 0.0000 45.0623
#
#
#
# Elastic Compliance Matrix: (Units=1/GPa)
#
#
# Indices 1 2 3 4 5 6 
#
# 1 0.007885 -0.002355 -0.001414 0.000000 0.003415 0.000000
# 2 -0.002355 0.007619 -0.001607 0.000000 -0.003178 0.000000
# 3 -0.001414 -0.001607 0.016660 0.000000 -0.003396 0.000000
# 4 0.000000 0.000000 0.000000 0.031618 0.000000 0.001631
# 5 0.003415 -0.003178 -0.003396 0.000000 0.042381 0.000000
# 6 0.000000 0.000000 0.000000 0.001631 0.000000 0.022276
#
#
# Mechanical properties :
#
#
# Convention : Reuss Voigt Hill
#
# Bulk Modulus (GPa) = 46.69952 58.56238 52.63095
# Shear Modulus (GPa) = 34.17020 39.28532 36.72776
#
# Velocity S-wave (km/s) = 3.62735 3.88938 3.76065
# Velocity P-wave (km/s) = 5.96035 6.53605 6.25483
#
# Compressibility (1/GPa) = 0.02141350
#
# Stress axis : x y z
#
# Youngs Moduli (GPa) = 126.81636 131.25575 60.02481
#
# Poissons Ratio (x) = 0.30905 0.08488
# Poissons Ratio (y) = 0.29859 0.09644
# Poissons Ratio (z) = 0.17932 0.21088
#
# Static dielectric constant tensor:
#      x y z
#    x 2.333680 0.000000 -0.047980 
#    y 0.000000 2.081280 0.000000 
#    z -0.047980 0.000000 2.183780 
# 
# From -- ./inp_files/10469.got.cif
#   From: 2010.05.17/outbox.cif.g08.bks.cpg/sg4_6_cif.got.tgz:10469.got - 2010.06.03 18:43:04.
