data_PCOD9116204
_publ_section_title
;
Structure prediction by ZEFSAII (Michael W. Deem and Ramdas Pophale) SiO2 
 PCOD9116204
Probable space group: P 21
;
_chemical_formula_sum "Si O2"
_cell_formula_units_Z 12
_cell_length_a 9.369514
_cell_length_b 4.976170
_cell_length_c 11.062159
_cell_angle_alpha 90.000000
_cell_angle_beta 109.396889
_cell_angle_gamma 90.000000
_cell_volume 486.490874
_symmetry_space_group_name_H-M "P 21"
_symmetry_group_IT_number 4
_symmetry_cell_setting 'monoclinic'
loop_
_space_group_symop_operation_xyz
x,y,z
-x,1/2+y,-z
loop_
_atom_site_type_symbol
_atom_site_label
_atom_site_fract_x
_atom_site_fract_y
_atom_site_fract_z
Si Si1 0.400546 0.194450 0.457399
Si Si2 0.662034 0.952576 0.938667
Si Si3 0.544020 0.961876 0.161826
Si Si4 0.145000 0.304610 0.209955
Si Si5 0.954809 0.285484 0.678196
Si Si6 0.782176 0.990010 0.417965
O O1 0.535469 0.396911 0.530197
O O2 0.314200 0.313680 0.317035
O O3 0.272567 0.229167 0.523461
O O4 0.590881 0.660125 0.904987
O O5 0.820696 0.924113 0.913178
O O6 0.540155 0.173021 0.854774
O O7 0.660874 0.988993 0.082731
O O8 0.632469 0.067857 0.303101
O O9 0.030402 0.506712 0.244620
O O10 0.100775 0.003754 0.238651
O O11 0.095132 0.407328 0.645969
O O12 0.846095 0.190349 0.536556
#
# Coordination Sequence:
#
# PCOD9116204 Si02
#       6
#     2   2   2   2   2   2
#     4  11  21  32  54  83 109 145 188 242 303 350
#     4  10  21  41  63  95 124 158 209 258 312 371
#     4  10  22  38  67  92 123 165 202 259 317 363
#     4  11  22  39  57  84 122 158 200 253 301 358
#     4  11  25  38  60  84 120 168 201 246 302 360
#     4  11  23  42  59  88 124 160 208 248 303 376
#
# _framework density 24.666443000000001
#
# number of rings (size 3 to 8) (size 9 to 14) (size 15 to 20)
#    0.000    1.333    0.000    7.000    0.000    6.667 
#    0.000    1.667    0.000    0.000    0.000    0.000 
#    0.000    0.000    0.000    0.000    0.000    0.000 
#
# Total GULP energy -67002.800484 kJ/mol
# GULP energy per Si atom -5583.566707 kJ/mol
# Density = 2.461030 g / cm^3
# Si number density = 24.666443 Si / 1000 Ang^3
#
#
#
# Elastic Constant Matrix: (Units=GPa)
#
#
# Indices 1 2 3 4 5 6 
#
# 1 82.7793 18.0515 7.4802 0.0000 -31.1893 0.0000
# 2 18.0515 109.8518 -12.9454 0.0000 -6.8553 0.0000
# 3 7.4802 -12.9454 55.1841 0.0000 -24.3505 0.0000
# 4 0.0000 0.0000 0.0000 21.2348 0.0000 -5.8624
# 5 -31.1893 -6.8553 -24.3505 0.0000 39.2426 0.0000
# 6 0.0000 0.0000 0.0000 -5.8624 0.0000 26.3298
#
#
#
# Elastic Compliance Matrix: (Units=1/GPa)
#
#
# Indices 1 2 3 4 5 6 
#
# 1 0.018547 -0.001375 0.004905 0.000000 0.017545 0.000000
# 2 -0.001375 0.009976 0.003874 0.000000 0.003054 0.000000
# 3 0.004905 0.003874 0.028070 0.000000 0.021993 0.000000
# 4 0.000000 0.000000 0.000000 0.050177 0.000000 0.011172
# 5 0.017545 0.003054 0.021993 0.000000 0.053607 0.000000
# 6 0.000000 0.000000 0.000000 0.011172 0.000000 0.040467
#
#
# Mechanical properties :
#
#
# Convention : Reuss Voigt Hill
#
# Bulk Modulus (GPa) = 14.00520 30.33197 22.16858
# Shear Modulus (GPa) = 23.82814 33.04337 28.43576
#
# Velocity S-wave (km/s) = 3.11145 3.66404 3.39899
# Velocity P-wave (km/s) = 4.31258 5.49762 4.94075
#
# Compressibility (1/GPa) = 0.07140203
#
# Stress axis : x y z
#
# Youngs Moduli (GPa) = 53.91624 100.23811 35.62571
#
# Poissons Ratio (x) = 0.13782 -0.17475
# Poissons Ratio (y) = 0.07413 -0.13802
# Poissons Ratio (z) = -0.26446 -0.38835
#
# Static dielectric constant tensor:
#      x y z
#    x 2.062890 0.000000 -0.086500 
#    y 0.000000 1.892640 0.000000 
#    z -0.086500 0.000000 2.076760 
# 
# From -- ./inp_files/10657.got.cif
#   From: 2010.05.17/outbox.cif.g08.bks.cpg/sg4_6_cif.got.tgz:10657.got - 2010.06.03 18:43:04.
