data_PCOD9116074
_publ_section_title
;
Structure prediction by ZEFSAII (Michael W. Deem and Ramdas Pophale) SiO2 
 PCOD9116074
Probable space group: P 21
;
_chemical_formula_sum "Si O2"
_cell_formula_units_Z 16
_cell_length_a 9.240843
_cell_length_b 14.810380
_cell_length_c 8.229827
_cell_angle_alpha 90.000000
_cell_angle_beta 148.290813
_cell_angle_gamma 90.000000
_cell_volume 592.012015
_symmetry_space_group_name_H-M "P 21"
_symmetry_group_IT_number 4
_symmetry_cell_setting 'monoclinic'
loop_
_space_group_symop_operation_xyz
x,y,z
-x,1/2+y,-z
loop_
_atom_site_type_symbol
_atom_site_label
_atom_site_fract_x
_atom_site_fract_y
_atom_site_fract_z
Si Si1 0.422392 0.118140 0.468116
Si Si2 0.246447 0.910962 0.281710
Si Si3 0.451185 0.575565 0.751788
Si Si4 0.937435 0.458228 0.236496
Si Si5 0.386434 0.812395 0.924693
Si Si6 0.855278 0.718426 0.566293
Si Si7 0.226550 0.577391 0.880581
Si Si8 0.723212 0.872852 0.957852
O O1 0.578390 0.127677 0.445967
O O2 0.216849 0.199641 0.314854
O O3 0.266311 0.020812 0.316569
O O4 0.636947 0.115744 0.823580
O O5 0.139402 0.899967 0.996386
O O6 0.035931 0.861341 0.201216
O O7 0.547247 0.882602 0.625317
O O8 0.772436 0.551573 0.062247
O O9 0.369461 0.609144 0.850260
O O10 0.254930 0.486042 0.547367
O O11 0.772121 0.409065 0.222692
O O12 0.623602 0.784479 0.277680
O O13 0.557598 0.807501 0.920250
O O14 0.128403 0.756079 0.744522
O O15 0.911896 0.612820 0.569137
O O16 0.261931 0.470271 0.936184
#
# Coordination Sequence:
#
# PCOD9116074 Si02
#       8
#     2   2   2   2   2   2   2   2
#     4  10  23  44  68 102 135 176 226 285 344 403
#     4  10  21  39  70  94 131 166 228 290 330 387
#     4  11  25  39  73 104 131 163 239 288 328 397
#     4  11  23  43  62 106 131 172 221 286 342 403
#     4  12  26  42  67  97 142 182 222 275 355 417
#     4  12  25  43  67  94 141 191 219 274 358 418
#     4  11  23  44  72 101 131 185 229 287 336 398
#     4  11  22  40  69 100 126 177 232 283 333 397
#
# _framework density 27.026477
#
# number of rings (size 3 to 8) (size 9 to 14) (size 15 to 20)
#    0.000    1.000    3.750    3.750    5.250    0.000 
#    0.000    3.750    2.750    0.000    0.000    0.000 
#    0.000    0.000    0.000    0.000    0.000    0.000 
#
# Total GULP energy -89300.675411 kJ/mol
# GULP energy per Si atom -5581.292213 kJ/mol
# Density = 2.696496 g / cm^3
# Si number density = 27.026477 Si / 1000 Ang^3
#
#
#
# Elastic Constant Matrix: (Units=GPa)
#
#
# Indices 1 2 3 4 5 6 
#
# 1 133.0240 15.6459 44.7538 0.0000 -8.3403 0.0000
# 2 15.6459 57.7239 27.7804 0.0000 0.8396 0.0000
# 3 44.7538 27.7804 107.4181 0.0000 16.2224 0.0000
# 4 0.0000 0.0000 0.0000 33.3213 0.0000 14.4099
# 5 -8.3403 0.8396 16.2224 0.0000 49.8158 0.0000
# 6 0.0000 0.0000 0.0000 14.4099 0.0000 55.3923
#
#
#
# Elastic Compliance Matrix: (Units=1/GPa)
#
#
# Indices 1 2 3 4 5 6 
#
# 1 0.009142 -0.000546 -0.004102 0.000000 0.002876 0.000000
# 2 -0.000546 0.019913 -0.005109 0.000000 0.001237 0.000000
# 3 -0.004102 -0.005109 0.013073 0.000000 -0.004858 0.000000
# 4 0.000000 0.000000 0.000000 0.033815 0.000000 -0.008797
# 5 0.002876 0.001237 -0.004858 0.000000 0.022117 0.000000
# 6 0.000000 0.000000 0.000000 -0.008797 0.000000 0.020341
#
#
# Mechanical properties :
#
#
# Convention : Reuss Voigt Hill
#
# Bulk Modulus (GPa) = 44.21975 52.72515 48.47245
# Shear Modulus (GPa) = 34.37539 41.70493 38.04016
#
# Velocity S-wave (km/s) = 3.57026 3.93251 3.75576
# Velocity P-wave (km/s) = 5.77865 6.33803 6.06479
#
# Compressibility (1/GPa) = 0.02261433
#
# Stress axis : x y z
#
# Youngs Moduli (GPa) = 109.38576 50.21931 76.49085
#
# Poissons Ratio (x) = 0.02740 0.31377
# Poissons Ratio (y) = 0.05968 0.39081
# Poissons Ratio (z) = 0.44870 0.25658
#
# Static dielectric constant tensor:
#      x y z
#    x 2.117150 0.000000 -0.038830 
#    y 0.000000 2.358830 0.000000 
#    z -0.038830 0.000000 2.087920 
# 
# From -- ./inp_files/6994.got.cif
#   From: 2010.05.17/outbox.cif.g08.bks.cpg/sg4_4_cif.got.tgz:6994.got - 2010.06.03 18:43:04.
