data_PCOD9116874
_publ_section_title
;
Structure prediction by ZEFSAII (Michael W. Deem and Ramdas Pophale) SiO2 
 PCOD9116874
Probable space group: P 21
;
_chemical_formula_sum "Si O2"
_cell_formula_units_Z 16
_cell_length_a 15.671617
_cell_length_b 8.002519
_cell_length_c 12.114357
_cell_angle_alpha 90.000000
_cell_angle_beta 26.746581
_cell_angle_gamma 90.000000
_cell_volume 683.749435
_symmetry_space_group_name_H-M "P 21"
_symmetry_group_IT_number 4
_symmetry_cell_setting 'monoclinic'
loop_
_space_group_symop_operation_xyz
x,y,z
-x,1/2+y,-z
loop_
_atom_site_type_symbol
_atom_site_label
_atom_site_fract_x
_atom_site_fract_y
_atom_site_fract_z
Si Si1 0.871517 0.768220 0.079587
Si Si2 0.041966 0.533921 0.713268
Si Si3 0.637207 0.867247 0.151183
Si Si4 0.620777 0.430494 0.846545
Si Si5 0.455860 0.624524 0.225606
Si Si6 0.958580 0.794617 0.619736
Si Si7 0.791093 0.511053 0.349390
Si Si8 0.152439 0.180240 0.499041
O O1 0.909373 0.604360 0.960617
O O2 0.728111 0.873714 0.167699
O O3 0.797553 0.687709 0.277564
O O4 0.065001 0.874551 0.869044
O O5 0.249202 0.596080 0.509374
O O6 0.068198 0.341870 0.656747
O O7 0.996833 0.635158 0.653388
O O8 0.590752 0.675647 0.168680
O O9 0.429832 0.954144 0.390260
O O10 0.797350 0.905779 0.870277
O O11 0.549349 0.287790 0.847861
O O12 0.632903 0.610402 0.770824
O O13 0.839740 0.387078 0.620613
O O14 0.511593 0.469478 0.084902
O O15 0.902472 0.729727 0.563978
O O16 0.883428 0.539663 0.364146
#
# Coordination Sequence:
#
# PCOD9116874 Si02
#       8
#     2   2   2   2   2   2   2   2
#     4  11  26  49  73 102 138 186 244 304 358 420
#     4  10  22  41  67 102 142 187 232 297 351 424
#     4  11  23  46  74 100 142 183 236 293 356 423
#     4  11  22  40  63 105 147 192 229 287 353 434
#     4  11  21  41  66 100 148 185 230 286 355 425
#     4  10  23  41  69 104 151 190 234 286 355 439
#     4  12  26  50  75 103 143 188 240 306 358 419
#     4  12  21  38  67 104 139 183 231 279 364 424
#
# _framework density 23.400385
#
# number of rings (size 3 to 8) (size 9 to 14) (size 15 to 20)
#    0.000    1.000    3.750    3.750    1.750    1.000 
#    4.500    1.250    0.000    0.000    0.000    0.000 
#    0.000    0.000    0.000    0.000    0.000    0.000 
#
# Total GULP energy -89083.169953 kJ/mol
# GULP energy per Si atom -5567.698122 kJ/mol
# Density = 2.334712 g / cm^3
# Si number density = 23.400385 Si / 1000 Ang^3
#
#
#
# Elastic Constant Matrix: (Units=GPa)
#
#
# Indices 1 2 3 4 5 6 
#
# 1 114.5695 16.7298 45.9962 0.0000 -5.2193 0.0000
# 2 16.7298 74.7787 23.3596 0.0000 -2.9707 0.0000
# 3 45.9962 23.3596 90.1751 0.0000 -22.6637 0.0000
# 4 0.0000 0.0000 0.0000 35.0017 0.0000 14.1301
# 5 -5.2193 -2.9707 -22.6637 0.0000 35.6216 0.0000
# 6 0.0000 0.0000 0.0000 14.1301 0.0000 29.0449
#
#
#
# Elastic Compliance Matrix: (Units=1/GPa)
#
#
# Indices 1 2 3 4 5 6 
#
# 1 0.011172 -0.000686 -0.006099 0.000000 -0.002301 0.000000
# 2 -0.000686 0.014652 -0.003766 0.000000 -0.001275 0.000000
# 3 -0.006099 -0.003766 0.017704 0.000000 0.010056 0.000000
# 4 0.000000 0.000000 0.000000 0.035552 0.000000 -0.017296
# 5 -0.002301 -0.001275 0.010056 0.000000 0.034027 0.000000
# 6 0.000000 0.000000 0.000000 -0.017296 0.000000 0.042844
#
#
# Mechanical properties :
#
#
# Convention : Reuss Voigt Hill
#
# Bulk Modulus (GPa) = 44.59195 50.18828 47.39012
# Shear Modulus (GPa) = 27.09597 32.82948 29.96273
#
# Velocity S-wave (km/s) = 3.40653 3.74966 3.58220
# Velocity P-wave (km/s) = 5.87963 6.34356 6.11599
#
# Compressibility (1/GPa) = 0.02242557
#
# Stress axis : x y z
#
# Youngs Moduli (GPa) = 89.50660 68.24985 56.48532
#
# Poissons Ratio (x) = 0.04679 0.34453
# Poissons Ratio (y) = 0.06136 0.21274
# Poissons Ratio (z) = 0.54594 0.25705
#
# Static dielectric constant tensor:
#      x y z
#    x 1.919760 0.000000 0.006770 
#    y 0.000000 2.017070 0.000000 
#    z 0.006770 0.000000 1.940000 
# 
# From -- ./inp_files/12548.got.cif
#   From: 2010.05.17/outbox.cif.g08.bks.cpg/sg4_7_cif.got.tgz:12548.got - 2010.06.03 18:43:04.
