data_PCOD9116800
_publ_section_title
;
Structure prediction by ZEFSAII (Michael W. Deem and Ramdas Pophale) SiO2 
 PCOD9116800
Probable space group: P 21
;
_chemical_formula_sum "Si O2"
_cell_formula_units_Z 14
_cell_length_a 15.837439
_cell_length_b 8.869733
_cell_length_c 6.946907
_cell_angle_alpha 90.000000
_cell_angle_beta 33.306283
_cell_angle_gamma 90.000000
_cell_volume 535.858191
_symmetry_space_group_name_H-M "P 21"
_symmetry_group_IT_number 4
_symmetry_cell_setting 'monoclinic'
loop_
_space_group_symop_operation_xyz
x,y,z
-x,1/2+y,-z
loop_
_atom_site_type_symbol
_atom_site_label
_atom_site_fract_x
_atom_site_fract_y
_atom_site_fract_z
Si Si1 0.244225 0.253370 0.749014
Si Si2 0.462289 0.697777 0.642101
Si Si3 0.522862 0.890457 0.199006
Si Si4 0.288923 0.980529 0.366556
Si Si5 0.093334 0.125152 0.426539
Si Si6 0.984860 0.874247 0.103623
Si Si7 0.172505 0.551128 0.323721
O O1 0.411757 0.307370 0.502327
O O2 0.278013 0.132330 0.515853
O O3 0.127412 0.360948 0.862761
O O4 0.165344 0.193310 0.094597
O O5 0.464958 0.741121 0.414110
O O6 0.528121 0.532007 0.568802
O O7 0.291387 0.687889 0.057941
O O8 0.451177 0.912445 0.125684
O O9 0.705266 0.917032 0.861133
O O10 0.224933 0.026983 0.280781
O O11 0.158730 0.873167 0.703116
O O12 0.036037 0.249009 0.690439
O O13 0.940665 0.039207 0.641497
O O14 0.941808 0.037005 0.279195
#
# Coordination Sequence:
#
# PCOD9116800 Si02
#       7
#     2   2   2   2   2   2   2
#     4  10  22  42  67  95 136 184 228 295 350 408
#     4   9  20  39  71  96 141 185 233 285 350 413
#     4   9  20  40  66 101 143 187 237 283 349 414
#     4  10  22  41  64  96 138 175 229 290 347 415
#     4  11  23  41  68  99 132 183 230 288 354 415
#     4  11  23  39  70  98 138 178 237 290 344 420
#     4  10  22  40  72  97 138 182 236 283 354 419
#
# _framework density 26.126315999999999
#
# number of rings (size 3 to 8) (size 9 to 14) (size 15 to 20)
#    0.857    1.143    1.429    1.714    4.000    0.000 
#    0.000    5.714    9.429    0.000    0.000    0.000 
#    0.000    0.000    0.000    0.000    0.000    0.000 
#
# Total GULP energy -78151.749441 kJ/mol
# GULP energy per Si atom -5582.267817 kJ/mol
# Density = 2.606685 g / cm^3
# Si number density = 26.126316 Si / 1000 Ang^3
#
#
#
# Elastic Constant Matrix: (Units=GPa)
#
#
# Indices 1 2 3 4 5 6 
#
# 1 259.7483 47.9721 64.2749 0.0000 -6.0615 0.0000
# 2 47.9721 44.3350 21.6069 0.0000 0.6461 0.0000
# 3 64.2749 21.6069 91.6269 0.0000 12.6971 0.0000
# 4 0.0000 0.0000 0.0000 34.8099 0.0000 10.0131
# 5 -6.0615 0.6461 12.6971 0.0000 33.5202 0.0000
# 6 0.0000 0.0000 0.0000 10.0131 0.0000 47.9733
#
#
#
# Elastic Compliance Matrix: (Units=1/GPa)
#
#
# Indices 1 2 3 4 5 6 
#
# 1 0.005498 -0.004463 -0.003118 0.000000 0.002261 0.000000
# 2 -0.004463 0.029220 -0.003768 0.000000 0.000057 0.000000
# 3 -0.003118 -0.003768 0.014836 0.000000 -0.006111 0.000000
# 4 0.000000 0.000000 0.000000 0.030562 0.000000 -0.006379
# 5 0.002261 0.000057 -0.006111 0.000000 0.032555 0.000000
# 6 0.000000 0.000000 0.000000 -0.006379 0.000000 0.022176
#
#
# Mechanical properties :
#
#
# Convention : Reuss Voigt Hill
#
# Bulk Modulus (GPa) = 37.23349 73.71310 55.47330
# Shear Modulus (GPa) = 30.03023 40.71777 35.37400
#
# Velocity S-wave (km/s) = 3.39399 3.95206 3.68361
# Velocity P-wave (km/s) = 5.44437 7.00717 6.27462
#
# Compressibility (1/GPa) = 0.02685754
#
# Stress axis : x y z
#
# Youngs Moduli (GPa) = 181.86931 34.22316 67.40178
#
# Poissons Ratio (x) = 0.15273 0.21016
# Poissons Ratio (y) = 0.81166 0.25395
# Poissons Ratio (z) = 0.56708 0.12894
#
# Static dielectric constant tensor:
#      x y z
#    x 2.018690 0.000000 -0.039560 
#    y 0.000000 2.184080 0.000000 
#    z -0.039560 0.000000 2.070580 
# 
# From -- ./inp_files/3792.got.cif
#   From: 2010.05.17/outbox.cif.g08.bks.cpg/sg4_2_cif.got.tgz:3792.got - 2010.06.03 18:43:04.
