data_PCOD9116314
_publ_section_title
;
Structure prediction by ZEFSAII (Michael W. Deem and Ramdas Pophale) SiO2 
 PCOD9116314
Probable space group: P 21
;
_chemical_formula_sum "Si O2"
_cell_formula_units_Z 16
_cell_length_a 13.533963
_cell_length_b 9.113178
_cell_length_c 10.574205
_cell_angle_alpha 90.000000
_cell_angle_beta 143.980486
_cell_angle_gamma 90.000000
_cell_volume 766.945956
_symmetry_space_group_name_H-M "P 21"
_symmetry_group_IT_number 4
_symmetry_cell_setting 'monoclinic'
loop_
_space_group_symop_operation_xyz
x,y,z
-x,1/2+y,-z
loop_
_atom_site_type_symbol
_atom_site_label
_atom_site_fract_x
_atom_site_fract_y
_atom_site_fract_z
Si Si1 0.977694 0.886200 0.588040
Si Si2 0.081610 0.695751 0.163335
Si Si3 0.714276 0.790805 0.528762
Si Si4 0.628771 0.203048 0.817494
Si Si5 0.221820 0.021489 0.014909
Si Si6 0.885182 0.067307 0.263497
Si Si7 0.419920 0.581675 0.509707
Si Si8 0.943265 0.528143 0.808627
O O1 0.857936 0.856099 0.585752
O O2 0.054326 0.728721 0.631576
O O3 0.874195 0.959499 0.368888
O O4 0.132321 0.993302 0.787017
O O5 0.264610 0.668869 0.412440
O O6 0.059596 0.868781 0.134343
O O7 0.923624 0.613995 0.064481
O O8 0.085526 0.619272 0.029834
O O9 0.538904 0.753690 0.280842
O O10 0.788405 0.639858 0.660316
O O11 0.653231 0.915275 0.563482
O O12 0.737739 0.351428 0.905880
O O13 0.565010 0.138616 0.617897
O O14 0.724005 0.092448 0.008466
O O15 0.404185 0.092172 0.232709
O O16 0.020952 0.009579 0.302211
#
# Coordination Sequence:
#
# PCOD9116314 Si02
#       8
#     2   2   2   2   2   2   2   2
#     4  10  22  44  68  91 132 187 231 277 328 401
#     4  12  22  39  65  99 137 175 220 274 347 409
#     4  10  22  43  65  96 139 178 223 285 341 402
#     4  10  21  42  66 101 136 173 224 297 343 400
#     4  10  23  41  66  97 136 180 225 275 344 401
#     4  10  23  42  67  93 130 180 232 276 334 393
#     4  11  21  38  70 100 136 172 219 282 351 403
#     4  11  24  39  65  97 136 177 220 278 344 415
#
# _framework density 20.861965000000001
#
# number of rings (size 3 to 8) (size 9 to 14) (size 15 to 20)
#    0.000    1.500    2.500    2.250    3.500    2.000 
#    2.250    7.500    0.000    0.000    0.000    0.000 
#    0.000    0.000    0.000    0.000    0.000    0.000 
#
# Total GULP energy -89145.918666 kJ/mol
# GULP energy per Si atom -5571.619917 kJ/mol
# Density = 2.081448 g / cm^3
# Si number density = 20.861965 Si / 1000 Ang^3
#
#
#
# Elastic Constant Matrix: (Units=GPa)
#
#
# Indices 1 2 3 4 5 6 
#
# 1 37.0348 28.5617 33.7402 0.0000 9.3949 0.0000
# 2 28.5617 97.5667 36.6570 0.0000 -5.7384 0.0000
# 3 33.7402 36.6570 97.7683 0.0000 20.7977 0.0000
# 4 0.0000 0.0000 0.0000 39.4368 0.0000 -5.4919
# 5 9.3949 -5.7384 20.7977 0.0000 35.4576 0.0000
# 6 0.0000 0.0000 0.0000 -5.4919 0.0000 25.2068
#
#
#
# Elastic Compliance Matrix: (Units=1/GPa)
#
#
# Indices 1 2 3 4 5 6 
#
# 1 0.046347 -0.010040 -0.010594 0.000000 -0.007691 0.000000
# 2 -0.010040 0.015009 -0.003708 0.000000 0.007264 0.000000
# 3 -0.010594 -0.003708 0.016916 0.000000 -0.007715 0.000000
# 4 0.000000 0.000000 0.000000 0.026150 0.000000 0.005697
# 5 -0.007691 0.007264 -0.007715 0.000000 0.035941 0.000000
# 6 0.000000 0.000000 0.000000 0.005697 0.000000 0.040913
#
#
# Mechanical properties :
#
#
# Convention : Reuss Voigt Hill
#
# Bulk Modulus (GPa) = 33.79731 47.80973 40.80352
# Shear Modulus (GPa) = 20.84873 28.91430 24.88151
#
# Velocity S-wave (km/s) = 3.16470 3.72692 3.45726
# Velocity P-wave (km/s) = 5.43962 6.44102 5.96138
#
# Compressibility (1/GPa) = 0.02958815
#
# Stress axis : x y z
#
# Youngs Moduli (GPa) = 21.57626 66.62800 59.11649
#
# Poissons Ratio (x) = 0.66892 0.62630
# Poissons Ratio (y) = 0.21662 0.21919
# Poissons Ratio (z) = 0.22859 0.24704
#
# Static dielectric constant tensor:
#      x y z
#    x 1.772050 0.000000 0.048830 
#    y 0.000000 1.773030 0.000000 
#    z 0.048830 0.000000 1.822920 
# 
# From -- ./inp_files/12684.got.cif
#   From: 2010.05.17/outbox.cif.g08.bks.cpg/sg4_7_cif.got.tgz:12684.got - 2010.06.03 18:43:04.
