data_PCOD9116647
_publ_section_title
;
Structure prediction by ZEFSAII (Michael W. Deem and Ramdas Pophale) SiO2 
 PCOD9116647
Probable space group: P 21
;
_chemical_formula_sum "Si O2"
_cell_formula_units_Z 16
_cell_length_a 24.987819
_cell_length_b 5.202645
_cell_length_c 15.611851
_cell_angle_alpha 90.000000
_cell_angle_beta 160.461528
_cell_angle_gamma 90.000000
_cell_volume 678.773393
_symmetry_space_group_name_H-M "P 21"
_symmetry_group_IT_number 4
_symmetry_cell_setting 'monoclinic'
loop_
_space_group_symop_operation_xyz
x,y,z
-x,1/2+y,-z
loop_
_atom_site_type_symbol
_atom_site_label
_atom_site_fract_x
_atom_site_fract_y
_atom_site_fract_z
Si Si1 0.580920 0.052420 0.467187
Si Si2 0.810820 0.535904 0.534759
Si Si3 0.325561 0.178542 0.840494
Si Si4 0.160131 0.852907 0.720332
Si Si5 0.840361 0.189166 0.999198
Si Si6 0.369011 0.550732 0.156348
Si Si7 0.024097 0.528844 0.389528
Si Si8 0.680704 0.064212 0.422102
O O1 0.447374 0.274159 0.268892
O O2 0.653101 0.029616 0.481215
O O3 0.499663 0.779000 0.368239
O O4 0.715036 0.156561 0.734330
O O5 0.712131 0.498215 0.297869
O O6 0.803570 0.289506 0.584647
O O7 0.993263 0.572780 0.781397
O O8 0.736165 0.792323 0.465885
O O9 0.200267 0.412508 0.635408
O O10 0.273442 0.070099 0.854175
O O11 0.515940 0.183298 0.134690
O O12 0.054200 0.803954 0.476059
O O13 0.050200 0.902720 0.636052
O O14 0.277702 0.630144 0.931286
O O15 0.901460 0.466424 0.128903
O O16 0.753313 0.062827 0.949329
#
# Coordination Sequence:
#
# PCOD9116647 Si02
#       8
#     2   2   2   2   2   2   2   2
#     4  12  25  48  74 106 140 192 242 300 357 426
#     4  11  28  46  67 102 136 189 237 291 354 415
#     4  11  23  41  65 100 137 180 228 295 353 423
#     4  11  21  38  67 102 145 186 223 292 364 445
#     4  10  26  47  71 106 147 191 234 304 356 434
#     4  11  25  45  75 110 143 183 241 294 370 429
#     4  10  22  39  63 106 144 183 225 284 372 437
#     4  12  26  46  70  98 138 188 244 286 346 421
#
# _framework density 23.571932
#
# number of rings (size 3 to 8) (size 9 to 14) (size 15 to 20)
#    0.000    1.000    2.500    3.000    5.250    3.000 
#    2.250    0.000    0.000    0.000    0.000    0.000 
#    0.000    0.000    0.000    0.000    0.000    0.000 
#
# Total GULP energy -89410.966709 kJ/mol
# GULP energy per Si atom -5588.185419 kJ/mol
# Density = 2.351828 g / cm^3
# Si number density = 23.571932 Si / 1000 Ang^3
#
#
#
# Elastic Constant Matrix: (Units=GPa)
#
#
# Indices 1 2 3 4 5 6 
#
# 1 130.3845 38.8772 56.7337 0.0000 7.8932 0.0000
# 2 38.8772 79.1736 10.0817 0.0000 12.8823 0.0000
# 3 56.7337 10.0817 113.1119 0.0000 -12.5198 0.0000
# 4 0.0000 0.0000 0.0000 26.9719 0.0000 5.6934
# 5 7.8932 12.8823 -12.5198 0.0000 32.3201 0.0000
# 6 0.0000 0.0000 0.0000 5.6934 0.0000 39.7801
#
#
#
# Elastic Compliance Matrix: (Units=1/GPa)
#
#
# Indices 1 2 3 4 5 6 
#
# 1 0.011766 -0.004482 -0.005874 0.000000 -0.003362 0.000000
# 2 -0.004482 0.015608 0.000303 0.000000 -0.005009 0.000000
# 3 -0.005874 0.000303 0.012439 0.000000 0.006132 0.000000
# 4 0.000000 0.000000 0.000000 0.038231 0.000000 -0.005472
# 5 -0.003362 -0.005009 0.006132 0.000000 0.036134 0.000000
# 6 0.000000 0.000000 0.000000 -0.005472 0.000000 0.025921
#
#
# Mechanical properties :
#
#
# Convention : Reuss Voigt Hill
#
# Bulk Modulus (GPa) = 50.74830 59.33946 55.04388
# Shear Modulus (GPa) = 29.98081 34.27959 32.13020
#
# Velocity S-wave (km/s) = 3.57022 3.81761 3.69598
# Velocity P-wave (km/s) = 6.21057 6.68286 6.45104
#
# Compressibility (1/GPa) = 0.01970509
#
# Stress axis : x y z
#
# Youngs Moduli (GPa) = 84.99391 64.06983 80.39387
#
# Poissons Ratio (x) = 0.28718 0.47222
# Poissons Ratio (y) = 0.38097 -0.02433
# Poissons Ratio (z) = 0.49925 -0.01939
#
# Static dielectric constant tensor:
#      x y z
#    x 1.865620 0.000000 0.011910 
#    y 0.000000 2.005780 0.000000 
#    z 0.011910 0.000000 1.928980 
# 
# From -- ./inp_files/14529.got.cif
#   From: 2010.05.17/outbox.cif.g08.bks.cpg/sg4_8_cif.got.tgz:14529.got - 2010.06.03 18:43:04.
