data_PCOD9116505
_publ_section_title
;
Structure prediction by ZEFSAII (Michael W. Deem and Ramdas Pophale) SiO2 
 PCOD9116505
Probable space group: P 21
;
_chemical_formula_sum "Si O2"
_cell_formula_units_Z 14
_cell_length_a 5.650825
_cell_length_b 6.987506
_cell_length_c 14.149191
_cell_angle_alpha 90.000000
_cell_angle_beta 80.087174
_cell_angle_gamma 90.000000
_cell_volume 550.342577
_symmetry_space_group_name_H-M "P 21"
_symmetry_group_IT_number 4
_symmetry_cell_setting 'monoclinic'
loop_
_space_group_symop_operation_xyz
x,y,z
-x,1/2+y,-z
loop_
_atom_site_type_symbol
_atom_site_label
_atom_site_fract_x
_atom_site_fract_y
_atom_site_fract_z
Si Si1 0.706434 0.442340 0.186112
Si Si2 0.913414 0.048728 0.373784
Si Si3 0.795259 0.401164 0.490057
Si Si4 0.579436 0.697847 0.371176
Si Si5 0.267599 0.500505 0.871570
Si Si6 0.215401 0.015623 0.175772
Si Si7 0.750556 0.936457 0.907306
O O1 0.819902 0.260226 0.400322
O O2 0.605310 0.548705 0.285163
O O3 0.506048 0.492910 0.120553
O O4 0.988662 0.493268 0.153759
O O5 0.745145 0.883913 0.344258
O O6 0.967542 0.977290 0.476578
O O7 0.713327 0.208939 0.180884
O O8 0.135479 0.070899 0.287075
O O9 0.654885 0.584433 0.461258
O O10 0.672662 0.289324 0.584862
O O11 0.530078 0.410723 0.836434
O O12 0.016188 0.413836 0.853458
O O13 0.244875 0.507027 0.985830
O O14 0.249346 0.205073 0.108683
#
# Coordination Sequence:
#
# PCOD9116505 Si02
#       7
#     2   2   2   2   2   2   2
#     4  10  24  43  70 106 146 191 248 316 369 453
#     4  12  27  48  75 112 151 199 256 316 396 454
#     4  12  26  48  78 110 154 200 256 322 380 478
#     4  12  27  48  75 112 151 199 256 316 396 454
#     4  10  21  45  72 101 144 199 245 309 377 448
#     4  10  24  43  70 106 146 191 248 316 369 453
#     4  10  21  45  72 101 144 199 245 309 377 448
#
# _framework density 25.438704000000001
#
# number of rings (size 3 to 8) (size 9 to 14) (size 15 to 20)
#    0.000    1.143    2.857    2.571    4.000    4.571 
#   15.429    0.000    0.000    0.000    0.000    0.000 
#    0.000    0.000    0.000    0.000    0.000    0.000 
#
# Total GULP energy -78232.585858 kJ/mol
# GULP energy per Si atom -5588.041847 kJ/mol
# Density = 2.538080 g / cm^3
# Si number density = 25.438704 Si / 1000 Ang^3
#
#
#
# Elastic Constant Matrix: (Units=GPa)
#
#
# Indices 1 2 3 4 5 6 
#
# 1 143.6343 15.5146 18.4179 0.0000 8.5163 0.0000
# 2 15.5146 128.7925 11.0896 0.0000 6.4618 0.0000
# 3 18.4179 11.0896 88.7097 0.0000 1.6641 0.0000
# 4 0.0000 0.0000 0.0000 34.4573 0.0000 0.0791
# 5 8.5163 6.4618 1.6641 0.0000 50.1020 0.0000
# 6 0.0000 0.0000 0.0000 0.0791 0.0000 13.3819
#
#
#
# Elastic Compliance Matrix: (Units=1/GPa)
#
#
# Indices 1 2 3 4 5 6 
#
# 1 0.007283 -0.000701 -0.001404 0.000000 -0.001101 0.000000
# 2 -0.000701 0.007965 -0.000834 0.000000 -0.000880 0.000000
# 3 -0.001404 -0.000834 0.011669 0.000000 -0.000041 0.000000
# 4 0.000000 0.000000 0.000000 0.029022 0.000000 -0.000172
# 5 -0.001101 -0.000880 -0.000041 0.000000 0.020261 0.000000
# 6 0.000000 0.000000 0.000000 -0.000172 0.000000 0.074729
#
#
# Mechanical properties :
#
#
# Convention : Reuss Voigt Hill
#
# Bulk Modulus (GPa) = 47.52873 50.13120 48.82997
# Shear Modulus (GPa) = 30.52140 40.66254 35.59197
#
# Velocity S-wave (km/s) = 3.46757 4.00240 3.74455
# Velocity P-wave (km/s) = 5.89545 6.41158 6.15892
#
# Compressibility (1/GPa) = 0.02103990
#
# Stress axis : x y z
#
# Youngs Moduli (GPa) = 137.30318 125.55170 85.69590
#
# Poissons Ratio (x) = 0.08804 0.12030
# Poissons Ratio (y) = 0.09628 0.07143
# Poissons Ratio (z) = 0.19275 0.10466
#
# Static dielectric constant tensor:
#      x y z
#    x 2.021960 0.000000 0.013020 
#    y 0.000000 2.031800 0.000000 
#    z 0.013020 0.000000 1.977650 
# 
# From -- ./inp_files/13256.got.cif
#   From: 2010.05.17/outbox.cif.g08.bks.cpg/sg4_7_cif.got.tgz:13256.got - 2010.06.03 18:43:04.
