data_PCOD9116329
_publ_section_title
;
Structure prediction by ZEFSAII (Michael W. Deem and Ramdas Pophale) SiO2 
 PCOD9116329
Probable space group: P 21
;
_chemical_formula_sum "Si O2"
_cell_formula_units_Z 16
_cell_length_a 6.724554
_cell_length_b 9.823236
_cell_length_c 9.551813
_cell_angle_alpha 90.000000
_cell_angle_beta 103.290627
_cell_angle_gamma 90.000000
_cell_volume 614.063573
_symmetry_space_group_name_H-M "P 21"
_symmetry_group_IT_number 4
_symmetry_cell_setting 'monoclinic'
loop_
_space_group_symop_operation_xyz
x,y,z
-x,1/2+y,-z
loop_
_atom_site_type_symbol
_atom_site_label
_atom_site_fract_x
_atom_site_fract_y
_atom_site_fract_z
Si Si1 0.122619 0.973400 0.882604
Si Si2 0.530260 0.807190 0.750527
Si Si3 0.858299 0.386969 0.489589
Si Si4 0.508332 0.554140 0.916730
Si Si5 0.400320 0.139179 0.508539
Si Si6 0.121915 0.666458 0.969340
Si Si7 0.202913 0.473198 0.373009
Si Si8 0.355106 0.813301 0.258381
O O1 0.002916 0.032599 0.731057
O O2 0.068655 0.812139 0.888166
O O3 0.053469 0.067542 0.002014
O O4 0.366867 0.995076 0.929901
O O5 0.300554 0.831569 0.655115
O O6 0.553617 0.712583 0.887723
O O7 0.625074 0.722594 0.635761
O O8 0.676006 0.934703 0.751910
O O9 0.788605 0.542146 0.499673
O O10 0.795177 0.327275 0.631056
O O11 0.087418 0.379978 0.470177
O O12 0.572356 0.453480 0.801567
O O13 0.267461 0.567878 0.902739
O O14 0.453450 0.233792 0.647449
O O15 0.611800 0.051605 0.522915
O O16 0.249563 0.725452 0.121150
#
# Coordination Sequence:
#
# PCOD9116329 Si02
#       8
#     2   2   2   2   2   2   2   2
#     4  11  25  45  70 105 138 187 238 301 341 438
#     4  10  22  42  65  98 138 171 231 284 338 426
#     4  10  22  41  69 101 134 182 223 290 362 407
#     4  11  24  44  69 100 140 189 234 282 355 416
#     4  10  21  42  67  96 140 172 230 291 343 415
#     4  11  25  46  70 102 144 190 239 292 361 416
#     4  11  23  40  69  98 135 180 227 285 359 417
#     4  10  22  44  65 102 141 177 238 287 343 437
#
# _framework density 26.055933
#
# number of rings (size 3 to 8) (size 9 to 14) (size 15 to 20)
#    0.000    1.500    2.500    1.500    1.750    6.000 
#    4.500    1.250    0.000    0.000    0.000    0.000 
#    0.000    0.000    0.000    0.000    0.000    0.000 
#
# Total GULP energy -89340.474713 kJ/mol
# GULP energy per Si atom -5583.779670 kJ/mol
# Density = 2.599663 g / cm^3
# Si number density = 26.055933 Si / 1000 Ang^3
#
#
#
# Elastic Constant Matrix: (Units=GPa)
#
#
# Indices 1 2 3 4 5 6 
#
# 1 121.1635 20.0026 -0.5758 0.0000 -17.2740 0.0000
# 2 20.0026 61.6310 -19.8618 0.0000 -8.6935 0.0000
# 3 -0.5758 -19.8618 61.8560 0.0000 2.5157 0.0000
# 4 0.0000 0.0000 0.0000 18.7507 0.0000 20.4202
# 5 -17.2740 -8.6935 2.5157 0.0000 35.5507 0.0000
# 6 0.0000 0.0000 0.0000 20.4202 0.0000 25.6386
#
#
#
# Elastic Compliance Matrix: (Units=1/GPa)
#
#
# Indices 1 2 3 4 5 6 
#
# 1 0.009260 -0.002766 -0.000960 0.000000 0.003891 0.000000
# 2 -0.002766 0.019518 0.006120 0.000000 0.002996 0.000000
# 3 -0.000960 0.006120 0.018133 0.000000 -0.000253 0.000000
# 4 0.000000 0.000000 0.000000 0.402144 0.000000 -0.320294
# 5 0.003891 0.002996 -0.000253 0.000000 0.030770 0.000000
# 6 0.000000 0.000000 0.000000 -0.320294 0.000000 0.294107
#
#
# Mechanical properties :
#
#
# Convention : Reuss Voigt Hill
#
# Bulk Modulus (GPa) = 19.34314 27.08674 23.21494
# Shear Modulus (GPa) = 6.35827 32.32701 19.34264
#
# Velocity S-wave (km/s) = 1.56382 3.52615 2.72757
# Velocity P-wave (km/s) = 3.27117 5.19581 4.34149
#
# Compressibility (1/GPa) = 0.05169790
#
# Stress axis : x y z
#
# Youngs Moduli (GPa) = 107.99009 51.23456 55.14829
#
# Poissons Ratio (x) = 0.14171 0.05295
# Poissons Ratio (y) = 0.29870 -0.33749
# Poissons Ratio (z) = 0.10369 -0.31354
#
# Static dielectric constant tensor:
#      x y z
#    x 2.138980 0.000000 -0.066560 
#    y 0.000000 2.309870 0.000000 
#    z -0.066560 0.000000 2.042380 
# 
# From -- ./inp_files/10533.got.cif
#   From: 2010.05.17/outbox.cif.g08.bks.cpg/sg4_6_cif.got.tgz:10533.got - 2010.06.03 18:43:04.
