data_PCOD9116455
_publ_section_title
;
Structure prediction by ZEFSAII (Michael W. Deem and Ramdas Pophale) SiO2 
 PCOD9116455
Probable space group: P 21
;
_chemical_formula_sum "Si O2"
_cell_formula_units_Z 14
_cell_length_a 10.397910
_cell_length_b 4.977260
_cell_length_c 16.805495
_cell_angle_alpha 90.000000
_cell_angle_beta 40.136008
_cell_angle_gamma 90.000000
_cell_volume 560.635814
_symmetry_space_group_name_H-M "P 21"
_symmetry_group_IT_number 4
_symmetry_cell_setting 'monoclinic'
loop_
_space_group_symop_operation_xyz
x,y,z
-x,1/2+y,-z
loop_
_atom_site_type_symbol
_atom_site_label
_atom_site_fract_x
_atom_site_fract_y
_atom_site_fract_z
Si Si1 0.587421 0.960900 0.861586
Si Si2 0.114049 0.762434 0.968688
Si Si3 0.515601 0.189229 0.300558
Si Si4 0.242431 0.789535 0.348428
Si Si5 0.380324 0.484688 0.580102
Si Si6 0.316998 0.468922 0.013072
Si Si7 0.862778 0.024109 0.451368
O O1 0.691410 0.022468 0.729185
O O2 0.507207 0.662801 0.909359
O O3 0.400232 0.169672 0.957208
O O4 0.728185 0.003121 0.871917
O O5 0.317264 0.846320 0.827508
O O6 0.157171 0.598470 0.029504
O O7 0.989812 0.032851 0.035756
O O8 0.434358 0.964043 0.278984
O O9 0.621181 0.055331 0.326975
O O10 0.326433 0.350571 0.425689
O O11 0.145019 0.768025 0.482258
O O12 0.077263 0.904706 0.367453
O O13 0.555926 0.675501 0.460899
O O14 0.190338 0.558769 0.615632
#
# Coordination Sequence:
#
# PCOD9116455 Si02
#       7
#     2   2   2   2   2   2   2
#     4  10  22  38  71  92 131 169 214 267 339 378
#     4  12  27  43  68  97 129 175 230 270 323 396
#     4  11  24  44  68  93 136 179 215 279 331 388
#     4  12  22  40  67 102 129 178 215 281 324 406
#     4  10  22  41  65  95 132 177 216 265 327 395
#     4  10  21  44  63  97 126 172 215 273 325 390
#     4  11  24  40  66 102 135 170 227 265 337 401
#
# _framework density 24.971647999999998
#
# number of rings (size 3 to 8) (size 9 to 14) (size 15 to 20)
#    0.000    1.143    4.286    1.714    2.000    1.143 
#    0.000    4.286    0.000    0.000    0.000    0.000 
#    0.000    0.000    0.000    0.000    0.000    0.000 
#
# Total GULP energy -78281.306416 kJ/mol
# GULP energy per Si atom -5591.521887 kJ/mol
# Density = 2.491481 g / cm^3
# Si number density = 24.971648 Si / 1000 Ang^3
#
#
#
# Elastic Constant Matrix: (Units=GPa)
#
#
# Indices 1 2 3 4 5 6 
#
# 1 197.3704 12.7280 30.4159 0.0000 3.3316 0.0000
# 2 12.7280 59.4424 15.0300 0.0000 1.6329 0.0000
# 3 30.4159 15.0300 55.2731 0.0000 1.9475 0.0000
# 4 0.0000 0.0000 0.0000 34.5166 0.0000 -4.0803
# 5 3.3316 1.6329 1.9475 0.0000 31.2674 0.0000
# 6 0.0000 0.0000 0.0000 -4.0803 0.0000 35.4077
#
#
#
# Elastic Compliance Matrix: (Units=1/GPa)
#
#
# Indices 1 2 3 4 5 6 
#
# 1 0.005552 -0.000439 -0.002922 0.000000 -0.000387 0.000000
# 2 -0.000439 0.018113 -0.004662 0.000000 -0.000609 0.000000
# 3 -0.002922 -0.004662 0.020994 0.000000 -0.000753 0.000000
# 4 0.000000 0.000000 0.000000 0.029372 0.000000 0.003385
# 5 -0.000387 -0.000609 -0.000753 0.000000 0.032102 0.000000
# 6 0.000000 0.000000 0.000000 0.003385 0.000000 0.028632
#
#
# Mechanical properties :
#
#
# Convention : Reuss Voigt Hill
#
# Bulk Modulus (GPa) = 34.95054 47.60374 41.27714
# Shear Modulus (GPa) = 31.18204 37.16580 34.17392
#
# Velocity S-wave (km/s) = 3.53753 3.86206 3.70335
# Velocity P-wave (km/s) = 5.54183 6.24434 5.90355
#
# Compressibility (1/GPa) = 0.02861186
#
# Stress axis : x y z
#
# Youngs Moduli (GPa) = 180.12299 55.21017 47.63234
#
# Poissons Ratio (x) = 0.02426 0.13918
# Poissons Ratio (y) = 0.07913 0.22206
# Poissons Ratio (z) = 0.52631 0.25739
#
# Static dielectric constant tensor:
#      x y z
#    x 2.022720 0.000000 -0.012120 
#    y 0.000000 2.013790 0.000000 
#    z -0.012120 0.000000 1.924100 
# 
# From -- ./inp_files/7072.got.cif
#   From: 2010.05.17/outbox.cif.g08.bks.cpg/sg4_4_cif.got.tgz:7072.got - 2010.06.03 18:43:04.
