data_PCOD9116811
_publ_section_title
;
Structure prediction by ZEFSAII (Michael W. Deem and Ramdas Pophale) SiO2 
 PCOD9116811
Probable space group: P 21
;
_chemical_formula_sum "Si O2"
_cell_formula_units_Z 10
_cell_length_a 6.488266
_cell_length_b 9.600388
_cell_length_c 6.910796
_cell_angle_alpha 90.000000
_cell_angle_beta 113.439446
_cell_angle_gamma 90.000000
_cell_volume 394.950418
_symmetry_space_group_name_H-M "P 21"
_symmetry_group_IT_number 4
_symmetry_cell_setting 'monoclinic'
loop_
_space_group_symop_operation_xyz
x,y,z
-x,1/2+y,-z
loop_
_atom_site_type_symbol
_atom_site_label
_atom_site_fract_x
_atom_site_fract_y
_atom_site_fract_z
Si Si1 0.859831 0.110430 0.138650
Si Si2 0.437490 0.782208 0.715371
Si Si3 0.237490 0.072134 0.564299
Si Si4 0.842732 0.140844 0.681939
Si Si5 0.244759 0.315539 0.835401
O O1 0.748442 0.246445 0.189314
O O2 0.110650 0.101579 0.316949
O O3 0.717652 0.978607 0.168045
O O4 0.838557 0.099713 0.901841
O O5 0.380065 0.674268 0.522599
O O6 0.398267 0.939867 0.631238
O O7 0.663878 0.769935 0.921757
O O8 0.334763 0.211637 0.704372
O O9 0.018205 0.045946 0.626244
O O10 0.978405 0.288170 0.729115
#
# Coordination Sequence:
#
# PCOD9116811 Si02
#       5
#     2   2   2   2   2
#     4  11  20  41  66  83 126 161 195 249 302 352
#     4  11  21  41  62  90 122 156 201 248 300 356
#     4   9  20  39  63  83 123 154 199 244 297 354
#     4   9  23  38  60  88 119 159 198 243 295 358
#     4  10  22  41  59  92 120 154 205 244 298 356
#
# _framework density 25.319633
#
# number of rings (size 3 to 8) (size 9 to 14) (size 15 to 20)
#    1.200    0.800    2.000    1.200    2.800    0.000 
#    7.200    0.000    0.000    0.000    0.000    0.000 
#    0.000    0.000    0.000    0.000    0.000    0.000 
#
# Total GULP energy -55824.062221 kJ/mol
# GULP energy per Si atom -5582.406222 kJ/mol
# Density = 2.526200 g / cm^3
# Si number density = 25.319633 Si / 1000 Ang^3
#
#
#
# Elastic Constant Matrix: (Units=GPa)
#
#
# Indices 1 2 3 4 5 6 
#
# 1 32.7876 -0.5893 28.8480 0.0000 -6.6488 0.0000
# 2 -0.5893 84.8075 23.9453 0.0000 -12.4911 0.0000
# 3 28.8480 23.9453 209.0218 0.0000 -3.2216 0.0000
# 4 0.0000 0.0000 0.0000 37.7968 0.0000 5.3677
# 5 -6.6488 -12.4911 -3.2216 0.0000 44.4695 0.0000
# 6 0.0000 0.0000 0.0000 5.3677 0.0000 18.7895
#
#
#
# Elastic Compliance Matrix: (Units=1/GPa)
#
#
# Indices 1 2 3 4 5 6 
#
# 1 0.036307 0.002576 -0.005217 0.000000 0.005774 0.000000
# 2 0.002576 0.012880 -0.001771 0.000000 0.003875 0.000000
# 3 -0.005217 -0.001771 0.005694 0.000000 -0.000865 0.000000
# 4 0.000000 0.000000 0.000000 0.027576 0.000000 -0.007878
# 5 0.005774 0.003875 -0.000865 0.000000 0.024376 0.000000
# 6 0.000000 0.000000 0.000000 -0.007878 0.000000 0.055472
#
#
# Mechanical properties :
#
#
# Convention : Reuss Voigt Hill
#
# Bulk Modulus (GPa) = 21.71295 47.89165 34.80230
# Shear Modulus (GPa) = 26.81235 38.50536 32.65885
#
# Velocity S-wave (km/s) = 3.25769 3.90394 3.59536
# Velocity P-wave (km/s) = 4.76909 6.26712 5.56871
#
# Compressibility (1/GPa) = 0.04605547
#
# Stress axis : x y z
#
# Youngs Moduli (GPa) = 27.54323 77.63900 175.63016
#
# Poissons Ratio (x) = -0.19997 0.91625
# Poissons Ratio (y) = -0.07094 0.31109
# Poissons Ratio (z) = 0.14369 0.13752
#
# Static dielectric constant tensor:
#      x y z
#    x 2.057200 0.000000 0.014970 
#    y 0.000000 1.954120 0.000000 
#    z 0.014970 0.000000 1.964950 
# 
# From -- ./inp_files/5265.got.cif
#   From: 2010.05.17/outbox.cif.g08.bks.cpg/sg4_3_cif.got.tgz:5265.got - 2010.06.03 18:43:04.
