data_PCOD9116414
_publ_section_title
;
Structure prediction by ZEFSAII (Michael W. Deem and Ramdas Pophale) SiO2 
 PCOD9116414
Probable space group: P 21
;
_chemical_formula_sum "Si O2"
_cell_formula_units_Z 12
_cell_length_a 8.710618
_cell_length_b 7.205946
_cell_length_c 8.858440
_cell_angle_alpha 90.000000
_cell_angle_beta 65.163815
_cell_angle_gamma 90.000000
_cell_volume 504.602949
_symmetry_space_group_name_H-M "P 21"
_symmetry_group_IT_number 4
_symmetry_cell_setting 'monoclinic'
loop_
_space_group_symop_operation_xyz
x,y,z
-x,1/2+y,-z
loop_
_atom_site_type_symbol
_atom_site_label
_atom_site_fract_x
_atom_site_fract_y
_atom_site_fract_z
Si Si1 0.268081 0.032810 0.923311
Si Si2 0.065334 0.671477 0.029731
Si Si3 0.094895 0.400916 0.303358
Si Si4 0.638478 0.569207 0.808044
Si Si5 0.247660 0.730255 0.428239
Si Si6 0.643354 0.218087 0.301290
O O1 0.405442 0.068639 0.995445
O O2 0.146343 0.868822 0.042630
O O3 0.131945 0.184309 0.930911
O O4 0.344271 0.935712 0.745672
O O5 0.085498 0.517982 0.151370
O O6 0.179376 0.632650 0.834070
O O7 0.205711 0.213958 0.254590
O O8 0.178837 0.541269 0.387207
O O9 0.908642 0.342910 0.432734
O O10 0.680077 0.366104 0.728511
O O11 0.497574 0.641604 0.752371
O O12 0.373471 0.692717 0.515148
#
# Coordination Sequence:
#
# PCOD9116414 Si02
#       6
#     2   2   2   2   2   2
#     4  10  21  43  68  99 134 176 232 273 335 394
#     4  10  21  43  68 101 130 173 235 275 325 401
#     4  12  24  44  74  99 135 181 227 278 336 408
#     4  12  26  44  68 101 144 177 222 286 340 404
#     4  12  24  47  68 104 135 180 229 272 343 413
#     4  10  26  41  68 100 138 177 223 284 341 392
#
# _framework density 23.781072000000002
#
# number of rings (size 3 to 8) (size 9 to 14) (size 15 to 20)
#    1.000    0.000    5.000    2.000    4.667    0.000 
#    0.000    0.000    0.000    0.000    0.000    0.000 
#    0.000    0.000    0.000    0.000    0.000    0.000 
#
# Total GULP energy -67054.203320 kJ/mol
# GULP energy per Si atom -5587.850277 kJ/mol
# Density = 2.372695 g / cm^3
# Si number density = 23.781072 Si / 1000 Ang^3
#
#
#
# Elastic Constant Matrix: (Units=GPa)
#
#
# Indices 1 2 3 4 5 6 
#
# 1 73.9967 16.0091 27.5208 0.0000 34.3859 0.0000
# 2 16.0091 74.7003 23.5747 0.0000 6.0733 0.0000
# 3 27.5208 23.5747 91.0719 0.0000 38.0670 0.0000
# 4 0.0000 0.0000 0.0000 34.0062 0.0000 5.4248
# 5 34.3859 6.0733 38.0670 0.0000 51.7896 0.0000
# 6 0.0000 0.0000 0.0000 5.4248 0.0000 40.4495
#
#
#
# Elastic Compliance Matrix: (Units=1/GPa)
#
#
# Indices 1 2 3 4 5 6 
#
# 1 0.020319 -0.003366 0.000296 0.000000 -0.013314 0.000000
# 2 -0.003366 0.015220 -0.004490 0.000000 0.003750 0.000000
# 3 0.000296 -0.004490 0.017200 0.000000 -0.012312 0.000000
# 4 0.000000 0.000000 0.000000 0.030049 0.000000 -0.004030
# 5 -0.013314 0.003750 -0.012312 0.000000 0.036759 0.000000
# 6 0.000000 0.000000 0.000000 -0.004030 0.000000 0.025263
#
#
# Mechanical properties :
#
#
# Convention : Reuss Voigt Hill
#
# Bulk Modulus (GPa) = 26.58224 41.55312 34.06768
# Shear Modulus (GPa) = 28.99063 36.75999 32.87531
#
# Velocity S-wave (km/s) = 3.49530 3.93589 3.72212
# Velocity P-wave (km/s) = 5.24325 6.17787 5.72965
#
# Compressibility (1/GPa) = 0.03761910
#
# Stress axis : x y z
#
# Youngs Moduli (GPa) = 49.21497 65.70154 58.14066
#
# Poissons Ratio (x) = 0.22112 -0.01721
# Poissons Ratio (y) = 0.16564 0.26108
# Poissons Ratio (z) = -0.01457 0.29503
#
# Static dielectric constant tensor:
#      x y z
#    x 1.928020 0.000000 -0.000790 
#    y 0.000000 1.907800 0.000000 
#    z -0.000790 0.000000 1.876530 
# 
# From -- ./inp_files/5534.got.cif
#   From: 2010.05.17/outbox.cif.g08.bks.cpg/sg4_3_cif.got.tgz:5534.got - 2010.06.03 18:43:04.
