data_PCOD9116633
_publ_section_title
;
Structure prediction by ZEFSAII (Michael W. Deem and Ramdas Pophale) SiO2 
 PCOD9116633
Probable space group: P 21
;
_chemical_formula_sum "Si O2"
_cell_formula_units_Z 14
_cell_length_a 15.278167
_cell_length_b 8.541025
_cell_length_c 15.624293
_cell_angle_alpha 90.000000
_cell_angle_beta 162.844288
_cell_angle_gamma 90.000000
_cell_volume 601.393624
_symmetry_space_group_name_H-M "P 21"
_symmetry_group_IT_number 4
_symmetry_cell_setting 'monoclinic'
loop_
_space_group_symop_operation_xyz
x,y,z
-x,1/2+y,-z
loop_
_atom_site_type_symbol
_atom_site_label
_atom_site_fract_x
_atom_site_fract_y
_atom_site_fract_z
Si Si1 0.588587 0.450630 0.455239
Si Si2 0.447107 0.454839 0.917469
Si Si3 0.577151 0.031736 0.518610
Si Si4 0.119790 0.239060 0.005755
Si Si5 0.079401 0.816298 0.763960
Si Si6 0.895402 0.638928 0.429074
Si Si7 0.481204 0.285900 0.677344
O O1 0.382054 0.493341 0.344085
O O2 0.407438 0.322025 0.230125
O O3 0.636253 0.612628 0.451870
O O4 0.879840 0.377860 0.770631
O O5 0.260259 0.295292 0.752356
O O6 0.196197 0.583755 0.664403
O O7 0.694607 0.426630 0.076308
O O8 0.642712 0.508044 0.181398
O O9 0.474182 0.882404 0.367526
O O10 0.312965 0.160022 0.263202
O O11 0.887875 0.097206 0.770897
O O12 0.997452 0.679172 0.620370
O O13 0.761884 0.880897 0.494810
O O14 0.237057 0.769621 0.998987
#
# Coordination Sequence:
#
# PCOD9116633 Si02
#       7
#     2   2   2   2   2   2   2
#     4  11  23  41  67  97 127 182 235 278 338 404
#     4  12  22  43  75 102 139 178 225 277 327 417
#     4  11  23  41  67  97 127 182 235 278 338 404
#     4  10  22  39  60  84 135 154 222 296 323 378
#     4  12  24  43  70 108 141 168 231 276 346 402
#     4  12  22  43  75 102 139 178 225 277 327 417
#     4  12  24  42  72  96 136 186 225 284 343 402
#
# _framework density 23.279261000000002
#
# number of rings (size 3 to 8) (size 9 to 14) (size 15 to 20)
#    0.000    0.571    4.286    4.286    0.000    2.286 
#    0.000    0.000   47.143    0.000    0.000    0.000 
#    0.000    0.000    0.000    0.000    0.000    0.000 
#
# Total GULP energy -77957.588215 kJ/mol
# GULP energy per Si atom -5568.399158 kJ/mol
# Density = 2.322628 g / cm^3
# Si number density = 23.279261 Si / 1000 Ang^3
#
#
#
# Elastic Constant Matrix: (Units=GPa)
#
#
# Indices 1 2 3 4 5 6 
#
# 1 60.9502 32.7236 27.5442 0.0000 4.3323 0.0000
# 2 32.7236 107.9096 51.3856 0.0000 5.2119 0.0000
# 3 27.5442 51.3856 182.6588 0.0000 -4.8670 0.0000
# 4 0.0000 0.0000 0.0000 60.1711 0.0000 3.0785
# 5 4.3323 5.2119 -4.8670 0.0000 39.6133 0.0000
# 6 0.0000 0.0000 0.0000 3.0785 0.0000 21.7067
#
#
#
# Elastic Compliance Matrix: (Units=1/GPa)
#
#
# Indices 1 2 3 4 5 6 
#
# 1 0.020063 -0.005242 -0.001596 0.000000 -0.001701 0.000000
# 2 -0.005242 0.012197 -0.002677 0.000000 -0.001360 0.000000
# 3 -0.001596 -0.002677 0.006504 0.000000 0.001326 0.000000
# 4 0.000000 0.000000 0.000000 0.016741 0.000000 -0.002374
# 5 -0.001701 -0.001360 0.001326 0.000000 0.025772 0.000000
# 6 0.000000 0.000000 0.000000 -0.002374 0.000000 0.046405
#
#
# Mechanical properties :
#
#
# Convention : Reuss Voigt Hill
#
# Bulk Modulus (GPa) = 50.67404 63.86948 57.27176
# Shear Modulus (GPa) = 32.61768 40.28921 36.45344
#
# Velocity S-wave (km/s) = 3.74725 4.16467 3.96146
# Velocity P-wave (km/s) = 6.36692 7.11490 6.75127
#
# Compressibility (1/GPa) = 0.01973397
#
# Stress axis : x y z
#
# Youngs Moduli (GPa) = 49.84189 81.98617 153.75577
#
# Poissons Ratio (x) = 0.42978 0.24541
# Poissons Ratio (y) = 0.26127 0.41162
# Poissons Ratio (z) = 0.07955 0.21948
#
# Static dielectric constant tensor:
#      x y z
#    x 1.877410 0.000000 0.005670 
#    y 0.000000 1.971550 0.000000 
#    z 0.005670 0.000000 1.883510 
# 
# From -- ./inp_files/14209.got.cif
#   From: 2010.05.17/outbox.cif.g08.bks.cpg/sg4_8_cif.got.tgz:14209.got - 2010.06.03 18:43:04.
