data_PCOD9116160
_publ_section_title
;
Structure prediction by ZEFSAII (Michael W. Deem and Ramdas Pophale) SiO2 
 PCOD9116160
Probable space group: P 21
;
_chemical_formula_sum "Si O2"
_cell_formula_units_Z 16
_cell_length_a 9.638141
_cell_length_b 9.201205
_cell_length_c 10.283359
_cell_angle_alpha 90.000000
_cell_angle_beta 135.459976
_cell_angle_gamma 90.000000
_cell_volume 639.651294
_symmetry_space_group_name_H-M "P 21"
_symmetry_group_IT_number 4
_symmetry_cell_setting 'monoclinic'
loop_
_space_group_symop_operation_xyz
x,y,z
-x,1/2+y,-z
loop_
_atom_site_type_symbol
_atom_site_label
_atom_site_fract_x
_atom_site_fract_y
_atom_site_fract_z
Si Si1 0.143782 0.292860 0.138663
Si Si2 0.471730 0.265666 0.566505
Si Si3 0.108843 0.614108 0.197179
Si Si4 0.869793 0.873683 0.286121
Si Si5 0.684351 0.035924 0.411008
Si Si6 0.384548 0.136817 0.771745
Si Si7 0.266470 0.817759 0.676221
Si Si8 0.827849 0.167149 0.129318
O O1 0.349881 0.264658 0.350857
O O2 0.115060 0.466301 0.117301
O O3 0.979120 0.229750 0.127813
O O4 0.082334 0.209487 0.966170
O O5 0.690851 0.204750 0.697203
O O6 0.468383 0.430496 0.618557
O O7 0.354307 0.172607 0.598261
O O8 0.143302 0.564315 0.368297
O O9 0.762152 0.719087 0.228330
O O10 0.102947 0.858256 0.460617
O O11 0.778942 0.951767 0.353654
O O12 0.838873 0.993888 0.155702
O O13 0.607679 0.186146 0.299043
O O14 0.376189 0.964489 0.786724
O O15 0.601956 0.199009 0.941745
O O16 0.146263 0.749040 0.716174
#
# Coordination Sequence:
#
# PCOD9116160 Si02
#       8
#     2   2   2   2   2   2   2   2
#     4  11  25  44  70  99 133 183 227 289 346 405
#     4  10  22  45  67  91 138 177 225 280 342 398
#     4  11  24  45  69  98 133 179 237 280 345 406
#     4  10  21  40  67  96 136 181 216 276 338 408
#     4   9  22  41  65  96 129 179 222 273 346 399
#     4  11  21  38  66  99 136 175 223 275 337 405
#     4  11  21  37  67  99 131 175 224 272 339 407
#     4  11  22  42  63  98 140 173 222 275 343 406
#
# _framework density 25.013628000000001
#
# number of rings (size 3 to 8) (size 9 to 14) (size 15 to 20)
#    0.000    1.500    1.250    5.250    0.000    6.000 
#    0.000    0.000    8.250    0.000    0.000    0.000 
#    0.000    0.000    0.000    0.000    0.000    0.000 
#
# Total GULP energy -89562.564437 kJ/mol
# GULP energy per Si atom -5597.660277 kJ/mol
# Density = 2.495670 g / cm^3
# Si number density = 25.013628 Si / 1000 Ang^3
#
#
#
# Elastic Constant Matrix: (Units=GPa)
#
#
# Indices 1 2 3 4 5 6 
#
# 1 83.0958 35.0123 4.1186 0.0000 2.9536 0.0000
# 2 35.0123 170.1657 42.1549 0.0000 -0.9673 0.0000
# 3 4.1186 42.1549 74.3330 0.0000 10.1448 0.0000
# 4 0.0000 0.0000 0.0000 38.5440 0.0000 1.7149
# 5 2.9536 -0.9673 10.1448 0.0000 31.8048 0.0000
# 6 0.0000 0.0000 0.0000 1.7149 0.0000 29.3715
#
#
#
# Elastic Compliance Matrix: (Units=1/GPa)
#
#
# Indices 1 2 3 4 5 6 
#
# 1 0.013322 -0.003055 0.001230 0.000000 -0.001722 0.000000
# 2 -0.003055 0.007608 -0.004407 0.000000 0.001921 0.000000
# 3 0.001230 -0.004407 0.016643 0.000000 -0.005557 0.000000
# 4 0.000000 0.000000 0.000000 0.026012 0.000000 -0.001519
# 5 -0.001722 0.001921 -0.005557 0.000000 0.033433 0.000000
# 6 0.000000 0.000000 0.000000 -0.001519 0.000000 0.034135
#
#
# Mechanical properties :
#
#
# Convention : Reuss Voigt Hill
#
# Bulk Modulus (GPa) = 39.83063 54.46290 47.14677
# Shear Modulus (GPa) = 32.89736 36.36465 34.63101
#
# Velocity S-wave (km/s) = 3.63047 3.81700 3.72490
# Velocity P-wave (km/s) = 5.79067 6.42235 6.11467
#
# Compressibility (1/GPa) = 0.02510630
#
# Stress axis : x y z
#
# Youngs Moduli (GPa) = 75.06384 131.43912 60.08628
#
# Poissons Ratio (x) = 0.40161 -0.07389
# Poissons Ratio (y) = 0.22936 0.26483
# Poissons Ratio (z) = -0.09231 0.57932
#
# Static dielectric constant tensor:
#      x y z
#    x 1.979580 0.000000 -0.088640 
#    y 0.000000 1.988550 0.000000 
#    z -0.088640 0.000000 2.000460 
# 
# From -- ./inp_files/11905.got.cif
#   From: 2010.05.17/outbox.cif.g08.bks.cpg/sg4_6_cif.got.tgz:11905.got - 2010.06.03 18:43:04.
