data_PCOD9116705
_publ_section_title
;
Structure prediction by ZEFSAII (Michael W. Deem and Ramdas Pophale) SiO2 
 PCOD9116705
Probable space group: P 21
;
_chemical_formula_sum "Si O2"
_cell_formula_units_Z 14
_cell_length_a 13.497289
_cell_length_b 7.181708
_cell_length_c 6.805966
_cell_angle_alpha 90.000000
_cell_angle_beta 81.882445
_cell_angle_gamma 90.000000
_cell_volume 653.116536
_symmetry_space_group_name_H-M "P 21"
_symmetry_group_IT_number 4
_symmetry_cell_setting 'monoclinic'
loop_
_space_group_symop_operation_xyz
x,y,z
-x,1/2+y,-z
loop_
_atom_site_type_symbol
_atom_site_label
_atom_site_fract_x
_atom_site_fract_y
_atom_site_fract_z
Si Si1 0.967925 0.718070 0.317386
Si Si2 0.819644 0.283729 0.809905
Si Si3 0.450873 0.965441 0.750695
Si Si4 0.601182 0.285843 0.840052
Si Si5 0.608009 0.659658 0.597803
Si Si6 0.081135 0.490195 0.007755
Si Si7 0.818531 0.704040 0.722017
O O1 0.939938 0.898539 0.194416
O O2 0.894159 0.692537 0.516888
O O3 0.083684 0.739814 0.353008
O O4 0.980649 0.552204 0.153476
O O5 0.713256 0.219810 0.757182
O O6 0.812548 0.503819 0.826428
O O7 0.851652 0.176766 0.999616
O O8 0.521739 0.124790 0.823827
O O9 0.378642 0.074011 0.622417
O O10 0.522834 0.816424 0.622458
O O11 0.397380 0.848427 0.934102
O O12 0.577574 0.476831 0.731565
O O13 0.708466 0.740307 0.665577
O O14 0.140489 0.349511 0.132654
#
# Coordination Sequence:
#
# PCOD9116705 Si02
#       7
#     2   2   2   2   2   2   2
#     4  10  22  41  64  95 128 168 206 266 317 374
#     4   9  23  41  64  93 129 164 216 258 314 387
#     4  12  23  44  66  96 129 169 211 272 323 379
#     4  11  23  44  68  95 127 174 209 268 329 378
#     4  11  25  41  67  96 130 162 222 268 318 386
#     4  10  22  40  62  93 133 163 211 266 308 381
#     4  11  22  43  65  92 126 174 211 262 321 381
#
# _framework density 21.435683000000001
#
# number of rings (size 3 to 8) (size 9 to 14) (size 15 to 20)
#    0.857    0.571    2.857    2.571    0.000    3.429 
#    5.143    0.000    0.000    0.000    0.000    0.000 
#    0.000    0.000    0.000    0.000    0.000    0.000 
#
# Total GULP energy -78088.334607 kJ/mol
# GULP energy per Si atom -5577.738186 kJ/mol
# Density = 2.138689 g / cm^3
# Si number density = 21.435683 Si / 1000 Ang^3
#
#
#
# Elastic Constant Matrix: (Units=GPa)
#
#
# Indices 1 2 3 4 5 6 
#
# 1 64.7684 14.1912 9.8447 0.0000 4.2332 0.0000
# 2 14.1912 76.9296 17.9710 0.0000 1.8210 0.0000
# 3 9.8447 17.9710 64.3513 0.0000 6.8443 0.0000
# 4 0.0000 0.0000 0.0000 29.3075 0.0000 10.6014
# 5 4.2332 1.8210 6.8443 0.0000 15.5083 0.0000
# 6 0.0000 0.0000 0.0000 10.6014 0.0000 32.8446
#
#
#
# Elastic Compliance Matrix: (Units=1/GPa)
#
#
# Indices 1 2 3 4 5 6 
#
# 1 0.016461 -0.002624 -0.001406 0.000000 -0.003565 0.000000
# 2 -0.002624 0.014324 -0.003668 0.000000 0.000653 0.000000
# 3 -0.001406 -0.003668 0.017515 0.000000 -0.006915 0.000000
# 4 0.000000 0.000000 0.000000 0.038631 0.000000 -0.012469
# 5 -0.003565 0.000653 -0.006915 0.000000 0.068430 0.000000
# 6 0.000000 0.000000 0.000000 -0.012469 0.000000 0.034471
#
#
# Mechanical properties :
#
#
# Convention : Reuss Voigt Hill
#
# Bulk Modulus (GPa) = 30.39200 32.22921 31.31061
# Shear Modulus (GPa) = 23.12697 26.46823 24.79760
#
# Velocity S-wave (km/s) = 3.28823 3.51775 3.40492
# Velocity P-wave (km/s) = 5.35029 5.61848 5.48602
#
# Compressibility (1/GPa) = 0.03290339
#
# Stress axis : x y z
#
# Youngs Moduli (GPa) = 60.74867 69.81111 57.09460
#
# Poissons Ratio (x) = 0.18316 0.08030
# Poissons Ratio (y) = 0.15938 0.20944
# Poissons Ratio (z) = 0.08544 0.25609
#
# Static dielectric constant tensor:
#      x y z
#    x 1.788010 0.000000 0.009450 
#    y 0.000000 1.800820 0.000000 
#    z 0.009450 0.000000 1.791540 
# 
# From -- ./inp_files/3462.got.cif
#   From: 2010.05.17/outbox.cif.g08.bks.cpg/sg4_2_cif.got.tgz:3462.got - 2010.06.03 18:43:04.
