data_PCOD9116682
_publ_section_title
;
Structure prediction by ZEFSAII (Michael W. Deem and Ramdas Pophale) SiO2 
 PCOD9116682
Probable space group: P 21
;
_chemical_formula_sum "Si O2"
_cell_formula_units_Z 16
_cell_length_a 8.400863
_cell_length_b 11.699065
_cell_length_c 14.041958
_cell_angle_alpha 90.000000
_cell_angle_beta 153.112588
_cell_angle_gamma 90.000000
_cell_volume 624.123472
_symmetry_space_group_name_H-M "P 21"
_symmetry_group_IT_number 4
_symmetry_cell_setting 'monoclinic'
loop_
_space_group_symop_operation_xyz
x,y,z
-x,1/2+y,-z
loop_
_atom_site_type_symbol
_atom_site_label
_atom_site_fract_x
_atom_site_fract_y
_atom_site_fract_z
Si Si1 0.217680 0.883780 0.786012
Si Si2 0.975732 0.349849 0.714247
Si Si3 0.595808 0.130330 0.273738
Si Si4 0.810236 0.616569 0.143763
Si Si5 0.288292 0.981485 0.273599
Si Si6 0.167979 0.349291 0.115146
Si Si7 0.811038 0.476034 0.441161
Si Si8 0.128028 0.702961 0.877250
O O1 0.175185 0.914797 0.653965
O O2 0.048606 0.767933 0.735596
O O3 0.073465 0.991473 0.766808
O O4 0.635882 0.872596 0.033164
O O5 0.905975 0.215585 0.689968
O O6 0.664208 0.415042 0.602066
O O7 0.007545 0.401193 0.626057
O O8 0.447149 0.248372 0.237894
O O9 0.519699 0.035330 0.313542
O O10 0.369607 0.115665 0.055989
O O11 0.001296 0.099338 0.465375
O O12 0.518425 0.654488 0.066639
O O13 0.081499 0.092501 0.201912
O O14 0.075358 0.883841 0.102109
O O15 0.402987 0.463831 0.255028
O O16 0.934664 0.298783 0.075772
#
# Coordination Sequence:
#
# PCOD9116682 Si02
#       8
#     2   2   2   2   2   2   2   2
#     4  11  22  43  68 104 144 189 241 303 360 426
#     4  11  23  41  68  99 141 189 234 295 360 430
#     4  11  24  42  74 104 144 192 243 303 364 439
#     4  11  20  43  68 100 143 190 238 293 368 428
#     4  11  21  45  71 103 143 194 241 300 365 424
#     4  11  23  43  68 106 148 184 245 309 362 432
#     4  12  25  42  71 105 139 193 246 297 364 439
#     4  10  22  39  74  97 140 195 234 296 363 422
#
# _framework density 25.635956
#
# number of rings (size 3 to 8) (size 9 to 14) (size 15 to 20)
#    0.000    1.000    5.000    1.500    3.500    1.000 
#    0.000    0.000    2.750    0.000    0.000    0.000 
#    0.000    0.000    0.000    0.000    0.000    0.000 
#
# Total GULP energy -89375.664819 kJ/mol
# GULP energy per Si atom -5585.979051 kJ/mol
# Density = 2.557761 g / cm^3
# Si number density = 25.635956 Si / 1000 Ang^3
#
#
#
# Elastic Constant Matrix: (Units=GPa)
#
#
# Indices 1 2 3 4 5 6 
#
# 1 121.0564 43.4233 48.9644 0.0000 -10.7930 0.0000
# 2 43.4233 105.3223 7.9612 0.0000 6.3868 0.0000
# 3 48.9644 7.9612 65.4515 0.0000 -16.6406 0.0000
# 4 0.0000 0.0000 0.0000 27.2613 0.0000 8.0100
# 5 -10.7930 6.3868 -16.6406 0.0000 40.7695 0.0000
# 6 0.0000 0.0000 0.0000 8.0100 0.0000 54.9164
#
#
#
# Elastic Compliance Matrix: (Units=1/GPa)
#
#
# Indices 1 2 3 4 5 6 
#
# 1 0.014100 -0.005106 -0.009791 0.000000 0.000536 0.000000
# 2 -0.005106 0.011613 0.001786 0.000000 -0.002442 0.000000
# 3 -0.009791 0.001786 0.024163 0.000000 0.006991 0.000000
# 4 0.000000 0.000000 0.000000 0.038325 0.000000 -0.005590
# 5 0.000536 -0.002442 0.006991 0.000000 0.027906 0.000000
# 6 0.000000 0.000000 0.000000 -0.005590 0.000000 0.019025
#
#
# Mechanical properties :
#
#
# Convention : Reuss Voigt Hill
#
# Bulk Modulus (GPa) = 42.27389 54.72533 48.49961
# Shear Modulus (GPa) = 29.54435 37.35485 33.44960
#
# Velocity S-wave (km/s) = 3.39847 3.82137 3.61611
# Velocity P-wave (km/s) = 5.65025 6.39249 6.03280
#
# Compressibility (1/GPa) = 0.02365526
#
# Stress axis : x y z
#
# Youngs Moduli (GPa) = 70.92171 86.11223 41.38537
#
# Poissons Ratio (x) = 0.43967 0.40520
# Poissons Ratio (y) = 0.36211 -0.07393
# Poissons Ratio (z) = 0.69439 -0.15382
#
# Static dielectric constant tensor:
#      x y z
#    x 2.082360 0.000000 0.060970 
#    y 0.000000 2.058440 0.000000 
#    z 0.060970 0.000000 2.091710 
# 
# From -- ./inp_files/13767.got.cif
#   From: 2010.05.17/outbox.cif.g08.bks.cpg/sg4_7_cif.got.tgz:13767.got - 2010.06.03 18:43:04.
