data_PCOD9116205
_publ_section_title
;
Structure prediction by ZEFSAII (Michael W. Deem and Ramdas Pophale) SiO2 
 PCOD9116205
Probable space group: P 21
;
_chemical_formula_sum "Si O2"
_cell_formula_units_Z 14
_cell_length_a 18.009046
_cell_length_b 5.890422
_cell_length_c 13.908486
_cell_angle_alpha 90.000000
_cell_angle_beta 157.128276
_cell_angle_gamma 90.000000
_cell_volume 573.452170
_symmetry_space_group_name_H-M "P 21"
_symmetry_group_IT_number 4
_symmetry_cell_setting 'monoclinic'
loop_
_space_group_symop_operation_xyz
x,y,z
-x,1/2+y,-z
loop_
_atom_site_type_symbol
_atom_site_label
_atom_site_fract_x
_atom_site_fract_y
_atom_site_fract_z
Si Si1 0.210200 0.681950 0.197858
Si Si2 0.911239 0.578786 0.681340
Si Si3 0.499419 0.348004 0.220073
Si Si4 0.862821 0.460062 0.424615
Si Si5 0.444618 0.059755 0.523413
Si Si6 0.695242 0.950615 0.501877
Si Si7 0.779759 0.960608 0.279799
O O1 0.410732 0.607479 0.388892
O O2 0.193475 0.602578 0.287357
O O3 0.248812 0.951645 0.249972
O O4 0.052457 0.579721 0.939786
O O5 0.713854 0.442424 0.458918
O O6 0.986949 0.492018 0.670300
O O7 0.839327 0.839625 0.598713
O O8 0.457210 0.392396 0.281792
O O9 0.527119 0.078811 0.246091
O O10 0.359614 0.458887 0.978275
O O11 0.760972 0.211323 0.306664
O O12 0.000952 0.455445 0.496952
O O13 0.749744 0.703415 0.287352
O O14 0.395614 0.268216 0.533974
#
# Coordination Sequence:
#
# PCOD9116205 Si02
#       7
#     2   2   2   2   2   2   2
#     4  11  22  41  65  94 136 184 234 284 335 411
#     4  11  26  40  66  99 140 179 226 281 353 422
#     4  10  24  42  67  98 134 178 224 284 357 416
#     4  10  24  46  72 108 132 180 235 287 359 407
#     4  10  21  41  63  95 128 177 235 276 337 398
#     4  10  24  41  63  98 133 180 226 280 345 412
#     4  10  23  47  76 100 139 176 232 298 344 424
#
# _framework density 24.413543000000001
#
# number of rings (size 3 to 8) (size 9 to 14) (size 15 to 20)
#    0.000    1.714    1.429    0.857   12.000    1.143 
#    2.571    0.000    0.000    0.000    0.000    0.000 
#    0.000    0.000    0.000    0.000    0.000    0.000 
#
# Total GULP energy -78029.762759 kJ/mol
# GULP energy per Si atom -5573.554483 kJ/mol
# Density = 2.435798 g / cm^3
# Si number density = 24.413543 Si / 1000 Ang^3
#
#
#
# Elastic Constant Matrix: (Units=GPa)
#
#
# Indices 1 2 3 4 5 6 
#
# 1 49.9252 25.8335 17.7479 0.0000 -10.9474 0.0000
# 2 25.8335 146.6119 43.7728 0.0000 -13.3424 0.0000
# 3 17.7479 43.7728 101.3836 0.0000 -21.3683 0.0000
# 4 0.0000 0.0000 0.0000 32.1187 0.0000 -11.2294
# 5 -10.9474 -13.3424 -21.3683 0.0000 34.4201 0.0000
# 6 0.0000 0.0000 0.0000 -11.2294 0.0000 31.2431
#
#
#
# Elastic Compliance Matrix: (Units=1/GPa)
#
#
# Indices 1 2 3 4 5 6 
#
# 1 0.023386 -0.003160 -0.001634 0.000000 0.005199 0.000000
# 2 -0.003160 0.008292 -0.002947 0.000000 0.000380 0.000000
# 3 -0.001634 -0.002947 0.012738 0.000000 0.006246 0.000000
# 4 0.000000 0.000000 0.000000 0.035609 0.000000 0.012799
# 5 0.005199 0.000380 0.006246 0.000000 0.034731 0.000000
# 6 0.000000 0.000000 0.000000 0.012799 0.000000 0.036607
#
#
# Mechanical properties :
#
#
# Convention : Reuss Voigt Hill
#
# Bulk Modulus (GPa) = 34.56024 52.51435 43.53730
# Shear Modulus (GPa) = 28.33033 33.59415 30.96224
#
# Velocity S-wave (km/s) = 3.41021 3.71353 3.56510
# Velocity P-wave (km/s) = 5.44913 6.32014 5.90072
#
# Compressibility (1/GPa) = 0.02893498
#
# Stress axis : x y z
#
# Youngs Moduli (GPa) = 42.76110 120.60004 78.50308
#
# Poissons Ratio (x) = 0.38106 0.12827
# Poissons Ratio (y) = 0.13511 0.23134
# Poissons Ratio (z) = 0.06987 0.35539
#
# Static dielectric constant tensor:
#      x y z
#    x 1.943250 0.000000 0.007980 
#    y 0.000000 2.233880 0.000000 
#    z 0.007980 0.000000 1.933160 
# 
# From -- ./inp_files/8949.got.cif
#   From: 2010.05.17/outbox.cif.g08.bks.cpg/sg4_5_cif.got.tgz:8949.got - 2010.06.03 18:43:04.
