data_PCOD9116717
_publ_section_title
;
Structure prediction by ZEFSAII (Michael W. Deem and Ramdas Pophale) SiO2 
 PCOD9116717
Probable space group: P 21
;
_chemical_formula_sum "Si O2"
_cell_formula_units_Z 16
_cell_length_a 19.977974
_cell_length_b 5.297639
_cell_length_c 6.491544
_cell_angle_alpha 90.000000
_cell_angle_beta 81.091541
_cell_angle_gamma 90.000000
_cell_volume 678.751912
_symmetry_space_group_name_H-M "P 21"
_symmetry_group_IT_number 4
_symmetry_cell_setting 'monoclinic'
loop_
_space_group_symop_operation_xyz
x,y,z
-x,1/2+y,-z
loop_
_atom_site_type_symbol
_atom_site_label
_atom_site_fract_x
_atom_site_fract_y
_atom_site_fract_z
Si Si1 0.143884 0.291010 0.724858
Si Si2 0.004698 0.716800 0.120854
Si Si3 0.154928 0.791314 0.007315
Si Si4 0.768420 0.002381 0.681019
Si Si5 0.593866 0.313000 0.103878
Si Si6 0.536787 0.043203 0.772356
Si Si7 0.346374 0.765807 0.529738
Si Si8 0.657456 0.661124 0.747419
O O1 0.063508 0.254455 0.717324
O O2 0.179839 0.347953 0.488855
O O3 0.154307 0.547787 0.854072
O O4 0.164105 0.045244 0.860174
O O5 0.079924 0.800110 0.148057
O O6 0.007632 0.421117 0.058365
O O7 0.202763 0.709924 0.175645
O O8 0.712337 0.113930 0.552111
O O9 0.719295 0.807194 0.820060
O O10 0.541581 0.504991 0.237581
O O11 0.643501 0.192288 0.242125
O O12 0.543051 0.134219 0.005214
O O13 0.639451 0.438900 0.910622
O O14 0.578271 0.225789 0.601998
O O15 0.588098 0.809937 0.747494
O O16 0.325487 0.050395 0.485487
#
# Coordination Sequence:
#
# PCOD9116717 Si02
#       8
#     2   2   2   2   2   2   2   2
#     4  10  23  42  75 104 144 195 243 299 372 428
#     4   8  16  38  65 105 139 180 241 297 357 419
#     4  10  23  43  74 102 147 195 238 310 359 425
#     4  11  26  46  66 104 141 187 245 281 363 450
#     4  11  22  42  69  91 128 172 215 291 360 414
#     4  10  22  40  63  95 120 162 223 277 351 422
#     4  10  26  41  63  96 133 170 228 289 346 435
#     4  10  24  44  61  95 132 165 229 282 338 443
#
# _framework density 23.572678
#
# number of rings (size 3 to 8) (size 9 to 14) (size 15 to 20)
#    0.000    2.000    1.250    0.000    5.250    6.000 
#    0.000    7.500    0.000    0.000    0.000    0.000 
#    0.000    0.000    0.000    0.000    0.000    0.000 
#
# Total GULP energy -89136.563213 kJ/mol
# GULP energy per Si atom -5571.035201 kJ/mol
# Density = 2.351903 g / cm^3
# Si number density = 23.572678 Si / 1000 Ang^3
#
#
#
# Elastic Constant Matrix: (Units=GPa)
#
#
# Indices 1 2 3 4 5 6 
#
# 1 82.5878 14.3045 22.4020 0.0000 -8.7737 0.0000
# 2 14.3045 96.7227 19.5981 0.0000 -5.8607 0.0000
# 3 22.4020 19.5981 55.2581 0.0000 2.1798 0.0000
# 4 0.0000 0.0000 0.0000 17.8075 0.0000 3.1522
# 5 -8.7737 -5.8607 2.1798 0.0000 27.0858 0.0000
# 6 0.0000 0.0000 0.0000 3.1522 0.0000 29.7486
#
#
#
# Elastic Compliance Matrix: (Units=1/GPa)
#
#
# Indices 1 2 3 4 5 6 
#
# 1 0.014312 -0.000647 -0.005768 0.000000 0.004960 0.000000
# 2 -0.000647 0.011375 -0.003873 0.000000 0.002563 0.000000
# 3 -0.005768 -0.003873 0.021986 0.000000 -0.004476 0.000000
# 4 0.000000 0.000000 0.000000 0.057229 0.000000 -0.006064
# 5 0.004960 0.002563 -0.004476 0.000000 0.039441 0.000000
# 6 0.000000 0.000000 0.000000 -0.006064 0.000000 0.034258
#
#
# Mechanical properties :
#
#
# Convention : Reuss Voigt Hill
#
# Bulk Modulus (GPa) = 36.90681 38.57531 37.74106
# Shear Modulus (GPa) = 24.01433 26.81266 25.41349
#
# Velocity S-wave (km/s) = 3.19523 3.37626 3.28699
# Velocity P-wave (km/s) = 5.41325 5.62128 5.51824
#
# Compressibility (1/GPa) = 0.02709527
#
# Stress axis : x y z
#
# Youngs Moduli (GPa) = 69.87128 87.91519 45.48449
#
# Poissons Ratio (x) = 0.05691 0.26237
# Poissons Ratio (y) = 0.04523 0.17615
# Poissons Ratio (z) = 0.40304 0.34048
#
# Static dielectric constant tensor:
#      x y z
#    x 1.903030 0.000000 -0.028790 
#    y 0.000000 2.088890 0.000000 
#    z -0.028790 0.000000 1.943420 
# 
# From -- ./inp_files/4275.got.cif
#   From: 2010.05.17/outbox.cif.g08.bks.cpg/sg4_3_cif.got.tgz:4275.got - 2010.06.03 18:43:04.
