data_PCOD9116059
_publ_section_title
;
Structure prediction by ZEFSAII (Michael W. Deem and Ramdas Pophale) SiO2 
 PCOD9116059
Probable space group: P 21
;
_chemical_formula_sum "Si O2"
_cell_formula_units_Z 12
_cell_length_a 8.391287
_cell_length_b 5.326842
_cell_length_c 15.901378
_cell_angle_alpha 90.000000
_cell_angle_beta 139.696128
_cell_angle_gamma 90.000000
_cell_volume 459.759705
_symmetry_space_group_name_H-M "P 21"
_symmetry_group_IT_number 4
_symmetry_cell_setting 'monoclinic'
loop_
_space_group_symop_operation_xyz
x,y,z
-x,1/2+y,-z
loop_
_atom_site_type_symbol
_atom_site_label
_atom_site_fract_x
_atom_site_fract_y
_atom_site_fract_z
Si Si1 0.016627 0.619700 0.954657
Si Si2 0.733917 0.967175 0.314435
Si Si3 0.825096 0.990445 0.611243
Si Si4 0.514614 0.344407 0.954113
Si Si5 0.788283 0.475213 0.385851
Si Si6 0.732053 0.490771 0.675328
O O1 0.830686 0.526876 0.808167
O O2 0.254001 0.731166 0.002394
O O3 0.074446 0.363707 0.029546
O O4 0.674107 0.937755 0.193511
O O5 0.631324 0.724082 0.320768
O O6 0.023441 0.971714 0.460274
O O7 0.639325 0.225530 0.313698
O O8 0.834578 0.732088 0.665884
O O9 0.561501 0.998713 0.458348
O O10 0.041365 0.991437 0.629325
O O11 0.825274 0.229705 0.672570
O O12 0.577000 0.599426 0.030702
#
# Coordination Sequence:
#
# PCOD9116059 Si02
#       6
#     2   2   2   2   2   2
#     4  12  28  50  74 104 146 198 241 296 358 432
#     4  10  23  41  62 101 132 176 234 284 356 418
#     4  10  21  39  67  97 130 175 224 297 351 414
#     4  12  28  48  75 106 146 196 243 297 356 430
#     4  10  21  39  67  94 132 174 223 296 353 412
#     4  10  23  41  65 100 132 175 237 284 356 418
#
# _framework density 26.100588999999999
#
# number of rings (size 3 to 8) (size 9 to 14) (size 15 to 20)
#    0.000    1.333    0.000    4.000    9.333    0.000 
#    6.000    0.000    0.000    0.000    0.000    0.000 
#    0.000    0.000    0.000    0.000    0.000    0.000 
#
# Total GULP energy -67278.821504 kJ/mol
# GULP energy per Si atom -5606.568459 kJ/mol
# Density = 2.604118 g / cm^3
# Si number density = 26.100589 Si / 1000 Ang^3
#
#
#
# Elastic Constant Matrix: (Units=GPa)
#
#
# Indices 1 2 3 4 5 6 
#
# 1 96.0992 49.6507 55.1539 0.0000 -2.5005 0.0000
# 2 49.6507 282.0387 94.3906 0.0000 -33.3569 0.0000
# 3 55.1539 94.3906 182.2844 0.0000 -30.2753 0.0000
# 4 0.0000 0.0000 0.0000 44.7061 0.0000 -15.4831
# 5 -2.5005 -33.3569 -30.2753 0.0000 38.0865 0.0000
# 6 0.0000 0.0000 0.0000 -15.4831 0.0000 52.7105
#
#
#
# Elastic Compliance Matrix: (Units=1/GPa)
#
#
# Indices 1 2 3 4 5 6 
#
# 1 0.013271 -0.001462 -0.003832 0.000000 -0.003456 0.000000
# 2 -0.001462 0.004631 -0.001495 0.000000 0.002771 0.000000
# 3 -0.003832 -0.001495 0.008250 0.000000 0.004996 0.000000
# 4 0.000000 0.000000 0.000000 0.024902 0.000000 0.007315
# 5 -0.003456 0.002771 0.004996 0.000000 0.032428 0.000000
# 6 0.000000 0.000000 0.000000 0.007315 0.000000 0.021120
#
#
# Mechanical properties :
#
#
# Convention : Reuss Voigt Hill
#
# Bulk Modulus (GPa) = 79.54166 106.53473 93.03820
# Shear Modulus (GPa) = 40.85900 51.18242 46.02071
#
# Velocity S-wave (km/s) = 3.96086 4.43309 4.20361
# Velocity P-wave (km/s) = 7.17350 8.19198 7.69960
#
# Compressibility (1/GPa) = 0.01257203
#
# Stress axis : x y z
#
# Youngs Moduli (GPa) = 75.35282 215.92128 121.21839
#
# Poissons Ratio (x) = 0.31578 0.46451
# Poissons Ratio (y) = 0.11020 0.18127
# Poissons Ratio (z) = 0.28875 0.32288
#
# Static dielectric constant tensor:
#      x y z
#    x 2.036190 0.000000 -0.001330 
#    y 0.000000 2.152480 0.000000 
#    z -0.001330 0.000000 2.035000 
# 
# From -- ./inp_files/13625.got.cif
#   From: 2010.05.17/outbox.cif.g08.bks.cpg/sg4_7_cif.got.tgz:13625.got - 2010.06.03 18:43:04.
