data_PCOD9116729
_publ_section_title
;
Structure prediction by ZEFSAII (Michael W. Deem and Ramdas Pophale) SiO2 
 PCOD9116729
Probable space group: P 21
;
_chemical_formula_sum "Si O2"
_cell_formula_units_Z 14
_cell_length_a 7.646355
_cell_length_b 16.810162
_cell_length_c 7.047499
_cell_angle_alpha 90.000000
_cell_angle_beta 39.937443
_cell_angle_gamma 90.000000
_cell_volume 581.517984
_symmetry_space_group_name_H-M "P 21"
_symmetry_group_IT_number 4
_symmetry_cell_setting 'monoclinic'
loop_
_space_group_symop_operation_xyz
x,y,z
-x,1/2+y,-z
loop_
_atom_site_type_symbol
_atom_site_label
_atom_site_fract_x
_atom_site_fract_y
_atom_site_fract_z
Si Si1 0.430659 0.667550 0.450811
Si Si2 0.769872 0.859824 0.013303
Si Si3 0.853343 0.708832 0.781301
Si Si4 0.552636 0.575785 0.829450
Si Si5 0.987508 0.028303 0.838998
Si Si6 0.407883 0.000647 0.788886
Si Si7 0.644595 0.329280 0.325893
O O1 0.425856 0.570981 0.461759
O O2 0.425018 0.734386 0.623182
O O3 0.169712 0.690037 0.539771
O O4 0.705869 0.685231 0.103311
O O5 0.794337 0.801819 0.815026
O O6 0.824011 0.949633 0.920141
O O7 0.027868 0.835361 0.932437
O O8 0.489523 0.850288 0.357926
O O9 0.705243 0.657372 0.750057
O O10 0.750224 0.535943 0.511806
O O11 0.245784 0.591649 0.012734
O O12 0.564046 0.526016 0.016580
O O13 0.108369 0.016155 0.947861
O O14 0.457556 0.906101 0.711639
#
# Coordination Sequence:
#
# PCOD9116729 Si02
#       7
#     2   2   2   2   2   2   2
#     4   9  18  33  58  87 113 153 200 235 289 355
#     4   9  18  35  58  83 115 154 192 238 291 343
#     4   9  18  35  58  83 115 154 192 238 291 343
#     4  11  23  38  60  90 117 151 199 240 290 358
#     4  11  23  38  60  90 117 151 199 240 290 358
#     4  10  22  40  64  86 122 160 190 248 302 334
#     4   9  18  33  58  87 113 153 200 235 289 355
#
# _framework density 24.074921
#
# number of rings (size 3 to 8) (size 9 to 14) (size 15 to 20)
#    0.000    2.286    0.000    3.429    0.000   10.286 
#    0.000    1.429    0.000   13.714    0.000    0.000 
#    0.000    0.000    0.000    0.000    0.000    0.000 
#
# Total GULP energy -78020.650251 kJ/mol
# GULP energy per Si atom -5572.903589 kJ/mol
# Density = 2.402013 g / cm^3
# Si number density = 24.074921 Si / 1000 Ang^3
#
#
#
# Elastic Constant Matrix: (Units=GPa)
#
#
# Indices 1 2 3 4 5 6 
#
# 1 102.7118 19.5708 30.4927 0.0000 -5.9381 0.0000
# 2 19.5708 87.5292 16.0886 0.0000 0.9000 0.0000
# 3 30.4927 16.0886 89.4894 0.0000 -14.2972 0.0000
# 4 0.0000 0.0000 0.0000 37.0881 0.0000 -4.8137
# 5 -5.9381 0.9000 -14.2972 0.0000 24.2563 0.0000
# 6 0.0000 0.0000 0.0000 -4.8137 0.0000 25.6424
#
#
#
# Elastic Compliance Matrix: (Units=1/GPa)
#
#
# Indices 1 2 3 4 5 6 
#
# 1 0.011129 -0.001887 -0.003319 0.000000 0.000838 0.000000
# 2 -0.001887 0.012212 -0.001875 0.000000 -0.002020 0.000000
# 3 -0.003319 -0.001875 0.013826 0.000000 0.007406 0.000000
# 4 0.000000 0.000000 0.000000 0.027636 0.000000 0.005188
# 5 0.000838 -0.002020 0.007406 0.000000 0.045872 0.000000
# 6 0.000000 0.000000 0.000000 0.005188 0.000000 0.039972
#
#
# Mechanical properties :
#
#
# Convention : Reuss Voigt Hill
#
# Bulk Modulus (GPa) = 43.46959 45.78162 44.62561
# Shear Modulus (GPa) = 28.98913 31.63591 30.31252
#
# Velocity S-wave (km/s) = 3.47381 3.62893 3.55222
# Velocity P-wave (km/s) = 5.84679 6.05115 5.94985
#
# Compressibility (1/GPa) = 0.02300459
#
# Stress axis : x y z
#
# Youngs Moduli (GPa) = 89.85258 81.88572 72.32819
#
# Poissons Ratio (x) = 0.15452 0.24006
# Poissons Ratio (y) = 0.16955 0.13564
# Poissons Ratio (z) = 0.29823 0.15356
#
# Static dielectric constant tensor:
#      x y z
#    x 1.960890 0.000000 -0.000980 
#    y 0.000000 2.076570 0.000000 
#    z -0.000980 0.000000 1.900470 
# 
# From -- ./inp_files/2012.got.cif
#   From: 2010.05.17/outbox.cif.g08.bks.cpg/sg4_2_cif.got.tgz:2012.got - 2010.06.03 18:43:04.
