data_PCOD9116952
_publ_section_title
;
Structure prediction by ZEFSAII (Michael W. Deem and Ramdas Pophale) SiO2 
 PCOD9116952
Probable space group: P 21
;
_chemical_formula_sum "Si O2"
_cell_formula_units_Z 16
_cell_length_a 7.291767
_cell_length_b 14.964332
_cell_length_c 6.383402
_cell_angle_alpha 90.000000
_cell_angle_beta 114.455409
_cell_angle_gamma 90.000000
_cell_volume 634.043560
_symmetry_space_group_name_H-M "P 21"
_symmetry_group_IT_number 4
_symmetry_cell_setting 'monoclinic'
loop_
_space_group_symop_operation_xyz
x,y,z
-x,1/2+y,-z
loop_
_atom_site_type_symbol
_atom_site_label
_atom_site_fract_x
_atom_site_fract_y
_atom_site_fract_z
Si Si1 0.054428 0.347060 0.258740
Si Si2 0.437452 0.103380 0.784087
Si Si3 0.595089 0.433939 0.526194
Si Si4 0.443128 0.313351 0.150627
Si Si5 0.001204 0.998952 0.067375
Si Si6 0.856874 0.194487 0.918855
Si Si7 0.147487 0.235882 0.697711
Si Si8 0.598247 0.972043 0.150066
O O1 0.242793 0.328274 0.194923
O O2 0.112504 0.315673 0.519077
O O3 0.889710 0.273814 0.101828
O O4 0.005072 0.448050 0.162359
O O5 0.451140 0.011469 0.660491
O O6 0.222237 0.145879 0.621907
O O7 0.626563 0.163418 0.801359
O O8 0.483048 0.063746 0.038360
O O9 0.598689 0.337715 0.411141
O O10 0.802928 0.457745 0.734148
O O11 0.421697 0.449076 0.617281
O O12 0.346465 0.241684 0.944618
O O13 0.502871 0.387723 0.009738
O O14 0.813887 0.977739 0.135685
O O15 0.985505 0.105235 0.034742
O O16 0.953564 0.225271 0.747444
#
# Coordination Sequence:
#
# PCOD9116952 Si02
#       8
#     2   2   2   2   2   2   2   2
#     4  10  22  42  66  94 131 173 219 270 324 391
#     4  10  23  39  63  96 126 167 219 266 325 394
#     4  11  21  40  68  96 126 168 218 266 325 395
#     4   9  21  39  62  92 125 163 212 263 317 384
#     4  10  22  43  68  99 133 170 219 269 329 396
#     4  10  23  43  64  98 133 167 221 270 326 396
#     4  11  22  43  65  90 133 175 211 271 328 376
#     4   9  20  41  62  89 127 163 207 267 322 376
#
# _framework density 25.234860999999999
#
# number of rings (size 3 to 8) (size 9 to 14) (size 15 to 20)
#    0.000    2.000    0.000    3.000    0.000    6.000 
#    0.000   28.750    0.000    0.000    0.000    0.000 
#    0.000    0.000    0.000    0.000    0.000    0.000 
#
# Total GULP energy -89221.767232 kJ/mol
# GULP energy per Si atom -5576.360452 kJ/mol
# Density = 2.517742 g / cm^3
# Si number density = 25.234861 Si / 1000 Ang^3
#
#
#
# Elastic Constant Matrix: (Units=GPa)
#
#
# Indices 1 2 3 4 5 6 
#
# 1 60.0755 13.3219 10.4680 0.0000 17.5434 0.0000
# 2 13.3219 78.3178 14.0455 0.0000 2.0555 0.0000
# 3 10.4680 14.0455 64.1022 0.0000 -0.7388 0.0000
# 4 0.0000 0.0000 0.0000 26.9881 0.0000 5.9968
# 5 17.5434 2.0555 -0.7388 0.0000 32.1650 0.0000
# 6 0.0000 0.0000 0.0000 5.9968 0.0000 34.1088
#
#
#
# Elastic Compliance Matrix: (Units=1/GPa)
#
#
# Indices 1 2 3 4 5 6 
#
# 1 0.021105 -0.002757 -0.002974 0.000000 -0.011403 0.000000
# 2 -0.002757 0.013678 -0.002540 0.000000 0.000571 0.000000
# 3 -0.002974 -0.002540 0.016667 0.000000 0.002167 0.000000
# 4 0.000000 0.000000 0.000000 0.038560 0.000000 -0.006779
# 5 -0.011403 0.000571 0.002167 0.000000 0.037323 0.000000
# 6 0.000000 0.000000 0.000000 -0.006779 0.000000 0.030510
#
#
# Mechanical properties :
#
#
# Convention : Reuss Voigt Hill
#
# Bulk Modulus (GPa) = 28.64674 30.90739 29.77706
# Shear Modulus (GPa) = 26.87858 29.62970 28.25414
#
# Velocity S-wave (km/s) = 3.26718 3.43032 3.34974
# Velocity P-wave (km/s) = 5.06057 5.28809 5.17558
#
# Compressibility (1/GPa) = 0.03490799
#
# Stress axis : x y z
#
# Youngs Moduli (GPa) = 47.38128 73.10965 59.99787
#
# Poissons Ratio (x) = 0.20159 0.17842
# Poissons Ratio (y) = 0.13065 0.15240
# Poissons Ratio (z) = 0.14090 0.18571
#
# Static dielectric constant tensor:
#      x y z
#    x 2.015940 0.000000 0.042880 
#    y 0.000000 2.214020 0.000000 
#    z 0.042880 0.000000 2.102900 
# 
# From -- ./inp_files/1679.got.cif
#   From: 2010.05.17/outbox.cif.g08.bks.cpg/sg4_1_cif.got.tgz:1679.got - 2010.06.03 18:43:04.
