data_PCOD9116155
_publ_section_title
;
Structure prediction by ZEFSAII (Michael W. Deem and Ramdas Pophale) SiO2 
 PCOD9116155
Probable space group: P 21
;
_chemical_formula_sum "Si O2"
_cell_formula_units_Z 16
_cell_length_a 12.919835
_cell_length_b 10.998773
_cell_length_c 11.637650
_cell_angle_alpha 90.000000
_cell_angle_beta 157.460496
_cell_angle_gamma 90.000000
_cell_volume 633.911097
_symmetry_space_group_name_H-M "P 21"
_symmetry_group_IT_number 4
_symmetry_cell_setting 'monoclinic'
loop_
_space_group_symop_operation_xyz
x,y,z
-x,1/2+y,-z
loop_
_atom_site_type_symbol
_atom_site_label
_atom_site_fract_x
_atom_site_fract_y
_atom_site_fract_z
Si Si1 0.473174 0.721150 0.535282
Si Si2 0.486765 0.756729 0.993958
Si Si3 0.048174 0.092365 0.060640
Si Si4 0.249299 0.429324 0.071360
Si Si5 0.499427 0.075102 0.202816
Si Si6 0.005729 0.211606 0.354973
Si Si7 0.024320 0.932291 0.812010
Si Si8 0.241222 0.944060 0.569972
O O1 0.159507 0.696920 0.194307
O O2 0.600409 0.853703 0.674243
O O3 0.537307 0.667643 0.727804
O O4 0.651888 0.645407 0.628212
O O5 0.511616 0.650861 0.924302
O O6 0.348400 0.870141 0.788696
O O7 0.289992 0.713956 0.893679
O O8 0.783104 0.782489 0.346154
O O9 0.914601 0.036268 0.035433
O O10 0.056360 0.984560 0.973198
O O11 0.496613 0.459868 0.241646
O O12 0.003027 0.370232 0.744433
O O13 0.779740 0.008437 0.509009
O O14 0.277554 0.972494 0.995159
O O15 0.011554 0.288772 0.242897
O O16 0.115768 0.074967 0.467668
#
# Coordination Sequence:
#
# PCOD9116155 Si02
#       8
#     2   2   2   2   2   2   2   2
#     4  10  21  41  63  99 130 173 233 281 333 402
#     4  12  26  44  70 100 133 187 234 284 349 420
#     4  10  23  40  68 101 133 182 229 273 348 416
#     4  12  24  45  72 100 141 184 228 293 353 411
#     4  10  21  40  67  91 127 174 229 288 316 409
#     4  12  28  45  68 102 144 181 224 293 364 414
#     4  10  23  42  66  99 137 171 229 281 345 403
#     4  12  28  47  68 106 141 178 240 289 358 419
#
# _framework density 25.240133
#
# number of rings (size 3 to 8) (size 9 to 14) (size 15 to 20)
#    0.000    1.000    1.250    4.500    8.750    2.000 
#    0.000    2.500    0.000    0.000    0.000    0.000 
#    0.000    0.000    0.000    0.000    0.000    0.000 
#
# Total GULP energy -89673.749865 kJ/mol
# GULP energy per Si atom -5604.609367 kJ/mol
# Density = 2.518269 g / cm^3
# Si number density = 25.240133 Si / 1000 Ang^3
#
#
#
# Elastic Constant Matrix: (Units=GPa)
#
#
# Indices 1 2 3 4 5 6 
#
# 1 68.1638 16.3653 18.9367 0.0000 25.8677 0.0000
# 2 16.3653 112.6924 12.1458 0.0000 20.4137 0.0000
# 3 18.9367 12.1458 114.2808 0.0000 32.3295 0.0000
# 4 0.0000 0.0000 0.0000 36.5460 0.0000 -1.2410
# 5 25.8677 20.4137 32.3295 0.0000 68.7193 0.0000
# 6 0.0000 0.0000 0.0000 -1.2410 0.0000 39.5494
#
#
#
# Elastic Compliance Matrix: (Units=1/GPa)
#
#
# Indices 1 2 3 4 5 6 
#
# 1 0.017457 -0.001394 -0.001157 0.000000 -0.005613 0.000000
# 2 -0.001394 0.009495 -0.000148 0.000000 -0.002226 0.000000
# 3 -0.001157 -0.000148 0.010177 0.000000 -0.004308 0.000000
# 4 0.000000 0.000000 0.000000 0.027392 0.000000 0.000860
# 5 -0.005613 -0.002226 -0.004308 0.000000 0.019353 0.000000
# 6 0.000000 0.000000 0.000000 0.000860 0.000000 0.025312
#
#
# Mechanical properties :
#
#
# Convention : Reuss Voigt Hill
#
# Bulk Modulus (GPa) = 31.51483 43.33694 37.42589
# Shear Modulus (GPa) = 39.94901 45.47557 42.71229
#
# Velocity S-wave (km/s) = 3.98270 4.24927 4.11814
# Velocity P-wave (km/s) = 5.80193 6.42512 6.12146
#
# Compressibility (1/GPa) = 0.03173109
#
# Stress axis : x y z
#
# Youngs Moduli (GPa) = 57.28517 105.31451 98.26497
#
# Poissons Ratio (x) = 0.14677 0.11365
# Poissons Ratio (y) = 0.07983 0.01459
# Poissons Ratio (z) = 0.06626 0.01563
#
# Static dielectric constant tensor:
#      x y z
#    x 1.988420 0.000000 -0.074770 
#    y 0.000000 2.063510 0.000000 
#    z -0.074770 0.000000 1.936950 
# 
# From -- ./inp_files/12292.got.cif
#   From: 2010.05.17/outbox.cif.g08.bks.cpg/sg4_7_cif.got.tgz:12292.got - 2010.06.03 18:43:04.
