data_PCOD9116495
_publ_section_title
;
Structure prediction by ZEFSAII (Michael W. Deem and Ramdas Pophale) SiO2 
 PCOD9116495
Probable space group: P 21
;
_chemical_formula_sum "Si O2"
_cell_formula_units_Z 16
_cell_length_a 10.452979
_cell_length_b 11.533373
_cell_length_c 7.887901
_cell_angle_alpha 90.000000
_cell_angle_beta 39.825522
_cell_angle_gamma 90.000000
_cell_volume 609.037957
_symmetry_space_group_name_H-M "P 21"
_symmetry_group_IT_number 4
_symmetry_cell_setting 'monoclinic'
loop_
_space_group_symop_operation_xyz
x,y,z
-x,1/2+y,-z
loop_
_atom_site_type_symbol
_atom_site_label
_atom_site_fract_x
_atom_site_fract_y
_atom_site_fract_z
Si Si1 0.865631 0.785280 0.670011
Si Si2 0.252066 0.115768 0.445907
Si Si3 0.480454 0.517126 0.135411
Si Si4 0.944978 0.084953 0.328022
Si Si5 0.183260 0.790529 0.787277
Si Si6 0.873773 0.959982 0.922567
Si Si7 0.800736 0.357801 0.880302
Si Si8 0.526691 0.509960 0.482490
O O1 0.783985 0.747909 0.571745
O O2 0.769029 0.881541 0.883520
O O3 0.898138 0.665887 0.734159
O O4 0.089078 0.826836 0.403785
O O5 0.348419 0.098509 0.530407
O O6 0.406395 0.068983 0.144099
O O7 0.040494 0.046360 0.673273
O O8 0.246578 0.544604 0.368411
O O9 0.529151 0.550365 0.284447
O O10 0.578519 0.390072 0.051644
O O11 0.855081 0.172929 0.278845
O O12 0.073467 0.967755 0.169935
O O13 0.002886 0.870206 0.902777
O O14 0.371953 0.881802 0.587292
O O15 0.185794 0.764883 0.985097
O O16 0.695951 0.005381 0.218602
#
# Coordination Sequence:
#
# PCOD9116495 Si02
#       8
#     2   2   2   2   2   2   2   2
#     4  11  23  42  66  99 140 188 230 283 359 421
#     4  11  24  44  67 100 139 180 234 291 347 421
#     4  11  24  45  69 100 138 179 232 295 346 409
#     4  11  24  44  69 100 141 188 225 300 355 411
#     4   9  23  41  69 100 137 177 233 292 348 419
#     4  10  21  45  67  94 135 184 227 288 352 415
#     4  11  23  46  67 105 141 183 239 287 352 432
#     4  10  24  43  70 102 137 181 238 288 349 422
#
# _framework density 26.270941000000001
#
# number of rings (size 3 to 8) (size 9 to 14) (size 15 to 20)
#    0.000    1.500    2.500    0.750    5.250    4.000 
#    2.250    1.250    0.000    0.000    0.000    0.000 
#    0.000    0.000    0.000    0.000    0.000    0.000 
#
# Total GULP energy -89331.518923 kJ/mol
# GULP energy per Si atom -5583.219933 kJ/mol
# Density = 2.621115 g / cm^3
# Si number density = 26.270941 Si / 1000 Ang^3
#
#
#
# Elastic Constant Matrix: (Units=GPa)
#
#
# Indices 1 2 3 4 5 6 
#
# 1 51.6305 17.8945 11.1823 0.0000 0.3997 0.0000
# 2 17.8945 72.6792 16.6265 0.0000 -10.6600 0.0000
# 3 11.1823 16.6265 121.4650 0.0000 -13.1032 0.0000
# 4 0.0000 0.0000 0.0000 29.6344 0.0000 9.0043
# 5 0.3997 -10.6600 -13.1032 0.0000 46.1453 0.0000
# 6 0.0000 0.0000 0.0000 9.0043 0.0000 49.0523
#
#
#
# Elastic Compliance Matrix: (Units=1/GPa)
#
#
# Indices 1 2 3 4 5 6 
#
# 1 0.021510 -0.005227 -0.001460 0.000000 -0.001808 0.000000
# 2 -0.005227 0.015838 -0.001328 0.000000 0.003327 0.000000
# 3 -0.001460 -0.001328 0.008786 0.000000 0.002201 0.000000
# 4 0.000000 0.000000 0.000000 0.035738 0.000000 -0.006560
# 5 -0.001808 0.003327 0.002201 0.000000 0.023080 0.000000
# 6 0.000000 0.000000 0.000000 -0.006560 0.000000 0.021591
#
#
# Mechanical properties :
#
#
# Convention : Reuss Voigt Hill
#
# Bulk Modulus (GPa) = 33.21755 37.46458 35.34107
# Shear Modulus (GPa) = 32.76373 38.30448 35.53411
#
# Velocity S-wave (km/s) = 3.53533 3.82259 3.68176
# Velocity P-wave (km/s) = 5.41631 5.81160 5.61743
#
# Compressibility (1/GPa) = 0.03010456
#
# Stress axis : x y z
#
# Youngs Moduli (GPa) = 46.48937 63.13980 113.81237
#
# Poissons Ratio (x) = 0.33006 0.16615
# Poissons Ratio (y) = 0.24302 0.15112
# Poissons Ratio (z) = 0.06787 0.08384
#
# Static dielectric constant tensor:
#      x y z
#    x 2.116350 0.000000 0.020050 
#    y 0.000000 2.057740 0.000000 
#    z 0.020050 0.000000 2.054900 
# 
# From -- ./inp_files/8148.got.cif
#   From: 2010.05.17/outbox.cif.g08.bks.cpg/sg4_5_cif.got.tgz:8148.got - 2010.06.03 18:43:04.
