data_PCOD9116970
_publ_section_title
;
Structure prediction by ZEFSAII (Michael W. Deem and Ramdas Pophale) SiO2 
 PCOD9116970
Probable space group: P 21
;
_chemical_formula_sum "Si O2"
_cell_formula_units_Z 10
_cell_length_a 10.512264
_cell_length_b 4.813546
_cell_length_c 22.126448
_cell_angle_alpha 90.000000
_cell_angle_beta 159.244591
_cell_angle_gamma 90.000000
_cell_volume 396.772400
_symmetry_space_group_name_H-M "P 21"
_symmetry_group_IT_number 4
_symmetry_cell_setting 'monoclinic'
loop_
_space_group_symop_operation_xyz
x,y,z
-x,1/2+y,-z
loop_
_atom_site_type_symbol
_atom_site_label
_atom_site_fract_x
_atom_site_fract_y
_atom_site_fract_z
Si Si1 0.731731 0.029550 0.610670
Si Si2 0.847751 0.639750 0.464473
Si Si3 0.652248 0.639750 0.035527
Si Si4 0.231730 0.529549 0.110670
Si Si5 0.250000 0.350103 0.750000
O O1 0.372790 0.213450 0.447228
O O2 0.939598 0.070800 0.765996
O O3 0.991857 0.157140 0.675596
O O4 0.996684 0.037256 0.403421
O O5 0.439597 0.570800 0.265995
O O6 0.074955 0.459506 0.515930
O O7 0.425045 0.459507 0.984070
O O8 0.496684 0.537257 0.903422
O O9 0.491856 0.657139 0.175595
O O10 0.127211 0.213448 0.052772
#
# Coordination Sequence:
#
# PCOD9116970 Si02
#       5
#     2   2   2   2   2
#     4  11  24  43  67  98 129 166 219 263 314 388
#     4  10  22  42  67  95 128 169 216 260 316 386
#     4  10  22  42  67  95 128 169 216 260 316 386
#     4  11  24  43  67  98 129 166 219 263 314 388
#     4  10  24  46  68  90 134 176 202 270 328 360
#
# _framework density 25.203367
#
# number of rings (size 3 to 8) (size 9 to 14) (size 15 to 20)
#    0.000    1.600    0.000    4.800    0.000   16.000 
#    0.000   16.000    0.000    0.000    0.000    0.000 
#    0.000    0.000    0.000    0.000    0.000    0.000 
#
# Total GULP energy -56068.842017 kJ/mol
# GULP energy per Si atom -5606.884202 kJ/mol
# Density = 2.514600 g / cm^3
# Si number density = 25.203367 Si / 1000 Ang^3
#
#
#
# Elastic Constant Matrix: (Units=GPa)
#
#
# Indices 1 2 3 4 5 6 
#
# 1 118.4371 8.6283 28.8696 0.0000 -16.3216 0.0000
# 2 8.6283 81.5459 6.0609 0.0000 -0.0072 0.0000
# 3 28.8696 6.0609 157.1011 0.0000 -35.6438 0.0000
# 4 0.0000 0.0000 0.0000 59.9178 0.0000 3.0728
# 5 -16.3216 -0.0072 -35.6438 0.0000 41.7303 0.0000
# 6 0.0000 0.0000 0.0000 3.0728 0.0000 34.6720
#
#
#
# Elastic Compliance Matrix: (Units=1/GPa)
#
#
# Indices 1 2 3 4 5 6 
#
# 1 0.009130 -0.000889 -0.001034 0.000000 0.002688 0.000000
# 2 -0.000889 0.012393 -0.000488 0.000000 -0.000762 0.000000
# 3 -0.001034 -0.000488 0.008041 0.000000 0.006463 0.000000
# 4 0.000000 0.000000 0.000000 0.016766 0.000000 -0.001486
# 5 0.002688 -0.000762 0.006463 0.000000 0.030535 0.000000
# 6 0.000000 0.000000 0.000000 -0.001486 0.000000 0.028973
#
#
# Mechanical properties :
#
#
# Convention : Reuss Voigt Hill
#
# Bulk Modulus (GPa) = 40.41457 49.35574 44.88516
# Shear Modulus (GPa) = 42.04951 48.16568 45.10760
#
# Velocity S-wave (km/s) = 4.08905 4.37633 4.23513
# Velocity P-wave (km/s) = 6.19386 6.72026 6.46242
#
# Compressibility (1/GPa) = 0.02474355
#
# Stress axis : x y z
#
# Youngs Moduli (GPa) = 109.52347 80.68888 124.36950
#
# Poissons Ratio (x) = 0.07173 0.12856
# Poissons Ratio (y) = 0.09737 0.06065
# Poissons Ratio (z) = 0.11321 0.03935
#
# Static dielectric constant tensor:
#      x y z
#    x 2.004300 0.000000 0.021160 
#    y 0.000000 1.887440 0.000000 
#    z 0.021160 0.000000 2.011090 
# 
# From -- ./inp_files/13064.got.cif
#   From: 2010.05.17/outbox.cif.g08.bks.cpg/sg4_7_cif.got.tgz:13064.got - 2010.06.03 18:43:04.
