data_PCOD9116507
_publ_section_title
;
Structure prediction by ZEFSAII (Michael W. Deem and Ramdas Pophale) SiO2 
 PCOD9116507
Probable space group: P 21
;
_chemical_formula_sum "Si O2"
_cell_formula_units_Z 16
_cell_length_a 9.299666
_cell_length_b 12.938264
_cell_length_c 6.778142
_cell_angle_alpha 90.000000
_cell_angle_beta 132.152623
_cell_angle_gamma 90.000000
_cell_volume 604.620743
_symmetry_space_group_name_H-M "P 21"
_symmetry_group_IT_number 4
_symmetry_cell_setting 'monoclinic'
loop_
_space_group_symop_operation_xyz
x,y,z
-x,1/2+y,-z
loop_
_atom_site_type_symbol
_atom_site_label
_atom_site_fract_x
_atom_site_fract_y
_atom_site_fract_z
Si Si1 0.091580 0.314250 0.812277
Si Si2 0.564256 0.843232 0.377515
Si Si3 0.913400 0.476984 0.948537
Si Si4 0.302304 0.659626 0.974232
Si Si5 0.894004 0.685073 0.819874
Si Si6 0.794501 0.036951 0.464850
Si Si7 0.852184 0.419041 0.317037
Si Si8 0.474674 0.435374 0.231509
O O1 0.979499 0.391458 0.857635
O O2 0.971912 0.319453 0.501398
O O3 0.089564 0.209254 0.930198
O O4 0.306606 0.358398 0.996635
O O5 0.755454 0.774309 0.609764
O O6 0.638507 0.944722 0.330927
O O7 0.434178 0.758373 0.146252
O O8 0.186839 0.929476 0.951009
O O9 0.805823 0.570040 0.740724
O O10 0.514206 0.388260 0.485797
O O11 0.109132 0.526646 0.229731
O O12 0.291690 0.634759 0.728190
O O13 0.097123 0.679240 0.893626
O O14 0.391539 0.552186 0.142754
O O15 0.980470 0.006131 0.499940
O O16 0.663683 0.430422 0.271244
#
# Coordination Sequence:
#
# PCOD9116507 Si02
#       8
#     2   2   2   2   2   2   2   2
#     4  11  21  46  74 100 146 194 237 313 356 444
#     4  11  26  48  79 109 144 206 257 304 383 457
#     4  10  21  45  74 101 144 199 237 300 382 434
#     4  12  25  45  78 110 152 195 257 315 371 458
#     4  11  22  47  77 105 144 198 255 300 382 450
#     4  10  22  51  70 106 161 191 241 326 374 439
#     4  10  22  42  71 102 142 196 234 292 380 434
#     4  11  21  46  73 103 147 189 244 308 368 436
#
# _framework density 26.462869999999999
#
# number of rings (size 3 to 8) (size 9 to 14) (size 15 to 20)
#    0.750    0.500    5.000    0.750    3.500    0.000 
#   13.500    5.000    0.000    0.000    0.000    0.000 
#    0.000    0.000    0.000    0.000    0.000    0.000 
#
# Total GULP energy -89561.903226 kJ/mol
# GULP energy per Si atom -5597.618952 kJ/mol
# Density = 2.640264 g / cm^3
# Si number density = 26.462870 Si / 1000 Ang^3
#
#
#
# Elastic Constant Matrix: (Units=GPa)
#
#
# Indices 1 2 3 4 5 6 
#
# 1 185.2695 26.5972 44.3614 0.0000 9.1307 0.0000
# 2 26.5972 124.9909 30.8017 0.0000 5.4946 0.0000
# 3 44.3614 30.8017 110.9667 0.0000 -1.0199 0.0000
# 4 0.0000 0.0000 0.0000 60.3119 0.0000 -9.1969
# 5 9.1307 5.4946 -1.0199 0.0000 40.1996 0.0000
# 6 0.0000 0.0000 0.0000 -9.1969 0.0000 52.2732
#
#
#
# Elastic Compliance Matrix: (Units=1/GPa)
#
#
# Indices 1 2 3 4 5 6 
#
# 1 0.006104 -0.000682 -0.002263 0.000000 -0.001351 0.000000
# 2 -0.000682 0.008726 -0.002160 0.000000 -0.001093 0.000000
# 3 -0.002263 -0.002160 0.010526 0.000000 0.001076 0.000000
# 4 0.000000 0.000000 0.000000 0.017038 0.000000 0.002998
# 5 -0.001351 -0.001093 0.001076 0.000000 0.025359 0.000000
# 6 0.000000 0.000000 0.000000 0.002998 0.000000 0.019658
#
#
# Mechanical properties :
#
#
# Convention : Reuss Voigt Hill
#
# Bulk Modulus (GPa) = 66.02274 69.41642 67.71958
# Shear Modulus (GPa) = 48.70049 51.85472 50.27761
#
# Velocity S-wave (km/s) = 4.29456 4.43146 4.36355
# Velocity P-wave (km/s) = 7.04233 7.24378 7.14376
#
# Compressibility (1/GPa) = 0.01514630
#
# Stress axis : x y z
#
# Youngs Moduli (GPa) = 163.82915 114.60169 95.00387
#
# Poissons Ratio (x) = 0.07813 0.21503
# Poissons Ratio (y) = 0.11169 0.20517
# Poissons Ratio (z) = 0.37080 0.24749
#
# Static dielectric constant tensor:
#      x y z
#    x 2.024900 0.000000 -0.036360 
#    y 0.000000 2.022650 0.000000 
#    z -0.036360 0.000000 2.250570 
# 
# From -- ./inp_files/1795.got.cif
#   From: 2010.05.17/outbox.cif.g08.bks.cpg/sg4_1_cif.got.tgz:1795.got - 2010.06.03 18:43:04.
