data_PCOD9116401
_publ_section_title
;
Structure prediction by ZEFSAII (Michael W. Deem and Ramdas Pophale) SiO2 
 PCOD9116401
Probable space group: P 21
;
_chemical_formula_sum "Si O2"
_cell_formula_units_Z 14
_cell_length_a 7.940635
_cell_length_b 11.331838
_cell_length_c 9.142940
_cell_angle_alpha 90.000000
_cell_angle_beta 47.241099
_cell_angle_gamma 90.000000
_cell_volume 604.040314
_symmetry_space_group_name_H-M "P 21"
_symmetry_group_IT_number 4
_symmetry_cell_setting 'monoclinic'
loop_
_space_group_symop_operation_xyz
x,y,z
-x,1/2+y,-z
loop_
_atom_site_type_symbol
_atom_site_label
_atom_site_fract_x
_atom_site_fract_y
_atom_site_fract_z
Si Si1 0.767504 0.968200 0.903512
Si Si2 0.961696 0.498622 0.991802
Si Si3 0.664257 0.323425 0.861700
Si Si4 0.015367 0.209772 0.208363
Si Si5 0.778284 0.113200 0.610104
Si Si6 0.374680 0.790118 0.772096
Si Si7 0.186051 0.391282 0.595122
O O1 0.497951 0.937236 0.064754
O O2 0.887019 0.040543 0.962061
O O3 0.869481 0.836537 0.858910
O O4 0.836639 0.034334 0.715856
O O5 0.135714 0.416780 0.794419
O O6 0.866648 0.601634 0.944929
O O7 0.752960 0.417068 0.162659
O O8 0.626607 0.219769 0.765205
O O9 0.930189 0.361014 0.691165
O O10 0.622856 0.273551 0.052105
O O11 0.974959 0.176125 0.399855
O O12 0.780278 0.217144 0.251104
O O13 0.712209 0.011813 0.533247
O O14 0.630386 0.794200 0.557901
#
# Coordination Sequence:
#
# PCOD9116401 Si02
#       7
#     2   2   2   2   2   2   2
#     4  11  23  43  70 101 139 174 230 287 336 403
#     4   9  22  42  66  94 132 176 224 274 339 400
#     4  11  24  40  68  96 139 176 222 281 344 390
#     4  10  23  43  69  98 135 181 229 273 345 406
#     4  11  23  40  65 100 131 177 222 279 336 389
#     4  10  21  43  66  92 136 175 223 276 332 413
#     4  10  22  43  62  95 132 175 224 274 328 421
#
# _framework density 23.177257999999998
#
# number of rings (size 3 to 8) (size 9 to 14) (size 15 to 20)
#    0.000    1.714    1.429    1.714    4.000    1.143 
#    2.571    2.857    0.000    0.000    0.000    0.000 
#    0.000    0.000    0.000    0.000    0.000    0.000 
#
# Total GULP energy -78060.454496 kJ/mol
# GULP energy per Si atom -5575.746750 kJ/mol
# Density = 2.312451 g / cm^3
# Si number density = 23.177258 Si / 1000 Ang^3
#
#
#
# Elastic Constant Matrix: (Units=GPa)
#
#
# Indices 1 2 3 4 5 6 
#
# 1 57.5986 10.3513 55.9880 0.0000 -10.4726 0.0000
# 2 10.3513 62.1293 28.5959 0.0000 3.1932 0.0000
# 3 55.9880 28.5959 97.7885 0.0000 -3.0415 0.0000
# 4 0.0000 0.0000 0.0000 40.7388 0.0000 12.6632
# 5 -10.4726 3.1932 -3.0415 0.0000 23.8313 0.0000
# 6 0.0000 0.0000 0.0000 12.6632 0.0000 26.8742
#
#
#
# Elastic Compliance Matrix: (Units=1/GPa)
#
#
# Indices 1 2 3 4 5 6 
#
# 1 0.045565 0.003881 -0.026722 0.000000 0.016093 0.000000
# 2 0.003881 0.019175 -0.007887 0.000000 -0.001871 0.000000
# 3 -0.026722 -0.007887 0.027609 0.000000 -0.007163 0.000000
# 4 0.000000 0.000000 0.000000 0.028759 0.000000 -0.013551
# 5 0.016093 -0.001871 -0.007163 0.000000 0.048370 0.000000
# 6 0.000000 0.000000 0.000000 -0.013551 0.000000 0.043596
#
#
# Mechanical properties :
#
#
# Convention : Reuss Voigt Hill
#
# Bulk Modulus (GPa) = 32.37081 45.26520 38.81801
# Shear Modulus (GPa) = 17.55430 26.46093 22.00761
#
# Velocity S-wave (km/s) = 2.75506 3.38254 3.08480
# Velocity P-wave (km/s) = 4.91095 5.90151 5.42887
#
# Compressibility (1/GPa) = 0.03089203
#
# Stress axis : x y z
#
# Youngs Moduli (GPa) = 21.94655 52.15028 36.21949
#
# Poissons Ratio (x) = -0.20237 0.96787
# Poissons Ratio (y) = -0.08517 0.28568
# Poissons Ratio (z) = 0.58646 0.41133
#
# Static dielectric constant tensor:
#      x y z
#    x 1.924800 0.000000 -0.008430 
#    y 0.000000 1.937940 0.000000 
#    z -0.008430 0.000000 1.864180 
# 
# From -- ./inp_files/4540.got.cif
#   From: 2010.05.17/outbox.cif.g08.bks.cpg/sg4_3_cif.got.tgz:4540.got - 2010.06.03 18:43:04.
