data_PCOD9116786
_publ_section_title
;
Structure prediction by ZEFSAII (Michael W. Deem and Ramdas Pophale) SiO2 
 PCOD9116786
Probable space group: P 21
;
_chemical_formula_sum "Si O2"
_cell_formula_units_Z 14
_cell_length_a 5.078163
_cell_length_b 18.738278
_cell_length_c 5.454539
_cell_angle_alpha 90.000000
_cell_angle_beta 95.861811
_cell_angle_gamma 90.000000
_cell_volume 516.318314
_symmetry_space_group_name_H-M "P 21"
_symmetry_group_IT_number 4
_symmetry_cell_setting 'monoclinic'
loop_
_space_group_symop_operation_xyz
x,y,z
-x,1/2+y,-z
loop_
_atom_site_type_symbol
_atom_site_label
_atom_site_fract_x
_atom_site_fract_y
_atom_site_fract_z
Si Si1 0.310207 0.343950 0.153949
Si Si2 0.745716 0.734026 0.227475
Si Si3 0.676594 0.468985 0.143853
Si Si4 0.955560 0.137501 0.077408
Si Si5 0.199080 0.005589 0.345946
Si Si6 0.815280 0.270739 0.350335
Si Si7 0.453800 0.599224 0.334853
O O1 0.406285 0.425054 0.148899
O O2 0.017986 0.322080 0.214745
O O3 0.534661 0.308887 0.350657
O O4 0.364674 0.306857 0.895410
O O5 0.016502 0.752850 0.392662
O O6 0.578258 0.677719 0.370706
O O7 0.807479 0.687652 0.989950
O O8 0.852012 0.463687 0.406839
O O9 0.607225 0.553165 0.139382
O O10 0.794915 0.455391 0.888929
O O11 0.017786 0.072762 0.262569
O O12 0.779974 0.196345 0.200844
O O13 0.829160 0.108754 0.813191
O O14 0.479012 0.045980 0.436006
#
# Coordination Sequence:
#
# PCOD9116786 Si02
#       7
#     2   2   2   2   2   2   2
#     4  11  27  46  68 104 146 191 247 291 377 434
#     4  11  23  41  69 104 141 184 244 301 363 431
#     4  10  24  47  68  99 147 190 244 300 366 438
#     4  11  21  40  68 106 136 188 239 305 365 427
#     4  10  22  45  66 101 142 183 242 303 362 431
#     4  11  25  43  72 102 144 190 236 308 359 447
#     4  10  22  40  69 102 140 182 242 302 360 426
#
# _framework density 27.115054000000001
#
# number of rings (size 3 to 8) (size 9 to 14) (size 15 to 20)
#    0.857    0.571    4.286    0.000    4.000    2.286 
#    2.571    0.000    0.000    0.000    0.000    0.000 
#    0.000    0.000    0.000    0.000    0.000    0.000 
#
# Total GULP energy -78258.115662 kJ/mol
# GULP energy per Si atom -5589.865404 kJ/mol
# Density = 2.705334 g / cm^3
# Si number density = 27.115054 Si / 1000 Ang^3
#
#
#
# Elastic Constant Matrix: (Units=GPa)
#
#
# Indices 1 2 3 4 5 6 
#
# 1 75.4134 15.8026 27.7184 0.0000 15.9231 0.0000
# 2 15.8026 82.1531 31.3077 0.0000 3.5475 0.0000
# 3 27.7184 31.3077 168.4359 0.0000 5.9265 0.0000
# 4 0.0000 0.0000 0.0000 35.4307 0.0000 5.5737
# 5 15.9231 3.5475 5.9265 0.0000 45.6779 0.0000
# 6 0.0000 0.0000 0.0000 5.5737 0.0000 30.9346
#
#
#
# Elastic Compliance Matrix: (Units=1/GPa)
#
#
# Indices 1 2 3 4 5 6 
#
# 1 0.015464 -0.001998 -0.001998 0.000000 -0.004976 0.000000
# 2 -0.001998 0.013381 -0.002156 0.000000 -0.000063 0.000000
# 3 -0.001998 -0.002156 0.006667 0.000000 -0.000001 0.000000
# 4 0.000000 0.000000 0.000000 0.029047 0.000000 -0.005234
# 5 -0.004976 -0.000063 -0.000001 0.000000 0.023632 0.000000
# 6 0.000000 0.000000 0.000000 -0.005234 0.000000 0.033269
#
#
# Mechanical properties :
#
#
# Convention : Reuss Voigt Hill
#
# Bulk Modulus (GPa) = 43.09120 52.85109 47.97115
# Shear Modulus (GPa) = 35.33526 39.15354 37.24440
#
# Velocity S-wave (km/s) = 3.61385 3.80409 3.71019
# Velocity P-wave (km/s) = 5.77405 6.23126 6.00701
#
# Compressibility (1/GPa) = 0.02320659
#
# Stress axis : x y z
#
# Youngs Moduli (GPa) = 64.66568 74.73187 150.00075
#
# Poissons Ratio (x) = 0.14933 0.29975
# Poissons Ratio (y) = 0.12921 0.32343
# Poissons Ratio (z) = 0.12922 0.16113
#
# Static dielectric constant tensor:
#      x y z
#    x 2.198170 0.000000 -0.072570 
#    y 0.000000 2.053710 0.000000 
#    z -0.072570 0.000000 2.155930 
# 
# From -- ./inp_files/479.got.cif
#   From: 2010.05.17/outbox.cif.g08.bks.cpg/sg4_1_cif.got.tgz:479.got - 2010.06.03 18:43:04.
