data_PCOD9116766
_publ_section_title
;
Structure prediction by ZEFSAII (Michael W. Deem and Ramdas Pophale) SiO2 
 PCOD9116766
Probable space group: P 21
;
_chemical_formula_sum "Si O2"
_cell_formula_units_Z 14
_cell_length_a 5.975648
_cell_length_b 19.158621
_cell_length_c 5.168240
_cell_angle_alpha 90.000000
_cell_angle_beta 89.604023
_cell_angle_gamma 90.000000
_cell_volume 591.672732
_symmetry_space_group_name_H-M "P 21"
_symmetry_group_IT_number 4
_symmetry_cell_setting 'monoclinic'
loop_
_space_group_symop_operation_xyz
x,y,z
-x,1/2+y,-z
loop_
_atom_site_type_symbol
_atom_site_label
_atom_site_fract_x
_atom_site_fract_y
_atom_site_fract_z
Si Si1 0.452538 0.818050 0.096479
Si Si2 0.176158 0.534691 0.291687
Si Si3 0.635884 0.773518 0.595479
Si Si4 0.151235 0.939796 0.032999
Si Si5 0.768967 0.913895 0.404437
Si Si6 0.439446 0.075214 0.060985
Si Si7 0.796107 0.632765 0.440785
O O1 0.442670 0.780239 0.375499
O O2 0.633619 0.878403 0.169009
O O3 0.535776 0.764862 0.879550
O O4 0.247961 0.862767 0.985932
O O5 0.326988 0.485204 0.474448
O O6 0.312304 0.570912 0.059513
O O7 0.013072 0.476585 0.168200
O O8 0.028190 0.590363 0.449452
O O9 0.753520 0.849160 0.599376
O O10 0.804942 0.714718 0.498069
O O11 0.344867 0.996652 0.058939
O O12 0.012008 0.932421 0.297587
O O13 0.298424 0.116737 0.843122
O O14 0.379405 0.106305 0.340258
#
# Coordination Sequence:
#
# PCOD9116766 Si02
#       7
#     2   2   2   2   2   2   2
#     4  10  24  41  69  95 138 177 225 285 345 402
#     4  11  25  43  73 107 135 182 235 293 346 408
#     4  10  23  46  64  94 144 183 229 284 339 419
#     4  11  22  40  68 104 134 175 227 289 349 406
#     4  10  22  40  67 101 137 177 230 291 342 400
#     4  11  25  41  71  98 136 178 232 288 347 413
#     4  11  25  47  66  99 142 188 230 284 350 414
#
# _framework density 23.661732000000001
#
# number of rings (size 3 to 8) (size 9 to 14) (size 15 to 20)
#    0.857    0.571    1.429    3.429    6.000    0.000 
#    5.143    0.000    0.000    0.000    0.000    0.000 
#    0.000    0.000    0.000    0.000    0.000    0.000 
#
# Total GULP energy -78126.486548 kJ/mol
# GULP energy per Si atom -5580.463325 kJ/mol
# Density = 2.360788 g / cm^3
# Si number density = 23.661732 Si / 1000 Ang^3
#
#
#
# Elastic Constant Matrix: (Units=GPa)
#
#
# Indices 1 2 3 4 5 6 
#
# 1 41.1714 0.0711 12.6105 0.0000 -6.3597 0.0000
# 2 0.0711 41.1582 7.4282 0.0000 -3.4363 0.0000
# 3 12.6105 7.4282 104.9921 0.0000 -7.7572 0.0000
# 4 0.0000 0.0000 0.0000 33.9997 0.0000 -1.3755
# 5 -6.3597 -3.4363 -7.7572 0.0000 32.4267 0.0000
# 6 0.0000 0.0000 0.0000 -1.3755 0.0000 21.3045
#
#
#
# Elastic Compliance Matrix: (Units=1/GPa)
#
#
# Indices 1 2 3 4 5 6 
#
# 1 0.025847 0.000841 -0.002833 0.000000 0.004481 0.000000
# 2 0.000841 0.024798 -0.001679 0.000000 0.002391 0.000000
# 3 -0.002833 -0.001679 0.010108 0.000000 0.001685 0.000000
# 4 0.000000 0.000000 0.000000 0.029489 0.000000 0.001904
# 5 0.004481 0.002391 0.001685 0.000000 0.032374 0.000000
# 6 0.000000 0.000000 0.000000 0.001904 0.000000 0.047061
#
#
# Mechanical properties :
#
#
# Convention : Reuss Voigt Hill
#
# Bulk Modulus (GPa) = 18.72277 25.28238 22.00257
# Shear Modulus (GPa) = 25.66437 28.69363 27.17900
#
# Velocity S-wave (km/s) = 3.29695 3.48610 3.39285
# Velocity P-wave (km/s) = 4.73530 5.18768 4.96664
#
# Compressibility (1/GPa) = 0.05341089
#
# Stress axis : x y z
#
# Youngs Moduli (GPa) = 38.68908 40.32640 98.93139
#
# Poissons Ratio (x) = -0.03390 0.28026
# Poissons Ratio (y) = -0.03253 0.16608
# Poissons Ratio (z) = 0.10960 0.06770
#
# Static dielectric constant tensor:
#      x y z
#    x 1.954010 0.000000 0.044170 
#    y 0.000000 1.902790 0.000000 
#    z 0.044170 0.000000 1.947780 
# 
# From -- ./inp_files/647.got.cif
#   From: 2010.05.17/outbox.cif.g08.bks.cpg/sg4_1_cif.got.tgz:647.got - 2010.06.03 18:43:04.
