data_PCOD9116789
_publ_section_title
;
Structure prediction by ZEFSAII (Michael W. Deem and Ramdas Pophale) SiO2 
 PCOD9116789
Probable space group: P 21
;
_chemical_formula_sum "Si O2"
_cell_formula_units_Z 16
_cell_length_a 13.495577
_cell_length_b 5.095323
_cell_length_c 12.079443
_cell_angle_alpha 90.000000
_cell_angle_beta 135.335500
_cell_angle_gamma 90.000000
_cell_volume 583.898141
_symmetry_space_group_name_H-M "P 21"
_symmetry_group_IT_number 4
_symmetry_cell_setting 'monoclinic'
loop_
_space_group_symop_operation_xyz
x,y,z
-x,1/2+y,-z
loop_
_atom_site_type_symbol
_atom_site_label
_atom_site_fract_x
_atom_site_fract_y
_atom_site_fract_z
Si Si1 0.422047 0.545770 0.460188
Si Si2 0.179459 0.038422 0.091237
Si Si3 0.130201 0.670414 0.232560
Si Si4 0.478901 0.290376 0.250467
Si Si5 0.100911 0.403034 0.691413
Si Si6 0.083931 0.419716 0.437765
Si Si7 0.728502 0.147559 0.008128
Si Si8 0.577232 0.177652 0.093992
O O1 0.487883 0.261336 0.537758
O O2 0.264591 0.510857 0.289135
O O3 0.420633 0.726114 0.568446
O O4 0.177427 0.785634 0.007098
O O5 0.178102 0.953301 0.219713
O O6 0.027256 0.158978 0.941784
O O7 0.330650 0.154481 0.170463
O O8 0.129735 0.549598 0.357082
O O9 0.566534 0.196002 0.215775
O O10 0.419290 0.572314 0.165284
O O11 0.169220 0.447823 0.622975
O O12 0.190012 0.401820 0.874896
O O13 0.041941 0.114593 0.632130
O O14 0.979730 0.624870 0.621123
O O15 0.696022 0.280487 0.102011
O O16 0.548124 0.877983 0.039053
#
# Coordination Sequence:
#
# PCOD9116789 Si02
#       8
#     2   2   2   2   2   2   2   2
#     4  12  29  53  74 104 154 206 256 314 383 463
#     4  12  26  46  74 108 155 198 263 325 376 455
#     4  12  28  46  77 114 152 207 262 312 393 458
#     4  11  25  48  75 109 154 202 252 324 385 457
#     4  10  22  42  70 100 149 190 242 307 379 433
#     4  10  23  44  66 104 146 195 238 308 376 455
#     4  11  23  43  74 108 149 195 259 318 380 452
#     4  10  22  40  70 105 141 187 246 302 376 447
#
# _framework density 27.402038999999998
#
# number of rings (size 3 to 8) (size 9 to 14) (size 15 to 20)
#    0.000    1.000    3.750    1.500    7.000    1.000 
#    0.000    0.000    0.000    0.000    0.000    0.000 
#    0.000    0.000    0.000    0.000    0.000    0.000 
#
# Total GULP energy -89070.747625 kJ/mol
# GULP energy per Si atom -5566.921727 kJ/mol
# Density = 2.733967 g / cm^3
# Si number density = 27.402039 Si / 1000 Ang^3
#
#
#
# Elastic Constant Matrix: (Units=GPa)
#
#
# Indices 1 2 3 4 5 6 
#
# 1 140.7110 37.1071 47.5671 0.0000 -8.5296 0.0000
# 2 37.1071 92.9100 4.9378 0.0000 5.9848 0.0000
# 3 47.5671 4.9378 77.3306 0.0000 -12.4608 0.0000
# 4 0.0000 0.0000 0.0000 19.9420 0.0000 -12.2366
# 5 -8.5296 5.9848 -12.4608 0.0000 65.5624 0.0000
# 6 0.0000 0.0000 0.0000 -12.2366 0.0000 16.9572
#
#
#
# Elastic Compliance Matrix: (Units=1/GPa)
#
#
# Indices 1 2 3 4 5 6 
#
# 1 0.010128 -0.003766 -0.005902 0.000000 0.000540 0.000000
# 2 -0.003766 0.012285 0.001313 0.000000 -0.001362 0.000000
# 3 -0.005902 0.001313 0.016851 0.000000 0.002315 0.000000
# 4 0.000000 0.000000 0.000000 0.089994 0.000000 0.064941
# 5 0.000540 -0.001362 0.002315 0.000000 0.015887 0.000000
# 6 0.000000 0.000000 0.000000 0.064941 0.000000 0.105835
#
#
# Mechanical properties :
#
#
# Convention : Reuss Voigt Hill
#
# Bulk Modulus (GPa) = 44.34025 54.46394 49.40209
# Shear Modulus (GPa) = 18.16795 35.24829 26.70812
#
# Velocity S-wave (km/s) = 2.57770 3.59045 3.12537
# Velocity P-wave (km/s) = 5.00758 6.09159 5.57599
#
# Compressibility (1/GPa) = 0.02255287
#
# Stress axis : x y z
#
# Youngs Moduli (GPa) = 98.73695 81.39893 59.34239
#
# Poissons Ratio (x) = 0.30655 0.35026
# Poissons Ratio (y) = 0.37185 -0.07790
# Poissons Ratio (z) = 0.58279 -0.10685
#
# Static dielectric constant tensor:
#      x y z
#    x 2.376580 0.000000 0.106260 
#    y 0.000000 2.219940 0.000000 
#    z 0.106260 0.000000 2.277540 
# 
# From -- ./inp_files/11670.got.cif
#   From: 2010.05.17/outbox.cif.g08.bks.cpg/sg4_6_cif.got.tgz:11670.got - 2010.06.03 18:43:04.
