data_PCOD9116003
_publ_section_title
;
Structure prediction by ZEFSAII (Michael W. Deem and Ramdas Pophale) SiO2 
 PCOD9116003
Probable space group: P 21
;
_chemical_formula_sum "Si O2"
_cell_formula_units_Z 16
_cell_length_a 15.289581
_cell_length_b 5.121304
_cell_length_c 11.595154
_cell_angle_alpha 90.000000
_cell_angle_beta 134.390133
_cell_angle_gamma 90.000000
_cell_volume 648.801008
_symmetry_space_group_name_H-M "P 21"
_symmetry_group_IT_number 4
_symmetry_cell_setting 'monoclinic'
loop_
_space_group_symop_operation_xyz
x,y,z
-x,1/2+y,-z
loop_
_atom_site_type_symbol
_atom_site_label
_atom_site_fract_x
_atom_site_fract_y
_atom_site_fract_z
Si Si1 0.915404 0.981250 0.411965
Si Si2 0.770965 0.339234 0.121422
Si Si3 0.603044 0.744688 0.717922
Si Si4 0.316081 0.231164 0.765908
Si Si5 0.034955 0.029111 0.879954
Si Si6 0.103160 0.021954 0.214314
Si Si7 0.550733 0.004436 0.903457
Si Si8 0.663480 0.250198 0.642264
O O1 0.798580 0.901536 0.384743
O O2 0.003027 0.730970 0.476616
O O3 0.843902 0.083295 0.233169
O O4 0.750346 0.524939 0.211874
O O5 0.854317 0.461201 0.100982
O O6 0.636100 0.252922 0.962497
O O7 0.593086 0.812302 0.842064
O O8 0.679141 0.966109 0.716125
O O9 0.464940 0.751472 0.542054
O O10 0.651417 0.461694 0.732311
O O11 0.408484 0.080762 0.767203
O O12 0.409090 0.395641 0.934010
O O13 0.989665 0.318927 0.814138
O O14 0.928063 0.810277 0.770078
O O15 0.074762 0.019796 0.050630
O O16 0.233012 0.876854 0.342754
#
# Coordination Sequence:
#
# PCOD9116003 Si02
#       8
#     2   2   2   2   2   2   2   2
#     4  11  24  47  70  94 133 183 227 281 349 409
#     4  11  24  43  70  98 135 177 230 284 339 414
#     4  10  23  39  68  94 131 174 223 266 347 402
#     4  11  24  43  69 105 143 176 237 295 338 413
#     4  10  23  37  62  94 124 169 216 265 337 389
#     4  10  21  39  61  92 132 163 212 276 323 396
#     4  11  24  41  69 106 137 182 232 293 348 402
#     4  10  21  43  63  95 131 172 219 278 327 417
#
# _framework density 24.660872000000001
#
# number of rings (size 3 to 8) (size 9 to 14) (size 15 to 20)
#    0.000    1.500    2.500    1.500    7.000    1.000 
#    2.250    1.250    5.500    0.000    0.000    0.000 
#    0.000    0.000    0.000    0.000    0.000    0.000 
#
# Total GULP energy -89511.160039 kJ/mol
# GULP energy per Si atom -5594.447502 kJ/mol
# Density = 2.460474 g / cm^3
# Si number density = 24.660872 Si / 1000 Ang^3
#
#
#
# Elastic Constant Matrix: (Units=GPa)
#
#
# Indices 1 2 3 4 5 6 
#
# 1 112.9550 5.5924 19.4826 0.0000 18.1708 0.0000
# 2 5.5924 97.7008 21.0686 0.0000 7.2926 0.0000
# 3 19.4826 21.0686 50.6899 0.0000 18.0769 0.0000
# 4 0.0000 0.0000 0.0000 32.3917 0.0000 3.3558
# 5 18.1708 7.2926 18.0769 0.0000 32.1000 0.0000
# 6 0.0000 0.0000 0.0000 3.3558 0.0000 35.7213
#
#
#
# Elastic Compliance Matrix: (Units=1/GPa)
#
#
# Indices 1 2 3 4 5 6 
#
# 1 0.009951 0.000269 -0.002385 0.000000 -0.004351 0.000000
# 2 0.000269 0.011251 -0.004772 0.000000 -0.000021 0.000000
# 3 -0.002385 -0.004772 0.027228 0.000000 -0.012899 0.000000
# 4 0.000000 0.000000 0.000000 0.031176 0.000000 -0.002929
# 5 -0.004351 -0.000021 -0.012899 0.000000 0.040885 0.000000
# 6 0.000000 0.000000 0.000000 -0.002929 0.000000 0.028270
#
#
# Mechanical properties :
#
#
# Convention : Reuss Voigt Hill
#
# Bulk Modulus (GPa) = 28.85656 39.29254 34.07455
# Shear Modulus (GPa) = 28.72140 34.38939 31.55539
#
# Velocity S-wave (km/s) = 3.41641 3.73834 3.58099
# Velocity P-wave (km/s) = 5.22391 5.88229 5.56285
#
# Compressibility (1/GPa) = 0.03465416
#
# Stress axis : x y z
#
# Youngs Moduli (GPa) = 100.49181 88.88431 36.72688
#
# Poissons Ratio (x) = -0.02395 0.08759
# Poissons Ratio (y) = -0.02708 0.17527
# Poissons Ratio (z) = 0.23967 0.42418
#
# Static dielectric constant tensor:
#      x y z
#    x 1.947770 0.000000 0.015970 
#    y 0.000000 1.994550 0.000000 
#    z 0.015970 0.000000 2.007390 
# 
# From -- ./inp_files/12499.got.cif
#   From: 2010.05.17/outbox.cif.g08.bks.cpg/sg4_7_cif.got.tgz:12499.got - 2010.06.03 18:43:04.
