data_PCOD9116225
_publ_section_title
;
Structure prediction by ZEFSAII (Michael W. Deem and Ramdas Pophale) SiO2 
 PCOD9116225
Probable space group: P 21
;
_chemical_formula_sum "Si O2"
_cell_formula_units_Z 14
_cell_length_a 8.916211
_cell_length_b 8.423080
_cell_length_c 7.582969
_cell_angle_alpha 90.000000
_cell_angle_beta 85.842424
_cell_angle_gamma 90.000000
_cell_volume 567.997157
_symmetry_space_group_name_H-M "P 21"
_symmetry_group_IT_number 4
_symmetry_cell_setting 'monoclinic'
loop_
_space_group_symop_operation_xyz
x,y,z
-x,1/2+y,-z
loop_
_atom_site_type_symbol
_atom_site_label
_atom_site_fract_x
_atom_site_fract_y
_atom_site_fract_z
Si Si1 0.601776 0.440110 0.793079
Si Si2 0.432750 0.752522 0.859153
Si Si3 0.535853 0.959501 0.550590
Si Si4 0.164065 0.646855 0.455783
Si Si5 0.771905 0.443733 0.352623
Si Si6 0.070615 0.114113 0.215254
Si Si7 0.943710 0.991356 0.868562
O O1 0.480860 0.574279 0.852242
O O2 0.531249 0.374261 0.616815
O O3 0.763974 0.531386 0.791327
O O4 0.585138 0.310917 0.943458
O O5 0.549780 0.846793 0.719941
O O6 0.279997 0.803651 0.776356
O O7 0.376204 0.049186 0.604824
O O8 0.684869 0.054641 0.499024
O O9 0.174847 0.835042 0.489587
O O10 0.021897 0.601090 0.592092
O O11 0.158331 0.600280 0.249436
O O12 0.897703 0.533592 0.238545
O O13 0.085499 0.303536 0.166184
O O14 0.969420 0.033416 0.069645
#
# Coordination Sequence:
#
# PCOD9116225 Si02
#       7
#     2   2   2   2   2   2   2
#     4  12  23  45  71 100 136 178 221 287 333 396
#     4  10  24  42  70 100 135 172 230 275 336 392
#     4  10  21  41  65  96 130 171 226 268 330 385
#     4  11  23  42  68  97 138 178 221 274 336 405
#     4   9  21  46  62  97 136 171 225 277 325 398
#     4  11  26  44  69 101 137 177 227 272 343 407
#     4  11  24  46  67  99 138 179 222 277 339 403
#
# _framework density 24.648012000000001
#
# number of rings (size 3 to 8) (size 9 to 14) (size 15 to 20)
#    0.857    0.571    2.857    1.714    0.000    8.000 
#    0.000    2.857    0.000    0.000    0.000    0.000 
#    0.000    0.000    0.000    0.000    0.000    0.000 
#
# Total GULP energy -78035.008070 kJ/mol
# GULP energy per Si atom -5573.929148 kJ/mol
# Density = 2.459191 g / cm^3
# Si number density = 24.648012 Si / 1000 Ang^3
#
#
#
# Elastic Constant Matrix: (Units=GPa)
#
#
# Indices 1 2 3 4 5 6 
#
# 1 58.9135 30.1857 37.7607 0.0000 9.2592 0.0000
# 2 30.1857 47.1056 28.9243 0.0000 -12.7284 0.0000
# 3 37.7607 28.9243 88.6326 0.0000 7.2971 0.0000
# 4 0.0000 0.0000 0.0000 38.5641 0.0000 -7.6316
# 5 9.2592 -12.7284 7.2971 0.0000 27.4794 0.0000
# 6 0.0000 0.0000 0.0000 -7.6316 0.0000 30.2109
#
#
#
# Elastic Compliance Matrix: (Units=1/GPa)
#
#
# Indices 1 2 3 4 5 6 
#
# 1 0.038704 -0.028286 -0.005220 0.000000 -0.024757 0.000000
# 2 -0.028286 0.054951 -0.008958 0.000000 0.037363 0.000000
# 3 -0.005220 -0.008958 0.016998 0.000000 -0.006904 0.000000
# 4 0.000000 0.000000 0.000000 0.027295 0.000000 0.006895
# 5 -0.024757 0.037363 -0.006904 0.000000 0.063873 0.000000
# 6 0.000000 0.000000 0.000000 0.006895 0.000000 0.034842
#
#
# Mechanical properties :
#
#
# Convention : Reuss Voigt Hill
#
# Bulk Modulus (GPa) = 38.87270 43.15478 41.01374
# Shear Modulus (GPa) = 15.14381 25.76959 20.45670
#
# Velocity S-wave (km/s) = 2.48140 3.23693 2.88402
# Velocity P-wave (km/s) = 4.90053 5.61398 5.26934
#
# Compressibility (1/GPa) = 0.02572499
#
# Stress axis : x y z
#
# Youngs Moduli (GPa) = 25.83710 18.19793 58.82967
#
# Poissons Ratio (x) = 0.51475 0.30710
# Poissons Ratio (y) = 0.73084 0.52699
# Poissons Ratio (z) = 0.13487 0.16301
#
# Static dielectric constant tensor:
#      x y z
#    x 2.016220 0.000000 -0.032640 
#    y 0.000000 1.923570 0.000000 
#    z -0.032640 0.000000 2.218640 
# 
# From -- ./inp_files/5724.got.cif
#   From: 2010.05.17/outbox.cif.g08.bks.cpg/sg4_3_cif.got.tgz:5724.got - 2010.06.03 18:43:04.
