data_PCOD9116391
_publ_section_title
;
Structure prediction by ZEFSAII (Michael W. Deem and Ramdas Pophale) SiO2 
 PCOD9116391
Probable space group: P 21
;
_chemical_formula_sum "Si O2"
_cell_formula_units_Z 16
_cell_length_a 8.088187
_cell_length_b 9.587528
_cell_length_c 11.600964
_cell_angle_alpha 90.000000
_cell_angle_beta 137.433629
_cell_angle_gamma 90.000000
_cell_volume 608.532301
_symmetry_space_group_name_H-M "P 21"
_symmetry_group_IT_number 4
_symmetry_cell_setting 'monoclinic'
loop_
_space_group_symop_operation_xyz
x,y,z
-x,1/2+y,-z
loop_
_atom_site_type_symbol
_atom_site_label
_atom_site_fract_x
_atom_site_fract_y
_atom_site_fract_z
Si Si1 0.480224 0.109850 0.151967
Si Si2 0.304863 0.828107 0.161813
Si Si3 0.058704 0.955696 0.360556
Si Si4 0.062839 0.749952 0.818665
Si Si5 0.185822 0.360978 0.984351
Si Si6 0.355747 0.009483 0.849120
Si Si7 0.428899 0.377213 0.482137
Si Si8 0.883314 0.056455 0.502154
O O1 0.248863 0.205216 0.055204
O O2 0.710915 0.161928 0.343561
O O3 0.485019 0.096024 0.017156
O O4 0.454523 0.951676 0.179997
O O5 0.211699 0.727267 0.013634
O O6 0.058893 0.905724 0.078704
O O7 0.452365 0.783665 0.352005
O O8 0.998275 0.112944 0.285960
O O9 0.340648 0.923885 0.475375
O O10 0.975276 0.948713 0.449775
O O11 0.891408 0.864416 0.189463
O O12 0.788248 0.807772 0.700801
O O13 0.209472 0.874656 0.827660
O O14 0.433831 0.447065 0.122669
O O15 0.144970 0.101909 0.684131
O O16 0.284903 0.498096 0.480226
#
# Coordination Sequence:
#
# PCOD9116391 Si02
#       8
#     2   2   2   2   2   2   2   2
#     4  10  21  45  63  91 140 167 209 286 317 390
#     4   9  22  40  67  92 127 173 215 264 333 384
#     4  11  23  44  66 100 130 166 226 270 322 403
#     4  10  22  44  65  90 133 169 211 279 321 385
#     4  11  23  40  67 100 128 173 222 262 341 394
#     4  10  22  42  65  96 125 173 222 259 338 392
#     4   9  22  44  60  95 131 166 211 266 325 384
#     4  10  21  43  65  90 132 169 212 268 319 384
#
# _framework density 26.292769
#
# number of rings (size 3 to 8) (size 9 to 14) (size 15 to 20)
#    0.000    2.000    1.250    0.750    7.000    0.000 
#   22.500    0.000    0.000    0.000    0.000    0.000 
#    0.000    0.000    0.000    0.000    0.000    0.000 
#
# Total GULP energy -89399.217037 kJ/mol
# GULP energy per Si atom -5587.451065 kJ/mol
# Density = 2.623293 g / cm^3
# Si number density = 26.292769 Si / 1000 Ang^3
#
#
#
# Elastic Constant Matrix: (Units=GPa)
#
#
# Indices 1 2 3 4 5 6 
#
# 1 131.6546 16.5868 32.0603 0.0000 20.8270 0.0000
# 2 16.5868 64.2629 17.6950 0.0000 2.8064 0.0000
# 3 32.0603 17.6950 120.9428 0.0000 15.8287 0.0000
# 4 0.0000 0.0000 0.0000 27.0209 0.0000 3.5274
# 5 20.8270 2.8064 15.8287 0.0000 46.9385 0.0000
# 6 0.0000 0.0000 0.0000 3.5274 0.0000 25.1670
#
#
#
# Elastic Compliance Matrix: (Units=1/GPa)
#
#
# Indices 1 2 3 4 5 6 
#
# 1 0.008713 -0.001655 -0.001647 0.000000 -0.003212 0.000000
# 2 -0.001655 0.016530 -0.002036 0.000000 0.000433 0.000000
# 3 -0.001647 -0.002036 0.009302 0.000000 -0.002284 0.000000
# 4 0.000000 0.000000 0.000000 0.037698 0.000000 -0.005284
# 5 -0.003212 0.000433 -0.002284 0.000000 0.023474 0.000000
# 6 0.000000 0.000000 0.000000 -0.005284 0.000000 0.040475
#
#
# Mechanical properties :
#
#
# Convention : Reuss Voigt Hill
#
# Bulk Modulus (GPa) = 41.89750 49.94938 45.92344
# Shear Modulus (GPa) = 32.29424 36.52648 34.41036
#
# Velocity S-wave (km/s) = 3.50845 3.73127 3.62157
# Velocity P-wave (km/s) = 5.69051 6.13203 5.91539
#
# Compressibility (1/GPa) = 0.02386777
#
# Stress axis : x y z
#
# Youngs Moduli (GPa) = 114.76598 60.49562 107.50449
#
# Poissons Ratio (x) = 0.10013 0.17709
# Poissons Ratio (y) = 0.18996 0.21892
# Poissons Ratio (z) = 0.18905 0.12319
#
# Static dielectric constant tensor:
#      x y z
#    x 2.062430 0.000000 -0.035140 
#    y 0.000000 2.052160 0.000000 
#    z -0.035140 0.000000 2.067440 
# 
# From -- ./inp_files/8156.got.cif
#   From: 2010.05.17/outbox.cif.g08.bks.cpg/sg4_5_cif.got.tgz:8156.got - 2010.06.03 18:43:04.
