data_PCOD9116755
_publ_section_title
;
Structure prediction by ZEFSAII (Michael W. Deem and Ramdas Pophale) SiO2 
 PCOD9116755
Probable space group: P 21
;
_chemical_formula_sum "Si O2"
_cell_formula_units_Z 16
_cell_length_a 5.219558
_cell_length_b 4.905603
_cell_length_c 22.243304
_cell_angle_alpha 90.000000
_cell_angle_beta 93.941569
_cell_angle_gamma 90.000000
_cell_volume 568.194411
_symmetry_space_group_name_H-M "P 21"
_symmetry_group_IT_number 4
_symmetry_cell_setting 'monoclinic'
loop_
_space_group_symop_operation_xyz
x,y,z
-x,1/2+y,-z
loop_
_atom_site_type_symbol
_atom_site_label
_atom_site_fract_x
_atom_site_fract_y
_atom_site_fract_z
Si Si1 0.342229 0.959150 0.483932
Si Si2 0.347583 0.928369 0.013185
Si Si3 0.769570 0.770774 0.338186
Si Si4 0.388094 0.496385 0.259410
Si Si5 0.115593 0.629269 0.766760
Si Si6 0.965182 0.267270 0.410521
Si Si7 0.115468 0.815574 0.891602
Si Si8 0.383839 0.670180 0.134480
O O1 0.510400 0.692138 0.476191
O O2 0.232712 0.113304 0.424347
O O3 0.121388 0.848147 0.524087
O O4 0.149745 0.784442 0.963922
O O5 0.595185 0.737429 0.002802
O O6 0.321986 0.899501 0.084196
O O7 0.488642 0.649132 0.320147
O O8 0.939430 0.536935 0.371292
O O9 0.781740 0.039694 0.378771
O O10 0.628563 0.297872 0.246944
O O11 0.380166 0.720726 0.205355
O O12 0.133568 0.312753 0.253389
O O13 0.115840 0.366564 0.724336
O O14 0.129733 0.586903 0.839402
O O15 0.353737 0.014873 0.878453
O O16 0.849266 0.962827 0.877611
#
# Coordination Sequence:
#
# PCOD9116755 Si02
#       8
#     2   2   2   2   2   2   2   2
#     4  12  26  52  84 116 160 210 246 314 382 450
#     4  10  22  40  66 100 138 182 246 316 384 458
#     4  12  25  48  76 112 157 210 254 330 374 466
#     4  10  23  47  72 105 152 207 259 319 393 462
#     4  10  23  47  72 105 152 207 259 319 393 462
#     4  12  27  52  80 120 161 198 266 308 380 460
#     4   9  20  40  67  97 137 188 247 311 382 460
#     4   9  20  40  67  97 137 188 247 311 382 460
#
# _framework density 28.159376999999999
#
# number of rings (size 3 to 8) (size 9 to 14) (size 15 to 20)
#    0.000    1.500    1.250    3.000    1.750    6.000 
#    9.000    0.000    0.000    0.000    0.000    0.000 
#    0.000    0.000    0.000    0.000    0.000    0.000 
#
# Total GULP energy -89740.103169 kJ/mol
# GULP energy per Si atom -5608.756448 kJ/mol
# Density = 2.809528 g / cm^3
# Si number density = 28.159377 Si / 1000 Ang^3
#
#
#
# Elastic Constant Matrix: (Units=GPa)
#
#
# Indices 1 2 3 4 5 6 
#
# 1 127.0310 58.7539 35.6980 0.0000 -2.6368 0.0000
# 2 58.7539 159.7082 46.3581 0.0000 14.7170 0.0000
# 3 35.6980 46.3581 104.9488 0.0000 26.5651 0.0000
# 4 0.0000 0.0000 0.0000 60.5320 0.0000 12.2679
# 5 -2.6368 14.7170 26.5651 0.0000 40.7397 0.0000
# 6 0.0000 0.0000 0.0000 12.2679 0.0000 38.0940
#
#
#
# Elastic Compliance Matrix: (Units=1/GPa)
#
#
# Indices 1 2 3 4 5 6 
#
# 1 0.010315 -0.003267 -0.003034 0.000000 0.003826 0.000000
# 2 -0.003267 0.008230 -0.002058 0.000000 -0.001843 0.000000
# 3 -0.003034 -0.002058 0.013571 0.000000 -0.008302 0.000000
# 4 0.000000 0.000000 0.000000 0.017674 0.000000 -0.005692
# 5 0.003826 -0.001843 -0.008302 0.000000 0.030873 0.000000
# 6 0.000000 0.000000 0.000000 -0.005692 0.000000 0.028084
#
#
# Mechanical properties :
#
#
# Convention : Reuss Voigt Hill
#
# Bulk Modulus (GPa) = 64.93965 74.81199 69.87582
# Shear Modulus (GPa) = 38.28565 44.59835 41.44200
#
# Velocity S-wave (km/s) = 3.69128 3.98399 3.84043
# Velocity P-wave (km/s) = 6.42487 6.91288 6.67334
#
# Compressibility (1/GPa) = 0.01539891
#
# Stress axis : x y z
#
# Youngs Moduli (GPa) = 96.94613 121.50247 73.68617
#
# Poissons Ratio (x) = 0.39689 0.22358
# Poissons Ratio (y) = 0.31668 0.15164
# Poissons Ratio (z) = 0.29415 0.25005
#
# Static dielectric constant tensor:
#      x y z
#    x 2.209500 0.000000 -0.019630 
#    y 0.000000 2.112650 0.000000 
#    z -0.019630 0.000000 2.280390 
# 
# From -- ./inp_files/16007.got.cif
#   From: 2010.05.17/outbox.cif.g08.bks.cpg/sg4_9_cif.got.tgz:16007.got - 2010.06.03 18:43:04.
