data_PCOD9116377
_publ_section_title
;
Structure prediction by ZEFSAII (Michael W. Deem and Ramdas Pophale) SiO2 
 PCOD9116377
Probable space group: P 21
;
_chemical_formula_sum "Si O2"
_cell_formula_units_Z 16
_cell_length_a 7.048408
_cell_length_b 10.024648
_cell_length_c 11.100827
_cell_angle_alpha 90.000000
_cell_angle_beta 114.879649
_cell_angle_gamma 90.000000
_cell_volume 711.566403
_symmetry_space_group_name_H-M "P 21"
_symmetry_group_IT_number 4
_symmetry_cell_setting 'monoclinic'
loop_
_space_group_symop_operation_xyz
x,y,z
-x,1/2+y,-z
loop_
_atom_site_type_symbol
_atom_site_label
_atom_site_fract_x
_atom_site_fract_y
_atom_site_fract_z
Si Si1 0.216913 0.305870 0.525046
Si Si2 0.267735 0.468042 0.014443
Si Si3 0.143823 0.353008 0.242142
Si Si4 0.901069 0.717385 0.155397
Si Si5 0.862489 0.593826 0.889512
Si Si6 0.680993 0.354137 0.711678
Si Si7 0.272260 0.977908 0.779015
Si Si8 0.160702 0.989043 0.489252
O O1 0.243354 0.375167 0.399727
O O2 0.444111 0.306949 0.647138
O O3 0.053138 0.402592 0.550283
O O4 0.140359 0.151608 0.483494
O O5 0.193566 0.429791 0.131086
O O6 0.512260 0.481975 0.092757
O O7 0.206173 0.358531 0.897771
O O8 0.113556 0.586828 0.938561
O O9 0.210872 0.204825 0.222337
O O10 0.899374 0.381367 0.206593
O O11 0.824591 0.626375 0.242241
O O12 0.149112 0.736609 0.232731
O O13 0.835122 0.640059 0.017536
O O14 0.747229 0.455693 0.834921
O O15 0.734699 0.435365 0.604193
O O16 0.294219 0.947886 0.643545
#
# Coordination Sequence:
#
# PCOD9116377 Si02
#       8
#     2   2   2   2   2   2   2   2
#     4  11  25  45  74  99 145 184 227 299 348 413
#     4  10  22  39  66  94 128 179 216 274 346 406
#     4  10  21  43  63  96 130 172 227 278 333 415
#     4  10  23  43  64 101 134 169 234 280 329 430
#     4  10  21  44  65  94 137 170 229 277 333 414
#     4  11  24  46  72  99 135 186 228 284 353 410
#     4  11  23  40  66  96 133 174 220 283 344 405
#     4  11  25  46  68 109 136 180 239 289 342 427
#
# _framework density 22.485603000000001
#
# number of rings (size 3 to 8) (size 9 to 14) (size 15 to 20)
#    0.000    1.500    2.500    1.500    3.500    3.000 
#   15.750    0.000    0.000    0.000    0.000    0.000 
#    0.000    0.000    0.000    0.000    0.000    0.000 
#
# Total GULP energy -89291.729748 kJ/mol
# GULP energy per Si atom -5580.733109 kJ/mol
# Density = 2.243442 g / cm^3
# Si number density = 22.485603 Si / 1000 Ang^3
#
#
#
# Elastic Constant Matrix: (Units=GPa)
#
#
# Indices 1 2 3 4 5 6 
#
# 1 64.3815 21.3871 20.9493 0.0000 10.7178 0.0000
# 2 21.3871 55.6125 7.6887 0.0000 -12.8004 0.0000
# 3 20.9493 7.6887 66.6552 0.0000 2.7620 0.0000
# 4 0.0000 0.0000 0.0000 25.4581 0.0000 -4.3880
# 5 10.7178 -12.8004 2.7620 0.0000 43.2771 0.0000
# 6 0.0000 0.0000 0.0000 -4.3880 0.0000 13.0751
#
#
#
# Elastic Compliance Matrix: (Units=1/GPa)
#
#
# Indices 1 2 3 4 5 6 
#
# 1 0.021720 -0.009402 -0.005418 0.000000 -0.007814 0.000000
# 2 -0.009402 0.023779 -0.000176 0.000000 0.009373 0.000000
# 3 -0.005418 -0.000176 0.016717 0.000000 0.000223 0.000000
# 4 0.000000 0.000000 0.000000 0.041692 0.000000 0.013992
# 5 -0.007814 0.009373 0.000223 0.000000 0.027800 0.000000
# 6 0.000000 0.000000 0.000000 0.013992 0.000000 0.081177
#
#
# Mechanical properties :
#
#
# Convention : Reuss Voigt Hill
#
# Bulk Modulus (GPa) = 31.03441 31.85546 31.44494
# Shear Modulus (GPa) = 19.71463 25.47032 22.59248
#
# Velocity S-wave (km/s) = 2.96424 3.36927 3.17322
# Velocity P-wave (km/s) = 5.05445 5.41607 5.23838
#
# Compressibility (1/GPa) = 0.03222229
#
# Stress axis : x y z
#
# Youngs Moduli (GPa) = 46.04127 42.05342 59.82108
#
# Poissons Ratio (x) = 0.39540 0.32411
# Poissons Ratio (y) = 0.43290 0.01054
# Poissons Ratio (z) = 0.24945 0.00741
#
# Static dielectric constant tensor:
#      x y z
#    x 1.830610 0.000000 -0.032710 
#    y 0.000000 1.890880 0.000000 
#    z -0.032710 0.000000 1.864230 
# 
# From -- ./inp_files/10368.got.cif
#   From: 2010.05.17/outbox.cif.g08.bks.cpg/sg4_6_cif.got.tgz:10368.got - 2010.06.03 18:43:04.
