data_PCOD9116319
_publ_section_title
;
Structure prediction by ZEFSAII (Michael W. Deem and Ramdas Pophale) SiO2 
 PCOD9116319
Probable space group: P 21
;
_chemical_formula_sum "Si O2"
_cell_formula_units_Z 16
_cell_length_a 5.221106
_cell_length_b 9.026473
_cell_length_c 15.362916
_cell_angle_alpha 90.000000
_cell_angle_beta 77.291237
_cell_angle_gamma 90.000000
_cell_volume 706.288170
_symmetry_space_group_name_H-M "P 21"
_symmetry_group_IT_number 4
_symmetry_cell_setting 'monoclinic'
loop_
_space_group_symop_operation_xyz
x,y,z
-x,1/2+y,-z
loop_
_atom_site_type_symbol
_atom_site_label
_atom_site_fract_x
_atom_site_fract_y
_atom_site_fract_z
Si Si1 0.233212 0.985480 0.900097
Si Si2 0.004756 0.983418 0.654349
Si Si3 0.714000 0.821213 0.169055
Si Si4 0.150176 0.400720 0.530744
Si Si5 0.781496 0.822338 0.829039
Si Si6 0.255021 0.986041 0.106684
Si Si7 0.727538 0.282497 0.661753
Si Si8 0.452726 0.117387 0.538844
O O1 0.496038 0.898404 0.852615
O O2 0.977098 0.900530 0.883629
O O3 0.242849 0.151221 0.861442
O O4 0.232860 0.993744 0.004309
O O5 0.939140 0.946482 0.559023
O O6 0.916448 0.857451 0.726289
O O7 0.864768 0.137444 0.693823
O O8 0.313403 0.020130 0.624948
O O9 0.524609 0.903810 0.113516
O O10 0.531749 0.825861 0.268219
O O11 0.996939 0.897007 0.157682
O O12 0.243168 0.230427 0.516489
O O13 0.391769 0.508699 0.534449
O O14 0.939291 0.406916 0.623606
O O15 0.751195 0.650180 0.853159
O O16 0.652047 0.225174 0.571904
#
# Coordination Sequence:
#
# PCOD9116319 Si02
#       8
#     2   2   2   2   2   2   2   2
#     4  12  24  47  80  98 141 199 239 286 367 445
#     4  10  22  43  67 100 132 184 241 279 351 426
#     4  12  26  47  73 108 144 190 238 301 356 436
#     4  10  22  41  68  99 134 178 234 290 336 421
#     4  12  26  47  73 108 145 190 237 302 356 435
#     4  12  27  46  68 114 147 176 240 309 368 415
#     4  10  22  43  67  99 132 185 241 279 350 427
#     4  10  21  42  66  94 133 182 236 282 346 409
#
# _framework density 22.653642000000001
#
# number of rings (size 3 to 8) (size 9 to 14) (size 15 to 20)
#    0.000    1.000    1.250    5.250    5.250    0.000 
#   11.250    0.000    0.000    0.000    0.000    0.000 
#    0.000    0.000    0.000    0.000    0.000    0.000 
#
# Total GULP energy -89514.134806 kJ/mol
# GULP energy per Si atom -5594.633425 kJ/mol
# Density = 2.260208 g / cm^3
# Si number density = 22.653642 Si / 1000 Ang^3
#
#
#
# Elastic Constant Matrix: (Units=GPa)
#
#
# Indices 1 2 3 4 5 6 
#
# 1 77.5726 33.3054 -11.5101 0.0000 -8.1305 0.0000
# 2 33.3054 116.1113 15.1206 0.0000 -8.1205 0.0000
# 3 -11.5101 15.1206 56.4834 0.0000 -10.7395 0.0000
# 4 0.0000 0.0000 0.0000 29.0196 0.0000 5.9374
# 5 -8.1305 -8.1205 -10.7395 0.0000 40.2062 0.0000
# 6 0.0000 0.0000 0.0000 5.9374 0.0000 19.4590
#
#
#
# Elastic Compliance Matrix: (Units=1/GPa)
#
#
# Indices 1 2 3 4 5 6 
#
# 1 0.016272 -0.005110 0.005387 0.000000 0.003697 0.000000
# 2 -0.005110 0.010586 -0.003861 0.000000 0.000073 0.000000
# 3 0.005387 -0.003861 0.020959 0.000000 0.005908 0.000000
# 4 0.000000 0.000000 0.000000 0.036754 0.000000 -0.011214
# 5 0.003697 0.000073 0.005908 0.000000 0.027212 0.000000
# 6 0.000000 0.000000 0.000000 -0.011214 0.000000 0.054812
#
#
# Mechanical properties :
#
#
# Convention : Reuss Voigt Hill
#
# Bulk Modulus (GPa) = 24.60164 35.99990 30.30077
# Shear Modulus (GPa) = 26.69306 31.95371 29.32338
#
# Velocity S-wave (km/s) = 3.43638 3.75978 3.60171
# Velocity P-wave (km/s) = 5.16027 5.89694 5.54086
#
# Compressibility (1/GPa) = 0.04064769
#
# Stress axis : x y z
#
# Youngs Moduli (GPa) = 61.45483 94.46182 47.71202
#
# Poissons Ratio (x) = 0.48274 -0.25702
# Poissons Ratio (y) = 0.31406 0.18424
# Poissons Ratio (z) = -0.33106 0.36476
#
# Static dielectric constant tensor:
#      x y z
#    x 1.874900 0.000000 0.022520 
#    y 0.000000 1.828320 0.000000 
#    z 0.022520 0.000000 1.838280 
# 
# From -- ./inp_files/13335.got.cif
#   From: 2010.05.17/outbox.cif.g08.bks.cpg/sg4_7_cif.got.tgz:13335.got - 2010.06.03 18:43:04.
