data_PCOD9116240
_publ_section_title
;
Structure prediction by ZEFSAII (Michael W. Deem and Ramdas Pophale) SiO2 
 PCOD9116240
Probable space group: P 21
;
_chemical_formula_sum "Si O2"
_cell_formula_units_Z 14
_cell_length_a 5.204264
_cell_length_b 7.304398
_cell_length_c 16.136038
_cell_angle_alpha 90.000000
_cell_angle_beta 103.612275
_cell_angle_gamma 90.000000
_cell_volume 596.165686
_symmetry_space_group_name_H-M "P 21"
_symmetry_group_IT_number 4
_symmetry_cell_setting 'monoclinic'
loop_
_space_group_symop_operation_xyz
x,y,z
-x,1/2+y,-z
loop_
_atom_site_type_symbol
_atom_site_label
_atom_site_fract_x
_atom_site_fract_y
_atom_site_fract_z
Si Si1 0.777826 0.475950 0.956182
Si Si2 0.750488 0.756359 0.088828
Si Si3 0.468835 0.395464 0.363402
Si Si4 0.048379 0.419106 0.735842
Si Si5 0.847528 0.703175 0.411825
Si Si6 0.415494 0.144336 0.219512
Si Si7 0.313540 0.553680 0.523556
O O1 0.553199 0.320084 0.939211
O O2 0.667883 0.629814 0.883012
O O3 0.055230 0.399358 0.943992
O O4 0.794739 0.565144 0.047305
O O5 0.837492 0.771839 0.190452
O O6 0.720406 0.522766 0.364135
O O7 0.363392 0.330729 0.266381
O O8 0.340536 0.515328 0.427294
O O9 0.522922 0.205035 0.415488
O O10 0.003589 0.321585 0.645695
O O11 0.280553 0.574271 0.748147
O O12 0.780618 0.498995 0.752346
O O13 0.017138 0.634765 0.502778
O O14 0.651555 0.858669 0.431277
#
# Coordination Sequence:
#
# PCOD9116240 Si02
#       7
#     2   2   2   2   2   2   2
#     4  10  21  41  66  97 130 170 210 262 321 381
#     4  10  21  41  66  97 130 170 210 262 321 381
#     4  12  26  42  64  92 128 174 221 269 331 385
#     4  10  24  43  66  93 132 172 214 270 324 382
#     4  12  26  42  64  92 128 174 221 269 331 385
#     4  10  24  43  66  93 132 172 214 270 324 382
#     4  12  26  42  62  92 128 168 224 272 322 386
#
# _framework density 23.483402999999999
#
# number of rings (size 3 to 8) (size 9 to 14) (size 15 to 20)
#    0.000    1.143    4.286    0.857    8.000    1.143 
#    2.571    0.000    0.000    0.000    0.000    0.000 
#    0.000    0.000    0.000    0.000    0.000    0.000 
#
# Total GULP energy -78148.381096 kJ/mol
# GULP energy per Si atom -5582.027221 kJ/mol
# Density = 2.342995 g / cm^3
# Si number density = 23.483403 Si / 1000 Ang^3
#
#
#
# Elastic Constant Matrix: (Units=GPa)
#
#
# Indices 1 2 3 4 5 6 
#
# 1 53.3064 2.2483 6.0682 0.0000 -7.2145 0.0000
# 2 2.2483 53.6030 2.8568 0.0000 6.1847 0.0000
# 3 6.0682 2.8568 37.2285 0.0000 -11.0675 0.0000
# 4 0.0000 0.0000 0.0000 38.7225 0.0000 -5.2390
# 5 -7.2145 6.1847 -11.0675 0.0000 28.1610 0.0000
# 6 0.0000 0.0000 0.0000 -5.2390 0.0000 26.0989
#
#
#
# Elastic Compliance Matrix: (Units=1/GPa)
#
#
# Indices 1 2 3 4 5 6 
#
# 1 0.019636 -0.001266 -0.001727 0.000000 0.004630 0.000000
# 2 -0.001266 0.019539 -0.003018 0.000000 -0.005801 0.000000
# 3 -0.001727 -0.003018 0.031070 0.000000 0.012431 0.000000
# 4 0.000000 0.000000 0.000000 0.026546 0.000000 0.005329
# 5 0.004630 -0.005801 0.012431 0.000000 0.042856 0.000000
# 6 0.000000 0.000000 0.000000 0.005329 0.000000 0.039385
#
#
# Mechanical properties :
#
#
# Convention : Reuss Voigt Hill
#
# Bulk Modulus (GPa) = 17.17519 18.49828 17.83673
# Shear Modulus (GPa) = 23.75740 27.46078 25.60909
#
# Velocity S-wave (km/s) = 3.18412 3.42331 3.30588
# Velocity P-wave (km/s) = 4.56594 4.84971 4.70996
#
# Compressibility (1/GPa) = 0.05822353
#
# Stress axis : x y z
#
# Youngs Moduli (GPa) = 50.92670 51.17978 32.18562
#
# Poissons Ratio (x) = 0.06478 0.05559
# Poissons Ratio (y) = 0.06446 0.09713
# Poissons Ratio (z) = 0.08796 0.15445
#
# Static dielectric constant tensor:
#      x y z
#    x 1.989480 0.000000 -0.025480 
#    y 0.000000 1.847900 0.000000 
#    z -0.025480 0.000000 1.893430 
# 
# From -- ./inp_files/3882.got.cif
#   From: 2010.05.17/outbox.cif.g08.bks.cpg/sg4_2_cif.got.tgz:3882.got - 2010.06.03 18:43:04.
