data_PCOD9116852
_publ_section_title
;
Structure prediction by ZEFSAII (Michael W. Deem and Ramdas Pophale) SiO2 
 PCOD9116852
Probable space group: P 21
;
_chemical_formula_sum "Si O2"
_cell_formula_units_Z 16
_cell_length_a 15.463335
_cell_length_b 7.711458
_cell_length_c 6.119598
_cell_angle_alpha 90.000000
_cell_angle_beta 62.986885
_cell_angle_gamma 90.000000
_cell_volume 650.118873
_symmetry_space_group_name_H-M "P 21"
_symmetry_group_IT_number 4
_symmetry_cell_setting 'monoclinic'
loop_
_space_group_symop_operation_xyz
x,y,z
-x,1/2+y,-z
loop_
_atom_site_type_symbol
_atom_site_label
_atom_site_fract_x
_atom_site_fract_y
_atom_site_fract_z
Si Si1 0.128092 0.869580 0.295550
Si Si2 0.085616 0.269194 0.341218
Si Si3 0.697287 0.442859 0.587637
Si Si4 0.762599 0.814792 0.480918
Si Si5 0.622548 0.991529 0.979868
Si Si6 0.799152 0.068051 0.049803
Si Si7 0.521074 0.289415 0.534998
Si Si8 0.460015 0.995367 0.862655
O O1 0.209668 0.859867 0.394936
O O2 0.028639 0.797560 0.512581
O O3 0.114355 0.071922 0.248577
O O4 0.149653 0.751601 0.056411
O O5 0.132811 0.297440 0.526013
O O6 0.134197 0.416663 0.134817
O O7 0.731349 0.623577 0.435684
O O8 0.630151 0.328371 0.502275
O O9 0.628795 0.488845 0.874425
O O10 0.687365 0.860581 0.760401
O O11 0.766741 0.976130 0.311057
O O12 0.551204 0.072648 0.886353
O O13 0.701467 0.094013 0.022483
O O14 0.552349 0.899097 0.230126
O O15 0.519415 0.313671 0.276539
O O16 0.466148 0.107485 0.637701
#
# Coordination Sequence:
#
# PCOD9116852 Si02
#       8
#     2   2   2   2   2   2   2   2
#     4  11  22  47  75 102 142 189 237 298 370 432
#     4  10  23  45  71 104 145 182 234 302 365 433
#     4  10  24  42  70 100 149 184 237 302 358 422
#     4  10  22  43  68 103 137 185 235 298 365 428
#     4  10  22  41  65  94 140 179 233 291 352 414
#     4  11  23  43  75 103 138 189 238 297 366 442
#     4  11  24  39  67  98 138 189 234 285 348 422
#     4  11  24  40  63 102 139 189 236 289 352 423
#
# _framework density 24.610882
#
# number of rings (size 3 to 8) (size 9 to 14) (size 15 to 20)
#    0.000    1.500    2.500    1.500    3.500    3.000 
#    2.250    6.250    0.000    0.000    0.000    0.000 
#    0.000    0.000    0.000    0.000    0.000    0.000 
#
# Total GULP energy -89373.747720 kJ/mol
# GULP energy per Si atom -5585.859233 kJ/mol
# Density = 2.455487 g / cm^3
# Si number density = 24.610882 Si / 1000 Ang^3
#
#
#
# Elastic Constant Matrix: (Units=GPa)
#
#
# Indices 1 2 3 4 5 6 
#
# 1 140.2441 31.6898 44.3056 0.0000 -20.8448 0.0000
# 2 31.6898 118.5815 45.1169 0.0000 8.4955 0.0000
# 3 44.3056 45.1169 88.4505 0.0000 1.2264 0.0000
# 4 0.0000 0.0000 0.0000 56.4836 0.0000 -1.3925
# 5 -20.8448 8.4955 1.2264 0.0000 28.1029 0.0000
# 6 0.0000 0.0000 0.0000 -1.3925 0.0000 24.5770
#
#
#
# Elastic Compliance Matrix: (Units=1/GPa)
#
#
# Indices 1 2 3 4 5 6 
#
# 1 0.010079 -0.001631 -0.004330 0.000000 0.008158 0.000000
# 2 -0.001631 0.010975 -0.004721 0.000000 -0.004321 0.000000
# 3 -0.004330 -0.004721 0.015917 0.000000 -0.002479 0.000000
# 4 0.000000 0.000000 0.000000 0.017729 0.000000 0.001005
# 5 0.008158 -0.004321 -0.002479 0.000000 0.043049 0.000000
# 6 0.000000 0.000000 0.000000 0.001005 0.000000 0.040745
#
#
# Mechanical properties :
#
#
# Convention : Reuss Voigt Hill
#
# Bulk Modulus (GPa) = 64.07261 65.50010 64.78635
# Shear Modulus (GPa) = 30.29167 36.91026 33.60097
#
# Velocity S-wave (km/s) = 3.51212 3.87687 3.69899
# Velocity P-wave (km/s) = 6.52207 6.83463 6.68018
#
# Compressibility (1/GPa) = 0.01560729
#
# Stress axis : x y z
#
# Youngs Moduli (GPa) = 99.21178 91.11900 62.82415
#
# Poissons Ratio (x) = 0.14858 0.27205
# Poissons Ratio (y) = 0.16177 0.29661
# Poissons Ratio (z) = 0.42961 0.43020
#
# Static dielectric constant tensor:
#      x y z
#    x 1.978400 0.000000 0.059360 
#    y 0.000000 3.009680 0.000000 
#    z 0.059360 0.000000 1.967020 
# 
# From -- ./inp_files/3622.got.cif
#   From: 2010.05.17/outbox.cif.g08.bks.cpg/sg4_2_cif.got.tgz:3622.got - 2010.06.03 18:43:04.
