data_PCOD9116286
_publ_section_title
;
Structure prediction by ZEFSAII (Michael W. Deem and Ramdas Pophale) SiO2 
 PCOD9116286
Probable space group: P 21
;
_chemical_formula_sum "Si O2"
_cell_formula_units_Z 16
_cell_length_a 10.160073
_cell_length_b 6.922289
_cell_length_c 11.371385
_cell_angle_alpha 90.000000
_cell_angle_beta 112.734692
_cell_angle_gamma 90.000000
_cell_volume 737.622461
_symmetry_space_group_name_H-M "P 21"
_symmetry_group_IT_number 4
_symmetry_cell_setting 'monoclinic'
loop_
_space_group_symop_operation_xyz
x,y,z
-x,1/2+y,-z
loop_
_atom_site_type_symbol
_atom_site_label
_atom_site_fract_x
_atom_site_fract_y
_atom_site_fract_z
Si Si1 0.399129 0.503260 0.319040
Si Si2 0.243406 0.375617 0.604089
Si Si3 0.369647 0.861508 0.989145
Si Si4 0.306897 0.010071 0.462642
Si Si5 0.861144 0.121465 0.615358
Si Si6 0.561496 0.458491 0.728983
Si Si7 0.165579 0.168028 0.818168
Si Si8 0.332514 0.420042 0.034567
O O1 0.543827 0.433029 0.430552
O O2 0.266344 0.512021 0.360742
O O3 0.426117 0.729573 0.297188
O O4 0.365112 0.405522 0.183518
O O5 0.126572 0.514996 0.505548
O O6 0.392327 0.493934 0.662678
O O7 0.210795 0.293717 0.720908
O O8 0.260116 0.189078 0.525750
O O9 0.316012 0.646017 0.996422
O O10 0.266503 0.981738 0.868677
O O11 0.383459 0.971165 0.119126
O O12 0.527306 0.850070 0.988196
O O13 0.191053 0.840661 0.420060
O O14 0.349259 0.061454 0.342820
O O15 0.003054 0.112701 0.740646
O O16 0.198090 0.300391 0.942268
#
# Coordination Sequence:
#
# PCOD9116286 Si02
#       8
#     2   2   2   2   2   2   2   2
#     4   9  20  41  66  96 125 165 220 266 311 390
#     4  11  23  42  64  94 132 166 218 269 322 393
#     4  11  21  42  67  97 130 171 217 268 314 391
#     4  10  21  41  71  98 124 169 217 270 324 379
#     4  11  26  43  64  96 132 169 215 271 333 388
#     4   9  18  38  67  99 125 159 222 268 307 383
#     4  12  27  43  61 100 134 173 219 260 338 394
#     4  11  22  42  70  96 130 172 218 268 319 386
#
# _framework density 21.691312
#
# number of rings (size 3 to 8) (size 9 to 14) (size 15 to 20)
#    0.000    1.500    3.750    1.500    1.750    5.000 
#    6.750    0.000    0.000    0.000    0.000    0.000 
#    0.000    0.000    0.000    0.000    0.000    0.000 
#
# Total GULP energy -89518.607369 kJ/mol
# GULP energy per Si atom -5594.912961 kJ/mol
# Density = 2.164194 g / cm^3
# Si number density = 21.691312 Si / 1000 Ang^3
#
#
#
# Elastic Constant Matrix: (Units=GPa)
#
#
# Indices 1 2 3 4 5 6 
#
# 1 27.4991 4.1829 26.1426 0.0000 8.5711 0.0000
# 2 4.1829 62.1246 26.5460 0.0000 10.6903 0.0000
# 3 26.1426 26.5460 135.3822 0.0000 13.3026 0.0000
# 4 0.0000 0.0000 0.0000 52.4349 0.0000 -4.0474
# 5 8.5711 10.6903 13.3026 0.0000 48.2355 0.0000
# 6 0.0000 0.0000 0.0000 -4.0474 0.0000 18.2280
#
#
#
# Elastic Compliance Matrix: (Units=1/GPa)
#
#
# Indices 1 2 3 4 5 6 
#
# 1 0.046269 0.001647 -0.008648 0.000000 -0.006202 0.000000
# 2 0.001647 0.018068 -0.003534 0.000000 -0.003322 0.000000
# 3 -0.008648 -0.003534 0.009787 0.000000 -0.000379 0.000000
# 4 0.000000 0.000000 0.000000 0.019404 0.000000 0.004308
# 5 -0.006202 -0.003322 -0.000379 0.000000 0.022674 0.000000
# 6 0.000000 0.000000 0.000000 0.004308 0.000000 0.055817
#
#
# Mechanical properties :
#
#
# Convention : Reuss Voigt Hill
#
# Bulk Modulus (GPa) = 18.84924 37.63876 28.24400
# Shear Modulus (GPa) = 23.72212 34.98864 29.35538
#
# Velocity S-wave (km/s) = 3.31059 4.02061 3.68275
# Velocity P-wave (km/s) = 4.82928 6.24046 5.57966
#
# Compressibility (1/GPa) = 0.05305254
#
# Stress axis : x y z
#
# Youngs Moduli (GPa) = 21.61285 55.34735 102.17888
#
# Poissons Ratio (x) = -0.09117 0.88367
# Poissons Ratio (y) = -0.03560 0.36114
# Poissons Ratio (z) = 0.18691 0.19562
#
# Static dielectric constant tensor:
#      x y z
#    x 1.771400 0.000000 -0.021650 
#    y 0.000000 1.844570 0.000000 
#    z -0.021650 0.000000 1.772840 
# 
# From -- ./inp_files/12125.got.cif
#   From: 2010.05.17/outbox.cif.g08.bks.cpg/sg4_7_cif.got.tgz:12125.got - 2010.06.03 18:43:04.
