data_PCOD9116581
_publ_section_title
;
Structure prediction by ZEFSAII (Michael W. Deem and Ramdas Pophale) SiO2 
 PCOD9116581
Probable space group: P 21
;
_chemical_formula_sum "Si O2"
_cell_formula_units_Z 16
_cell_length_a 12.603361
_cell_length_b 4.979108
_cell_length_c 14.473932
_cell_angle_alpha 90.000000
_cell_angle_beta 136.434813
_cell_angle_gamma 90.000000
_cell_volume 625.974646
_symmetry_space_group_name_H-M "P 21"
_symmetry_group_IT_number 4
_symmetry_cell_setting 'monoclinic'
loop_
_space_group_symop_operation_xyz
x,y,z
-x,1/2+y,-z
loop_
_atom_site_type_symbol
_atom_site_label
_atom_site_fract_x
_atom_site_fract_y
_atom_site_fract_z
Si Si1 0.274358 0.292850 0.518034
Si Si2 0.900391 0.799283 0.414313
Si Si3 0.501571 0.707293 0.875806
Si Si4 0.804097 0.960284 0.829025
Si Si5 0.042663 0.063413 0.744645
Si Si6 0.030332 0.956988 0.139476
Si Si7 0.457055 0.791308 0.633679
Si Si8 0.323237 0.708588 0.948909
O O1 0.246079 0.291752 0.611320
O O2 0.115160 0.416639 0.382852
O O3 0.409026 0.494818 0.573747
O O4 0.325046 0.998927 0.519527
O O5 0.025072 0.593779 0.537592
O O6 0.881544 0.692840 0.299391
O O7 0.454897 0.783796 0.743907
O O8 0.370395 0.732372 0.870865
O O9 0.565310 0.406517 0.923498
O O10 0.636480 0.910311 0.993758
O O11 0.901419 0.754922 0.826621
O O12 0.626280 0.884571 0.712933
O O13 0.838617 0.264122 0.822438
O O14 0.880813 0.930181 0.978728
O O15 0.006792 0.309214 0.789255
O O16 0.157484 0.839573 0.856911
#
# Coordination Sequence:
#
# PCOD9116581 Si02
#       8
#     2   2   2   2   2   2   2   2
#     4  11  25  40  64  98 131 173 216 251 308 394
#     4  10  22  40  61  91 133 173 212 253 300 370
#     4  10  22  39  59  92 128 170 217 260 321 383
#     4  10  23  44  68  96 125 163 213 275 333 371
#     4  11  24  42  67  97 133 173 213 262 321 375
#     4  10  23  43  69  98 125 158 217 275 324 387
#     4  12  23  43  66  89 130 174 211 260 321 383
#     4  10  22  37  60  93 131 166 211 270 318 377
#
# _framework density 25.560141000000002
#
# number of rings (size 3 to 8) (size 9 to 14) (size 15 to 20)
#    0.000    1.500    0.000    4.500    0.000   14.000 
#    0.000    2.500    0.000    0.000    0.000    0.000 
#    0.000    0.000    0.000    0.000    0.000    0.000 
#
# Total GULP energy -89776.045590 kJ/mol
# GULP energy per Si atom -5611.002849 kJ/mol
# Density = 2.550196 g / cm^3
# Si number density = 25.560141 Si / 1000 Ang^3
#
#
#
# Elastic Constant Matrix: (Units=GPa)
#
#
# Indices 1 2 3 4 5 6 
#
# 1 64.4635 12.0681 15.2423 0.0000 15.1985 0.0000
# 2 12.0681 70.3362 20.0705 0.0000 -5.3585 0.0000
# 3 15.2423 20.0705 68.1163 0.0000 12.1285 0.0000
# 4 0.0000 0.0000 0.0000 36.1424 0.0000 6.6072
# 5 15.1985 -5.3585 12.1285 0.0000 42.7638 0.0000
# 6 0.0000 0.0000 0.0000 6.6072 0.0000 30.6497
#
#
#
# Elastic Compliance Matrix: (Units=1/GPa)
#
#
# Indices 1 2 3 4 5 6 
#
# 1 0.018015 -0.002978 -0.002051 0.000000 -0.006194 0.000000
# 2 -0.002978 0.016503 -0.005006 0.000000 0.004546 0.000000
# 3 -0.002051 -0.005006 0.017479 0.000000 -0.004856 0.000000
# 4 0.000000 0.000000 0.000000 0.028803 0.000000 -0.006209
# 5 -0.006194 0.004546 -0.004856 0.000000 0.027533 0.000000
# 6 0.000000 0.000000 0.000000 -0.006209 0.000000 0.033965
#
#
# Mechanical properties :
#
#
# Convention : Reuss Voigt Hill
#
# Bulk Modulus (GPa) = 31.31959 33.07530 32.19745
# Shear Modulus (GPa) = 28.89991 32.28016 30.59004
#
# Velocity S-wave (km/s) = 3.36618 3.55760 3.46321
# Velocity P-wave (km/s) = 5.23337 5.46293 5.34938
#
# Compressibility (1/GPa) = 0.03192890
#
# Stress axis : x y z
#
# Youngs Moduli (GPa) = 55.50786 60.59481 57.21065
#
# Poissons Ratio (x) = 0.18043 0.11734
# Poissons Ratio (y) = 0.16529 0.28638
# Poissons Ratio (z) = 0.11385 0.30332
#
# Static dielectric constant tensor:
#      x y z
#    x 2.023700 0.000000 -0.022340 
#    y 0.000000 1.935450 0.000000 
#    z -0.022340 0.000000 1.994510 
# 
# From -- ./inp_files/13867.got.cif
#   From: 2010.05.17/outbox.cif.g08.bks.cpg/sg4_7_cif.got.tgz:13867.got - 2010.06.03 18:43:04.
