data_PCOD9116479
_publ_section_title
;
Structure prediction by ZEFSAII (Michael W. Deem and Ramdas Pophale) SiO2 
 PCOD9116479
Probable space group: P 21
;
_chemical_formula_sum "Si O2"
_cell_formula_units_Z 16
_cell_length_a 8.781320
_cell_length_b 13.073410
_cell_length_c 6.130268
_cell_angle_alpha 90.000000
_cell_angle_beta 82.134948
_cell_angle_gamma 90.000000
_cell_volume 697.145536
_symmetry_space_group_name_H-M "P 21"
_symmetry_group_IT_number 4
_symmetry_cell_setting 'monoclinic'
loop_
_space_group_symop_operation_xyz
x,y,z
-x,1/2+y,-z
loop_
_atom_site_type_symbol
_atom_site_label
_atom_site_fract_x
_atom_site_fract_y
_atom_site_fract_z
Si Si1 0.060232 0.551030 0.276144
Si Si2 0.667790 0.470696 0.902081
Si Si3 0.363727 0.782674 0.767197
Si Si4 0.162157 0.177200 0.976820
Si Si5 0.878112 0.368083 0.491482
Si Si6 0.606278 0.089141 0.923933
Si Si7 0.601137 0.697383 0.388313
Si Si8 0.914886 0.701148 0.548592
O O1 0.234370 0.537780 0.175052
O O2 0.957445 0.451315 0.320725
O O3 0.035525 0.608440 0.511738
O O4 0.979670 0.636336 0.137988
O O5 0.761902 0.569264 0.965818
O O6 0.760830 0.419122 0.686313
O O7 0.641025 0.387301 0.096007
O O8 0.498914 0.518359 0.900777
O O9 0.219390 0.789770 0.634726
O O10 0.507071 0.766147 0.574512
O O11 0.362291 0.691695 0.943283
O O12 0.110949 0.234232 0.200088
O O13 0.296259 0.241393 0.830847
O O14 0.013304 0.301977 0.577168
O O15 0.513758 0.121287 0.719064
O O16 0.749836 0.657989 0.496319
#
# Coordination Sequence:
#
# PCOD9116479 Si02
#       8
#     2   2   2   2   2   2   2   2
#     4  11  23  44  69 105 138 180 240 296 358 431
#     4  11  24  45  71 103 145 189 242 298 359 430
#     4  12  24  44  71 101 144 189 241 301 356 431
#     4  10  21  44  70  99 142 189 233 300 365 417
#     4  12  26  44  73 107 139 188 245 297 362 427
#     4  11  26  46  73 105 148 191 238 293 368 434
#     4  10  23  42  71 101 135 189 234 285 363 426
#     4  11  23  43  74  99 145 185 237 304 359 424
#
# _framework density 22.950728999999999
#
# number of rings (size 3 to 8) (size 9 to 14) (size 15 to 20)
#    0.000    1.000    2.500    4.500    3.500    1.000 
#    0.000    0.000    0.000    0.000    0.000    0.000 
#    0.000    0.000    0.000    0.000    0.000    0.000 
#
# Total GULP energy -89231.982682 kJ/mol
# GULP energy per Si atom -5576.998918 kJ/mol
# Density = 2.289849 g / cm^3
# Si number density = 22.950729 Si / 1000 Ang^3
#
#
#
# Elastic Constant Matrix: (Units=GPa)
#
#
# Indices 1 2 3 4 5 6 
#
# 1 134.9989 41.6124 49.7994 0.0000 -30.3645 0.0000
# 2 41.6124 76.5956 40.1130 0.0000 -12.9166 0.0000
# 3 49.7994 40.1130 97.3648 0.0000 -27.1614 0.0000
# 4 0.0000 0.0000 0.0000 38.6078 0.0000 -9.0910
# 5 -30.3645 -12.9166 -27.1614 0.0000 40.5924 0.0000
# 6 0.0000 0.0000 0.0000 -9.0910 0.0000 32.3068
#
#
#
# Elastic Compliance Matrix: (Units=1/GPa)
#
#
# Indices 1 2 3 4 5 6 
#
# 1 0.010584 -0.003571 -0.002521 0.000000 0.005094 0.000000
# 2 -0.003571 0.017877 -0.005775 0.000000 -0.000847 0.000000
# 3 -0.002521 -0.005775 0.015861 0.000000 0.006890 0.000000
# 4 0.000000 0.000000 0.000000 0.027740 0.000000 0.007806
# 5 0.005094 -0.000847 0.006890 0.000000 0.032786 0.000000
# 6 0.000000 0.000000 0.000000 0.007806 0.000000 0.033150
#
#
# Mechanical properties :
#
#
# Convention : Reuss Voigt Hill
#
# Bulk Modulus (GPa) = 48.57075 63.55656 56.06365
# Shear Modulus (GPa) = 29.65696 34.13034 31.89365
#
# Velocity S-wave (km/s) = 3.59862 3.86049 3.73186
# Velocity P-wave (km/s) = 6.20288 6.90101 6.56124
#
# Compressibility (1/GPa) = 0.02058852
#
# Stress axis : x y z
#
# Youngs Moduli (GPa) = 94.48321 55.93796 63.04594
#
# Poissons Ratio (x) = 0.19973 0.15896
# Poissons Ratio (y) = 0.33736 0.36409
# Poissons Ratio (z) = 0.23822 0.32304
#
# Static dielectric constant tensor:
#      x y z
#    x 1.911420 0.000000 0.046840 
#    y 0.000000 1.836650 0.000000 
#    z 0.046840 0.000000 2.004520 
# 
# From -- ./inp_files/1551.got.cif
#   From: 2010.05.17/outbox.cif.g08.bks.cpg/sg4_1_cif.got.tgz:1551.got - 2010.06.03 18:43:04.
