data_PCOD9116136
_publ_section_title
;
Structure prediction by ZEFSAII (Michael W. Deem and Ramdas Pophale) SiO2 
 PCOD9116136
Probable space group: P 21
;
_chemical_formula_sum "Si O2"
_cell_formula_units_Z 14
_cell_length_a 10.433322
_cell_length_b 8.801602
_cell_length_c 7.878541
_cell_angle_alpha 90.000000
_cell_angle_beta 45.126712
_cell_angle_gamma 90.000000
_cell_volume 512.711995
_symmetry_space_group_name_H-M "P 21"
_symmetry_group_IT_number 4
_symmetry_cell_setting 'monoclinic'
loop_
_space_group_symop_operation_xyz
x,y,z
-x,1/2+y,-z
loop_
_atom_site_type_symbol
_atom_site_label
_atom_site_fract_x
_atom_site_fract_y
_atom_site_fract_z
Si Si1 0.665704 0.647730 0.013014
Si Si2 0.386052 0.847884 0.137797
Si Si3 0.972363 0.076175 0.815369
Si Si4 0.557653 0.441267 0.426977
Si Si5 0.874454 0.906160 0.230335
Si Si6 0.429891 0.663115 0.771964
Si Si7 0.042333 0.638959 0.544237
O O1 0.624123 0.522827 0.904685
O O2 0.864175 0.711776 0.794051
O O3 0.525467 0.784204 0.144477
O O4 0.644167 0.547807 0.201395
O O5 0.199637 0.759540 0.354156
O O6 0.472519 0.777310 0.882958
O O7 0.019815 0.059600 0.573312
O O8 0.057977 0.238107 0.788650
O O9 0.755031 0.086234 0.003263
O O10 0.990453 0.963961 0.958932
O O11 0.340096 0.418673 0.606807
O O12 0.578847 0.543203 0.574393
O O13 0.624904 0.270801 0.337081
O O14 0.901992 0.013285 0.369129
#
# Coordination Sequence:
#
# PCOD9116136 Si02
#       7
#     2   2   2   2   2   2   2
#     4  11  24  41  68  97 132 179 220 285 342 404
#     4  10  23  43  64  97 133 171 231 274 343 414
#     4  10  25  43  68  99 137 183 231 285 344 416
#     4  10  21  40  65  96 130 172 220 277 341 403
#     4  11  23  44  69 100 140 178 234 287 340 420
#     4   9  21  41  61  93 132 168 220 277 334 402
#     4  11  23  44  69  98 142 181 226 287 348 409
#
# _framework density 27.305779999999999
#
# number of rings (size 3 to 8) (size 9 to 14) (size 15 to 20)
#    0.000    1.714    1.429    2.571    4.000    6.857 
#    0.000    4.286    0.000    0.000    0.000    0.000 
#    0.000    0.000    0.000    0.000    0.000    0.000 
#
# Total GULP energy -78403.663439 kJ/mol
# GULP energy per Si atom -5600.261674 kJ/mol
# Density = 2.724363 g / cm^3
# Si number density = 27.305780 Si / 1000 Ang^3
#
#
#
# Elastic Constant Matrix: (Units=GPa)
#
#
# Indices 1 2 3 4 5 6 
#
# 1 79.2891 32.0669 15.7748 0.0000 12.4347 0.0000
# 2 32.0669 135.4997 46.9663 0.0000 2.8919 0.0000
# 3 15.7748 46.9663 131.9641 0.0000 2.3774 0.0000
# 4 0.0000 0.0000 0.0000 49.6258 0.0000 3.9669
# 5 12.4347 2.8919 2.3774 0.0000 43.1791 0.0000
# 6 0.0000 0.0000 0.0000 3.9669 0.0000 38.1009
#
#
#
# Elastic Compliance Matrix: (Units=1/GPa)
#
#
# Indices 1 2 3 4 5 6 
#
# 1 0.014633 -0.003190 -0.000542 0.000000 -0.003970 0.000000
# 2 -0.003190 0.009121 -0.002873 0.000000 0.000466 0.000000
# 3 -0.000542 -0.002873 0.008668 0.000000 -0.000129 0.000000
# 4 0.000000 0.000000 0.000000 0.020320 0.000000 -0.002116
# 5 -0.003970 0.000466 -0.000129 0.000000 0.024279 0.000000
# 6 0.000000 0.000000 0.000000 -0.002116 0.000000 0.026466
#
#
# Mechanical properties :
#
#
# Convention : Reuss Voigt Hill
#
# Bulk Modulus (GPa) = 52.05627 59.59652 55.82639
# Shear Modulus (GPa) = 40.61697 42.97747 41.79722
#
# Velocity S-wave (km/s) = 3.86098 3.97159 3.91667
# Velocity P-wave (km/s) = 6.24354 6.55014 6.39868
#
# Compressibility (1/GPa) = 0.01920998
#
# Stress axis : x y z
#
# Youngs Moduli (GPa) = 68.33926 109.63646 115.37290
#
# Poissons Ratio (x) = 0.34977 0.06256
# Poissons Ratio (y) = 0.21802 0.33149
# Poissons Ratio (z) = 0.03706 0.31501
#
# Static dielectric constant tensor:
#      x y z
#    x 2.224110 0.000000 0.083930 
#    y 0.000000 2.114920 0.000000 
#    z 0.083930 0.000000 2.128500 
# 
# From -- ./inp_files/5567.got.cif
#   From: 2010.05.17/outbox.cif.g08.bks.cpg/sg4_3_cif.got.tgz:5567.got - 2010.06.03 18:43:04.
