data_PCOD9116425
_publ_section_title
;
Structure prediction by ZEFSAII (Michael W. Deem and Ramdas Pophale) SiO2 
 PCOD9116425
Probable space group: P 21
;
_chemical_formula_sum "Si O2"
_cell_formula_units_Z 16
_cell_length_a 8.744058
_cell_length_b 12.566958
_cell_length_c 7.856670
_cell_angle_alpha 90.000000
_cell_angle_beta 129.837534
_cell_angle_gamma 90.000000
_cell_volume 662.927489
_symmetry_space_group_name_H-M "P 21"
_symmetry_group_IT_number 4
_symmetry_cell_setting 'monoclinic'
loop_
_space_group_symop_operation_xyz
x,y,z
-x,1/2+y,-z
loop_
_atom_site_type_symbol
_atom_site_label
_atom_site_fract_x
_atom_site_fract_y
_atom_site_fract_z
Si Si1 0.639317 0.405130 0.355951
Si Si2 0.977185 0.808926 0.439353
Si Si3 0.585067 0.321735 0.697181
Si Si4 0.779929 0.843777 0.978386
Si Si5 0.404825 0.133460 0.139898
Si Si6 0.917475 0.456599 0.045959
Si Si7 0.759787 0.986584 0.443934
Si Si8 0.667989 0.647464 0.320783
O O1 0.642917 0.355729 0.547412
O O2 0.423208 0.404249 0.114583
O O3 0.702906 0.527972 0.406027
O O4 0.796841 0.335384 0.363897
O O5 0.857424 0.921996 0.358202
O O6 0.866627 0.720819 0.471422
O O7 0.931459 0.783048 0.211698
O O8 0.400090 0.400799 0.602373
O O9 0.502593 0.206293 0.690925
O O10 0.774869 0.352781 0.949186
O O11 0.664888 0.741154 0.817060
O O12 0.913509 0.924352 0.968004
O O13 0.629647 0.092213 0.331307
O O14 0.387577 0.145567 0.921265
O O15 0.247620 0.046948 0.095657
O O16 0.050252 0.493982 0.298831
#
# Coordination Sequence:
#
# PCOD9116425 Si02
#       8
#     2   2   2   2   2   2   2   2
#     4  12  23  43  71 103 145 188 237 302 352 415
#     4  10  23  44  69 100 141 183 238 288 351 430
#     4  10  23  43  68 103 143 182 241 294 349 423
#     4  11  24  42  65 102 141 179 237 299 348 421
#     4  10  24  43  69  99 141 189 241 290 363 430
#     4  11  22  44  68 101 139 185 229 299 352 424
#     4  10  21  43  69  98 138 181 235 289 352 423
#     4  10  24  46  71 104 142 193 242 289 363 428
#
# _framework density 24.135369000000001
#
# number of rings (size 3 to 8) (size 9 to 14) (size 15 to 20)
#    0.000    1.500    2.500    1.500    0.000   10.000 
#    0.000    5.000    0.000    0.000    0.000    0.000 
#    0.000    0.000    0.000    0.000    0.000    0.000 
#
# Total GULP energy -89220.293866 kJ/mol
# GULP energy per Si atom -5576.268367 kJ/mol
# Density = 2.408044 g / cm^3
# Si number density = 24.135369 Si / 1000 Ang^3
#
#
#
# Elastic Constant Matrix: (Units=GPa)
#
#
# Indices 1 2 3 4 5 6 
#
# 1 91.4517 41.2172 34.6946 0.0000 19.3879 0.0000
# 2 41.2172 85.7310 20.0253 0.0000 25.6443 0.0000
# 3 34.6946 20.0253 85.2382 0.0000 10.6926 0.0000
# 4 0.0000 0.0000 0.0000 15.6390 0.0000 8.4448
# 5 19.3879 25.6443 10.6926 0.0000 29.0693 0.0000
# 6 0.0000 0.0000 0.0000 8.4448 0.0000 43.0041
#
#
#
# Elastic Compliance Matrix: (Units=1/GPa)
#
#
# Indices 1 2 3 4 5 6 
#
# 1 0.016038 -0.005332 -0.004742 0.000000 -0.004248 0.000000
# 2 -0.005332 0.017973 -0.000534 0.000000 -0.012103 0.000000
# 3 -0.004742 -0.000534 0.013977 0.000000 -0.001507 0.000000
# 4 0.000000 0.000000 0.000000 0.071527 0.000000 -0.014046
# 5 -0.004248 -0.012103 -0.001507 0.000000 0.048465 0.000000
# 6 0.000000 0.000000 0.000000 -0.014046 0.000000 0.026012
#
#
# Mechanical properties :
#
#
# Convention : Reuss Voigt Hill
#
# Bulk Modulus (GPa) = 37.35436 50.47724 43.91580
# Shear Modulus (GPa) = 22.30840 28.64142 25.47491
#
# Velocity S-wave (km/s) = 3.04353 3.44859 3.25237
# Velocity P-wave (km/s) = 5.27839 6.06767 5.68674
#
# Compressibility (1/GPa) = 0.02677064
#
# Stress axis : x y z
#
# Youngs Moduli (GPa) = 62.35365 55.63976 71.54842
#
# Poissons Ratio (x) = 0.29667 0.33930
# Poissons Ratio (y) = 0.33247 0.03820
# Poissons Ratio (z) = 0.29569 0.02971
#
# Static dielectric constant tensor:
#      x y z
#    x 1.972540 0.000000 -0.101930 
#    y 0.000000 1.991960 0.000000 
#    z -0.101930 0.000000 2.230210 
# 
# From -- ./inp_files/6486.got.cif
#   From: 2010.05.17/outbox.cif.g08.bks.cpg/sg4_4_cif.got.tgz:6486.got - 2010.06.03 18:43:04.
