data_PCOD9116230
_publ_section_title
;
Structure prediction by ZEFSAII (Michael W. Deem and Ramdas Pophale) SiO2 
 PCOD9116230
Probable space group: P 21
;
_chemical_formula_sum "Si O2"
_cell_formula_units_Z 16
_cell_length_a 8.773911
_cell_length_b 14.101942
_cell_length_c 5.438335
_cell_angle_alpha 90.000000
_cell_angle_beta 102.955355
_cell_angle_gamma 90.000000
_cell_volume 655.752607
_symmetry_space_group_name_H-M "P 21"
_symmetry_group_IT_number 4
_symmetry_cell_setting 'monoclinic'
loop_
_space_group_symop_operation_xyz
x,y,z
-x,1/2+y,-z
loop_
_atom_site_type_symbol
_atom_site_label
_atom_site_fract_x
_atom_site_fract_y
_atom_site_fract_z
Si Si1 0.201863 0.696140 0.281149
Si Si2 0.576704 0.246678 0.016547
Si Si3 0.916352 0.769525 0.390951
Si Si4 0.730802 0.061866 0.314784
Si Si5 0.516885 0.948435 0.894326
Si Si6 0.986262 0.562202 0.918264
Si Si7 0.711524 0.616280 0.128747
Si Si8 0.844052 0.881990 0.857371
O O1 0.344605 0.753211 0.222371
O O2 0.268655 0.597865 0.409079
O O3 0.102321 0.755058 0.439871
O O4 0.068967 0.658806 0.045460
O O5 0.577576 0.351168 0.121334
O O6 0.403470 0.204317 0.963351
O O7 0.671620 0.159308 0.165926
O O8 0.838230 0.664693 0.353884
O O9 0.870354 0.820545 0.624239
O O10 0.869409 0.826308 0.125115
O O11 0.908476 0.041902 0.288257
O O12 0.608922 0.983492 0.177292
O O13 0.667402 0.921638 0.786674
O O14 0.396470 0.033542 0.797999
O O15 0.034225 0.469309 0.092670
O O16 0.804689 0.579807 0.919826
#
# Coordination Sequence:
#
# PCOD9116230 Si02
#       8
#     2   2   2   2   2   2   2   2
#     4  10  23  40  67  97 135 188 228 293 354 418
#     4  10  21  41  65  99 140 182 236 292 364 420
#     4  11  26  45  75 102 141 184 240 294 357 414
#     4   9  21  41  65  94 134 184 231 299 350 422
#     4  10  22  43  71  96 145 185 238 289 362 433
#     4   9  22  40  69  95 138 176 245 287 355 417
#     4  10  22  45  65 107 138 192 234 302 351 431
#     4  11  25  47  71 106 137 189 236 296 353 423
#
# _framework density 24.399448
#
# number of rings (size 3 to 8) (size 9 to 14) (size 15 to 20)
#    0.000    2.000    1.250    0.750   10.500    1.000 
#    0.000    1.250    0.000    0.000    0.000    0.000 
#    0.000    0.000    0.000    0.000    0.000    0.000 
#
# Total GULP energy -89240.687088 kJ/mol
# GULP energy per Si atom -5577.542943 kJ/mol
# Density = 2.434391 g / cm^3
# Si number density = 24.399448 Si / 1000 Ang^3
#
#
#
# Elastic Constant Matrix: (Units=GPa)
#
#
# Indices 1 2 3 4 5 6 
#
# 1 123.9319 32.9429 21.5382 0.0000 -13.1521 0.0000
# 2 32.9429 123.3881 24.7712 0.0000 -8.4979 0.0000
# 3 21.5382 24.7712 61.2211 0.0000 -10.8463 0.0000
# 4 0.0000 0.0000 0.0000 39.3388 0.0000 -7.2700
# 5 -13.1521 -8.4979 -10.8463 0.0000 15.3651 0.0000
# 6 0.0000 0.0000 0.0000 -7.2700 0.0000 48.0757
#
#
#
# Elastic Compliance Matrix: (Units=1/GPa)
#
#
# Indices 1 2 3 4 5 6 
#
# 1 0.009452 -0.001802 -0.001531 0.000000 0.006014 0.000000
# 2 -0.001802 0.009263 -0.002834 0.000000 0.001580 0.000000
# 3 -0.001531 -0.002834 0.020013 0.000000 0.011249 0.000000
# 4 0.000000 0.000000 0.000000 0.026151 0.000000 0.003955
# 5 0.006014 0.001580 0.011249 0.000000 0.079045 0.000000
# 6 0.000000 0.000000 0.000000 0.003955 0.000000 0.021399
#
#
# Mechanical properties :
#
#
# Convention : Reuss Voigt Hill
#
# Bulk Modulus (GPa) = 37.88763 51.89397 44.89080
# Shear Modulus (GPa) = 26.81618 35.84184 31.32901
#
# Velocity S-wave (km/s) = 3.31879 3.83686 3.58719
# Velocity P-wave (km/s) = 5.49978 6.39870 5.96619
#
# Compressibility (1/GPa) = 0.02639384
#
# Stress axis : x y z
#
# Youngs Moduli (GPa) = 105.79544 107.95089 49.96870
#
# Poissons Ratio (x) = 0.19454 0.07649
# Poissons Ratio (y) = 0.19066 0.14162
# Poissons Ratio (z) = 0.16195 0.30596
#
# Static dielectric constant tensor:
#      x y z
#    x 1.968070 0.000000 0.018650 
#    y 0.000000 1.949450 0.000000 
#    z 0.018650 0.000000 2.181030 
# 
# From -- ./inp_files/1768.got.cif
#   From: 2010.05.17/outbox.cif.g08.bks.cpg/sg4_1_cif.got.tgz:1768.got - 2010.06.03 18:43:04.
