data_PCOD9116956
_publ_section_title
;
Structure prediction by ZEFSAII (Michael W. Deem and Ramdas Pophale) SiO2 
 PCOD9116956
Probable space group: P 21
;
_chemical_formula_sum "Si O2"
_cell_formula_units_Z 14
_cell_length_a 5.584585
_cell_length_b 5.263963
_cell_length_c 19.725039
_cell_angle_alpha 90.000000
_cell_angle_beta 57.255425
_cell_angle_gamma 90.000000
_cell_volume 487.712844
_symmetry_space_group_name_H-M "P 21"
_symmetry_group_IT_number 4
_symmetry_cell_setting 'monoclinic'
loop_
_space_group_symop_operation_xyz
x,y,z
-x,1/2+y,-z
loop_
_atom_site_type_symbol
_atom_site_label
_atom_site_fract_x
_atom_site_fract_y
_atom_site_fract_z
Si Si1 0.397171 0.828490 0.116948
Si Si2 0.040611 0.330337 0.175959
Si Si3 0.601996 0.253621 0.739443
Si Si4 0.824710 0.931923 0.601803
Si Si5 0.940997 0.719560 0.970653
Si Si6 0.208679 0.433845 0.538786
Si Si7 0.219714 0.505374 0.680434
O O1 0.152220 0.615041 0.151725
O O2 0.287431 0.115086 0.139404
O O3 0.548008 0.757883 0.165284
O O4 0.609511 0.798571 0.022301
O O5 0.905446 0.256561 0.124505
O O6 0.868054 0.272164 0.271174
O O7 0.663735 0.980317 0.696622
O O8 0.912822 0.374181 0.710536
O O9 0.417956 0.384631 0.708351
O O10 0.048998 0.164478 0.565193
O O11 0.655507 0.956352 0.556639
O O12 0.983075 0.665387 0.576672
O O13 0.942207 0.431444 0.995753
O O14 0.373318 0.478346 0.583903
#
# Coordination Sequence:
#
# PCOD9116956 Si02
#       7
#     2   2   2   2   2   2   2
#     4  11  23  42  65  93 130 174 221 272 331 394
#     4  11  23  42  65  93 130 174 221 272 331 394
#     4  10  22  42  66  96 132 173 220 272 330 392
#     4   9  18  37  63  93 129 171 219 272 330 392
#     4  12  24  40  64  96 132 174 222 274 332 394
#     4   9  18  37  63  93 129 171 219 272 330 392
#     4  10  22  42  66  96 132 173 220 272 330 392
#
# _framework density 28.705416
#
# number of rings (size 3 to 8) (size 9 to 14) (size 15 to 20)
#    0.000    1.714    0.000    4.286    0.000    2.286 
#    0.000   28.571    0.000    0.000    0.000    0.000 
#    0.000    0.000    0.000    0.000    0.000    0.000 
#
# Total GULP energy -78352.496844 kJ/mol
# GULP energy per Si atom -5596.606917 kJ/mol
# Density = 2.864008 g / cm^3
# Si number density = 28.705416 Si / 1000 Ang^3
#
#
#
# Elastic Constant Matrix: (Units=GPa)
#
#
# Indices 1 2 3 4 5 6 
#
# 1 133.3593 63.3712 35.1731 0.0000 22.8229 0.0000
# 2 63.3712 120.7041 26.2110 0.0000 -12.8361 0.0000
# 3 35.1731 26.2110 138.8538 0.0000 42.4489 0.0000
# 4 0.0000 0.0000 0.0000 39.1709 0.0000 -8.9323
# 5 22.8229 -12.8361 42.4489 0.0000 49.8458 0.0000
# 6 0.0000 0.0000 0.0000 -8.9323 0.0000 71.4976
#
#
#
# Elastic Compliance Matrix: (Units=1/GPa)
#
#
# Indices 1 2 3 4 5 6 
#
# 1 0.012248 -0.007488 0.000831 0.000000 -0.008244 0.000000
# 2 -0.007488 0.014196 -0.003987 0.000000 0.010479 0.000000
# 3 0.000831 -0.003987 0.011051 0.000000 -0.010818 0.000000
# 4 0.000000 0.000000 0.000000 0.026278 0.000000 0.003283
# 5 -0.008244 0.010479 -0.010818 0.000000 0.035748 0.000000
# 6 0.000000 0.000000 0.000000 0.003283 0.000000 0.014397
#
#
# Mechanical properties :
#
#
# Convention : Reuss Voigt Hill
#
# Bulk Modulus (GPa) = 61.69405 71.38088 66.53746
# Shear Modulus (GPa) = 35.56009 49.98033 42.77021
#
# Velocity S-wave (km/s) = 3.52347 4.17723 3.86420
# Velocity P-wave (km/s) = 6.17186 6.94164 6.56804
#
# Compressibility (1/GPa) = 0.01620902
#
# Stress axis : x y z
#
# Youngs Moduli (GPa) = 81.64380 70.44268 90.48902
#
# Poissons Ratio (x) = 0.52746 -0.07521
# Poissons Ratio (y) = 0.61133 0.36074
# Poissons Ratio (z) = -0.06786 0.28082
#
# Static dielectric constant tensor:
#      x y z
#    x 2.289710 0.000000 -0.022740 
#    y 0.000000 2.197260 0.000000 
#    z -0.022740 0.000000 2.333110 
# 
# From -- ./inp_files/14656.got.cif
#   From: 2010.05.17/outbox.cif.g08.bks.cpg/sg4_8_cif.got.tgz:14656.got - 2010.06.03 18:43:04.
