data_PCOD9116460
_publ_section_title
;
Structure prediction by ZEFSAII (Michael W. Deem and Ramdas Pophale) SiO2 
 PCOD9116460
Probable space group: P 21
;
_chemical_formula_sum "Si O2"
_cell_formula_units_Z 14
_cell_length_a 9.893771
_cell_length_b 11.397053
_cell_length_c 8.292640
_cell_angle_alpha 90.000000
_cell_angle_beta 42.946428
_cell_angle_gamma 90.000000
_cell_volume 637.081070
_symmetry_space_group_name_H-M "P 21"
_symmetry_group_IT_number 4
_symmetry_cell_setting 'monoclinic'
loop_
_space_group_symop_operation_xyz
x,y,z
-x,1/2+y,-z
loop_
_atom_site_type_symbol
_atom_site_label
_atom_site_fract_x
_atom_site_fract_y
_atom_site_fract_z
Si Si1 0.752565 0.561960 0.045072
Si Si2 0.292128 0.710520 0.092130
Si Si3 0.592235 0.882967 0.719295
Si Si4 0.546547 0.255983 0.685507
Si Si5 0.026636 0.349739 0.809024
Si Si6 0.745789 0.939043 0.930863
Si Si7 0.028836 0.757353 0.811777
O O1 0.579738 0.481699 0.117823
O O2 0.608347 0.660500 0.246243
O O3 0.899718 0.461872 0.982789
O O4 0.912947 0.650947 0.822777
O O5 0.370890 0.721198 0.207376
O O6 0.252307 0.577890 0.076963
O O7 0.098957 0.791155 0.227218
O O8 0.468720 0.763043 0.828271
O O9 0.754330 0.888388 0.436826
O O10 0.711661 0.894471 0.779770
O O11 0.738186 0.255984 0.409248
O O12 0.430240 0.378408 0.810875
O O13 0.025217 0.255224 0.952737
O O14 0.944704 0.878751 0.818118
#
# Coordination Sequence:
#
# PCOD9116460 Si02
#       7
#     2   2   2   2   2   2   2
#     4  10  22  40  66  88 124 168 202 254 314 360
#     4  10  22  40  66  96 121 165 211 254 310 366
#     4  10  21  44  65  91 127 160 209 264 306 364
#     4  10  21  44  65  91 127 160 209 264 306 364
#     4  11  25  42  63  96 128 165 207 252 317 378
#     4  10  22  40  66  96 121 165 211 254 310 366
#     4  11  25  42  63  96 128 165 207 252 317 378
#
# _framework density 21.975227
#
# number of rings (size 3 to 8) (size 9 to 14) (size 15 to 20)
#    0.000    1.714    1.429    1.714    2.000    5.714 
#    5.143    0.000    0.000    0.000    0.000    0.000 
#    0.000    0.000    0.000    0.000    0.000    0.000 
#
# Total GULP energy -78007.076503 kJ/mol
# GULP energy per Si atom -5571.934036 kJ/mol
# Density = 2.192521 g / cm^3
# Si number density = 21.975227 Si / 1000 Ang^3
#
#
#
# Elastic Constant Matrix: (Units=GPa)
#
#
# Indices 1 2 3 4 5 6 
#
# 1 39.6210 14.4026 12.1590 0.0000 1.5172 0.0000
# 2 14.4026 119.6101 7.4531 0.0000 -11.4011 0.0000
# 3 12.1590 7.4531 76.1242 0.0000 -3.4924 0.0000
# 4 0.0000 0.0000 0.0000 8.7267 0.0000 -17.1202
# 5 1.5172 -11.4011 -3.4924 0.0000 16.2170 0.0000
# 6 0.0000 0.0000 0.0000 -17.1202 0.0000 29.4947
#
#
#
# Elastic Compliance Matrix: (Units=1/GPa)
#
#
# Indices 1 2 3 4 5 6 
#
# 1 0.028182 -0.003708 -0.004423 0.000000 -0.006196 0.000000
# 2 -0.003708 0.009476 -0.000014 0.000000 0.007006 0.000000
# 3 -0.004423 -0.000014 0.014001 0.000000 0.003419 0.000000
# 4 0.000000 0.000000 0.000000 -0.825888 0.000000 -0.479388
# 5 -0.006196 0.007006 0.003419 0.000000 0.067905 0.000000
# 6 0.000000 0.000000 0.000000 -0.479388 0.000000 -0.244357
#
#
# Mechanical properties :
#
#
# Convention : Reuss Voigt Hill
#
# Bulk Modulus (GPa) = 28.27379 33.70940 30.99160
# Shear Modulus (GPa) = -5.41946 24.31036 9.44545
#
# Velocity S-wave (km/s) = -1.57211 3.32966 2.07547
# Velocity P-wave (km/s) = 3.09819 5.49138 4.45836
#
# Compressibility (1/GPa) = 0.03536844
#
# Stress axis : x y z
#
# Youngs Moduli (GPa) = 35.48401 105.53325 71.42314
#
# Poissons Ratio (x) = 0.39137 0.31587
# Poissons Ratio (y) = 0.13159 0.00100
# Poissons Ratio (z) = 0.15693 0.00148
#
# Static dielectric constant tensor:
#      x y z
#    x 1.810330 0.000000 -0.004850 
#    y 0.000000 1.828250 0.000000 
#    z -0.004850 0.000000 1.817230 
# 
# From -- ./inp_files/1175.got.cif
#   From: 2010.05.17/outbox.cif.g08.bks.cpg/sg4_1_cif.got.tgz:1175.got - 2010.06.03 18:43:04.
