data_PCOD9116713
_publ_section_title
;
Structure prediction by ZEFSAII (Michael W. Deem and Ramdas Pophale) SiO2 
 PCOD9116713
Probable space group: P 21
;
_chemical_formula_sum "Si O2"
_cell_formula_units_Z 12
_cell_length_a 16.475314
_cell_length_b 5.091301
_cell_length_c 5.285838
_cell_angle_alpha 90.000000
_cell_angle_beta 104.880836
_cell_angle_gamma 90.000000
_cell_volume 428.510155
_symmetry_space_group_name_H-M "P 21"
_symmetry_group_IT_number 4
_symmetry_cell_setting 'monoclinic'
loop_
_space_group_symop_operation_xyz
x,y,z
-x,1/2+y,-z
loop_
_atom_site_type_symbol
_atom_site_label
_atom_site_fract_x
_atom_site_fract_y
_atom_site_fract_z
Si Si1 0.314963 0.841670 0.173445
Si Si2 0.142935 0.822468 0.254485
Si Si3 0.642050 0.661304 0.280171
Si Si4 0.020865 0.424887 0.685899
Si Si5 0.522992 0.073801 0.652509
Si Si6 0.816120 0.828737 0.385275
O O1 0.214438 0.825859 0.099650
O O2 0.338055 0.024975 0.433285
O O3 0.376756 0.592029 0.243445
O O4 0.342561 0.966831 0.935949
O O5 0.152147 0.540979 0.389885
O O6 0.044537 0.881382 0.137130
O O7 0.169308 0.042112 0.483460
O O8 0.542468 0.713397 0.206555
O O9 0.716069 0.871799 0.289477
O O10 0.120016 0.366761 0.798722
O O11 0.006936 0.708187 0.547018
O O12 0.504182 0.274514 0.404951
#
# Coordination Sequence:
#
# PCOD9116713 Si02
#       6
#     2   2   2   2   2   2
#     4  10  22  40  63  90 122 160 202 250 303 360
#     4   9  17  33  56  87 120 158 200 247 298 356
#     4  10  22  40  63  90 122 160 202 250 303 360
#     4   8  14  26  52  82 116 154 196 242 294 350
#     4  10  22  42  64  92 124 162 204 252 304 362
#     4   9  17  33  56  87 120 158 200 247 298 356
#
# _framework density 28.004007000000001
#
# number of rings (size 3 to 8) (size 9 to 14) (size 15 to 20)
#    0.000    2.667    0.000    1.000    0.000    5.333 
#    0.000   20.000    0.000   26.000    0.000    0.000 
#    0.000    0.000    0.000    0.000    0.000    0.000 
#
# Total GULP energy -67105.097288 kJ/mol
# GULP energy per Si atom -5592.091441 kJ/mol
# Density = 2.794027 g / cm^3
# Si number density = 28.004007 Si / 1000 Ang^3
#
#
#
# Elastic Constant Matrix: (Units=GPa)
#
#
# Indices 1 2 3 4 5 6 
#
# 1 263.4250 27.5827 42.9455 0.0000 -45.4905 0.0000
# 2 27.5827 117.1921 50.3455 0.0000 11.1032 0.0000
# 3 42.9455 50.3455 81.0725 0.0000 5.2273 0.0000
# 4 0.0000 0.0000 0.0000 19.9740 0.0000 9.0735
# 5 -45.4905 11.1032 5.2273 0.0000 25.3454 0.0000
# 6 0.0000 0.0000 0.0000 9.0735 0.0000 48.6821
#
#
#
# Elastic Compliance Matrix: (Units=1/GPa)
#
#
# Indices 1 2 3 4 5 6 
#
# 1 0.006923 -0.001333 -0.003727 0.000000 0.013778 0.000000
# 2 -0.001333 0.012239 -0.006480 0.000000 -0.006418 0.000000
# 3 -0.003727 -0.006480 0.018832 0.000000 -0.007735 0.000000
# 4 0.000000 0.000000 0.000000 0.054696 0.000000 -0.010194
# 5 0.013778 -0.006418 -0.007735 0.000000 0.068591 0.000000
# 6 0.000000 0.000000 0.000000 -0.010194 0.000000 0.022441
#
#
# Mechanical properties :
#
#
# Convention : Reuss Voigt Hill
#
# Bulk Modulus (GPa) = 67.06147 78.15964 72.61056
# Shear Modulus (GPa) = 23.61005 41.52136 32.56570
#
# Velocity S-wave (km/s) = 2.90676 3.85475 3.41382
# Velocity P-wave (km/s) = 5.93841 6.91252 6.44390
#
# Compressibility (1/GPa) = 0.01491169
#
# Stress axis : x y z
#
# Youngs Moduli (GPa) = 144.45149 81.70779 53.10143
#
# Poissons Ratio (x) = 0.10895 0.19793
# Poissons Ratio (y) = 0.19262 0.34410
# Poissons Ratio (z) = 0.53843 0.52947
#
# Static dielectric constant tensor:
#      x y z
#    x 2.417890 0.000000 0.084580 
#    y 0.000000 2.152080 0.000000 
#    z 0.084580 0.000000 2.153800 
# 
# From -- ./inp_files/3837.got.cif
#   From: 2010.05.17/outbox.cif.g08.bks.cpg/sg4_2_cif.got.tgz:3837.got - 2010.06.03 18:43:04.
