data_PCOD9116166
_publ_section_title
;
Structure prediction by ZEFSAII (Michael W. Deem and Ramdas Pophale) SiO2 
 PCOD9116166
Probable space group: P 21
;
_chemical_formula_sum "Si O2"
_cell_formula_units_Z 16
_cell_length_a 9.475882
_cell_length_b 8.813153
_cell_length_c 7.440704
_cell_angle_alpha 90.000000
_cell_angle_beta 85.832208
_cell_angle_gamma 90.000000
_cell_volume 619.747758
_symmetry_space_group_name_H-M "P 21"
_symmetry_group_IT_number 4
_symmetry_cell_setting 'monoclinic'
loop_
_space_group_symop_operation_xyz
x,y,z
-x,1/2+y,-z
loop_
_atom_site_type_symbol
_atom_site_label
_atom_site_fract_x
_atom_site_fract_y
_atom_site_fract_z
Si Si1 0.539076 0.531660 0.541445
Si Si2 0.293210 0.719478 0.520699
Si Si3 0.719807 0.474932 0.009337
Si Si4 0.742527 0.702394 0.290166
Si Si5 0.418324 0.442910 0.927281
Si Si6 0.819242 0.162635 0.063071
Si Si7 0.088426 0.143578 0.248113
Si Si8 0.996622 0.346453 0.549621
O O1 0.393140 0.579273 0.454598
O O2 0.608755 0.368966 0.498161
O O3 0.653114 0.657849 0.473587
O O4 0.489185 0.529078 0.751085
O O5 0.240636 0.691273 0.728771
O O6 0.149476 0.752457 0.427789
O O7 0.553983 0.432761 0.042050
O O8 0.763915 0.594361 0.851399
O O9 0.773642 0.544621 0.190264
O O10 0.800105 0.319493 0.962422
O O11 0.641870 0.790937 0.158964
O O12 0.880467 0.797535 0.324090
O O13 0.282953 0.535153 0.008044
O O14 0.980444 0.125386 0.090816
O O15 0.046064 0.018435 0.402557
O O16 0.063658 0.303684 0.348617
#
# Coordination Sequence:
#
# PCOD9116166 Si02
#       8
#     2   2   2   2   2   2   2   2
#     4  11  21  41  68 101 128 177 232 281 333 392
#     4  10  21  40  68  98 132 173 225 287 332 393
#     4  12  26  44  68  98 140 183 227 279 355 411
#     4  12  24  42  70 100 139 182 227 289 342 416
#     4  11  23  44  65 100 133 183 233 282 339 405
#     4  10  23  44  65  94 144 173 224 282 342 411
#     4  11  26  45  71  99 135 181 224 289 342 412
#     4  11  24  46  69 104 133 176 236 285 343 402
#
# _framework density 25.816955
#
# number of rings (size 3 to 8) (size 9 to 14) (size 15 to 20)
#    0.000    1.000    3.750    3.000    3.500    0.000 
#    0.000    1.250    0.000    0.000    0.000    0.000 
#    0.000    0.000    0.000    0.000    0.000    0.000 
#
# Total GULP energy -89512.594473 kJ/mol
# GULP energy per Si atom -5594.537155 kJ/mol
# Density = 2.575819 g / cm^3
# Si number density = 25.816955 Si / 1000 Ang^3
#
#
#
# Elastic Constant Matrix: (Units=GPa)
#
#
# Indices 1 2 3 4 5 6 
#
# 1 130.3822 30.4619 14.2078 0.0000 9.8868 0.0000
# 2 30.4619 42.4127 -1.2400 0.0000 -4.2945 0.0000
# 3 14.2078 -1.2400 57.4922 0.0000 -6.2349 0.0000
# 4 0.0000 0.0000 0.0000 33.7109 0.0000 -5.3504
# 5 9.8868 -4.2945 -6.2349 0.0000 22.7818 0.0000
# 6 0.0000 0.0000 0.0000 -5.3504 0.0000 41.9396
#
#
#
# Elastic Compliance Matrix: (Units=1/GPa)
#
#
# Indices 1 2 3 4 5 6 
#
# 1 0.010568 -0.008418 -0.003568 0.000000 -0.007150 0.000000
# 2 -0.008418 0.030803 0.003886 0.000000 0.010523 0.000000
# 3 -0.003568 0.003886 0.019176 0.000000 0.007529 0.000000
# 4 0.000000 0.000000 0.000000 0.030277 0.000000 0.003863
# 5 -0.007150 0.010523 0.007529 0.000000 0.051042 0.000000
# 6 0.000000 0.000000 0.000000 0.003863 0.000000 0.024337
#
#
# Mechanical properties :
#
#
# Convention : Reuss Voigt Hill
#
# Bulk Modulus (GPa) = 22.55028 35.23849 28.89438
# Shear Modulus (GPa) = 25.35688 32.14360 28.75024
#
# Velocity S-wave (km/s) = 3.13737 3.53237 3.34071
# Velocity P-wave (km/s) = 4.67737 5.50598 5.10850
#
# Compressibility (1/GPa) = 0.04434535
#
# Stress axis : x y z
#
# Youngs Moduli (GPa) = 94.62937 32.46417 52.14888
#
# Poissons Ratio (x) = 0.27329 0.18609
# Poissons Ratio (y) = 0.79661 -0.20265
# Poissons Ratio (z) = 0.33768 -0.12615
#
# Static dielectric constant tensor:
#      x y z
#    x 2.069960 0.000000 0.070100 
#    y 0.000000 2.038300 0.000000 
#    z 0.070100 0.000000 2.081180 
# 
# From -- ./inp_files/5654.got.cif
#   From: 2010.05.17/outbox.cif.g08.bks.cpg/sg4_3_cif.got.tgz:5654.got - 2010.06.03 18:43:04.
