data_PCOD9116440
_publ_section_title
;
Structure prediction by ZEFSAII (Michael W. Deem and Ramdas Pophale) SiO2 
 PCOD9116440
Probable space group: P 21
;
_chemical_formula_sum "Si O2"
_cell_formula_units_Z 12
_cell_length_a 17.402253
_cell_length_b 5.106604
_cell_length_c 5.796670
_cell_angle_alpha 90.000000
_cell_angle_beta 110.520664
_cell_angle_gamma 90.000000
_cell_volume 482.442177
_symmetry_space_group_name_H-M "P 21"
_symmetry_group_IT_number 4
_symmetry_cell_setting 'monoclinic'
loop_
_space_group_symop_operation_xyz
x,y,z
-x,1/2+y,-z
loop_
_atom_site_type_symbol
_atom_site_label
_atom_site_fract_x
_atom_site_fract_y
_atom_site_fract_z
Si Si1 0.745760 0.057620 0.106218
Si Si2 0.920535 0.045436 0.118615
Si Si3 0.095980 0.047177 0.227913
Si Si4 0.724583 0.560758 0.369010
Si Si5 0.497644 0.403190 0.839443
Si Si6 0.369913 0.700512 0.387165
O O1 0.722808 0.344744 0.166690
O O2 0.844172 0.032431 0.209929
O O3 0.710037 0.840994 0.239367
O O4 0.704664 0.040739 0.811005
O O5 0.911739 0.799078 0.941459
O O6 0.014637 0.043162 0.303166
O O7 0.907303 0.299711 0.945986
O O8 0.182148 0.055479 0.443073
O O9 0.667257 0.440738 0.506543
O O10 0.424855 0.515331 0.605411
O O11 0.569395 0.309282 0.744854
O O12 0.477059 0.150097 0.974004
#
# Coordination Sequence:
#
# PCOD9116440 Si02
#       6
#     2   2   2   2   2   2
#     4  12  28  46  75 115 151 203 254 305 380 452
#     4  10  21  43  72 104 152 204 251 307 370 430
#     4  10  21  43  72 104 152 204 251 307 370 430
#     4  12  28  46  75 115 151 203 254 305 380 452
#     4  12  30  56  84 116 144 202 254 308 394 474
#     4  12  30  54  80 112 162 190 250 330 382 442
#
# _framework density 24.873448
#
# number of rings (size 3 to 8) (size 9 to 14) (size 15 to 20)
#    0.000    0.667    1.667    4.000    0.000   14.667 
#    0.000    0.000    0.000    0.000    0.000    0.000 
#    0.000    0.000    0.000    0.000    0.000    0.000 
#
# Total GULP energy -67328.408504 kJ/mol
# GULP energy per Si atom -5610.700709 kJ/mol
# Density = 2.481683 g / cm^3
# Si number density = 24.873448 Si / 1000 Ang^3
#
#
#
# Elastic Constant Matrix: (Units=GPa)
#
#
# Indices 1 2 3 4 5 6 
#
# 1 156.1399 19.5973 22.1484 0.0000 -12.7919 0.0000
# 2 19.5973 109.3122 0.0413 0.0000 5.5903 0.0000
# 3 22.1484 0.0413 53.1887 0.0000 13.9425 0.0000
# 4 0.0000 0.0000 0.0000 36.4286 0.0000 -6.6017
# 5 -12.7919 5.5903 13.9425 0.0000 41.2092 0.0000
# 6 0.0000 0.0000 0.0000 -6.6017 0.0000 41.2414
#
#
#
# Elastic Compliance Matrix: (Units=1/GPa)
#
#
# Indices 1 2 3 4 5 6 
#
# 1 0.007513 -0.001547 -0.004163 0.000000 0.003950 0.000000
# 2 -0.001547 0.009537 0.001209 0.000000 -0.002183 0.000000
# 3 -0.004163 0.001209 0.022951 0.000000 -0.009221 0.000000
# 4 0.000000 0.000000 0.000000 0.028271 0.000000 0.004525
# 5 0.003950 -0.002183 -0.009221 0.000000 0.028909 0.000000
# 6 0.000000 0.000000 0.000000 0.004525 0.000000 0.024972
#
#
# Mechanical properties :
#
#
# Convention : Reuss Voigt Hill
#
# Bulk Modulus (GPa) = 32.25974 44.69051 38.47513
# Shear Modulus (GPa) = 35.33908 42.23276 38.78592
#
# Velocity S-wave (km/s) = 3.77338 4.12503 3.95312
# Velocity P-wave (km/s) = 5.65528 6.37919 6.02811
#
# Compressibility (1/GPa) = 0.03099839
#
# Stress axis : x y z
#
# Youngs Moduli (GPa) = 133.10540 104.85801 43.57176
#
# Poissons Ratio (x) = 0.16225 0.18138
# Poissons Ratio (y) = 0.20596 -0.05269
# Poissons Ratio (z) = 0.55409 -0.12679
#
# Static dielectric constant tensor:
#      x y z
#    x 2.006300 0.000000 0.019560 
#    y 0.000000 1.895650 0.000000 
#    z 0.019560 0.000000 1.951850 
# 
# From -- ./inp_files/3924.got.cif
#   From: 2010.05.17/outbox.cif.g08.bks.cpg/sg4_2_cif.got.tgz:3924.got - 2010.06.03 18:43:04.
