data_PCOD9116790
_publ_section_title
;
Structure prediction by ZEFSAII (Michael W. Deem and Ramdas Pophale) SiO2 
 PCOD9116790
Probable space group: P 21
;
_chemical_formula_sum "Si O2"
_cell_formula_units_Z 14
_cell_length_a 8.380821
_cell_length_b 9.463055
_cell_length_c 9.619456
_cell_angle_alpha 90.000000
_cell_angle_beta 119.646181
_cell_angle_gamma 90.000000
_cell_volume 663.035001
_symmetry_space_group_name_H-M "P 21"
_symmetry_group_IT_number 4
_symmetry_cell_setting 'monoclinic'
loop_
_space_group_symop_operation_xyz
x,y,z
-x,1/2+y,-z
loop_
_atom_site_type_symbol
_atom_site_label
_atom_site_fract_x
_atom_site_fract_y
_atom_site_fract_z
Si Si1 0.830849 0.710010 0.441716
Si Si2 0.626821 0.704342 0.821542
Si Si3 0.092460 0.294763 0.833642
Si Si4 0.479280 0.435909 0.658941
Si Si5 0.236085 0.696538 0.131862
Si Si6 0.524019 0.482322 0.356003
Si Si7 0.009641 0.127417 0.207908
O O1 0.906624 0.742890 0.323360
O O2 0.707693 0.847761 0.423233
O O3 0.698759 0.572098 0.382584
O O4 0.969251 0.679713 0.626156
O O5 0.504810 0.563471 0.777356
O O6 0.801087 0.666885 0.794094
O O7 0.495948 0.820742 0.695578
O O8 0.717416 0.761949 0.002896
O O9 0.940770 0.203886 0.847730
O O10 0.032357 0.459383 0.816862
O O11 0.633190 0.323517 0.768415
O O12 0.513405 0.492405 0.518157
O O13 0.348203 0.555949 0.210956
O O14 0.157640 0.702469 0.943433
#
# Coordination Sequence:
#
# PCOD9116790 Si02
#       7
#     2   2   2   2   2   2   2
#     4  11  25  41  66  97 135 166 221 283 331 380
#     4  11  21  40  71  92 129 176 222 270 318 400
#     4  11  24  41  64 103 134 166 217 281 338 383
#     4  11  21  42  68  96 125 176 232 258 323 405
#     4  10  22  40  70  89 129 177 219 266 320 407
#     4  11  20  41  70  95 124 177 227 266 319 401
#     4  11  21  43  65  96 134 172 222 266 329 406
#
# _framework density 21.115026
#
# number of rings (size 3 to 8) (size 9 to 14) (size 15 to 20)
#    0.000    1.143    5.714    0.857    0.000    2.286 
#    2.571    0.000    0.000    0.000    0.000    0.000 
#    0.000    0.000    0.000    0.000    0.000    0.000 
#
# Total GULP energy -78242.583051 kJ/mol
# GULP energy per Si atom -5588.755932 kJ/mol
# Density = 2.106697 g / cm^3
# Si number density = 21.115026 Si / 1000 Ang^3
#
#
#
# Elastic Constant Matrix: (Units=GPa)
#
#
# Indices 1 2 3 4 5 6 
#
# 1 16.0571 7.8822 25.6585 0.0000 -5.8752 0.0000
# 2 7.8822 69.3526 9.8035 0.0000 3.3828 0.0000
# 3 25.6585 9.8035 148.7930 0.0000 0.4606 0.0000
# 4 0.0000 0.0000 0.0000 32.7855 0.0000 -6.2398
# 5 -5.8752 3.3828 0.4606 0.0000 25.8122 0.0000
# 6 0.0000 0.0000 0.0000 -6.2398 0.0000 5.0546
#
#
#
# Elastic Compliance Matrix: (Units=1/GPa)
#
#
# Indices 1 2 3 4 5 6 
#
# 1 0.104732 -0.010685 -0.017436 0.000000 0.025550 0.000000
# 2 -0.010685 0.015738 0.000820 0.000000 -0.004509 0.000000
# 3 -0.017436 0.000820 0.009687 0.000000 -0.004249 0.000000
# 4 0.000000 0.000000 0.000000 0.039868 0.000000 0.049217
# 5 0.025550 -0.004509 -0.004249 0.000000 0.045224 0.000000
# 6 0.000000 0.000000 0.000000 0.049217 0.000000 0.258598
#
#
# Mechanical properties :
#
#
# Convention : Reuss Voigt Hill
#
# Bulk Modulus (GPa) = 13.23543 35.65458 24.44500
# Shear Modulus (GPa) = 9.03125 25.45436 17.24280
#
# Velocity S-wave (km/s) = 2.07037 3.47581 2.86074
# Velocity P-wave (km/s) = 3.46369 5.74725 4.74489
#
# Compressibility (1/GPa) = 0.07555480
#
# Stress axis : x y z
#
# Youngs Moduli (GPa) = 9.54813 63.54236 103.23583
#
# Poissons Ratio (x) = 0.67894 1.79998
# Poissons Ratio (y) = 0.10202 -0.08461
# Poissons Ratio (z) = 0.16648 -0.05208
#
# Static dielectric constant tensor:
#      x y z
#    x 1.791520 0.000000 0.005860 
#    y 0.000000 1.772600 0.000000 
#    z 0.005860 0.000000 1.750410 
# 
# From -- ./inp_files/5226.got.cif
#   From: 2010.05.17/outbox.cif.g08.bks.cpg/sg4_3_cif.got.tgz:5226.got - 2010.06.03 18:43:04.
