data_PCOD9116651
_publ_section_title
;
Structure prediction by ZEFSAII (Michael W. Deem and Ramdas Pophale) SiO2 
 PCOD9116651
Probable space group: P 21
;
_chemical_formula_sum "Si O2"
_cell_formula_units_Z 14
_cell_length_a 17.298619
_cell_length_b 4.788138
_cell_length_c 12.209592
_cell_angle_alpha 90.000000
_cell_angle_beta 30.733665
_cell_angle_gamma 90.000000
_cell_volume 516.821984
_symmetry_space_group_name_H-M "P 21"
_symmetry_group_IT_number 4
_symmetry_cell_setting 'monoclinic'
loop_
_space_group_symop_operation_xyz
x,y,z
-x,1/2+y,-z
loop_
_atom_site_type_symbol
_atom_site_label
_atom_site_fract_x
_atom_site_fract_y
_atom_site_fract_z
Si Si1 0.477554 0.634070 0.102308
Si Si2 0.545571 0.526074 0.408107
Si Si3 0.653870 0.292602 0.062937
Si Si4 0.020307 0.589321 0.401824
Si Si5 0.171071 0.369478 0.554798
Si Si6 0.958127 0.601751 0.992727
Si Si7 0.352631 0.042572 0.519938
O O1 0.601274 0.512317 0.035402
O O2 0.309925 0.573605 0.353099
O O3 0.493814 0.443534 0.973955
O O4 0.414323 0.276700 0.541830
O O5 0.660966 0.455635 0.171133
O O6 0.555850 0.297981 0.509939
O O7 0.513732 0.081488 0.250465
O O8 0.811006 0.146965 0.846311
O O9 0.001590 0.770938 0.535905
O O10 0.899550 0.702760 0.461003
O O11 0.245208 0.160383 0.552689
O O12 0.039329 0.536118 0.779670
O O13 0.796917 0.473341 0.215590
O O14 0.053729 0.428584 0.967474
#
# Coordination Sequence:
#
# PCOD9116651 Si02
#       7
#     2   2   2   2   2   2   2
#     4  11  24  42  66  98 130 174 235 280 316 380
#     4  10  22  39  63  99 135 166 210 267 330 398
#     4  10  23  43  70  97 134 178 217 275 335 385
#     4  12  27  46  66  96 134 177 226 276 332 390
#     4  10  23  43  70  97 134 178 217 275 335 385
#     4  10  22  39  63  99 135 166 210 267 330 398
#     4   9  21  42  68  98 130 169 219 264 322 402
#
# _framework density 27.088628
#
# number of rings (size 3 to 8) (size 9 to 14) (size 15 to 20)
#    0.000    1.714    0.000    2.571    0.000   17.143 
#    0.000    7.143    0.000    0.000    0.000    0.000 
#    0.000    0.000    0.000    0.000    0.000    0.000 
#
# Total GULP energy -78162.465763 kJ/mol
# GULP energy per Si atom -5583.033269 kJ/mol
# Density = 2.702697 g / cm^3
# Si number density = 27.088628 Si / 1000 Ang^3
#
#
#
# Elastic Constant Matrix: (Units=GPa)
#
#
# Indices 1 2 3 4 5 6 
#
# 1 108.9939 29.3848 28.8508 0.0000 19.6802 0.0000
# 2 29.3848 140.2855 18.2933 0.0000 11.5765 0.0000
# 3 28.8508 18.2933 186.8639 0.0000 -0.3220 0.0000
# 4 0.0000 0.0000 0.0000 39.0474 0.0000 3.0406
# 5 19.6802 11.5765 -0.3220 0.0000 51.0904 0.0000
# 6 0.0000 0.0000 0.0000 3.0406 0.0000 41.9310
#
#
#
# Elastic Compliance Matrix: (Units=1/GPa)
#
#
# Indices 1 2 3 4 5 6 
#
# 1 0.010714 -0.001741 -0.001490 0.000000 -0.003742 0.000000
# 2 -0.001741 0.007644 -0.000481 0.000000 -0.001064 0.000000
# 3 -0.001490 -0.000481 0.005630 0.000000 0.000719 0.000000
# 4 0.000000 0.000000 0.000000 0.025755 0.000000 -0.001868
# 5 -0.003742 -0.001064 0.000719 0.000000 0.021260 0.000000
# 6 0.000000 0.000000 0.000000 -0.001868 0.000000 0.023984
#
#
# Mechanical properties :
#
#
# Convention : Reuss Voigt Hill
#
# Bulk Modulus (GPa) = 60.37711 65.46679 62.92195
# Shear Modulus (GPa) = 46.32463 50.38805 48.35634
#
# Velocity S-wave (km/s) = 4.13984 4.31759 4.22965
# Velocity P-wave (km/s) = 6.72221 7.00539 6.86526
#
# Compressibility (1/GPa) = 0.01656257
#
# Stress axis : x y z
#
# Youngs Moduli (GPa) = 93.33240 130.82811 177.62217
#
# Poissons Ratio (x) = 0.22779 0.26470
# Poissons Ratio (y) = 0.16251 0.08549
# Poissons Ratio (z) = 0.13909 0.06297
#
# Static dielectric constant tensor:
#      x y z
#    x 2.213560 0.000000 -0.017220 
#    y 0.000000 2.068450 0.000000 
#    z -0.017220 0.000000 2.049660 
# 
# From -- ./inp_files/7243.got.cif
#   From: 2010.05.17/outbox.cif.g08.bks.cpg/sg4_4_cif.got.tgz:7243.got - 2010.06.03 18:43:04.
