data_PCOD9116395
_publ_section_title
;
Structure prediction by ZEFSAII (Michael W. Deem and Ramdas Pophale) SiO2 
 PCOD9116395
Probable space group: P 21
;
_chemical_formula_sum "Si O2"
_cell_formula_units_Z 14
_cell_length_a 24.789506
_cell_length_b 5.133724
_cell_length_c 6.787492
_cell_angle_alpha 90.000000
_cell_angle_beta 45.086369
_cell_angle_gamma 90.000000
_cell_volume 611.713974
_symmetry_space_group_name_H-M "P 21"
_symmetry_group_IT_number 4
_symmetry_cell_setting 'monoclinic'
loop_
_space_group_symop_operation_xyz
x,y,z
-x,1/2+y,-z
loop_
_atom_site_type_symbol
_atom_site_label
_atom_site_fract_x
_atom_site_fract_y
_atom_site_fract_z
Si Si1 0.475393 0.580320 0.179978
Si Si2 0.823428 0.059298 0.234143
Si Si3 0.950619 0.274099 0.623941
Si Si4 0.343079 0.679104 0.779085
Si Si5 0.392004 0.179633 0.889915
Si Si6 0.746054 0.559483 0.504337
Si Si7 0.819703 0.274373 0.654657
O O1 0.522523 0.646993 0.256406
O O2 0.387273 0.606414 0.466177
O O3 0.499519 0.296298 0.043259
O O4 0.759480 0.281883 0.371672
O O5 0.838047 0.072514 0.431765
O O6 0.789463 0.780151 0.272362
O O7 0.898044 0.149832 0.929507
O O8 0.892904 0.329715 0.594425
O O9 0.990262 0.544199 0.581509
O O10 0.371314 0.463032 0.863554
O O11 0.370296 0.963305 0.783731
O O12 0.251584 0.676970 0.032072
O O13 0.339288 0.126583 0.217914
O O14 0.787936 0.516482 0.608410
#
# Coordination Sequence:
#
# PCOD9116395 Si02
#       7
#     2   2   2   2   2   2   2
#     4  12  26  40  58  98 137 169 209 270 323 367
#     4  10  21  43  65  95 128 164 214 262 322 379
#     4  12  28  42  65 100 132 169 210 267 335 391
#     4  11  22  42  67  92 121 176 219 260 316 380
#     4  11  20  40  67  91 126 171 219 258 310 383
#     4   9  19  39  67  92 120 169 217 259 314 367
#     4   9  24  42  71  90 130 166 224 260 322 391
#
# _framework density 22.886513000000001
#
# number of rings (size 3 to 8) (size 9 to 14) (size 15 to 20)
#    0.857    0.571    1.429    3.429    2.000    3.429 
#    0.000    0.000    0.000    0.000    0.000    0.000 
#    0.000    0.000    0.000    0.000    0.000    0.000 
#
# Total GULP energy -78241.706895 kJ/mol
# GULP energy per Si atom -5588.693350 kJ/mol
# Density = 2.283442 g / cm^3
# Si number density = 22.886513 Si / 1000 Ang^3
#
#
#
# Elastic Constant Matrix: (Units=GPa)
#
#
# Indices 1 2 3 4 5 6 
#
# 1 61.6873 10.7457 7.6066 0.0000 -15.0469 0.0000
# 2 10.7457 78.0533 -0.5436 0.0000 -9.2986 0.0000
# 3 7.6066 -0.5436 77.5069 0.0000 -0.6404 0.0000
# 4 0.0000 0.0000 0.0000 35.8579 0.0000 4.5662
# 5 -15.0469 -9.2986 -0.6404 0.0000 34.0719 0.0000
# 6 0.0000 0.0000 0.0000 4.5662 0.0000 21.6541
#
#
#
# Elastic Compliance Matrix: (Units=1/GPa)
#
#
# Indices 1 2 3 4 5 6 
#
# 1 0.018603 -0.001652 -0.001773 0.000000 0.007731 0.000000
# 2 -0.001652 0.013390 0.000280 0.000000 0.002930 0.000000
# 3 -0.001773 0.000280 0.013074 0.000000 -0.000461 0.000000
# 4 0.000000 0.000000 0.000000 0.028657 0.000000 -0.006043
# 5 0.007731 0.002930 -0.000461 0.000000 0.033555 0.000000
# 6 0.000000 0.000000 0.000000 -0.006043 0.000000 0.047455
#
#
# Mechanical properties :
#
#
# Convention : Reuss Voigt Hill
#
# Bulk Modulus (GPa) = 25.78880 28.09609 26.94245
# Shear Modulus (GPa) = 28.74365 31.61270 30.17818
#
# Velocity S-wave (km/s) = 3.54774 3.72059 3.63519
# Velocity P-wave (km/s) = 5.29854 5.54617 5.42377
#
# Compressibility (1/GPa) = 0.03877652
#
# Stress axis : x y z
#
# Youngs Moduli (GPa) = 53.75440 74.68128 76.48600
#
# Poissons Ratio (x) = 0.12340 0.13564
# Poissons Ratio (y) = 0.08882 -0.02144
# Poissons Ratio (z) = 0.09533 -0.02093
#
# Static dielectric constant tensor:
#      x y z
#    x 1.901270 0.000000 0.007450 
#    y 0.000000 1.829480 0.000000 
#    z 0.007450 0.000000 1.872050 
# 
# From -- ./inp_files/10178.got.cif
#   From: 2010.05.17/outbox.cif.g08.bks.cpg/sg4_6_cif.got.tgz:10178.got - 2010.06.03 18:43:04.
