data_PCOD9116871
_publ_section_title
;
Structure prediction by ZEFSAII (Michael W. Deem and Ramdas Pophale) SiO2 
 PCOD9116871
Probable space group: P 21
;
_chemical_formula_sum "Si O2"
_cell_formula_units_Z 16
_cell_length_a 7.962929
_cell_length_b 9.914461
_cell_length_c 8.531215
_cell_angle_alpha 90.000000
_cell_angle_beta 92.036309
_cell_angle_gamma 90.000000
_cell_volume 673.098310
_symmetry_space_group_name_H-M "P 21"
_symmetry_group_IT_number 4
_symmetry_cell_setting 'monoclinic'
loop_
_space_group_symop_operation_xyz
x,y,z
-x,1/2+y,-z
loop_
_atom_site_type_symbol
_atom_site_label
_atom_site_fract_x
_atom_site_fract_y
_atom_site_fract_z
Si Si1 0.138424 0.077400 0.276057
Si Si2 0.230296 0.518877 0.226861
Si Si3 0.315456 0.789141 0.340402
Si Si4 0.554871 0.086518 0.072826
Si Si5 0.037234 0.304951 0.040222
Si Si6 0.634920 0.799648 0.552334
Si Si7 0.358254 0.842821 0.014183
Si Si8 0.191402 0.432906 0.727225
O O1 0.096554 0.160718 0.112565
O O2 0.272692 0.174316 0.363429
O O3 0.219193 0.928955 0.307495
O O4 0.950184 0.041845 0.326720
O O5 0.197204 0.658235 0.316961
O O6 0.082416 0.417799 0.172895
O O7 0.354484 0.430780 0.336857
O O8 0.315357 0.556228 0.064287
O O9 0.444973 0.779482 0.486205
O O10 0.424854 0.788450 0.183951
O O11 0.537977 0.245603 0.097226
O O12 0.644598 0.019251 0.222462
O O13 0.395127 0.000192 0.016550
O O14 0.836974 0.311264 0.013195
O O15 0.122870 0.351440 0.878980
O O16 0.755170 0.835234 0.409217
#
# Coordination Sequence:
#
# PCOD9116871 Si02
#       8
#     2   2   2   2   2   2   2   2
#     4  11  24  44  71  96 130 180 226 268 336 394
#     4   9  23  44  64  97 136 172 222 274 331 394
#     4  11  22  42  68  96 133 176 220 280 330 390
#     4  10  22  41  66  99 131 169 222 274 332 388
#     4  10  22  44  70  97 136 172 221 275 334 400
#     4  11  24  45  65  97 138 179 223 267 331 399
#     4  11  21  41  68 101 131 167 221 276 336 390
#     4  11  22  43  66  99 133 173 221 274 322 397
#
# _framework density 23.770672999999999
#
# number of rings (size 3 to 8) (size 9 to 14) (size 15 to 20)
#    0.000    1.500    3.750    0.750    0.000    4.000 
#    4.500    7.500    0.000    0.000    0.000    0.000 
#    0.000    0.000    0.000    0.000    0.000    0.000 
#
# Total GULP energy -89244.586756 kJ/mol
# GULP energy per Si atom -5577.786672 kJ/mol
# Density = 2.371657 g / cm^3
# Si number density = 23.770673 Si / 1000 Ang^3
#
#
#
# Elastic Constant Matrix: (Units=GPa)
#
#
# Indices 1 2 3 4 5 6 
#
# 1 86.9739 44.8992 23.9865 0.0000 26.7588 0.0000
# 2 44.8992 145.4856 19.7525 0.0000 18.8493 0.0000
# 3 23.9865 19.7525 59.0041 0.0000 25.7244 0.0000
# 4 0.0000 0.0000 0.0000 23.5713 0.0000 7.1321
# 5 26.7588 18.8493 25.7244 0.0000 35.5150 0.0000
# 6 0.0000 0.0000 0.0000 7.1321 0.0000 37.4197
#
#
#
# Elastic Compliance Matrix: (Units=1/GPa)
#
#
# Indices 1 2 3 4 5 6 
#
# 1 0.016779 -0.003741 -0.001348 0.000000 -0.009680 0.000000
# 2 -0.003741 0.008266 -0.000822 0.000000 -0.000973 0.000000
# 3 -0.001348 -0.000822 0.025048 0.000000 -0.016691 0.000000
# 4 0.000000 0.000000 0.000000 0.045021 0.000000 -0.008581
# 5 -0.009680 -0.000973 -0.016691 0.000000 0.048056 0.000000
# 6 0.000000 0.000000 0.000000 -0.008581 0.000000 0.028359
#
#
# Mechanical properties :
#
#
# Convention : Reuss Voigt Hill
#
# Bulk Modulus (GPa) = 26.13045 52.08222 39.10633
# Shear Modulus (GPa) = 25.49601 32.82289 29.15945
#
# Velocity S-wave (km/s) = 3.27858 3.71996 3.50623
# Velocity P-wave (km/s) = 5.03475 6.35678 5.73400
#
# Compressibility (1/GPa) = 0.03826953
#
# Stress axis : x y z
#
# Youngs Moduli (GPa) = 59.59809 120.98127 39.92319
#
# Poissons Ratio (x) = 0.45260 0.05384
# Poissons Ratio (y) = 0.22296 0.03282
# Poissons Ratio (z) = 0.08037 0.09946
#
# Static dielectric constant tensor:
#      x y z
#    x 1.923270 0.000000 -0.051390 
#    y 0.000000 2.025520 0.000000 
#    z -0.051390 0.000000 1.954300 
# 
# From -- ./inp_files/5747.got.cif
#   From: 2010.05.17/outbox.cif.g08.bks.cpg/sg4_3_cif.got.tgz:5747.got - 2010.06.03 18:43:04.
