data_PCOD9116775
_publ_section_title
;
Structure prediction by ZEFSAII (Michael W. Deem and Ramdas Pophale) SiO2 
 PCOD9116775
Probable space group: P 21
;
_chemical_formula_sum "Si O2"
_cell_formula_units_Z 16
_cell_length_a 11.482103
_cell_length_b 5.371587
_cell_length_c 10.697970
_cell_angle_alpha 90.000000
_cell_angle_beta 94.904230
_cell_angle_gamma 90.000000
_cell_volume 657.404319
_symmetry_space_group_name_H-M "P 21"
_symmetry_group_IT_number 4
_symmetry_cell_setting 'monoclinic'
loop_
_space_group_symop_operation_xyz
x,y,z
-x,1/2+y,-z
loop_
_atom_site_type_symbol
_atom_site_label
_atom_site_fract_x
_atom_site_fract_y
_atom_site_fract_z
Si Si1 0.215103 0.662930 0.668737
Si Si2 0.339576 0.165196 0.216548
Si Si3 0.224618 0.800610 0.384390
Si Si4 0.982686 0.816191 0.420625
Si Si5 0.844718 0.912625 0.968225
Si Si6 0.466357 0.470665 0.696948
Si Si7 0.534076 0.015906 0.609429
Si Si8 0.100053 0.913359 0.885287
O O1 0.228386 0.790063 0.534296
O O2 0.139130 0.410145 0.644506
O O3 0.343459 0.590382 0.723562
O O4 0.142498 0.839313 0.752805
O O5 0.270859 0.336256 0.118022
O O6 0.427105 0.945339 0.184885
O O7 0.452364 0.266754 0.306279
O O8 0.254290 0.050248 0.312438
O O9 0.331704 0.614779 0.364030
O O10 0.090123 0.740881 0.339656
O O11 0.975198 0.579720 0.511685
O O12 0.960925 0.890351 0.893410
O O13 0.862048 0.688655 0.069294
O O14 0.845442 0.191168 0.023026
O O15 0.440413 0.170878 0.677261
O O16 0.490732 0.465518 0.537884
#
# Coordination Sequence:
#
# PCOD9116775 Si02
#       8
#     2   2   2   2   2   2   2   2
#     4  11  24  44  64  97 152 166 219 283 342 423
#     4   9  21  41  69  96 122 179 227 277 316 390
#     4  10  22  40  67  98 131 175 221 270 332 402
#     4  10  24  39  59  92 129 179 212 260 340 395
#     4  10  22  44  71  90 135 163 242 271 326 406
#     4   9  22  39  63  95 131 177 219 266 335 395
#     4   9  21  39  62  95 124 172 230 259 319 387
#     4  10  24  42  65 103 122 185 208 284 348 386
#
# _framework density 24.338145000000001
#
# number of rings (size 3 to 8) (size 9 to 14) (size 15 to 20)
#    0.750    1.500    0.000    0.750    7.000    7.000 
#    2.250    1.250    0.000    0.000    0.000    0.000 
#    0.000    0.000    0.000    0.000    0.000    0.000 
#
# Total GULP energy -89091.272668 kJ/mol
# GULP energy per Si atom -5568.204542 kJ/mol
# Density = 2.428275 g / cm^3
# Si number density = 24.338145 Si / 1000 Ang^3
#
#
#
# Elastic Constant Matrix: (Units=GPa)
#
#
# Indices 1 2 3 4 5 6 
#
# 1 114.0017 1.9006 9.2966 0.0000 15.3380 0.0000
# 2 1.9006 76.2141 11.2808 0.0000 -1.8000 0.0000
# 3 9.2966 11.2808 50.2289 0.0000 5.1877 0.0000
# 4 0.0000 0.0000 0.0000 33.0062 0.0000 7.9775
# 5 15.3380 -1.8000 5.1877 0.0000 36.5159 0.0000
# 6 0.0000 0.0000 0.0000 7.9775 0.0000 25.1109
#
#
#
# Elastic Compliance Matrix: (Units=1/GPa)
#
#
# Indices 1 2 3 4 5 6 
#
# 1 0.009388 -0.000128 -0.001320 0.000000 -0.003762 0.000000
# 2 -0.000128 0.013619 -0.003156 0.000000 0.001173 0.000000
# 3 -0.001320 -0.003156 0.021131 0.000000 -0.002603 0.000000
# 4 0.000000 0.000000 0.000000 0.032817 0.000000 -0.010426
# 5 -0.003762 0.001173 -0.002603 0.000000 0.029393 0.000000
# 6 0.000000 0.000000 0.000000 -0.010426 0.000000 0.043136
#
#
# Mechanical properties :
#
#
# Convention : Reuss Voigt Hill
#
# Bulk Modulus (GPa) = 28.62916 31.71119 30.17017
# Shear Modulus (GPa) = 29.35393 33.45769 31.40581
#
# Velocity S-wave (km/s) = 3.47664 3.71172 3.59610
# Velocity P-wave (km/s) = 5.28249 5.60597 5.44663
#
# Compressibility (1/GPa) = 0.03492942
#
# Stress axis : x y z
#
# Youngs Moduli (GPa) = 106.52197 73.42684 47.32396
#
# Poissons Ratio (x) = 0.00936 0.06248
# Poissons Ratio (y) = 0.01358 0.14937
# Poissons Ratio (z) = 0.14065 0.23175
#
# Static dielectric constant tensor:
#      x y z
#    x 1.909020 0.000000 0.017660 
#    y 0.000000 2.431290 0.000000 
#    z 0.017660 0.000000 2.124400 
# 
# From -- ./inp_files/11720.got.cif
#   From: 2010.05.17/outbox.cif.g08.bks.cpg/sg4_6_cif.got.tgz:11720.got - 2010.06.03 18:43:04.
