data_PCOD9116306
_publ_section_title
;
Structure prediction by ZEFSAII (Michael W. Deem and Ramdas Pophale) SiO2 
 PCOD9116306
Probable space group: P 21
;
_chemical_formula_sum "Si O2"
_cell_formula_units_Z 16
_cell_length_a 14.072191
_cell_length_b 7.784455
_cell_length_c 18.260552
_cell_angle_alpha 90.000000
_cell_angle_beta 21.176611
_cell_angle_gamma 90.000000
_cell_volume 722.610752
_symmetry_space_group_name_H-M "P 21"
_symmetry_group_IT_number 4
_symmetry_cell_setting 'monoclinic'
loop_
_space_group_symop_operation_xyz
x,y,z
-x,1/2+y,-z
loop_
_atom_site_type_symbol
_atom_site_label
_atom_site_fract_x
_atom_site_fract_y
_atom_site_fract_z
Si Si1 0.202277 0.767230 0.616263
Si Si2 0.303982 0.092427 0.789928
Si Si3 0.081514 0.407876 0.041601
Si Si4 0.715105 0.524105 0.942528
Si Si5 0.926913 0.288558 0.452675
Si Si6 0.479665 0.720865 0.985014
Si Si7 0.577647 0.561317 0.765493
Si Si8 0.644292 0.928347 0.663685
O O1 0.496571 0.695192 0.406597
O O2 0.170097 0.849105 0.558287
O O3 0.113764 0.874878 0.749701
O O4 0.985886 0.615507 0.766092
O O5 0.486199 0.954193 0.701405
O O6 0.192121 0.228876 0.929263
O O7 0.072360 0.005301 0.911616
O O8 0.327350 0.514533 0.895724
O O9 0.523999 0.647347 0.033055
O O10 0.745802 0.357822 0.868501
O O11 0.570687 0.469638 0.119321
O O12 0.776936 0.403843 0.618187
O O13 0.850631 0.087187 0.516374
O O14 0.237158 0.310748 0.233438
O O15 0.473364 0.585597 0.923179
O O16 0.715136 0.732912 0.633545
#
# Coordination Sequence:
#
# PCOD9116306 Si02
#       8
#     2   2   2   2   2   2   2   2
#     4  10  22  46  68  98 142 178 218 296 339 400
#     4  11  24  45  73 101 131 183 224 281 359 404
#     4  12  24  46  74  96 144 173 226 293 341 415
#     4  10  21  42  64  95 140 177 226 279 336 400
#     4  10  22  44  65  97 146 177 232 281 334 400
#     4  10  25  37  65 103 130 190 230 271 344 401
#     4  11  23  42  68 101 136 187 227 277 346 398
#     4  10  21  44  67  99 137 181 227 284 337 404
#
# _framework density 22.141935
#
# number of rings (size 3 to 8) (size 9 to 14) (size 15 to 20)
#    0.000    1.500    3.750    0.750    8.750    1.000 
#   13.500    0.000    0.000    0.000    0.000    0.000 
#    0.000    0.000    0.000    0.000    0.000    0.000 
#
# Total GULP energy -89414.914285 kJ/mol
# GULP energy per Si atom -5588.432143 kJ/mol
# Density = 2.209154 g / cm^3
# Si number density = 22.141935 Si / 1000 Ang^3
#
#
#
# Elastic Constant Matrix: (Units=GPa)
#
#
# Indices 1 2 3 4 5 6 
#
# 1 54.4880 17.5670 1.8668 0.0000 -12.1740 0.0000
# 2 17.5670 72.4978 11.6972 0.0000 2.6636 0.0000
# 3 1.8668 11.6972 37.5672 0.0000 8.0998 0.0000
# 4 0.0000 0.0000 0.0000 36.2411 0.0000 -0.3009
# 5 -12.1740 2.6636 8.0998 0.0000 32.1351 0.0000
# 6 0.0000 0.0000 0.0000 -0.3009 0.0000 36.4487
#
#
#
# Elastic Compliance Matrix: (Units=1/GPa)
#
#
# Indices 1 2 3 4 5 6 
#
# 1 0.022236 -0.005504 -0.001381 0.000000 0.009228 0.000000
# 2 -0.005504 0.015886 -0.004166 0.000000 -0.002352 0.000000
# 3 -0.001381 -0.004166 0.029633 0.000000 -0.007647 0.000000
# 4 0.000000 0.000000 0.000000 0.027595 0.000000 0.000228
# 5 0.009228 -0.002352 -0.007647 0.000000 0.036737 0.000000
# 6 0.000000 0.000000 0.000000 0.000228 0.000000 0.027438
#
#
# Mechanical properties :
#
#
# Convention : Reuss Voigt Hill
#
# Bulk Modulus (GPa) = 21.90388 25.20164 23.55276
# Shear Modulus (GPa) = 25.40071 29.85979 27.63025
#
# Velocity S-wave (km/s) = 3.39067 3.67626 3.53635
# Velocity P-wave (km/s) = 5.02423 5.42461 5.22825
#
# Compressibility (1/GPa) = 0.04565401
#
# Stress axis : x y z
#
# Youngs Moduli (GPa) = 44.97125 62.94922 33.74570
#
# Poissons Ratio (x) = 0.34650 0.04659
# Poissons Ratio (y) = 0.24754 0.14057
# Poissons Ratio (z) = 0.06209 0.26223
#
# Static dielectric constant tensor:
#      x y z
#    x 1.818100 0.000000 0.018520 
#    y 0.000000 1.903710 0.000000 
#    z 0.018520 0.000000 1.804770 
# 
# From -- ./inp_files/15260.got.cif
#   From: 2010.05.17/outbox.cif.g08.bks.cpg/sg4_8_cif.got.tgz:15260.got - 2010.06.03 18:43:04.
