data_PCOD9116039
_publ_section_title
;
Structure prediction by ZEFSAII (Michael W. Deem and Ramdas Pophale) SiO2 
 PCOD9116039
Probable space group: P 21
;
_chemical_formula_sum "Si O2"
_cell_formula_units_Z 16
_cell_length_a 19.505580
_cell_length_b 7.671770
_cell_length_c 6.428426
_cell_angle_alpha 90.000000
_cell_angle_beta 131.868511
_cell_angle_gamma 90.000000
_cell_volume 716.354325
_symmetry_space_group_name_H-M "P 21"
_symmetry_group_IT_number 4
_symmetry_cell_setting 'monoclinic'
loop_
_space_group_symop_operation_xyz
x,y,z
-x,1/2+y,-z
loop_
_atom_site_type_symbol
_atom_site_label
_atom_site_fract_x
_atom_site_fract_y
_atom_site_fract_z
Si Si1 0.208515 0.241900 0.911810
Si Si2 0.080247 0.367642 0.027391
Si Si3 0.112191 0.038505 0.375227
Si Si4 0.362196 0.364999 0.475969
Si Si5 0.237468 0.505758 0.592286
Si Si6 0.446774 0.988815 0.158461
Si Si7 0.400358 0.734033 0.430966
Si Si8 0.286896 0.872243 0.585995
O O1 0.135150 0.305772 0.934478
O O2 0.167799 0.080732 0.699655
O O3 0.221422 0.389489 0.761250
O O4 0.304813 0.222147 0.232156
O O5 0.977752 0.425535 0.768053
O O6 0.079315 0.213687 0.194865
O O7 0.142350 0.514937 0.266992
O O8 0.187120 0.955389 0.372259
O O9 0.306906 0.410630 0.572734
O O10 0.470114 0.359377 0.750471
O O11 0.361820 0.536782 0.322320
O O12 0.274931 0.699395 0.704414
O O13 0.411660 0.883250 0.286180
O O14 0.496039 0.173725 0.293568
O O15 0.361028 0.002761 0.833331
O O16 0.333910 0.805285 0.473510
#
# Coordination Sequence:
#
# PCOD9116039 Si02
#       8
#     2   2   2   2   2   2   2   2
#     4  10  21  39  65  95 118 164 207 250 308 374
#     4  10  23  45  64  94 127 164 200 260 317 366
#     4  11  25  41  66  93 126 162 206 257 314 376
#     4   8  19  37  59  87 125 161 206 253 310 350
#     4   9  19  41  64  88 124 164 205 252 309 365
#     4  10  22  39  61  88 125 167 210 259 310 358
#     4   9  22  40  58  88 124 171 202 263 303 362
#     4  11  23  40  61  95 123 167 214 254 307 375
#
# _framework density 22.335317
#
# number of rings (size 3 to 8) (size 9 to 14) (size 15 to 20)
#    0.750    1.500    0.000    1.500    1.750    6.000 
#    9.000    0.000    0.000    0.000    0.000    0.000 
#    0.000    0.000    0.000    0.000    0.000    0.000 
#
# Total GULP energy -89253.492024 kJ/mol
# GULP energy per Si atom -5578.343252 kJ/mol
# Density = 2.228448 g / cm^3
# Si number density = 22.335317 Si / 1000 Ang^3
#
#
#
# Elastic Constant Matrix: (Units=GPa)
#
#
# Indices 1 2 3 4 5 6 
#
# 1 102.5132 14.8612 23.7701 0.0000 25.3840 0.0000
# 2 14.8612 54.2367 13.6416 0.0000 9.8421 0.0000
# 3 23.7701 13.6416 47.6622 0.0000 19.9229 0.0000
# 4 0.0000 0.0000 0.0000 13.0641 0.0000 16.8030
# 5 25.3840 9.8421 19.9229 0.0000 28.3314 0.0000
# 6 0.0000 0.0000 0.0000 16.8030 0.0000 28.9389
#
#
#
# Elastic Compliance Matrix: (Units=1/GPa)
#
#
# Indices 1 2 3 4 5 6 
#
# 1 0.012779 -0.001256 -0.001997 0.000000 -0.009609 0.000000
# 2 -0.001256 0.020335 -0.003840 0.000000 -0.003239 0.000000
# 3 -0.001997 -0.003840 0.030834 0.000000 -0.018559 0.000000
# 4 0.000000 0.000000 0.000000 0.302321 0.000000 -0.175539
# 5 -0.009609 -0.003239 -0.018559 0.000000 0.058082 0.000000
# 6 0.000000 0.000000 0.000000 -0.175539 0.000000 0.136480
#
#
# Mechanical properties :
#
#
# Convention : Reuss Voigt Hill
#
# Bulk Modulus (GPa) = 20.09537 34.32866 27.21201
# Shear Modulus (GPa) = 8.45158 24.20949 16.33053
#
# Velocity S-wave (km/s) = 1.94735 3.29585 2.70692
# Velocity P-wave (km/s) = 3.75138 5.46686 4.68825
#
# Compressibility (1/GPa) = 0.04976270
#
# Stress axis : x y z
#
# Youngs Moduli (GPa) = 78.25111 49.17542 32.43167
#
# Poissons Ratio (x) = 0.06174 0.06478
# Poissons Ratio (y) = 0.09824 0.12454
# Poissons Ratio (z) = 0.15629 0.18884
#
# Static dielectric constant tensor:
#      x y z
#    x 1.801360 0.000000 0.015220 
#    y 0.000000 1.865060 0.000000 
#    z 0.015220 0.000000 1.861880 
# 
# From -- ./inp_files/4134.got.cif
#   From: 2010.05.17/outbox.cif.g08.bks.cpg/sg4_3_cif.got.tgz:4134.got - 2010.06.03 18:43:04.
