data_PCOD9116941
_publ_section_title
;
Structure prediction by ZEFSAII (Michael W. Deem and Ramdas Pophale) SiO2 
 PCOD9116941
Probable space group: P 21
;
_chemical_formula_sum "Si O2"
_cell_formula_units_Z 16
_cell_length_a 15.399027
_cell_length_b 6.984486
_cell_length_c 19.227522
_cell_angle_alpha 90.000000
_cell_angle_beta 160.321959
_cell_angle_gamma 90.000000
_cell_volume 696.367581
_symmetry_space_group_name_H-M "P 21"
_symmetry_group_IT_number 4
_symmetry_cell_setting 'monoclinic'
loop_
_space_group_symop_operation_xyz
x,y,z
-x,1/2+y,-z
loop_
_atom_site_type_symbol
_atom_site_label
_atom_site_fract_x
_atom_site_fract_y
_atom_site_fract_z
Si Si1 0.207967 0.795030 0.244922
Si Si2 0.779095 0.589101 0.497019
Si Si3 0.261570 0.464851 0.177574
Si Si4 0.316662 0.663421 0.930486
Si Si5 0.254228 0.886798 0.753132
Si Si6 0.859490 0.150367 0.530319
Si Si7 0.711525 0.877767 0.317010
Si Si8 0.420535 0.605903 0.538128
O O1 0.175038 0.604546 0.173644
O O2 0.249141 0.721542 0.353504
O O3 0.451738 0.919432 0.400731
O O4 0.960836 0.927917 0.046030
O O5 0.511664 0.564277 0.333989
O O6 0.869493 0.375959 0.544780
O O7 0.726511 0.722879 0.391006
O O8 0.016725 0.662862 0.723362
O O9 0.354573 0.257461 0.273767
O O10 0.301964 0.701933 0.836327
O O11 0.478328 0.473262 0.070060
O O12 0.492270 0.824231 0.098538
O O13 0.011103 0.868853 0.517578
O O14 0.125386 0.045238 0.709195
O O15 0.738751 0.071896 0.511250
O O16 0.674614 0.079194 0.327917
#
# Coordination Sequence:
#
# PCOD9116941 Si02
#       8
#     2   2   2   2   2   2   2   2
#     4  12  23  42  67  98 133 177 224 282 337 404
#     4  10  22  42  64  95 138 169 223 276 330 405
#     4  11  24  42  63  99 135 175 226 283 336 398
#     4  11  21  42  67  95 135 178 221 277 337 389
#     4   9  22  39  61  95 130 171 224 270 329 396
#     4   9  21  45  60  94 141 166 216 280 325 401
#     4   9  22  42  62  97 123 179 221 274 329 389
#     4  11  23  42  66  97 135 175 223 278 343 402
#
# _framework density 22.976371
#
# number of rings (size 3 to 8) (size 9 to 14) (size 15 to 20)
#    0.750    1.000    2.500    1.500    0.000    5.000 
#    9.000    0.000    0.000    0.000    0.000    0.000 
#    0.000    0.000    0.000    0.000    0.000    0.000 
#
# Total GULP energy -89341.494651 kJ/mol
# GULP energy per Si atom -5583.843416 kJ/mol
# Density = 2.292408 g / cm^3
# Si number density = 22.976371 Si / 1000 Ang^3
#
#
#
# Elastic Constant Matrix: (Units=GPa)
#
#
# Indices 1 2 3 4 5 6 
#
# 1 60.4063 -1.8158 36.7551 0.0000 3.8246 0.0000
# 2 -1.8158 67.2479 11.9363 0.0000 3.1391 0.0000
# 3 36.7551 11.9363 149.9568 0.0000 -4.4168 0.0000
# 4 0.0000 0.0000 0.0000 45.5549 0.0000 -4.4022
# 5 3.8246 3.1391 -4.4168 0.0000 26.2997 0.0000
# 6 0.0000 0.0000 0.0000 -4.4022 0.0000 30.8506
#
#
#
# Elastic Compliance Matrix: (Units=1/GPa)
#
#
# Indices 1 2 3 4 5 6 
#
# 1 0.019986 0.001638 -0.005146 0.000000 -0.003966 0.000000
# 2 0.001638 0.015324 -0.001691 0.000000 -0.002351 0.000000
# 3 -0.005146 -0.001691 0.008133 0.000000 0.002316 0.000000
# 4 0.000000 0.000000 0.000000 0.022258 0.000000 0.003176
# 5 -0.003966 -0.002351 0.002316 0.000000 0.039270 0.000000
# 6 0.000000 0.000000 0.000000 0.003176 0.000000 0.032868
#
#
# Mechanical properties :
#
#
# Convention : Reuss Voigt Hill
#
# Bulk Modulus (GPa) = 30.26037 41.26245 35.76141
# Shear Modulus (GPa) = 31.39701 35.92338 33.66020
#
# Velocity S-wave (km/s) = 3.70062 3.95839 3.83167
# Velocity P-wave (km/s) = 5.60876 6.23614 5.93075
#
# Compressibility (1/GPa) = 0.03304652
#
# Stress axis : x y z
#
# Youngs Moduli (GPa) = 50.03497 65.25531 122.96119
#
# Poissons Ratio (x) = -0.10690 0.63274
# Poissons Ratio (y) = -0.08197 0.20787
# Poissons Ratio (z) = 0.25747 0.11032
#
# Static dielectric constant tensor:
#      x y z
#    x 1.866530 0.000000 0.007440 
#    y 0.000000 1.907660 0.000000 
#    z 0.007440 0.000000 1.847730 
# 
# From -- ./inp_files/15247.got.cif
#   From: 2010.05.17/outbox.cif.g08.bks.cpg/sg4_8_cif.got.tgz:15247.got - 2010.06.03 18:43:04.
