data_PCOD9116518
_publ_section_title
;
Structure prediction by ZEFSAII (Michael W. Deem and Ramdas Pophale) SiO2 
 PCOD9116518
Probable space group: P 21
;
_chemical_formula_sum "Si O2"
_cell_formula_units_Z 16
_cell_length_a 9.437776
_cell_length_b 8.561099
_cell_length_c 18.799186
_cell_angle_alpha 90.000000
_cell_angle_beta 149.476038
_cell_angle_gamma 90.000000
_cell_volume 771.463354
_symmetry_space_group_name_H-M "P 21"
_symmetry_group_IT_number 4
_symmetry_cell_setting 'monoclinic'
loop_
_space_group_symop_operation_xyz
x,y,z
-x,1/2+y,-z
loop_
_atom_site_type_symbol
_atom_site_label
_atom_site_fract_x
_atom_site_fract_y
_atom_site_fract_z
Si Si1 0.231729 0.269650 0.951243
Si Si2 0.335555 0.088665 0.211886
Si Si3 0.400369 0.620132 0.523735
Si Si4 0.824119 0.790179 0.237145
Si Si5 0.723514 0.755939 0.531711
Si Si6 0.312743 0.625902 0.775631
Si Si7 0.685828 0.088383 0.928641
Si Si8 0.350429 0.711280 0.238549
O O1 0.163278 0.319422 0.841826
O O2 0.958098 0.186591 0.863869
O O3 0.491906 0.154667 0.071660
O O4 0.309584 0.418868 0.033181
O O5 0.482044 0.149871 0.346631
O O6 0.496603 0.143360 0.211469
O O7 0.352884 0.897440 0.219761
O O8 0.011500 0.139155 0.072228
O O9 0.615797 0.674288 0.556545
O O10 0.365058 0.435022 0.502233
O O11 0.101603 0.699174 0.380576
O O12 0.541216 0.694525 0.130049
O O13 0.806652 0.951921 0.271548
O O14 0.571348 0.685243 0.396655
O O15 0.052684 0.740930 0.664794
O O16 0.604216 0.104379 0.810458
#
# Coordination Sequence:
#
# PCOD9116518 Si02
#       8
#     2   2   2   2   2   2   2   2
#     4  11  24  44  67 100 135 172 227 284 332 406
#     4  10  24  43  67  98 135 171 224 276 335 401
#     4  11  25  47  66 101 135 179 224 278 336 405
#     4  12  25  45  69  98 136 180 225 279 342 402
#     4  11  25  44  70  96 137 176 226 278 337 399
#     4  12  25  43  66 101 134 176 225 281 336 402
#     4  11  23  44  71  97 131 181 222 280 342 393
#     4  10  21  46  68  93 135 175 219 280 332 398
#
# _framework density 20.739808
#
# number of rings (size 3 to 8) (size 9 to 14) (size 15 to 20)
#    0.000    1.000    3.750    2.250    7.000    0.000 
#    4.500    0.000    0.000    0.000    0.000    0.000 
#    0.000    0.000    0.000    0.000    0.000    0.000 
#
# Total GULP energy -89482.175651 kJ/mol
# GULP energy per Si atom -5592.635978 kJ/mol
# Density = 2.069260 g / cm^3
# Si number density = 20.739808 Si / 1000 Ang^3
#
#
#
# Elastic Constant Matrix: (Units=GPa)
#
#
# Indices 1 2 3 4 5 6 
#
# 1 97.8919 14.0028 37.0185 0.0000 -6.7203 0.0000
# 2 14.0028 19.8052 7.6787 0.0000 -8.5119 0.0000
# 3 37.0185 7.6787 105.7241 0.0000 -11.9005 0.0000
# 4 0.0000 0.0000 0.0000 20.8768 0.0000 -5.3693
# 5 -6.7203 -8.5119 -11.9005 0.0000 41.1307 0.0000
# 6 0.0000 0.0000 0.0000 -5.3693 0.0000 28.8151
#
#
#
# Elastic Compliance Matrix: (Units=1/GPa)
#
#
# Indices 1 2 3 4 5 6 
#
# 1 0.012792 -0.007788 -0.003989 0.000000 -0.000676 0.000000
# 2 -0.007788 0.060992 -0.000440 0.000000 0.011222 0.000000
# 3 -0.003989 -0.000440 0.011167 0.000000 0.002488 0.000000
# 4 0.000000 0.000000 0.000000 0.050311 0.000000 0.009375
# 5 -0.000676 0.011222 0.002488 0.000000 0.027245 0.000000
# 6 0.000000 0.000000 0.000000 0.009375 0.000000 0.036451
#
#
# Mechanical properties :
#
#
# Convention : Reuss Voigt Hill
#
# Bulk Modulus (GPa) = 16.52427 37.86902 27.19664
# Shear Modulus (GPa) = 20.52855 29.14595 24.83725
#
# Velocity S-wave (km/s) = 3.14954 3.75282 3.46434
# Velocity P-wave (km/s) = 4.60553 6.08908 5.39851
#
# Compressibility (1/GPa) = 0.06051704
#
# Stress axis : x y z
#
# Youngs Moduli (GPa) = 78.17683 16.39568 89.54606
#
# Poissons Ratio (x) = 0.12768 0.35723
# Poissons Ratio (y) = 0.60882 0.03938
# Poissons Ratio (z) = 0.31187 0.00721
#
# Static dielectric constant tensor:
#      x y z
#    x 1.728370 0.000000 -0.002820 
#    y 0.000000 1.738930 0.000000 
#    z -0.002820 0.000000 1.719620 
# 
# From -- ./inp_files/5433.got.cif
#   From: 2010.05.17/outbox.cif.g08.bks.cpg/sg4_3_cif.got.tgz:5433.got - 2010.06.03 18:43:04.
