data_PCOD9116007
_publ_section_title
;
Structure prediction by ZEFSAII (Michael W. Deem and Ramdas Pophale) SiO2 
 PCOD9116007
Probable space group: P 21
;
_chemical_formula_sum "Si O2"
_cell_formula_units_Z 16
_cell_length_a 8.726929
_cell_length_b 8.173602
_cell_length_c 12.503731
_cell_angle_alpha 90.000000
_cell_angle_beta 52.204226
_cell_angle_gamma 90.000000
_cell_volume 704.776956
_symmetry_space_group_name_H-M "P 21"
_symmetry_group_IT_number 4
_symmetry_cell_setting 'monoclinic'
loop_
_space_group_symop_operation_xyz
x,y,z
-x,1/2+y,-z
loop_
_atom_site_type_symbol
_atom_site_label
_atom_site_fract_x
_atom_site_fract_y
_atom_site_fract_z
Si Si1 0.222115 0.385540 0.605533
Si Si2 0.246197 0.637374 0.904329
Si Si3 0.969672 0.398982 0.342187
Si Si4 0.514533 0.174399 0.826699
Si Si5 0.628979 0.237032 0.371459
Si Si6 0.638247 0.953319 0.950174
Si Si7 0.047050 0.728178 0.435543
Si Si8 0.840431 0.774112 0.141591
O O1 0.413775 0.284908 0.494680
O O2 0.294800 0.564692 0.611519
O O3 0.066350 0.373722 0.577694
O O4 0.127560 0.294213 0.746974
O O5 0.361313 0.725215 0.761003
O O6 0.212733 0.453142 0.877811
O O7 0.339665 0.610080 0.980273
O O8 0.035619 0.715475 0.004227
O O9 0.776694 0.369169 0.357030
O O10 0.965821 0.564970 0.413435
O O11 0.149343 0.402181 0.183315
O O12 0.990102 0.258354 0.423656
O O13 0.345095 0.166434 0.811568
O O14 0.721663 0.219794 0.686060
O O15 0.528879 0.010111 0.890269
O O16 0.457639 0.314409 0.936733
#
# Coordination Sequence:
#
# PCOD9116007 Si02
#       8
#     2   2   2   2   2   2   2   2
#     4  11  24  40  62  93 126 167 213 263 318 379
#     4  10  22  40  63  92 124 164 211 260 317 372
#     4  11  23  43  65  93 129 166 213 265 320 382
#     4  10  22  39  61  90 125 165 210 260 314 375
#     4  11  23  41  65  93 126 168 215 265 320 379
#     4  10  23  41  61  92 126 165 210 262 316 377
#     4  11  24  41  63  92 128 168 212 265 320 380
#     4  10  21  39  62  89 124 163 210 262 313 372
#
# _framework density 22.702216
#
# number of rings (size 3 to 8) (size 9 to 14) (size 15 to 20)
#    0.000    1.500    0.000    5.250    0.000   10.000 
#    0.000    0.000    0.000    0.000    0.000    0.000 
#    0.000    0.000    0.000    0.000    0.000    0.000 
#
# Total GULP energy -89503.651413 kJ/mol
# GULP energy per Si atom -5593.978213 kJ/mol
# Density = 2.265054 g / cm^3
# Si number density = 22.702216 Si / 1000 Ang^3
#
#
#
# Elastic Constant Matrix: (Units=GPa)
#
#
# Indices 1 2 3 4 5 6 
#
# 1 -49.4715 -4.2273 -52.3507 0.0000 46.5856 0.0000
# 2 -4.2273 52.7811 22.4848 0.0000 -0.0283 0.0000
# 3 -52.3507 22.4848 46.2603 0.0000 28.3751 0.0000
# 4 0.0000 0.0000 0.0000 29.6274 0.0000 77.6160
# 5 46.5856 -0.0283 28.3751 0.0000 25.6954 0.0000
# 6 0.0000 0.0000 0.0000 77.6160 0.0000 585.1886
#
#
#
# Elastic Compliance Matrix: (Units=1/GPa)
#
#
# Indices 1 2 3 4 5 6 
#
# 1 -0.000478 0.003875 -0.009173 0.000000 0.011001 0.000000
# 2 0.003875 0.021759 -0.005876 0.000000 -0.000513 0.000000
# 3 -0.009173 -0.005876 0.012073 0.000000 0.003292 0.000000
# 4 0.000000 0.000000 0.000000 0.051725 0.000000 -0.006861
# 5 0.011001 -0.000513 0.003292 0.000000 0.015336 0.000000
# 6 0.000000 0.000000 0.000000 -0.006861 0.000000 0.002619
#
#
# Mechanical properties :
#
#
# Convention : Reuss Voigt Hill
#
# Bulk Modulus (GPa) = 90.85540 -2.06851 44.39345
# Shear Modulus (GPa) = 38.74474 133.67983 86.21229
#
# Velocity S-wave (km/s) = 4.13564 7.68192 6.16909
# Velocity P-wave (km/s) = 7.93172 8.81869 8.38694
#
# Compressibility (1/GPa) = 0.01100650
#
# Stress axis : x y z
#
# Youngs Moduli (GPa) = -2090.09757 45.95714 82.83152
#
# Poissons Ratio (x) = -0.17810 0.75981
# Poissons Ratio (y) = 8.09970 0.48671
# Poissons Ratio (z) = -19.17238 0.27004
#
# Static dielectric constant tensor:
#      x y z
#    x 1.407310 0.000000 0.512930 
#    y 0.000000 1.885800 0.000000 
#    z 0.512930 0.000000 1.314960 
# 
# From -- ./inp_files/8007.got.cif
#   From: 2010.05.17/outbox.cif.g08.bks.cpg/sg4_5_cif.got.tgz:8007.got - 2010.06.03 18:43:04.
