data_PCOD9116107
_publ_section_title
;
Structure prediction by ZEFSAII (Michael W. Deem and Ramdas Pophale) SiO2 
 PCOD9116107
Probable space group: P 21
;
_chemical_formula_sum "Si O2"
_cell_formula_units_Z 14
_cell_length_a 13.622893
_cell_length_b 10.436682
_cell_length_c 5.510596
_cell_angle_alpha 90.000000
_cell_angle_beta 137.417831
_cell_angle_gamma 90.000000
_cell_volume 530.142275
_symmetry_space_group_name_H-M "P 21"
_symmetry_group_IT_number 4
_symmetry_cell_setting 'monoclinic'
loop_
_space_group_symop_operation_xyz
x,y,z
-x,1/2+y,-z
loop_
_atom_site_type_symbol
_atom_site_label
_atom_site_fract_x
_atom_site_fract_y
_atom_site_fract_z
Si Si1 0.853174 0.091530 0.337949
Si Si2 0.926031 0.921310 0.868372
Si Si3 0.300751 0.354674 0.180271
Si Si4 0.447857 0.833988 0.670637
Si Si5 0.384148 0.079003 0.841265
Si Si6 0.886814 0.687386 0.489814
Si Si7 0.220566 0.851816 0.626466
O O1 0.770377 0.224805 0.201985
O O2 0.983848 0.107508 0.388129
O O3 0.918594 0.057319 0.721613
O O4 0.750869 0.976383 0.072020
O O5 0.952606 0.818600 0.706879
O O6 0.766846 0.891908 0.686919
O O7 0.053402 0.889445 0.287990
O O8 0.219641 0.231330 0.922345
O O9 0.469362 0.333702 0.435502
O O10 0.284276 0.821960 0.472066
O O11 0.466882 0.981512 0.810961
O O12 0.523230 0.705391 0.928337
O O13 0.220722 0.133376 0.495609
O O14 0.318545 0.968890 0.905873
#
# Coordination Sequence:
#
# PCOD9116107 Si02
#       7
#     2   2   2   2   2   2   2
#     4  11  23  39  67  97 132 175 226 278 342 394
#     4  11  24  40  67  98 135 167 226 289 330 405
#     4  10  21  40  62  94 129 175 218 278 337 395
#     4   9  20  39  65  91 136 177 221 274 329 404
#     4   9  20  38  67  94 132 175 227 273 329 406
#     4  10  22  39  67  97 128 173 223 279 343 390
#     4  10  22  37  67  97 128 178 221 273 332 400
#
# _framework density 26.408006
#
# number of rings (size 3 to 8) (size 9 to 14) (size 15 to 20)
#    0.857    1.143    1.429    1.714    6.000    0.000 
#    0.000    1.429   22.000    0.000    0.000    0.000 
#    0.000    0.000    0.000    0.000    0.000    0.000 
#
# Total GULP energy -77953.161105 kJ/mol
# GULP energy per Si atom -5568.082936 kJ/mol
# Density = 2.634790 g / cm^3
# Si number density = 26.408006 Si / 1000 Ang^3
#
#
#
# Elastic Constant Matrix: (Units=GPa)
#
#
# Indices 1 2 3 4 5 6 
#
# 1 173.2127 52.3023 17.7930 0.0000 15.9837 0.0000
# 2 52.3023 122.2923 23.6506 0.0000 15.1542 0.0000
# 3 17.7930 23.6506 45.2884 0.0000 6.6865 0.0000
# 4 0.0000 0.0000 0.0000 15.3603 0.0000 3.6881
# 5 15.9837 15.1542 6.6865 0.0000 27.3119 0.0000
# 6 0.0000 0.0000 0.0000 3.6881 0.0000 61.6728
#
#
#
# Elastic Compliance Matrix: (Units=1/GPa)
#
#
# Indices 1 2 3 4 5 6 
#
# 1 0.006835 -0.002420 -0.001068 0.000000 -0.002396 0.000000
# 2 -0.002420 0.010401 -0.003982 0.000000 -0.003380 0.000000
# 3 -0.001068 -0.003982 0.025067 0.000000 -0.003303 0.000000
# 4 0.000000 0.000000 0.000000 0.066051 0.000000 -0.003950
# 5 -0.002396 -0.003380 -0.003303 0.000000 0.040700 0.000000
# 6 0.000000 0.000000 0.000000 -0.003950 0.000000 0.016451
#
#
# Mechanical properties :
#
#
# Convention : Reuss Voigt Hill
#
# Bulk Modulus (GPa) = 36.54438 58.69836 47.62137
# Shear Modulus (GPa) = 26.37613 37.33885 31.85749
#
# Velocity S-wave (km/s) = 3.16380 3.76429 3.47703
# Velocity P-wave (km/s) = 5.21676 6.41630 5.84737
#
# Compressibility (1/GPa) = 0.02736399
#
# Stress axis : x y z
#
# Youngs Moduli (GPa) = 146.31327 96.14557 39.89266
#
# Poissons Ratio (x) = 0.23264 0.04260
# Poissons Ratio (y) = 0.35403 0.15885
# Poissons Ratio (z) = 0.15625 0.38284
#
# Static dielectric constant tensor:
#      x y z
#    x 2.027770 0.000000 -0.055260 
#    y 0.000000 2.188570 0.000000 
#    z -0.055260 0.000000 2.157800 
# 
# From -- ./inp_files/3098.got.cif
#   From: 2010.05.17/outbox.cif.g08.bks.cpg/sg4_2_cif.got.tgz:3098.got - 2010.06.03 18:43:04.
