data_PCOD9116620
_publ_section_title
;
Structure prediction by ZEFSAII (Michael W. Deem and Ramdas Pophale) SiO2 
 PCOD9116620
Probable space group: P 21
;
_chemical_formula_sum "Si O2"
_cell_formula_units_Z 10
_cell_length_a 5.705738
_cell_length_b 9.174186
_cell_length_c 7.348110
_cell_angle_alpha 90.000000
_cell_angle_beta 99.332774
_cell_angle_gamma 90.000000
_cell_volume 379.549062
_symmetry_space_group_name_H-M "P 21"
_symmetry_group_IT_number 4
_symmetry_cell_setting 'monoclinic'
loop_
_space_group_symop_operation_xyz
x,y,z
-x,1/2+y,-z
loop_
_atom_site_type_symbol
_atom_site_label
_atom_site_fract_x
_atom_site_fract_y
_atom_site_fract_z
Si Si1 0.946169 0.472000 0.834299
Si Si2 0.277619 0.918536 0.845552
Si Si3 0.441519 0.462737 0.796133
Si Si4 0.624927 0.667170 0.396960
Si Si5 0.144649 0.727822 0.483254
O O1 0.686778 0.548269 0.791507
O O2 0.912991 0.328205 0.702776
O O3 0.196734 0.540556 0.813029
O O4 0.948909 0.431169 0.049124
O O5 0.368005 0.074052 0.785508
O O6 0.220450 0.830552 0.658352
O O7 0.480418 0.870502 0.012844
O O8 0.399050 0.339995 0.639676
O O9 0.376586 0.631138 0.466310
O O10 0.897619 0.647231 0.496766
#
# Coordination Sequence:
#
# PCOD9116620 Si02
#       5
#     2   2   2   2   2
#     4   8  18  36  54  79 111 147 181 244 271 326
#     4  10  22  38  65  79 122 156 186 240 296 328
#     4   8  18  36  57  80 114 141 192 236 274 340
#     4  10  22  39  59  87 118 153 191 239 290 339
#     4  10  22  39  55  89 121 143 202 239 269 361
#
# _framework density 26.347057
#
# number of rings (size 3 to 8) (size 9 to 14) (size 15 to 20)
#    1.200    1.600    0.000    0.000    5.600    0.000 
#    3.600    4.000    0.000    0.000    0.000    0.000 
#    0.000    0.000    0.000    0.000    0.000    0.000 
#
# Total GULP energy -55767.752969 kJ/mol
# GULP energy per Si atom -5576.775297 kJ/mol
# Density = 2.628709 g / cm^3
# Si number density = 26.347057 Si / 1000 Ang^3
#
#
#
# Elastic Constant Matrix: (Units=GPa)
#
#
# Indices 1 2 3 4 5 6 
#
# 1 292.9957 21.0696 63.6825 0.0000 -12.2932 0.0000
# 2 21.0696 76.8286 31.6947 0.0000 -15.5790 0.0000
# 3 63.6825 31.6947 86.7963 0.0000 -22.0570 0.0000
# 4 0.0000 0.0000 0.0000 45.8973 0.0000 -1.5615
# 5 -12.2932 -15.5790 -22.0570 0.0000 49.8586 0.0000
# 6 0.0000 0.0000 0.0000 -1.5615 0.0000 32.8890
#
#
#
# Elastic Compliance Matrix: (Units=1/GPa)
#
#
# Indices 1 2 3 4 5 6 
#
# 1 0.004067 0.000097 -0.003106 0.000000 -0.000341 0.000000
# 2 0.000097 0.015633 -0.005106 0.000000 0.002650 0.000000
# 3 -0.003106 -0.005106 0.016973 0.000000 0.005147 0.000000
# 4 0.000000 0.000000 0.000000 0.021823 0.000000 0.001036
# 5 -0.000341 0.002650 0.005147 0.000000 0.023078 0.000000
# 6 0.000000 0.000000 0.000000 0.001036 0.000000 0.030454
#
#
# Mechanical properties :
#
#
# Convention : Reuss Voigt Hill
#
# Bulk Modulus (GPa) = 48.91887 76.61268 62.76577
# Shear Modulus (GPa) = 37.01709 48.40724 42.71217
#
# Velocity S-wave (km/s) = 3.75237 4.29101 4.03070
# Velocity P-wave (km/s) = 6.11401 7.32747 6.74807
#
# Compressibility (1/GPa) = 0.02044201
#
# Stress axis : x y z
#
# Youngs Moduli (GPa) = 245.89362 63.96599 58.91824
#
# Poissons Ratio (x) = -0.00619 0.18299
# Poissons Ratio (y) = -0.02381 0.30086
# Poissons Ratio (z) = 0.76370 0.32664
#
# Static dielectric constant tensor:
#      x y z
#    x 2.114810 0.000000 -0.025050 
#    y 0.000000 1.986310 0.000000 
#    z -0.025050 0.000000 2.144360 
# 
# From -- ./inp_files/48.got.cif
#   From: 2010.05.17/outbox.cif.g08.bks.cpg/sg4_1_cif.got.tgz:48.got - 2010.06.03 18:43:04.
