data_PCOD9116288
_publ_section_title
;
Structure prediction by ZEFSAII (Michael W. Deem and Ramdas Pophale) SiO2 
 PCOD9116288
Probable space group: P 21
;
_chemical_formula_sum "Si O2"
_cell_formula_units_Z 16
_cell_length_a 9.025054
_cell_length_b 5.479717
_cell_length_c 20.520087
_cell_angle_alpha 90.000000
_cell_angle_beta 138.214552
_cell_angle_gamma 90.000000
_cell_volume 676.215389
_symmetry_space_group_name_H-M "P 21"
_symmetry_group_IT_number 4
_symmetry_cell_setting 'monoclinic'
loop_
_space_group_symop_operation_xyz
x,y,z
-x,1/2+y,-z
loop_
_atom_site_type_symbol
_atom_site_label
_atom_site_fract_x
_atom_site_fract_y
_atom_site_fract_z
Si Si1 0.512939 0.475160 0.207020
Si Si2 0.068789 0.050070 0.485984
Si Si3 0.548891 0.177809 0.675456
Si Si4 0.205305 0.064963 0.171054
Si Si5 0.030415 0.346185 0.216756
Si Si6 0.636748 0.595168 0.036342
Si Si7 0.651955 0.386706 0.908244
Si Si8 0.841788 0.109219 0.277270
O O1 0.532625 0.645161 0.276353
O O2 0.361592 0.265350 0.188621
O O3 0.393103 0.597433 0.106196
O O4 0.751418 0.376291 0.267402
O O5 0.324758 0.136303 0.562480
O O6 0.952917 0.289973 0.482390
O O7 0.963986 0.007938 0.380473
O O8 0.669985 0.435300 0.727168
O O9 0.734955 0.985619 0.712912
O O10 0.002774 0.191784 0.140493
O O11 0.180396 0.900974 0.098891
O O12 0.841159 0.552675 0.151988
O O13 0.990282 0.163597 0.263132
O O14 0.521245 0.855941 0.006551
O O15 0.724468 0.552472 0.991500
O O16 0.391531 0.472434 0.812987
#
# Coordination Sequence:
#
# PCOD9116288 Si02
#       8
#     2   2   2   2   2   2   2   2
#     4   9  17  38  67  93 129 176 236 285 342 414
#     4  12  25  45  76 110 138 186 251 296 346 436
#     4  10  22  43  67  98 141 187 228 299 353 425
#     4   9  21  41  64  95 139 182 230 288 359 419
#     4  11  25  45  68 101 151 185 229 302 372 419
#     4  12  27  48  73 106 141 188 247 298 351 435
#     4  10  21  41  72 100 135 187 242 293 353 429
#     4  11  22  41  69 105 136 189 233 297 360 425
#
# _framework density 23.661100000000001
#
# number of rings (size 3 to 8) (size 9 to 14) (size 15 to 20)
#    0.000    1.500    2.500    3.000    5.250    1.000 
#    9.000    0.000    0.000    0.000    0.000    0.000 
#    0.000    0.000    0.000    0.000    0.000    0.000 
#
# Total GULP energy -89181.420348 kJ/mol
# GULP energy per Si atom -5573.838772 kJ/mol
# Density = 2.360725 g / cm^3
# Si number density = 23.661100 Si / 1000 Ang^3
#
#
#
# Elastic Constant Matrix: (Units=GPa)
#
#
# Indices 1 2 3 4 5 6 
#
# 1 135.6971 36.1709 21.4115 0.0000 -8.9556 0.0000
# 2 36.1709 80.2287 9.6490 0.0000 3.6385 0.0000
# 3 21.4115 9.6490 70.0956 0.0000 1.4907 0.0000
# 4 0.0000 0.0000 0.0000 30.7861 0.0000 8.4828
# 5 -8.9556 3.6385 1.4907 0.0000 33.1450 0.0000
# 6 0.0000 0.0000 0.0000 8.4828 0.0000 40.7034
#
#
#
# Elastic Compliance Matrix: (Units=1/GPa)
#
#
# Indices 1 2 3 4 5 6 
#
# 1 0.008961 -0.003902 -0.002263 0.000000 0.002951 0.000000
# 2 -0.003902 0.014431 -0.000739 0.000000 -0.002605 0.000000
# 3 -0.002263 -0.000739 0.015085 0.000000 -0.001209 0.000000
# 4 0.000000 0.000000 0.000000 0.034461 0.000000 -0.007182
# 5 0.002951 -0.002605 -0.001209 0.000000 0.031308 0.000000
# 6 0.000000 0.000000 0.000000 -0.007182 0.000000 0.026065
#
#
# Mechanical properties :
#
#
# Convention : Reuss Voigt Hill
#
# Bulk Modulus (GPa) = 40.53710 46.72047 43.62878
# Shear Modulus (GPa) = 32.82096 35.51292 34.16694
#
# Velocity S-wave (km/s) = 3.72846 3.87835 3.80414
# Velocity P-wave (km/s) = 5.97535 6.31221 6.14609
#
# Compressibility (1/GPa) = 0.02466876
#
# Stress axis : x y z
#
# Youngs Moduli (GPa) = 111.59140 69.29748 66.29123
#
# Poissons Ratio (x) = 0.27039 0.15002
# Poissons Ratio (y) = 0.43541 0.04900
# Poissons Ratio (z) = 0.25253 0.05122
#
# Static dielectric constant tensor:
#      x y z
#    x 1.948390 0.000000 -0.052260 
#    y 0.000000 2.123990 0.000000 
#    z -0.052260 0.000000 1.995320 
# 
# From -- ./inp_files/8958.got.cif
#   From: 2010.05.17/outbox.cif.g08.bks.cpg/sg4_5_cif.got.tgz:8958.got - 2010.06.03 18:43:04.
