data_PCOD9116121
_publ_section_title
;
Structure prediction by ZEFSAII (Michael W. Deem and Ramdas Pophale) SiO2 
 PCOD9116121
Probable space group: P 21
;
_chemical_formula_sum "Si O2"
_cell_formula_units_Z 16
_cell_length_a 11.292644
_cell_length_b 10.718805
_cell_length_c 6.777435
_cell_angle_alpha 90.000000
_cell_angle_beta 107.167804
_cell_angle_gamma 90.000000
_cell_volume 783.813569
_symmetry_space_group_name_H-M "P 21"
_symmetry_group_IT_number 4
_symmetry_cell_setting 'monoclinic'
loop_
_space_group_symop_operation_xyz
x,y,z
-x,1/2+y,-z
loop_
_atom_site_type_symbol
_atom_site_label
_atom_site_fract_x
_atom_site_fract_y
_atom_site_fract_z
Si Si1 0.820563 0.493760 0.513991
Si Si2 0.397974 0.329113 0.454455
Si Si3 0.433598 0.054593 0.429046
Si Si4 0.906606 0.682357 0.237910
Si Si5 0.975123 0.083070 0.094265
Si Si6 0.148725 0.720868 0.622801
Si Si7 0.364148 0.518895 0.759470
Si Si8 0.764670 0.898034 0.969439
O O1 0.709074 0.523778 0.608263
O O2 0.827059 0.595079 0.342743
O O3 0.808799 0.360318 0.403844
O O4 0.945547 0.507099 0.704510
O O5 0.454520 0.193718 0.522950
O O6 0.495813 0.436437 0.440006
O O7 0.339606 0.395999 0.615070
O O8 0.295752 0.319593 0.234637
O O9 0.498206 0.057990 0.243706
O O10 0.834746 0.809035 0.156783
O O11 0.037793 0.697124 0.413913
O O12 0.938297 0.626969 0.039248
O O13 0.910309 0.193907 0.189447
O O14 0.867535 0.996695 0.951264
O O15 0.263013 0.624548 0.658469
O O16 0.340521 0.477201 0.969624
#
# Coordination Sequence:
#
# PCOD9116121 Si02
#       8
#     2   2   2   2   2   2   2   2
#     4  11  22  40  64  94 129 168 212 265 314 391
#     4  10  22  42  67  89 127 166 209 265 314 380
#     4  10  22  43  66  94 126 171 214 258 321 378
#     4  11  23  37  64  93 127 163 212 265 322 378
#     4  10  23  39  61  98 124 166 211 264 325 379
#     4  10  21  40  64  90 131 168 209 262 323 382
#     4   9  22  41  64  91 126 167 207 257 316 380
#     4  11  21  42  64  93 124 163 212 256 329 374
#
# _framework density 20.413017
#
# number of rings (size 3 to 8) (size 9 to 14) (size 15 to 20)
#    0.750    1.000    1.250    3.000    1.750    1.000 
#    6.750    0.000    5.500    0.000    0.000    0.000 
#    0.000    0.000    0.000    0.000    0.000    0.000 
#
# Total GULP energy -89149.881445 kJ/mol
# GULP energy per Si atom -5571.867590 kJ/mol
# Density = 2.036656 g / cm^3
# Si number density = 20.413017 Si / 1000 Ang^3
#
#
#
# Elastic Constant Matrix: (Units=GPa)
#
#
# Indices 1 2 3 4 5 6 
#
# 1 97.8404 23.0709 14.2945 0.0000 -23.6954 0.0000
# 2 23.0709 83.3304 -8.0059 0.0000 6.0807 0.0000
# 3 14.2945 -8.0059 18.7742 0.0000 -2.0446 0.0000
# 4 0.0000 0.0000 0.0000 19.1509 0.0000 -0.1547
# 5 -23.6954 6.0807 -2.0446 0.0000 21.2300 0.0000
# 6 0.0000 0.0000 0.0000 -0.1547 0.0000 34.0465
#
#
#
# Elastic Compliance Matrix: (Units=1/GPa)
#
#
# Indices 1 2 3 4 5 6 
#
# 1 0.020682 -0.009116 -0.017015 0.000000 0.024057 0.000000
# 2 -0.009116 0.016737 0.012580 0.000000 -0.013757 0.000000
# 3 -0.017015 0.012580 0.069856 0.000000 -0.015866 0.000000
# 4 0.000000 0.000000 0.000000 0.052219 0.000000 0.000237
# 5 0.024057 -0.013757 -0.015866 0.000000 0.076366 0.000000
# 6 0.000000 0.000000 0.000000 0.000237 0.000000 0.029373
#
#
# Mechanical properties :
#
#
# Convention : Reuss Voigt Hill
#
# Bulk Modulus (GPa) = 12.47306 28.74046 20.60676
# Shear Modulus (GPa) = 15.67106 26.25783 20.96445
#
# Velocity S-wave (km/s) = 2.77374 3.59043 3.20818
# Velocity P-wave (km/s) = 4.04745 5.59449 4.88263
#
# Compressibility (1/GPa) = 0.08017277
#
# Stress axis : x y z
#
# Youngs Moduli (GPa) = 48.35046 59.74857 14.31512
#
# Poissons Ratio (x) = 0.54468 0.24357
# Poissons Ratio (y) = 0.44077 -0.18008
# Poissons Ratio (z) = 0.82268 -0.75163
#
# Static dielectric constant tensor:
#      x y z
#    x 1.754900 0.000000 -0.004850 
#    y 0.000000 1.732440 0.000000 
#    z -0.004850 0.000000 1.689170 
# 
# From -- ./inp_files/3095.got.cif
#   From: 2010.05.17/outbox.cif.g08.bks.cpg/sg4_2_cif.got.tgz:3095.got - 2010.06.03 18:43:04.
