data_PCOD9116407
_publ_section_title
;
Structure prediction by ZEFSAII (Michael W. Deem and Ramdas Pophale) SiO2 
 PCOD9116407
Probable space group: P 21
;
_chemical_formula_sum "Si O2"
_cell_formula_units_Z 14
_cell_length_a 5.123032
_cell_length_b 9.508798
_cell_length_c 11.445724
_cell_angle_alpha 90.000000
_cell_angle_beta 81.704260
_cell_angle_gamma 90.000000
_cell_volume 551.731508
_symmetry_space_group_name_H-M "P 21"
_symmetry_group_IT_number 4
_symmetry_cell_setting 'monoclinic'
loop_
_space_group_symop_operation_xyz
x,y,z
-x,1/2+y,-z
loop_
_atom_site_type_symbol
_atom_site_label
_atom_site_fract_x
_atom_site_fract_y
_atom_site_fract_z
Si Si1 0.100005 0.918670 0.690968
Si Si2 0.931659 0.613815 0.654758
Si Si3 0.525706 0.418993 0.553953
Si Si4 0.741284 0.471803 0.060266
Si Si5 0.186217 0.665064 0.384224
Si Si6 0.275727 0.304210 0.969429
Si Si7 0.877087 0.879859 0.258010
O O1 0.333693 0.926078 0.578531
O O2 0.221633 0.975887 0.802061
O O3 0.988185 0.763771 0.711640
O O4 0.852524 0.009031 0.659052
O O5 0.666910 0.535108 0.624780
O O6 0.030176 0.667773 0.516579
O O7 0.961979 0.518999 0.774079
O O8 0.559479 0.258181 0.598177
O O9 0.221907 0.447481 0.607620
O O10 0.725567 0.635284 0.021918
O O11 0.485515 0.384845 0.035486
O O12 0.991206 0.377247 0.004667
O O13 0.049949 0.752125 0.289054
O O14 0.324036 0.341684 0.828813
#
# Coordination Sequence:
#
# PCOD9116407 Si02
#       7
#     2   2   2   2   2   2   2
#     4  10  21  43  67 101 142 181 243 293 369 439
#     4   9  21  38  63 101 137 179 217 293 355 451
#     4   9  21  40  68 102 140 180 230 292 371 444
#     4  12  29  55  76 114 145 209 258 325 372 451
#     4   9  19  41  62  98 136 182 223 287 359 439
#     4  12  30  51  83 105 156 198 268 314 383 441
#     4  11  23  42  69 101 138 187 231 300 367 439
#
# _framework density 25.374661
#
# number of rings (size 3 to 8) (size 9 to 14) (size 15 to 20)
#    0.000    1.714    1.429    1.714    8.000    5.714 
#   10.286    0.000    0.000    0.000    0.000    0.000 
#    0.000    0.000    0.000    0.000    0.000    0.000 
#
# Total GULP energy -77963.008019 kJ/mol
# GULP energy per Si atom -5568.786287 kJ/mol
# Density = 2.531691 g / cm^3
# Si number density = 25.374661 Si / 1000 Ang^3
#
#
#
# Elastic Constant Matrix: (Units=GPa)
#
#
# Indices 1 2 3 4 5 6 
#
# 1 103.2485 130.2205 -24.6816 0.0000 -9.6264 0.0000
# 2 130.2205 337.6891 -18.4045 0.0000 -21.9256 0.0000
# 3 -24.6816 -18.4045 106.5199 0.0000 29.0075 0.0000
# 4 0.0000 0.0000 0.0000 13.6570 0.0000 58.2552
# 5 -9.6264 -21.9256 29.0075 0.0000 53.0949 0.0000
# 6 0.0000 0.0000 0.0000 58.2552 0.0000 -239.4319
#
#
#
# Elastic Compliance Matrix: (Units=1/GPa)
#
#
# Indices 1 2 3 4 5 6 
#
# 1 0.020068 -0.007636 0.003757 0.000000 -0.001568 0.000000
# 2 -0.007636 0.005952 -0.001214 0.000000 0.001737 0.000000
# 3 0.003757 -0.001214 0.011748 0.000000 -0.006238 0.000000
# 4 0.000000 0.000000 0.000000 0.035931 0.000000 0.008742
# 5 -0.001568 0.001737 -0.006238 0.000000 0.022675 0.000000
# 6 0.000000 0.000000 0.000000 0.008742 0.000000 -0.002049
#
#
# Mechanical properties :
#
#
# Convention : Reuss Voigt Hill
#
# Bulk Modulus (GPa) = 36.25294 80.19182 58.22238
# Shear Modulus (GPa) = 43.97425 -3.84778 20.06323
#
# Velocity S-wave (km/s) = 4.16745 -1.23275 2.81495
# Velocity P-wave (km/s) = 6.12167 5.44477 5.79312
#
# Compressibility (1/GPa) = 0.02758397
#
# Stress axis : x y z
#
# Youngs Moduli (GPa) = 49.83158 168.00101 85.12382
#
# Poissons Ratio (x) = 1.28277 -0.31985
# Poissons Ratio (y) = 0.38049 0.10332
# Poissons Ratio (z) = -0.18724 0.20391
#
# Static dielectric constant tensor:
#      x y z
#    x 2.299840 0.000000 -0.327740 
#    y 0.000000 1.295590 0.000000 
#    z -0.327740 0.000000 2.324120 
# 
# From -- ./inp_files/2513.got.cif
#   From: 2010.05.17/outbox.cif.g08.bks.cpg/sg4_2_cif.got.tgz:2513.got - 2010.06.03 18:43:04.
