data_PCOD9116524
_publ_section_title
;
Structure prediction by ZEFSAII (Michael W. Deem and Ramdas Pophale) SiO2 
 PCOD9116524
Probable space group: P 21
;
_chemical_formula_sum "Si O2"
_cell_formula_units_Z 14
_cell_length_a 13.806318
_cell_length_b 5.757340
_cell_length_c 14.244542
_cell_angle_alpha 90.000000
_cell_angle_beta 147.908269
_cell_angle_gamma 90.000000
_cell_volume 601.545796
_symmetry_space_group_name_H-M "P 21"
_symmetry_group_IT_number 4
_symmetry_cell_setting 'monoclinic'
loop_
_space_group_symop_operation_xyz
x,y,z
-x,1/2+y,-z
loop_
_atom_site_type_symbol
_atom_site_label
_atom_site_fract_x
_atom_site_fract_y
_atom_site_fract_z
Si Si1 0.016042 0.125000 0.660843
Si Si2 0.977757 0.840946 0.126843
Si Si3 0.668592 0.414947 0.362234
Si Si4 0.623657 0.770573 0.744840
Si Si5 0.588874 0.636276 0.105309
Si Si6 0.326096 0.602692 0.365465
Si Si7 0.882581 0.740000 0.672949
O O1 0.041756 0.234160 0.785473
O O2 0.201933 0.148557 0.757839
O O3 0.839402 0.253287 0.471534
O O4 0.964581 0.864404 0.648269
O O5 0.178486 0.805973 0.249990
O O6 0.829567 0.718367 0.940718
O O7 0.963871 0.112993 0.138943
O O8 0.502042 0.264991 0.266372
O O9 0.597919 0.583076 0.223502
O O10 0.744519 0.556015 0.513813
O O11 0.514346 0.641235 0.573868
O O12 0.640480 0.025982 0.712526
O O13 0.502104 0.390357 0.992635
O O14 0.223108 0.410261 0.344528
#
# Coordination Sequence:
#
# PCOD9116524 Si02
#       7
#     2   2   2   2   2   2   2
#     4  10  24  47  74 102 149 183 248 307 372 451
#     4  10  24  45  68 102 140 189 243 304 368 440
#     4  11  25  46  73 105 143 196 241 299 383 438
#     4  12  24  44  71  96 147 188 243 299 369 447
#     4  12  31  48  75 117 153 192 258 312 381 459
#     4  11  25  44  63 107 139 188 244 302 361 448
#     4  10  21  46  70  99 143 186 243 301 368 437
#
# _framework density 23.273372999999999
#
# number of rings (size 3 to 8) (size 9 to 14) (size 15 to 20)
#    0.000    1.143    4.286    1.714   12.000    1.143 
#    5.143    0.000    0.000    0.000    0.000    0.000 
#    0.000    0.000    0.000    0.000    0.000    0.000 
#
# Total GULP energy -78132.281128 kJ/mol
# GULP energy per Si atom -5580.877223 kJ/mol
# Density = 2.322040 g / cm^3
# Si number density = 23.273373 Si / 1000 Ang^3
#
#
#
# Elastic Constant Matrix: (Units=GPa)
#
#
# Indices 1 2 3 4 5 6 
#
# 1 74.7059 -2.7397 11.9765 0.0000 15.9574 0.0000
# 2 -2.7397 55.1282 16.1490 0.0000 9.1712 0.0000
# 3 11.9765 16.1490 107.4879 0.0000 -3.3909 0.0000
# 4 0.0000 0.0000 0.0000 29.4341 0.0000 -1.2827
# 5 15.9574 9.1712 -3.3909 0.0000 29.9122 0.0000
# 6 0.0000 0.0000 0.0000 -1.2827 0.0000 30.8498
#
#
#
# Elastic Compliance Matrix: (Units=1/GPa)
#
#
# Indices 1 2 3 4 5 6 
#
# 1 0.016009 0.003180 -0.002571 0.000000 -0.009807 0.000000
# 2 0.003180 0.020810 -0.003749 0.000000 -0.008502 0.000000
# 3 -0.002571 -0.003749 0.010269 0.000000 0.003685 0.000000
# 4 0.000000 0.000000 0.000000 0.034036 0.000000 0.001415
# 5 -0.009807 -0.008502 0.003685 0.000000 0.041688 0.000000
# 6 0.000000 0.000000 0.000000 0.001415 0.000000 0.032474
#
#
# Mechanical properties :
#
#
# Convention : Reuss Voigt Hill
#
# Bulk Modulus (GPa) = 24.50410 32.01039 28.25725
# Shear Modulus (GPa) = 28.54382 32.16831 30.35607
#
# Velocity S-wave (km/s) = 3.50588 3.72182 3.61546
# Velocity P-wave (km/s) = 5.19037 5.67919 5.44027
#
# Compressibility (1/GPa) = 0.04080949
#
# Stress axis : x y z
#
# Youngs Moduli (GPa) = 62.46302 48.05326 97.37705
#
# Poissons Ratio (x) = -0.15282 0.25036
# Poissons Ratio (y) = -0.19865 0.36508
# Poissons Ratio (z) = 0.16059 0.18016
#
# Static dielectric constant tensor:
#      x y z
#    x 1.867990 0.000000 0.034770 
#    y 0.000000 2.066980 0.000000 
#    z 0.034770 0.000000 1.899470 
# 
# From -- ./inp_files/14087.got.cif
#   From: 2010.05.17/outbox.cif.g08.bks.cpg/sg4_8_cif.got.tgz:14087.got - 2010.06.03 18:43:04.
