data_PCOD9116972
_publ_section_title
;
Structure prediction by ZEFSAII (Michael W. Deem and Ramdas Pophale) SiO2 
 PCOD9116972
Probable space group: P 21
;
_chemical_formula_sum "Si O2"
_cell_formula_units_Z 14
_cell_length_a 18.561977
_cell_length_b 6.091730
_cell_length_c 14.355710
_cell_angle_alpha 90.000000
_cell_angle_beta 156.973874
_cell_angle_gamma 90.000000
_cell_volume 634.941630
_symmetry_space_group_name_H-M "P 21"
_symmetry_group_IT_number 4
_symmetry_cell_setting 'monoclinic'
loop_
_space_group_symop_operation_xyz
x,y,z
-x,1/2+y,-z
loop_
_atom_site_type_symbol
_atom_site_label
_atom_site_fract_x
_atom_site_fract_y
_atom_site_fract_z
Si Si1 0.809197 0.763450 0.177637
Si Si2 0.034151 0.675128 0.999230
Si Si3 0.693190 0.616409 0.508972
Si Si4 0.426985 0.292800 0.263048
Si Si5 0.510893 0.408361 0.886017
Si Si6 0.402478 0.441096 0.443652
Si Si7 0.777996 0.095123 0.314165
O O1 0.015222 0.670493 0.416464
O O2 0.798206 0.924643 0.252654
O O3 0.747675 0.863797 0.005508
O O4 0.646058 0.586600 0.000584
O O5 0.912857 0.638781 0.761236
O O6 0.982029 0.436086 0.990423
O O7 0.249776 0.631059 0.255005
O O8 0.602838 0.378536 0.413440
O O9 0.576497 0.743529 0.293225
O O10 0.671069 0.738678 0.583021
O O11 0.431029 0.391077 0.370823
O O12 0.433730 0.037265 0.298794
O O13 0.336867 0.500780 0.736011
O O14 0.647439 0.287200 0.120025
#
# Coordination Sequence:
#
# PCOD9116972 Si02
#       7
#     2   2   2   2   2   2   2
#     4  12  26  47  75 108 147 186 247 313 380 450
#     4  10  22  42  67  96 139 189 240 301 363 437
#     4  11  23  43  68  97 141 185 239 306 367 450
#     4  12  23  43  69  99 139 191 237 298 375 444
#     4  12  25  47  75 104 142 192 240 309 383 453
#     4  11  23  42  66  98 144 185 238 297 367 442
#     4  12  26  48  76 106 144 186 245 314 381 450
#
# _framework density 22.049271000000001
#
# number of rings (size 3 to 8) (size 9 to 14) (size 15 to 20)
#    0.000    0.571    8.571    0.000    0.000    0.000 
#   23.143    0.000    0.000    0.000    0.000    0.000 
#    0.000    0.000    0.000    0.000    0.000    0.000 
#
# Total GULP energy -77952.687938 kJ/mol
# GULP energy per Si atom -5568.049138 kJ/mol
# Density = 2.199909 g / cm^3
# Si number density = 22.049271 Si / 1000 Ang^3
#
#
#
# Elastic Constant Matrix: (Units=GPa)
#
#
# Indices 1 2 3 4 5 6 
#
# 1 86.9374 21.5274 32.8417 0.0000 5.5171 0.0000
# 2 21.5274 62.8503 13.8157 0.0000 8.0356 0.0000
# 3 32.8417 13.8157 132.2299 0.0000 2.0143 0.0000
# 4 0.0000 0.0000 0.0000 16.7848 0.0000 -4.0156
# 5 5.5171 8.0356 2.0143 0.0000 30.1443 0.0000
# 6 0.0000 0.0000 0.0000 -4.0156 0.0000 31.1419
#
#
#
# Elastic Compliance Matrix: (Units=1/GPa)
#
#
# Indices 1 2 3 4 5 6 
#
# 1 0.013662 -0.003864 -0.002970 0.000000 -0.001272 0.000000
# 2 -0.003864 0.017935 -0.000853 0.000000 -0.004017 0.000000
# 3 -0.002970 -0.000853 0.008386 0.000000 0.000211 0.000000
# 4 0.000000 0.000000 0.000000 0.061474 0.000000 0.007927
# 5 -0.001272 -0.004017 0.000211 0.000000 0.034463 0.000000
# 6 0.000000 0.000000 0.000000 0.007927 0.000000 0.033133
#
#
# Mechanical properties :
#
#
# Convention : Reuss Voigt Hill
#
# Bulk Modulus (GPa) = 40.63506 46.48750 43.56128
# Shear Modulus (GPa) = 25.95625 29.86971 27.91298
#
# Velocity S-wave (km/s) = 3.43475 3.68459 3.56186
# Velocity P-wave (km/s) = 5.84801 6.26345 6.05929
#
# Compressibility (1/GPa) = 0.02460929
#
# Stress axis : x y z
#
# Youngs Moduli (GPa) = 73.19544 55.75567 119.24359
#
# Poissons Ratio (x) = 0.21544 0.35417
# Poissons Ratio (y) = 0.28283 0.10172
# Poissons Ratio (z) = 0.21740 0.04756
#
# Static dielectric constant tensor:
#      x y z
#    x 1.853380 0.000000 -0.003890 
#    y 0.000000 1.920350 0.000000 
#    z -0.003890 0.000000 1.867320 
# 
# From -- ./inp_files/7116.got.cif
#   From: 2010.05.17/outbox.cif.g08.bks.cpg/sg4_4_cif.got.tgz:7116.got - 2010.06.03 18:43:04.
