data_PCOD9116153
_publ_section_title
;
Structure prediction by ZEFSAII (Michael W. Deem and Ramdas Pophale) SiO2 
 PCOD9116153
Probable space group: P 21
;
_chemical_formula_sum "Si O2"
_cell_formula_units_Z 14
_cell_length_a 13.526944
_cell_length_b 9.131625
_cell_length_c 4.971046
_cell_angle_alpha 90.000000
_cell_angle_beta 67.484876
_cell_angle_gamma 90.000000
_cell_volume 567.235478
_symmetry_space_group_name_H-M "P 21"
_symmetry_group_IT_number 4
_symmetry_cell_setting 'monoclinic'
loop_
_space_group_symop_operation_xyz
x,y,z
-x,1/2+y,-z
loop_
_atom_site_type_symbol
_atom_site_label
_atom_site_fract_x
_atom_site_fract_y
_atom_site_fract_z
Si Si1 0.102685 0.850640 0.367221
Si Si2 0.973595 0.074513 0.223611
Si Si3 0.476696 0.321640 0.141425
Si Si4 0.358364 0.621230 0.255467
Si Si5 0.354790 0.226160 0.761671
Si Si6 0.766759 0.025565 0.119881
Si Si7 0.808249 0.490074 0.208329
O O1 0.066320 0.707103 0.555999
O O2 0.173032 0.941528 0.507547
O O3 0.168442 0.854759 0.019669
O O4 0.995287 0.936341 0.393284
O O5 0.888325 0.040303 0.083103
O O6 0.091151 0.096381 0.972310
O O7 0.449189 0.493513 0.159645
O O8 0.454883 0.260148 0.461641
O O9 0.390398 0.245999 0.031270
O O10 0.589152 0.269548 0.905878
O O11 0.305943 0.621547 0.600948
O O12 0.267141 0.567742 0.144455
O O13 0.272849 0.359119 0.789426
O O14 0.299905 0.073743 0.745744
#
# Coordination Sequence:
#
# PCOD9116153 Si02
#       7
#     2   2   2   2   2   2   2
#     4  10  25  38  62  87 129 166 208 253 308 355
#     4  10  26  40  65  89 135 162 213 256 308 367
#     4  10  21  41  66  89 124 157 211 257 314 370
#     4  10  22  42  62  95 118 164 206 258 316 373
#     4  10  21  40  67  90 119 173 204 248 312 385
#     4  10  23  38  67  90 126 164 210 246 318 373
#     4  10  24  39  63  92 127 158 220 246 304 371
#
# _framework density 24.681107999999998
#
# number of rings (size 3 to 8) (size 9 to 14) (size 15 to 20)
#    0.857    1.143    0.000    1.714    8.000    1.143 
#    7.714    0.000    0.000    0.000    0.000    0.000 
#    0.000    0.000    0.000    0.000    0.000    0.000 
#
# Total GULP energy -78372.905742 kJ/mol
# GULP energy per Si atom -5598.064696 kJ/mol
# Density = 2.462493 g / cm^3
# Si number density = 24.681108 Si / 1000 Ang^3
#
#
#
# Elastic Constant Matrix: (Units=GPa)
#
#
# Indices 1 2 3 4 5 6 
#
# 1 60.8801 21.4676 4.4677 0.0000 6.0006 0.0000
# 2 21.4676 62.4169 19.3586 0.0000 -9.0718 0.0000
# 3 4.4677 19.3586 80.0278 0.0000 15.6238 0.0000
# 4 0.0000 0.0000 0.0000 31.0722 0.0000 -0.2232
# 5 6.0006 -9.0718 15.6238 0.0000 31.8493 0.0000
# 6 0.0000 0.0000 0.0000 -0.2232 0.0000 39.4874
#
#
#
# Elastic Compliance Matrix: (Units=1/GPa)
#
#
# Indices 1 2 3 4 5 6 
#
# 1 0.020068 -0.008751 0.002457 0.000000 -0.007479 0.000000
# 2 -0.008751 0.023047 -0.007399 0.000000 0.011843 0.000000
# 3 0.002457 -0.007399 0.016202 0.000000 -0.010518 0.000000
# 4 0.000000 0.000000 0.000000 0.032184 0.000000 0.000182
# 5 -0.007479 0.011843 -0.010518 0.000000 0.041340 0.000000
# 6 0.000000 0.000000 0.000000 0.000182 0.000000 0.025326
#
#
# Mechanical properties :
#
#
# Convention : Reuss Voigt Hill
#
# Bulk Modulus (GPa) = 31.31768 32.65696 31.98732
# Shear Modulus (GPa) = 25.48457 31.01716 28.25087
#
# Velocity S-wave (km/s) = 3.21682 3.54887 3.38692
# Velocity P-wave (km/s) = 5.14915 5.48205 5.31821
#
# Compressibility (1/GPa) = 0.03193084
#
# Stress axis : x y z
#
# Youngs Moduli (GPa) = 49.82944 43.38934 61.72216
#
# Poissons Ratio (x) = 0.37971 -0.15163
# Poissons Ratio (y) = 0.43607 0.45666
# Poissons Ratio (z) = -0.12241 0.32102
#
# Static dielectric constant tensor:
#      x y z
#    x 1.938230 0.000000 -0.037770 
#    y 0.000000 1.979440 0.000000 
#    z -0.037770 0.000000 1.905720 
# 
# From -- ./inp_files/3693.got.cif
#   From: 2010.05.17/outbox.cif.g08.bks.cpg/sg4_2_cif.got.tgz:3693.got - 2010.06.03 18:43:04.
