data_PCOD9116290
_publ_section_title
;
Structure prediction by ZEFSAII (Michael W. Deem and Ramdas Pophale) SiO2 
 PCOD9116290
Probable space group: P 21
;
_chemical_formula_sum "Si O2"
_cell_formula_units_Z 12
_cell_length_a 18.789953
_cell_length_b 5.432454
_cell_length_c 12.730217
_cell_angle_alpha 90.000000
_cell_angle_beta 20.646575
_cell_angle_gamma 90.000000
_cell_volume 458.187118
_symmetry_space_group_name_H-M "P 21"
_symmetry_group_IT_number 4
_symmetry_cell_setting 'monoclinic'
loop_
_space_group_symop_operation_xyz
x,y,z
-x,1/2+y,-z
loop_
_atom_site_type_symbol
_atom_site_label
_atom_site_fract_x
_atom_site_fract_y
_atom_site_fract_z
Si Si1 0.561432 0.428820 0.356266
Si Si2 0.903272 0.672280 0.137147
Si Si3 0.663704 0.386160 0.990746
Si Si4 0.285900 0.341877 0.397164
Si Si5 0.956626 0.696362 0.843666
Si Si6 0.025329 0.108964 0.577030
O O1 0.471731 0.661128 0.545189
O O2 0.520459 0.450017 0.287332
O O3 0.804160 0.481510 0.019779
O O4 0.847249 0.794778 0.100861
O O5 0.932127 0.386662 0.064717
O O6 0.778854 0.667989 0.416147
O O7 0.525320 0.347526 0.079010
O O8 0.837722 0.570914 0.714871
O O9 0.802718 0.166829 0.840490
O O10 0.177416 0.601111 0.571766
O O11 0.175867 0.273781 0.441510
O O12 0.986312 0.882669 0.709231
#
# Coordination Sequence:
#
# PCOD9116290 Si02
#       6
#     2   2   2   2   2   2
#     4  12  27  50  80 121 162 212 270 338 410 488
#     4  10  21  41  73 112 153 203 258 324 399 467
#     4  12  29  50  81 116 155 218 268 334 417 491
#     4  11  26  48  76 115 152 210 269 332 403 483
#     4  11  24  48  77 111 165 206 264 338 405 480
#     4  12  27  53  75 115 165 209 267 346 396 507
#
# _framework density 26.190172
#
# number of rings (size 3 to 8) (size 9 to 14) (size 15 to 20)
#    0.000    0.667    3.333    3.000    2.333    5.333 
#    6.000    0.000    0.000    0.000    0.000    0.000 
#    0.000    0.000    0.000    0.000    0.000    0.000 
#
# Total GULP energy -66883.780755 kJ/mol
# GULP energy per Si atom -5573.648396 kJ/mol
# Density = 2.613056 g / cm^3
# Si number density = 26.190172 Si / 1000 Ang^3
#
#
#
# Elastic Constant Matrix: (Units=GPa)
#
#
# Indices 1 2 3 4 5 6 
#
# 1 107.1857 25.3099 17.8436 0.0000 -10.8537 0.0000
# 2 25.3099 93.3384 33.8510 0.0000 -3.9504 0.0000
# 3 17.8436 33.8510 92.7968 0.0000 -1.0545 0.0000
# 4 0.0000 0.0000 0.0000 35.3335 0.0000 9.2964
# 5 -10.8537 -3.9504 -1.0545 0.0000 61.2363 0.0000
# 6 0.0000 0.0000 0.0000 9.2964 0.0000 57.5971
#
#
#
# Elastic Compliance Matrix: (Units=1/GPa)
#
#
# Indices 1 2 3 4 5 6 
#
# 1 0.010224 -0.002301 -0.001108 0.000000 0.001645 0.000000
# 2 -0.002301 0.012897 -0.004258 0.000000 0.000351 0.000000
# 3 -0.001108 -0.004258 0.012540 0.000000 -0.000255 0.000000
# 4 0.000000 0.000000 0.000000 0.029557 0.000000 -0.004771
# 5 0.001645 0.000351 -0.000255 0.000000 0.016640 0.000000
# 6 0.000000 0.000000 0.000000 -0.004771 0.000000 0.018132
#
#
# Mechanical properties :
#
#
# Convention : Reuss Voigt Hill
#
# Bulk Modulus (GPa) = 49.19705 49.70334 49.45019
# Shear Modulus (GPa) = 40.95054 45.25450 43.10252
#
# Velocity S-wave (km/s) = 3.95851 4.16133 4.06119
# Velocity P-wave (km/s) = 6.30225 6.48907 6.39634
#
# Compressibility (1/GPa) = 0.02032642
#
# Stress axis : x y z
#
# Youngs Moduli (GPa) = 97.81011 77.53872 79.74690
#
# Poissons Ratio (x) = 0.17841 0.08835
# Poissons Ratio (y) = 0.22506 0.33957
# Poissons Ratio (z) = 0.10836 0.33017
#
# Static dielectric constant tensor:
#      x y z
#    x 2.178990 0.000000 -0.063830 
#    y 0.000000 2.203030 0.000000 
#    z -0.063830 0.000000 2.150150 
# 
# From -- ./inp_files/12503.got.cif
#   From: 2010.05.17/outbox.cif.g08.bks.cpg/sg4_7_cif.got.tgz:12503.got - 2010.06.03 18:43:04.
