data_PCOD9116218
_publ_section_title
;
Structure prediction by ZEFSAII (Michael W. Deem and Ramdas Pophale) SiO2 
 PCOD9116218
Probable space group: P 21
;
_chemical_formula_sum "Si O2"
_cell_formula_units_Z 14
_cell_length_a 7.929383
_cell_length_b 9.758524
_cell_length_c 8.656571
_cell_angle_alpha 90.000000
_cell_angle_beta 109.063085
_cell_angle_gamma 90.000000
_cell_volume 633.103256
_symmetry_space_group_name_H-M "P 21"
_symmetry_group_IT_number 4
_symmetry_cell_setting 'monoclinic'
loop_
_space_group_symop_operation_xyz
x,y,z
-x,1/2+y,-z
loop_
_atom_site_type_symbol
_atom_site_label
_atom_site_fract_x
_atom_site_fract_y
_atom_site_fract_z
Si Si1 0.610950 0.488520 0.366452
Si Si2 0.251724 0.149691 0.135735
Si Si3 0.628683 0.390821 0.025225
Si Si4 0.116924 0.654765 0.800616
Si Si5 0.109533 0.210751 0.537859
Si Si6 0.244970 0.352666 0.864599
Si Si7 0.462329 0.240528 0.482844
O O1 0.574203 0.437818 0.182736
O O2 0.806756 0.557798 0.425125
O O3 0.587908 0.367304 0.483251
O O4 0.488047 0.616110 0.388015
O O5 0.412698 0.174300 0.302721
O O6 0.074115 0.124765 0.180049
O O7 0.217232 0.283826 0.022000
O O8 0.299315 0.022961 0.041501
O O9 0.777926 0.275751 0.085896
O O10 0.454072 0.327362 0.891754
O O11 0.222792 0.514269 0.844568
O O12 0.070291 0.702650 0.612437
O O13 0.113510 0.279175 0.705227
O O14 0.267758 0.288918 0.489910
#
# Coordination Sequence:
#
# PCOD9116218 Si02
#       7
#     2   2   2   2   2   2   2
#     4  10  21  41  64  97 134 177 222 271 335 398
#     4  11  22  45  63  99 141 170 224 284 334 399
#     4  12  25  43  71 100 136 175 229 282 334 403
#     4  11  27  43  67  97 132 185 221 275 350 401
#     4   9  24  41  65  93 138 172 222 274 332 402
#     4  12  24  43  71 101 132 178 229 279 336 400
#     4   9  21  38  65  95 137 173 219 275 333 397
#
# _framework density 22.113298
#
# number of rings (size 3 to 8) (size 9 to 14) (size 15 to 20)
#    0.857    0.571    2.857    1.714    4.000    0.000 
#    0.000    0.000    0.000    0.000    0.000    0.000 
#    0.000    0.000    0.000    0.000    0.000    0.000 
#
# Total GULP energy -78184.311069 kJ/mol
# GULP energy per Si atom -5584.593648 kJ/mol
# Density = 2.206297 g / cm^3
# Si number density = 22.113298 Si / 1000 Ang^3
#
#
#
# Elastic Constant Matrix: (Units=GPa)
#
#
# Indices 1 2 3 4 5 6 
#
# 1 21.6900 12.6857 7.6258 0.0000 1.7044 0.0000
# 2 12.6857 78.0878 12.5110 0.0000 -7.3524 0.0000
# 3 7.6258 12.5110 68.8228 0.0000 -5.4228 0.0000
# 4 0.0000 0.0000 0.0000 31.5463 0.0000 1.2078
# 5 1.7044 -7.3524 -5.4228 0.0000 32.7106 0.0000
# 6 0.0000 0.0000 0.0000 1.2078 0.0000 26.1502
#
#
#
# Elastic Compliance Matrix: (Units=1/GPa)
#
#
# Indices 1 2 3 4 5 6 
#
# 1 0.053114 -0.008373 -0.004792 0.000000 -0.005444 0.000000
# 2 -0.008373 0.014732 -0.001474 0.000000 0.003503 0.000000
# 3 -0.004792 -0.001474 0.015525 0.000000 0.002492 0.000000
# 4 0.000000 0.000000 0.000000 0.031756 0.000000 -0.001467
# 5 -0.005444 0.003503 0.002492 0.000000 0.032055 0.000000
# 6 0.000000 0.000000 0.000000 -0.001467 0.000000 0.038308
#
#
# Mechanical properties :
#
#
# Convention : Reuss Voigt Hill
#
# Bulk Modulus (GPa) = 18.48686 26.02728 22.25707
# Shear Modulus (GPa) = 21.47752 27.13331 24.30541
#
# Velocity S-wave (km/s) = 3.11987 3.50667 3.31891
# Velocity P-wave (km/s) = 4.62129 5.30954 4.97732
#
# Compressibility (1/GPa) = 0.05409247
#
# Stress axis : x y z
#
# Youngs Moduli (GPa) = 18.82741 67.87728 64.41060
#
# Poissons Ratio (x) = 0.56837 0.30865
# Poissons Ratio (y) = 0.15765 0.09496
# Poissons Ratio (z) = 0.09022 0.10007
#
# Static dielectric constant tensor:
#      x y z
#    x 1.830610 0.000000 -0.017640 
#    y 0.000000 1.804360 0.000000 
#    z -0.017640 0.000000 1.838860 
# 
# From -- ./inp_files/5846.got.cif
#   From: 2010.05.17/outbox.cif.g08.bks.cpg/sg4_3_cif.got.tgz:5846.got - 2010.06.03 18:43:04.
