data_PCOD9116001
_publ_section_title
;
Structure prediction by ZEFSAII (Michael W. Deem and Ramdas Pophale) SiO2 
 PCOD9116001
Probable space group: P 21
;
_chemical_formula_sum "Si O2"
_cell_formula_units_Z 12
_cell_length_a 5.661925
_cell_length_b 4.811047
_cell_length_c 16.834287
_cell_angle_alpha 90.000000
_cell_angle_beta 70.456970
_cell_angle_gamma 90.000000
_cell_volume 432.144861
_symmetry_space_group_name_H-M "P 21"
_symmetry_group_IT_number 4
_symmetry_cell_setting 'monoclinic'
loop_
_space_group_symop_operation_xyz
x,y,z
-x,1/2+y,-z
loop_
_atom_site_type_symbol
_atom_site_label
_atom_site_fract_x
_atom_site_fract_y
_atom_site_fract_z
Si Si1 0.607292 0.594710 0.378851
Si Si2 0.285288 0.824841 0.855514
Si Si3 0.845714 0.429537 0.512803
Si Si4 0.643907 0.323623 0.813298
Si Si5 0.884192 0.089142 0.278416
Si Si6 0.674762 0.439577 0.979325
O O1 0.710765 0.600781 0.457604
O O2 0.334897 0.731128 0.415767
O O3 0.686191 0.282862 0.348042
O O4 0.749648 0.792510 0.301227
O O5 0.406620 0.521864 0.851421
O O6 0.099345 0.769486 0.804200
O O7 0.518728 0.029501 0.808166
O O8 0.183234 0.914025 0.953003
O O9 0.976898 0.685568 0.543423
O O10 0.779351 0.322851 0.884752
O O11 0.834286 0.485240 0.734362
O O12 0.575724 0.751357 0.980412
#
# Coordination Sequence:
#
# PCOD9116001 Si02
#       6
#     2   2   2   2   2   2
#     4  12  27  46  67 104 138 160 224 282 315 416
#     4  10  21  39  61  90 131 179 228 275 331 388
#     4  12  26  48  76  98 130 182 222 268 342 404
#     4  10  21  39  61  90 131 179 228 275 331 388
#     4  12  25  40  65 100 138 172 210 278 343 392
#     4   8  16  34  58  82 120 174 230 280 314 374
#
# _framework density 27.768464999999999
#
# number of rings (size 3 to 8) (size 9 to 14) (size 15 to 20)
#    0.000    1.333    0.000    6.000    0.000    8.000 
#    0.000   11.667    0.000    0.000    0.000    0.000 
#    0.000    0.000    0.000    0.000    0.000    0.000 
#
# Total GULP energy -66995.477477 kJ/mol
# GULP energy per Si atom -5582.956456 kJ/mol
# Density = 2.770526 g / cm^3
# Si number density = 27.768465 Si / 1000 Ang^3
#
#
#
# Elastic Constant Matrix: (Units=GPa)
#
#
# Indices 1 2 3 4 5 6 
#
# 1 61.3742 45.2237 33.9779 0.0000 -4.2418 0.0000
# 2 45.2237 185.3097 26.9436 0.0000 -6.5544 0.0000
# 3 33.9779 26.9436 69.4209 0.0000 -1.5483 0.0000
# 4 0.0000 0.0000 0.0000 56.4911 0.0000 -11.7413
# 5 -4.2418 -6.5544 -1.5483 0.0000 25.9815 0.0000
# 6 0.0000 0.0000 0.0000 -11.7413 0.0000 55.5275
#
#
#
# Elastic Compliance Matrix: (Units=1/GPa)
#
#
# Indices 1 2 3 4 5 6 
#
# 1 0.025872 -0.004658 -0.010801 0.000000 0.002405 0.000000
# 2 -0.004658 0.006603 -0.000263 0.000000 0.000890 0.000000
# 3 -0.010801 -0.000263 0.019779 0.000000 -0.000651 0.000000
# 4 0.000000 0.000000 0.000000 0.018516 0.000000 0.003915
# 5 0.002405 0.000890 -0.000651 0.000000 0.039067 0.000000
# 6 0.000000 0.000000 0.000000 0.003915 0.000000 0.018837
#
#
# Mechanical properties :
#
#
# Convention : Reuss Voigt Hill
#
# Bulk Modulus (GPa) = 48.05642 58.71056 53.38349
# Shear Modulus (GPa) = 29.93020 41.59733 35.76377
#
# Velocity S-wave (km/s) = 3.28662 3.87461 3.59266
# Velocity P-wave (km/s) = 5.63438 6.41916 6.03953
#
# Compressibility (1/GPa) = 0.02080887
#
# Stress axis : x y z
#
# Youngs Moduli (GPa) = 38.65171 151.44873 50.55841
#
# Poissons Ratio (x) = 0.70550 0.54610
# Poissons Ratio (y) = 0.18005 0.01329
# Poissons Ratio (z) = 0.41749 0.03981
#
# Static dielectric constant tensor:
#      x y z
#    x 2.231160 0.000000 0.056150 
#    y 0.000000 2.012190 0.000000 
#    z 0.056150 0.000000 2.277130 
# 
# From -- ./inp_files/15444.got.cif
#   From: 2010.05.17/outbox.cif.g08.bks.cpg/sg4_8_cif.got.tgz:15444.got - 2010.06.03 18:43:04.
