data_PCOD9116473
_publ_section_title
;
Structure prediction by ZEFSAII (Michael W. Deem and Ramdas Pophale) SiO2 
 PCOD9116473
Probable space group: P 21
;
_chemical_formula_sum "Si O2"
_cell_formula_units_Z 16
_cell_length_a 14.731899
_cell_length_b 8.236795
_cell_length_c 17.903466
_cell_angle_alpha 90.000000
_cell_angle_beta 160.984218
_cell_angle_gamma 90.000000
_cell_volume 707.853340
_symmetry_space_group_name_H-M "P 21"
_symmetry_group_IT_number 4
_symmetry_cell_setting 'monoclinic'
loop_
_space_group_symop_operation_xyz
x,y,z
-x,1/2+y,-z
loop_
_atom_site_type_symbol
_atom_site_label
_atom_site_fract_x
_atom_site_fract_y
_atom_site_fract_z
Si Si1 0.878070 0.815060 0.015994
Si Si2 0.861292 0.849208 0.166476
Si Si3 0.324246 0.602616 0.582247
Si Si4 0.102478 0.064971 0.476105
Si Si5 0.513591 0.751042 0.334933
Si Si6 0.865400 0.817432 0.840913
Si Si7 0.554844 0.120580 0.555740
Si Si8 0.743998 0.238243 0.316438
O O1 0.856516 0.908217 0.076972
O O2 0.180971 0.735777 0.251291
O O3 0.633226 0.680564 0.826411
O O4 0.846674 0.890239 0.909855
O O5 0.120579 0.726264 0.380347
O O6 0.575972 0.751906 0.958325
O O7 0.899459 0.993722 0.254289
O O8 0.335398 0.425475 0.555318
O O9 0.229453 0.608280 0.595270
O O10 0.361585 0.140023 0.633309
O O11 0.946718 0.192070 0.407396
O O12 0.187508 0.910777 0.592303
O O13 0.557044 0.662287 0.448317
O O14 0.184356 0.786817 0.070068
O O15 0.687297 0.653502 0.692028
O O16 0.691669 0.944266 0.657028
#
# Coordination Sequence:
#
# PCOD9116473 Si02
#       8
#     2   2   2   2   2   2   2   2
#     4  10  22  43  69  91 141 184 232 283 346 407
#     4  10  24  42  74 102 134 191 229 280 352 414
#     4  10  21  44  69 100 136 185 230 281 349 407
#     4  11  25  47  70 109 137 185 233 288 357 411
#     4  11  26  43  66 102 143 182 237 287 345 421
#     4  11  26  46  65 102 138 188 235 291 348 409
#     4  11  26  40  70  96 137 187 232 291 346 411
#     4  10  24  45  75 100 142 182 224 297 345 416
#
# _framework density 22.603552000000001
#
# number of rings (size 3 to 8) (size 9 to 14) (size 15 to 20)
#    0.000    1.500    1.250    1.500   10.500    5.000 
#    0.000    0.000    0.000    0.000    0.000    0.000 
#    0.000    0.000    0.000    0.000    0.000    0.000 
#
# Total GULP energy -89519.378015 kJ/mol
# GULP energy per Si atom -5594.961126 kJ/mol
# Density = 2.255211 g / cm^3
# Si number density = 22.603552 Si / 1000 Ang^3
#
#
#
# Elastic Constant Matrix: (Units=GPa)
#
#
# Indices 1 2 3 4 5 6 
#
# 1 167.6986 47.1387 56.1414 0.0000 3.8308 0.0000
# 2 47.1387 70.7892 24.2118 0.0000 -9.1906 0.0000
# 3 56.1414 24.2118 97.4880 0.0000 -5.8926 0.0000
# 4 0.0000 0.0000 0.0000 31.4095 0.0000 2.9368
# 5 3.8308 -9.1906 -5.8926 0.0000 27.1652 0.0000
# 6 0.0000 0.0000 0.0000 2.9368 0.0000 31.6926
#
#
#
# Elastic Compliance Matrix: (Units=1/GPa)
#
#
# Indices 1 2 3 4 5 6 
#
# 1 0.008809 -0.004968 -0.004069 0.000000 -0.003806 0.000000
# 2 -0.004968 0.018790 -0.001397 0.000000 0.006754 0.000000
# 3 -0.004069 -0.001397 0.013126 0.000000 0.002948 0.000000
# 4 0.000000 0.000000 0.000000 0.032116 0.000000 -0.002976
# 5 -0.003806 0.006754 0.002948 0.000000 0.040273 0.000000
# 6 0.000000 0.000000 0.000000 -0.002976 0.000000 0.031829
#
#
# Mechanical properties :
#
#
# Convention : Reuss Voigt Hill
#
# Bulk Modulus (GPa) = 50.36298 65.66217 58.01258
# Shear Modulus (GPa) = 28.99740 31.95239 30.47490
#
# Velocity S-wave (km/s) = 3.58560 3.76387 3.67582
# Velocity P-wave (km/s) = 6.28263 6.92831 6.61335
#
# Compressibility (1/GPa) = 0.01985585
#
# Stress axis : x y z
#
# Youngs Moduli (GPa) = 113.52436 53.22108 76.18421
#
# Poissons Ratio (x) = 0.26441 0.30999
# Poissons Ratio (y) = 0.56400 0.10644
# Poissons Ratio (z) = 0.46192 0.07436
#
# Static dielectric constant tensor:
#      x y z
#    x 1.851790 0.000000 -0.019470 
#    y 0.000000 1.900660 0.000000 
#    z -0.019470 0.000000 1.811020 
# 
# From -- ./inp_files/2574.got.cif
#   From: 2010.05.17/outbox.cif.g08.bks.cpg/sg4_2_cif.got.tgz:2574.got - 2010.06.03 18:43:04.
