data_PCOD9116908
_publ_section_title
;
Structure prediction by ZEFSAII (Michael W. Deem and Ramdas Pophale) SiO2 
 PCOD9116908
Probable space group: P 21
;
_chemical_formula_sum "Si O2"
_cell_formula_units_Z 16
_cell_length_a 8.431267
_cell_length_b 9.360282
_cell_length_c 11.411544
_cell_angle_alpha 90.000000
_cell_angle_beta 136.016086
_cell_angle_gamma 90.000000
_cell_volume 625.419129
_symmetry_space_group_name_H-M "P 21"
_symmetry_group_IT_number 4
_symmetry_cell_setting 'monoclinic'
loop_
_space_group_symop_operation_xyz
x,y,z
-x,1/2+y,-z
loop_
_atom_site_type_symbol
_atom_site_label
_atom_site_fract_x
_atom_site_fract_y
_atom_site_fract_z
Si Si1 0.199252 0.514380 0.816836
Si Si2 0.471981 0.044605 0.730005
Si Si3 0.890688 0.872955 0.862316
Si Si4 0.330421 0.270124 0.480728
Si Si5 0.974148 0.617263 0.237750
Si Si6 0.508624 0.750727 0.036432
Si Si7 0.011121 0.932533 0.541104
Si Si8 0.189235 0.870902 0.240281
O O1 0.434198 0.417940 0.950443
O O2 0.105830 0.460653 0.643997
O O3 0.992935 0.480520 0.798186
O O4 0.281132 0.677541 0.866649
O O5 0.706499 0.962134 0.838562
O O6 0.407814 0.118405 0.573023
O O7 0.481967 0.175225 0.829362
O O8 0.281091 0.928301 0.662447
O O9 0.009239 0.981689 0.835930
O O10 0.751181 0.772378 0.697811
O O11 0.082642 0.826100 0.057145
O O12 0.123404 0.315381 0.456594
O O13 0.536675 0.385346 0.613808
O O14 0.007754 0.573064 0.388478
O O15 0.162440 0.731362 0.305945
O O16 0.730784 0.688787 0.089447
#
# Coordination Sequence:
#
# PCOD9116908 Si02
#       8
#     2   2   2   2   2   2   2   2
#     4  11  22  44  66 110 135 197 235 299 360 433
#     4  11  21  47  68  98 144 182 237 302 352 436
#     4  11  23  44  70 101 138 187 233 289 365 427
#     4  11  24  46  71 100 140 187 236 301 355 435
#     4   9  22  43  62  97 138 177 228 296 345 424
#     4  10  22  41  69  98 146 180 239 296 357 418
#     4  10  23  43  71  95 135 187 239 293 362 419
#     4  11  23  44  71  99 146 181 237 292 362 424
#
# _framework density 25.582841999999999
#
# number of rings (size 3 to 8) (size 9 to 14) (size 15 to 20)
#    0.000    1.500    3.750    0.750    1.750    0.000 
#   18.000    0.000    0.000    0.000    0.000    0.000 
#    0.000    0.000    0.000    0.000    0.000    0.000 
#
# Total GULP energy -89469.768222 kJ/mol
# GULP energy per Si atom -5591.860514 kJ/mol
# Density = 2.552461 g / cm^3
# Si number density = 25.582842 Si / 1000 Ang^3
#
#
#
# Elastic Constant Matrix: (Units=GPa)
#
#
# Indices 1 2 3 4 5 6 
#
# 1 120.4322 24.8822 44.1765 0.0000 17.0551 0.0000
# 2 24.8822 58.4162 21.4906 0.0000 19.1580 0.0000
# 3 44.1765 21.4906 122.6229 0.0000 3.3650 0.0000
# 4 0.0000 0.0000 0.0000 34.6918 0.0000 12.5499
# 5 17.0551 19.1580 3.3650 0.0000 33.9863 0.0000
# 6 0.0000 0.0000 0.0000 12.5499 0.0000 40.8580
#
#
#
# Elastic Compliance Matrix: (Units=1/GPa)
#
#
# Indices 1 2 3 4 5 6 
#
# 1 0.010471 -0.001992 -0.003319 0.000000 -0.003803 0.000000
# 2 -0.001992 0.022862 -0.002971 0.000000 -0.011594 0.000000
# 3 -0.003319 -0.002971 0.009806 0.000000 0.002369 0.000000
# 4 0.000000 0.000000 0.000000 0.032429 0.000000 -0.009961
# 5 -0.003803 -0.011594 0.002369 0.000000 0.037633 0.000000
# 6 0.000000 0.000000 0.000000 -0.009961 0.000000 0.027535
#
#
# Mechanical properties :
#
#
# Convention : Reuss Voigt Hill
#
# Bulk Modulus (GPa) = 37.62775 53.61889 45.62332
# Shear Modulus (GPa) = 30.09187 35.96868 33.03028
#
# Velocity S-wave (km/s) = 3.43337 3.75369 3.59710
# Velocity P-wave (km/s) = 5.51883 6.30804 5.92659
#
# Compressibility (1/GPa) = 0.02657613
#
# Stress axis : x y z
#
# Youngs Moduli (GPa) = 95.50224 43.74029 101.97396
#
# Poissons Ratio (x) = 0.08712 0.33844
# Poissons Ratio (y) = 0.19022 0.30297
# Poissons Ratio (z) = 0.31696 0.12995
#
# Static dielectric constant tensor:
#      x y z
#    x 2.015630 0.000000 0.000290 
#    y 0.000000 2.054560 0.000000 
#    z 0.000290 0.000000 2.154450 
# 
# From -- ./inp_files/8440.got.cif
#   From: 2010.05.17/outbox.cif.g08.bks.cpg/sg4_5_cif.got.tgz:8440.got - 2010.06.03 18:43:04.
