data_PCOD9116950
_publ_section_title
;
Structure prediction by ZEFSAII (Michael W. Deem and Ramdas Pophale) SiO2 
 PCOD9116950
Probable space group: P 21
;
_chemical_formula_sum "Si O2"
_cell_formula_units_Z 16
_cell_length_a 9.235669
_cell_length_b 17.381070
_cell_length_c 5.560544
_cell_angle_alpha 90.000000
_cell_angle_beta 127.034390
_cell_angle_gamma 90.000000
_cell_volume 712.548145
_symmetry_space_group_name_H-M "P 21"
_symmetry_group_IT_number 4
_symmetry_cell_setting 'monoclinic'
loop_
_space_group_symop_operation_xyz
x,y,z
-x,1/2+y,-z
loop_
_atom_site_type_symbol
_atom_site_label
_atom_site_fract_x
_atom_site_fract_y
_atom_site_fract_z
Si Si1 0.833811 0.290330 0.634344
Si Si2 0.192195 0.626416 0.633898
Si Si3 0.523899 0.768803 0.455734
Si Si4 0.027822 0.533931 0.856181
Si Si5 0.850275 0.879017 0.785283
Si Si6 0.864432 0.414357 0.315637
Si Si7 0.846263 0.558956 0.093296
Si Si8 0.420622 0.176463 0.990311
O O1 0.855808 0.210915 0.513302
O O2 0.689830 0.284115 0.707865
O O3 0.760811 0.350857 0.362217
O O4 0.022467 0.324833 0.918663
O O5 0.147679 0.601325 0.861195
O O6 0.404884 0.621178 0.808736
O O7 0.062677 0.569848 0.357211
O O8 0.652235 0.843290 0.565792
O O9 0.578230 0.727652 0.764300
O O10 0.556289 0.721342 0.239752
O O11 0.928779 0.480694 0.560667
O O12 0.140813 0.465261 0.099486
O O13 0.859549 0.574220 0.824683
O O14 0.961138 0.879500 0.644733
O O15 0.770837 0.471850 0.033021
O O16 0.751329 0.621698 0.159134
#
# Coordination Sequence:
#
# PCOD9116950 Si02
#       8
#     2   2   2   2   2   2   2   2
#     4  10  23  40  65  96 132 174 221 282 337 399
#     4  10  23  40  66  95 135 172 222 278 339 393
#     4  11  27  42  64 103 133 171 230 274 336 403
#     4   9  21  41  66  98 127 177 230 270 342 409
#     4  10  22  42  68  92 135 177 226 278 344 400
#     4   9  21  41  65  96 125 176 225 271 337 410
#     4  10  22  42  66  92 132 178 222 276 338 401
#     4  11  27  42  64 102 133 173 228 275 333 405
#
# _framework density 22.454623999999999
#
# number of rings (size 3 to 8) (size 9 to 14) (size 15 to 20)
#    0.000    2.000    0.000    0.750   15.750    1.000 
#    0.000   11.250    0.000    0.000    0.000    0.000 
#    0.000    0.000    0.000    0.000    0.000    0.000 
#
# Total GULP energy -89077.739851 kJ/mol
# GULP energy per Si atom -5567.358741 kJ/mol
# Density = 2.240352 g / cm^3
# Si number density = 22.454624 Si / 1000 Ang^3
#
#
#
# Elastic Constant Matrix: (Units=GPa)
#
#
# Indices 1 2 3 4 5 6 
#
# 1 106.8452 59.2830 26.3952 0.0000 -24.3680 0.0000
# 2 59.2830 83.3339 19.7647 0.0000 -1.4182 0.0000
# 3 26.3952 19.7647 46.6455 0.0000 -7.6886 0.0000
# 4 0.0000 0.0000 0.0000 27.2598 0.0000 -19.4322
# 5 -24.3680 -1.4182 -7.6886 0.0000 35.8801 0.0000
# 6 0.0000 0.0000 0.0000 -19.4322 0.0000 40.2661
#
#
#
# Elastic Compliance Matrix: (Units=1/GPa)
#
#
# Indices 1 2 3 4 5 6 
#
# 1 0.020813 -0.013668 -0.003882 0.000000 0.012763 0.000000
# 2 -0.013668 0.022334 -0.003228 0.000000 -0.009092 0.000000
# 3 -0.003882 -0.003228 0.025446 0.000000 0.002689 0.000000
# 4 0.000000 0.000000 0.000000 0.055922 0.000000 0.026988
# 5 0.012763 -0.009092 0.002689 0.000000 0.036755 0.000000
# 6 0.000000 0.000000 0.000000 0.026988 0.000000 0.037859
#
#
# Mechanical properties :
#
#
# Convention : Reuss Voigt Hill
#
# Bulk Modulus (GPa) = 36.98638 49.74561 43.36599
# Shear Modulus (GPa) = 20.02416 29.43999 24.73207
#
# Velocity S-wave (km/s) = 2.98948 3.62482 3.32237
# Velocity P-wave (km/s) = 5.33135 6.30246 5.83714
#
# Compressibility (1/GPa) = 0.02703698
#
# Stress axis : x y z
#
# Youngs Moduli (GPa) = 48.04670 44.77438 39.29917
#
# Poissons Ratio (x) = 0.61199 0.15256
# Poissons Ratio (y) = 0.65672 0.12684
# Poissons Ratio (z) = 0.18652 0.14452
#
# Static dielectric constant tensor:
#      x y z
#    x 1.875500 0.000000 -0.144110 
#    y 0.000000 1.981190 0.000000 
#    z -0.144110 0.000000 2.163480 
# 
# From -- ./inp_files/2079.got.cif
#   From: 2010.05.17/outbox.cif.g08.bks.cpg/sg4_2_cif.got.tgz:2079.got - 2010.06.03 18:43:04.
