data_PCOD9116606
_publ_section_title
;
Structure prediction by ZEFSAII (Michael W. Deem and Ramdas Pophale) SiO2 
 PCOD9116606
Probable space group: P 21
;
_chemical_formula_sum "Si O2"
_cell_formula_units_Z 16
_cell_length_a 4.990483
_cell_length_b 5.417584
_cell_length_c 22.595916
_cell_angle_alpha 90.000000
_cell_angle_beta 100.910794
_cell_angle_gamma 90.000000
_cell_volume 599.867938
_symmetry_space_group_name_H-M "P 21"
_symmetry_group_IT_number 4
_symmetry_cell_setting 'monoclinic'
loop_
_space_group_symop_operation_xyz
x,y,z
-x,1/2+y,-z
loop_
_atom_site_type_symbol
_atom_site_label
_atom_site_fract_x
_atom_site_fract_y
_atom_site_fract_z
Si Si1 0.130751 0.360150 0.810540
Si Si2 0.382490 0.556404 0.196011
Si Si3 0.735203 0.474927 0.599398
Si Si4 0.780815 0.727066 0.717002
Si Si5 0.177563 0.096615 0.514305
Si Si6 0.782117 0.862498 0.934452
Si Si7 0.706901 0.089098 0.060011
Si Si8 0.960930 0.464406 0.375435
O O1 0.414150 0.284435 0.793001
O O2 0.973162 0.561939 0.765865
O O3 0.175081 0.437969 0.880255
O O4 0.927082 0.132288 0.805449
O O5 0.382448 0.463906 0.128665
O O6 0.434377 0.358781 0.249182
O O7 0.608105 0.542688 0.530093
O O8 0.631233 0.563810 0.659438
O O9 0.982396 0.677289 0.605794
O O10 0.834932 0.195550 0.604219
O O11 0.972452 0.925876 0.690960
O O12 0.270037 0.050609 0.586906
O O13 0.962039 0.867076 0.496403
O O14 0.613998 0.611922 0.940387
O O15 0.097366 0.829856 0.931476
O O16 0.747409 0.998402 0.995028
#
# Coordination Sequence:
#
# PCOD9116606 Si02
#       8
#     2   2   2   2   2   2   2   2
#     4  12  26  45  70 100 142 188 237 301 368 445
#     4  12  26  45  70 100 142 188 237 301 368 445
#     4   8  15  28  50  85 131 181 230 294 356 436
#     4  10  22  38  62  96 144 182 244 294 374 442
#     4   8  12  22  44  78 126 174 224 288 352 424
#     4  12  24  44  69 102 139 182 239 301 364 438
#     4  12  24  44  69 102 139 182 239 301 364 438
#     4   8  15  28  50  85 131 181 230 294 356 436
#
# _framework density 26.672537999999999
#
# number of rings (size 3 to 8) (size 9 to 14) (size 15 to 20)
#    0.750    1.000    1.250    4.500    0.000    0.000 
#    0.000    0.000    0.000    0.000    0.000    0.000 
#    7.500    0.000    0.000    0.000    0.000    0.250 
#
# Total GULP energy -89187.295169 kJ/mol
# GULP energy per Si atom -5574.205948 kJ/mol
# Density = 2.661183 g / cm^3
# Si number density = 26.672538 Si / 1000 Ang^3
#
#
#
# Elastic Constant Matrix: (Units=GPa)
#
#
# Indices 1 2 3 4 5 6 
#
# 1 91.4397 22.3981 24.6619 0.0000 -24.2423 0.0000
# 2 22.3981 103.8605 61.6945 0.0000 6.2584 0.0000
# 3 24.6619 61.6945 216.6344 0.0000 4.8806 0.0000
# 4 0.0000 0.0000 0.0000 67.4985 0.0000 -3.6301
# 5 -24.2423 6.2584 4.8806 0.0000 62.1320 0.0000
# 6 0.0000 0.0000 0.0000 -3.6301 0.0000 28.4249
#
#
#
# Elastic Compliance Matrix: (Units=1/GPa)
#
#
# Indices 1 2 3 4 5 6 
#
# 1 0.013293 -0.002680 -0.000875 0.000000 0.005525 0.000000
# 2 -0.002680 0.012181 -0.003118 0.000000 -0.002028 0.000000
# 3 -0.000875 -0.003118 0.005614 0.000000 -0.000468 0.000000
# 4 0.000000 0.000000 0.000000 0.014918 0.000000 0.001905
# 5 0.005525 -0.002028 -0.000468 0.000000 0.018492 0.000000
# 6 0.000000 0.000000 0.000000 0.001905 0.000000 0.035424
#
#
# Mechanical properties :
#
#
# Convention : Reuss Voigt Hill
#
# Bulk Modulus (GPa) = 56.36171 69.93818 63.14994
# Shear Modulus (GPa) = 41.95290 51.82308 46.88799
#
# Velocity S-wave (km/s) = 3.97027 4.41266 4.19730
# Velocity P-wave (km/s) = 6.49571 7.22773 6.87147
#
# Compressibility (1/GPa) = 0.01774254
#
# Stress axis : x y z
#
# Youngs Moduli (GPa) = 75.22493 82.09713 178.12101
#
# Poissons Ratio (x) = 0.22004 0.15577
# Poissons Ratio (y) = 0.20162 0.55540
# Poissons Ratio (z) = 0.06579 0.25599
#
# Static dielectric constant tensor:
#      x y z
#    x 2.088260 0.000000 0.043330 
#    y 0.000000 2.091460 0.000000 
#    z 0.043330 0.000000 2.301390 
# 
# From -- ./inp_files/16014.got.cif
#   From: 2010.05.17/outbox.cif.g08.bks.cpg/sg4_9_cif.got.tgz:16014.got - 2010.06.03 18:43:04.
