data_PCOD9116296
_publ_section_title
;
Structure prediction by ZEFSAII (Michael W. Deem and Ramdas Pophale) SiO2 
 PCOD9116296
Probable space group: P 21
;
_chemical_formula_sum "Si O2"
_cell_formula_units_Z 16
_cell_length_a 23.812316
_cell_length_b 5.456971
_cell_length_c 14.061706
_cell_angle_alpha 90.000000
_cell_angle_beta 159.859612
_cell_angle_gamma 90.000000
_cell_volume 629.151939
_symmetry_space_group_name_H-M "P 21"
_symmetry_group_IT_number 4
_symmetry_cell_setting 'monoclinic'
loop_
_space_group_symop_operation_xyz
x,y,z
-x,1/2+y,-z
loop_
_atom_site_type_symbol
_atom_site_label
_atom_site_fract_x
_atom_site_fract_y
_atom_site_fract_z
Si Si1 0.692223 0.508130 0.868944
Si Si2 0.561092 0.834852 0.057942
Si Si3 0.881610 0.563675 0.370926
Si Si4 0.302222 0.504998 0.234982
Si Si5 0.203078 0.421359 0.417840
Si Si6 0.567777 0.557334 0.335448
Si Si7 0.209104 0.575214 0.780325
Si Si8 0.158088 0.733344 0.176359
O O1 0.495659 0.509841 0.564811
O O2 0.736781 0.255761 0.885196
O O3 0.735491 0.754686 0.879689
O O4 0.779968 0.541005 0.110186
O O5 0.731993 0.928294 0.372520
O O6 0.547670 0.547014 0.061274
O O7 0.501985 0.875824 0.857042
O O8 0.827020 0.818143 0.327666
O O9 0.070198 0.568110 0.641089
O O10 0.833824 0.316250 0.348442
O O11 0.206404 0.518279 0.181821
O O12 0.177653 0.668854 0.318554
O O13 0.341341 0.273005 0.577246
O O14 0.027379 0.298748 0.135064
O O15 0.702301 0.437456 0.616467
O O16 0.394694 0.606690 0.111049
#
# Coordination Sequence:
#
# PCOD9116296 Si02
#       8
#     2   2   2   2   2   2   2   2
#     4  10  21  42  61  92 129 167 212 276 323 409
#     4  10  22  43  65  91 129 172 216 281 334 391
#     4  10  21  42  62  91 136 162 215 279 335 393
#     4  10  24  37  64  93 124 170 220 260 338 391
#     4  11  25  43  65  97 139 175 235 285 336 404
#     4  11  24  41  68  96 130 180 227 278 340 409
#     4  10  23  37  65  98 121 173 219 271 332 404
#     4  12  24  43  66  98 134 183 224 288 338 401
#
# _framework density 25.431059999999999
#
# number of rings (size 3 to 8) (size 9 to 14) (size 15 to 20)
#    0.000    1.500    2.500    1.500    5.250    2.000 
#    0.000    5.000    0.000    0.000    0.000    0.000 
#    0.000    0.000    0.000    0.000    0.000    0.000 
#
# Total GULP energy -89424.102307 kJ/mol
# GULP energy per Si atom -5589.006394 kJ/mol
# Density = 2.537318 g / cm^3
# Si number density = 25.431060 Si / 1000 Ang^3
#
#
#
# Elastic Constant Matrix: (Units=GPa)
#
#
# Indices 1 2 3 4 5 6 
#
# 1 80.3769 27.7002 41.8352 0.0000 -15.2826 0.0000
# 2 27.7002 143.7621 26.6449 0.0000 11.9365 0.0000
# 3 41.8352 26.6449 153.2745 0.0000 2.6162 0.0000
# 4 0.0000 0.0000 0.0000 31.5499 0.0000 -10.3363
# 5 -15.2826 11.9365 2.6162 0.0000 29.5866 0.0000
# 6 0.0000 0.0000 0.0000 -10.3363 0.0000 23.9086
#
#
#
# Elastic Compliance Matrix: (Units=1/GPa)
#
#
# Indices 1 2 3 4 5 6 
#
# 1 0.018174 -0.003596 -0.004527 0.000000 0.011238 0.000000
# 2 -0.003596 0.008137 -0.000346 0.000000 -0.005110 0.000000
# 3 -0.004527 -0.000346 0.007869 0.000000 -0.002895 0.000000
# 4 0.000000 0.000000 0.000000 0.036926 0.000000 0.015964
# 5 0.011238 -0.005110 -0.002895 0.000000 0.041922 0.000000
# 6 0.000000 0.000000 0.000000 0.015964 0.000000 0.048727
#
#
# Mechanical properties :
#
#
# Convention : Reuss Voigt Hill
#
# Bulk Modulus (GPa) = 57.99558 63.30823 60.65191
# Shear Modulus (GPa) = 27.10902 35.75790 31.43346
#
# Velocity S-wave (km/s) = 3.26848 3.75383 3.51953
# Velocity P-wave (km/s) = 6.09085 6.61335 6.35747
#
# Compressibility (1/GPa) = 0.01724269
#
# Stress axis : x y z
#
# Youngs Moduli (GPa) = 55.02436 122.89335 127.07398
#
# Poissons Ratio (x) = 0.44190 0.57528
# Poissons Ratio (y) = 0.19786 0.04395
# Poissons Ratio (z) = 0.24910 0.04251
#
# Static dielectric constant tensor:
#      x y z
#    x 2.015610 0.000000 0.027810 
#    y 0.000000 2.167010 0.000000 
#    z 0.027810 0.000000 1.981740 
# 
# From -- ./inp_files/12384.got.cif
#   From: 2010.05.17/outbox.cif.g08.bks.cpg/sg4_7_cif.got.tgz:12384.got - 2010.06.03 18:43:04.
