data_PCOD9116793
_publ_section_title
;
Structure prediction by ZEFSAII (Michael W. Deem and Ramdas Pophale) SiO2 
 PCOD9116793
Probable space group: P 21
;
_chemical_formula_sum "Si O2"
_cell_formula_units_Z 16
_cell_length_a 7.974304
_cell_length_b 9.459149
_cell_length_c 9.592561
_cell_angle_alpha 90.000000
_cell_angle_beta 69.896447
_cell_angle_gamma 90.000000
_cell_volume 679.483242
_symmetry_space_group_name_H-M "P 21"
_symmetry_group_IT_number 4
_symmetry_cell_setting 'monoclinic'
loop_
_space_group_symop_operation_xyz
x,y,z
-x,1/2+y,-z
loop_
_atom_site_type_symbol
_atom_site_label
_atom_site_fract_x
_atom_site_fract_y
_atom_site_fract_z
Si Si1 0.867421 0.063210 0.983219
Si Si2 0.533347 0.899873 0.762435
Si Si3 0.914485 0.027991 0.666005
Si Si4 0.639635 0.156279 0.287939
Si Si5 0.623372 0.406007 0.731678
Si Si6 0.347875 0.292605 0.000797
Si Si7 0.203480 0.011614 0.032094
Si Si8 0.111674 0.742176 0.547502
O O1 0.766760 0.169761 0.113931
O O2 0.012022 0.971888 0.027872
O O3 0.713816 0.952977 0.986390
O O4 0.937332 0.103644 0.810227
O O5 0.466092 0.802920 0.656028
O O6 0.705505 0.996468 0.690381
O O7 0.581831 0.778511 0.863152
O O8 0.365669 0.976000 0.881726
O O9 0.989578 0.131680 0.525228
O O10 0.997514 0.869987 0.647458
O O11 0.781859 0.147929 0.371464
O O12 0.504149 0.025260 0.302958
O O13 0.498240 0.288000 0.841222
O O14 0.738571 0.465188 0.830450
O O15 0.750828 0.328585 0.588148
O O16 0.193541 0.181540 0.026493
#
# Coordination Sequence:
#
# PCOD9116793 Si02
#       8
#     2   2   2   2   2   2   2   2
#     4  10  25  42  71 104 137 180 246 296 348 433
#     4  10  22  40  70  96 137 180 236 297 345 425
#     4  11  28  50  69 109 148 193 244 300 372 434
#     4  11  25  45  72 103 138 190 248 297 361 428
#     4  10  24  44  69 102 141 191 236 293 369 436
#     4   9  20  40  64 101 131 176 233 295 349 412
#     4  11  21  38  74 101 137 179 233 305 356 415
#     4  12  29  47  73 104 153 193 238 299 378 441
#
# _framework density 23.547308999999998
#
# number of rings (size 3 to 8) (size 9 to 14) (size 15 to 20)
#    0.000    1.500    1.250    2.250   14.000    0.000 
#    4.500    0.000    0.000    0.000    0.000    0.000 
#    0.000    0.000    0.000    0.000    0.000    0.000 
#
# Total GULP energy -89290.714624 kJ/mol
# GULP energy per Si atom -5580.669664 kJ/mol
# Density = 2.349371 g / cm^3
# Si number density = 23.547309 Si / 1000 Ang^3
#
#
#
# Elastic Constant Matrix: (Units=GPa)
#
#
# Indices 1 2 3 4 5 6 
#
# 1 75.8881 5.8595 10.3473 0.0000 12.6511 0.0000
# 2 5.8595 69.0852 12.5249 0.0000 9.1625 0.0000
# 3 10.3473 12.5249 63.5229 0.0000 13.5243 0.0000
# 4 0.0000 0.0000 0.0000 11.7619 0.0000 -4.6817
# 5 12.6511 9.1625 13.5243 0.0000 34.9942 0.0000
# 6 0.0000 0.0000 0.0000 -4.6817 0.0000 34.3949
#
#
#
# Elastic Compliance Matrix: (Units=1/GPa)
#
#
# Indices 1 2 3 4 5 6 
#
# 1 0.014133 -0.000369 -0.001266 0.000000 -0.004523 0.000000
# 2 -0.000369 0.015323 -0.002327 0.000000 -0.002979 0.000000
# 3 -0.001266 -0.002327 0.017631 0.000000 -0.005747 0.000000
# 4 0.000000 0.000000 0.000000 0.089891 0.000000 0.012236
# 5 -0.004523 -0.002979 -0.005747 0.000000 0.033212 0.000000
# 6 0.000000 0.000000 0.000000 0.012236 0.000000 0.030740
#
#
# Mechanical properties :
#
#
# Convention : Reuss Voigt Hill
#
# Bulk Modulus (GPa) = 25.53497 29.55106 27.54302
# Shear Modulus (GPa) = 22.53188 28.21449 25.37319
#
# Velocity S-wave (km/s) = 3.09670 3.46526 3.28615
# Velocity P-wave (km/s) = 4.86351 5.34674 5.11084
#
# Compressibility (1/GPa) = 0.03916198
#
# Stress axis : x y z
#
# Youngs Moduli (GPa) = 70.75889 65.26059 56.71856
#
# Poissons Ratio (x) = 0.02409 0.07182
# Poissons Ratio (y) = 0.02612 0.13197
# Poissons Ratio (z) = 0.08960 0.15185
#
# Static dielectric constant tensor:
#      x y z
#    x 1.874860 0.000000 0.005180 
#    y 0.000000 1.899720 0.000000 
#    z 0.005180 0.000000 1.952150 
# 
# From -- ./inp_files/5418.got.cif
#   From: 2010.05.17/outbox.cif.g08.bks.cpg/sg4_3_cif.got.tgz:5418.got - 2010.06.03 18:43:04.
