data_PCOD9116247
_publ_section_title
;
Structure prediction by ZEFSAII (Michael W. Deem and Ramdas Pophale) SiO2 
 PCOD9116247
Probable space group: P 21
;
_chemical_formula_sum "Si O2"
_cell_formula_units_Z 16
_cell_length_a 22.992052
_cell_length_b 5.466372
_cell_length_c 14.086124
_cell_angle_alpha 90.000000
_cell_angle_beta 20.388199
_cell_angle_gamma 90.000000
_cell_volume 616.765938
_symmetry_space_group_name_H-M "P 21"
_symmetry_group_IT_number 4
_symmetry_cell_setting 'monoclinic'
loop_
_space_group_symop_operation_xyz
x,y,z
-x,1/2+y,-z
loop_
_atom_site_type_symbol
_atom_site_label
_atom_site_fract_x
_atom_site_fract_y
_atom_site_fract_z
Si Si1 0.371814 0.201070 0.491652
Si Si2 0.606288 0.288269 0.827433
Si Si3 0.103770 0.802722 0.969607
Si Si4 0.066246 0.563906 0.622794
Si Si5 0.931057 0.741405 0.565211
Si Si6 0.733530 0.108132 0.440143
Si Si7 0.265532 0.394730 0.847372
Si Si8 0.589467 0.805553 0.169441
O O1 0.305050 0.323296 0.498130
O O2 0.382636 0.316462 0.580673
O O3 0.223760 0.013488 0.746976
O O4 0.546722 0.077779 0.199590
O O5 0.766358 0.220916 0.647667
O O6 0.694668 0.273333 0.588555
O O7 0.517682 0.549757 0.979415
O O8 0.103820 0.632981 0.876075
O O9 0.192685 0.653484 0.919914
O O10 0.941128 0.924384 0.264070
O O11 0.053676 0.358391 0.561634
O O12 0.901363 0.731177 0.880788
O O13 0.977198 0.982255 0.559338
O O14 0.742337 0.687153 0.882472
O O15 0.574679 0.161767 0.611427
O O16 0.370263 0.348400 0.782166
#
# Coordination Sequence:
#
# PCOD9116247 Si02
#       8
#     2   2   2   2   2   2   2   2
#     4   9  22  36  68  99 145 184 237 295 363 435
#     4  12  31  53  81 107 147 200 255 308 372 446
#     4   9  21  44  69 105 144 186 242 307 365 442
#     4  11  25  47  73 104 148 190 246 312 372 439
#     4  12  27  44  68 104 147 193 242 299 368 450
#     4  10  24  47  71 106 144 194 251 305 372 441
#     4  10  21  41  67 108 143 188 238 296 379 434
#     4  11  23  38  69 101 148 189 239 300 359 449
#
# _framework density 25.941768
#
# number of rings (size 3 to 8) (size 9 to 14) (size 15 to 20)
#    0.000    1.500    1.250    1.500   14.000    1.000 
#    6.750    0.000    0.000    0.000    0.000    0.000 
#    0.000    0.000    0.000    0.000    0.000    0.000 
#
# Total GULP energy -89227.108866 kJ/mol
# GULP energy per Si atom -5576.694304 kJ/mol
# Density = 2.588272 g / cm^3
# Si number density = 25.941768 Si / 1000 Ang^3
#
#
#
# Elastic Constant Matrix: (Units=GPa)
#
#
# Indices 1 2 3 4 5 6 
#
# 1 79.8104 6.1138 6.7623 0.0000 7.5189 0.0000
# 2 6.1138 47.6599 -2.8794 0.0000 2.7887 0.0000
# 3 6.7623 -2.8794 63.7689 0.0000 1.6239 0.0000
# 4 0.0000 0.0000 0.0000 46.8716 0.0000 8.9491
# 5 7.5189 2.7887 1.6239 0.0000 33.8337 0.0000
# 6 0.0000 0.0000 0.0000 8.9491 0.0000 26.5830
#
#
#
# Elastic Compliance Matrix: (Units=1/GPa)
#
#
# Indices 1 2 3 4 5 6 
#
# 1 0.013023 -0.001597 -0.001384 0.000000 -0.002696 0.000000
# 2 -0.001597 0.021343 0.001170 0.000000 -0.001461 0.000000
# 3 -0.001384 0.001170 0.015895 0.000000 -0.000552 0.000000
# 4 0.000000 0.000000 0.000000 0.022800 0.000000 -0.007676
# 5 -0.002696 -0.001461 -0.000552 0.000000 0.030302 0.000000
# 6 0.000000 0.000000 0.000000 -0.007676 0.000000 0.040202
#
#
# Mechanical properties :
#
#
# Convention : Reuss Voigt Hill
#
# Bulk Modulus (GPa) = 21.44083 23.47031 22.45557
# Shear Modulus (GPa) = 30.72488 33.54049 32.13268
#
# Velocity S-wave (km/s) = 3.44521 3.59961 3.52326
# Velocity P-wave (km/s) = 4.91008 5.13257 5.02256
#
# Compressibility (1/GPa) = 0.04663998
#
# Stress axis : x y z
#
# Youngs Moduli (GPa) = 76.78541 46.85388 62.91161
#
# Poissons Ratio (x) = 0.07480 0.08710
# Poissons Ratio (y) = 0.12259 -0.07362
# Poissons Ratio (z) = 0.10631 -0.05483
#
# Static dielectric constant tensor:
#      x y z
#    x 2.327240 0.000000 -0.033490 
#    y 0.000000 2.749350 0.000000 
#    z -0.033490 0.000000 1.998040 
# 
# From -- ./inp_files/12517.got.cif
#   From: 2010.05.17/outbox.cif.g08.bks.cpg/sg4_7_cif.got.tgz:12517.got - 2010.06.03 18:43:04.
