data_PCOD9116819
_publ_section_title
;
Structure prediction by ZEFSAII (Michael W. Deem and Ramdas Pophale) SiO2 
 PCOD9116819
Probable space group: P 21
;
_chemical_formula_sum "Si O2"
_cell_formula_units_Z 14
_cell_length_a 6.221210
_cell_length_b 12.469616
_cell_length_c 10.913466
_cell_angle_alpha 90.000000
_cell_angle_beta 140.136398
_cell_angle_gamma 90.000000
_cell_volume 542.654020
_symmetry_space_group_name_H-M "P 21"
_symmetry_group_IT_number 4
_symmetry_cell_setting 'monoclinic'
loop_
_space_group_symop_operation_xyz
x,y,z
-x,1/2+y,-z
loop_
_atom_site_type_symbol
_atom_site_label
_atom_site_fract_x
_atom_site_fract_y
_atom_site_fract_z
Si Si1 0.528316 0.246910 0.706345
Si Si2 0.915629 0.575637 0.378067
Si Si3 0.499719 0.239112 0.428352
Si Si4 0.045500 0.950664 0.350133
Si Si5 0.263856 0.197592 0.074248
Si Si6 0.485451 0.402215 0.076401
Si Si7 0.787707 0.476811 0.843015
O O1 0.370978 0.166657 0.734324
O O2 0.349593 0.235244 0.497845
O O3 0.558690 0.371769 0.749423
O O4 0.914700 0.214570 0.853557
O O5 0.239252 0.642748 0.482387
O O6 0.960403 0.521795 0.531313
O O7 0.793988 0.480868 0.234958
O O8 0.237089 0.237429 0.203160
O O9 0.724595 0.347320 0.520399
O O10 0.698531 0.912799 0.134097
O O11 0.207215 0.007272 0.300068
O O12 0.530189 0.277130 0.128878
O O13 0.314190 0.071965 0.112519
O O14 0.179705 0.443629 0.032629
#
# Coordination Sequence:
#
# PCOD9116819 Si02
#       7
#     2   2   2   2   2   2   2
#     4  10  22  41  62  94 129 160 212 259 307 383
#     4  12  22  40  67  90 125 168 209 259 319 373
#     4  11  24  36  64  94 122 167 209 257 317 372
#     4   9  20  41  57  91 130 159 206 273 305 367
#     4  11  18  39  65  88 127 170 204 254 322 374
#     4   9  20  37  63  88 128 168 203 261 322 364
#     4   8  18  36  62  91 119 164 207 249 310 375
#
# _framework density 25.799126000000001
#
# number of rings (size 3 to 8) (size 9 to 14) (size 15 to 20)
#    0.857    1.143    4.286    0.857    0.000    2.286 
#    0.000    0.000    0.000    0.000    0.000    0.000 
#    0.000    0.000    0.000    0.000    0.000    0.000 
#
# Total GULP energy -78276.129050 kJ/mol
# GULP energy per Si atom -5591.152075 kJ/mol
# Density = 2.574041 g / cm^3
# Si number density = 25.799126 Si / 1000 Ang^3
#
#
#
# Elastic Constant Matrix: (Units=GPa)
#
#
# Indices 1 2 3 4 5 6 
#
# 1 47.8016 32.9391 3.2157 0.0000 -0.5086 0.0000
# 2 32.9391 151.7896 26.2221 0.0000 -10.5281 0.0000
# 3 3.2157 26.2221 81.5886 0.0000 -9.0996 0.0000
# 4 0.0000 0.0000 0.0000 44.9016 0.0000 1.2945
# 5 -0.5086 -10.5281 -9.0996 0.0000 27.2729 0.0000
# 6 0.0000 0.0000 0.0000 1.2945 0.0000 17.7236
#
#
#
# Elastic Compliance Matrix: (Units=1/GPa)
#
#
# Indices 1 2 3 4 5 6 
#
# 1 0.024702 -0.005576 0.000654 0.000000 -0.001473 0.000000
# 2 -0.005576 0.008343 -0.002196 0.000000 0.002384 0.000000
# 3 0.000654 -0.002196 0.013340 0.000000 0.003615 0.000000
# 4 0.000000 0.000000 0.000000 0.022318 0.000000 -0.001630
# 5 -0.001473 0.002384 0.003615 0.000000 0.038766 0.000000
# 6 0.000000 0.000000 0.000000 -0.001630 0.000000 0.056541
#
#
# Mechanical properties :
#
#
# Convention : Reuss Voigt Hill
#
# Bulk Modulus (GPa) = 31.10414 45.10374 38.10394
# Shear Modulus (GPa) = 26.46058 32.56648 29.51353
#
# Velocity S-wave (km/s) = 3.20603 3.55675 3.38594
# Velocity P-wave (km/s) = 5.07812 5.86412 5.48522
#
# Compressibility (1/GPa) = 0.03215006
#
# Stress axis : x y z
#
# Youngs Moduli (GPa) = 40.48220 119.86564 74.96398
#
# Poissons Ratio (x) = 0.66833 -0.04903
# Poissons Ratio (y) = 0.22572 0.16459
# Poissons Ratio (z) = -0.02648 0.26318
#
# Static dielectric constant tensor:
#      x y z
#    x 2.034960 0.000000 0.021750 
#    y 0.000000 2.040380 0.000000 
#    z 0.021750 0.000000 1.987760 
# 
# From -- ./inp_files/11287.got.cif
#   From: 2010.05.17/outbox.cif.g08.bks.cpg/sg4_6_cif.got.tgz:11287.got - 2010.06.03 18:43:04.
