data_PCOD9116953
_publ_section_title
;
Structure prediction by ZEFSAII (Michael W. Deem and Ramdas Pophale) SiO2 
 PCOD9116953
Probable space group: P 21
;
_chemical_formula_sum "Si O2"
_cell_formula_units_Z 14
_cell_length_a 14.694477
_cell_length_b 5.236188
_cell_length_c 7.407707
_cell_angle_alpha 90.000000
_cell_angle_beta 77.383483
_cell_angle_gamma 90.000000
_cell_volume 556.208901
_symmetry_space_group_name_H-M "P 21"
_symmetry_group_IT_number 4
_symmetry_cell_setting 'monoclinic'
loop_
_space_group_symop_operation_xyz
x,y,z
-x,1/2+y,-z
loop_
_atom_site_type_symbol
_atom_site_label
_atom_site_fract_x
_atom_site_fract_y
_atom_site_fract_z
Si Si1 0.586453 0.665090 0.376008
Si Si2 0.540656 0.489160 0.782418
Si Si3 0.218755 0.329007 0.692550
Si Si4 0.358647 0.777213 0.940288
Si Si5 0.839519 0.304768 0.101590
Si Si6 0.877707 0.653939 0.584148
Si Si7 0.061829 0.654813 0.262041
O O1 0.568005 0.653248 0.595798
O O2 0.493642 0.736054 0.307875
O O3 0.672372 0.858606 0.307977
O O4 0.624664 0.415213 0.259638
O O5 0.445229 0.583045 0.919239
O O6 0.619475 0.459952 0.898058
O O7 0.166333 0.597804 0.735796
O O8 0.211761 0.229986 0.491475
O O9 0.177157 0.096242 0.831922
O O10 0.249221 0.717126 0.983820
O O11 0.931119 0.245623 0.946813
O O12 0.878743 0.371704 0.660739
O O13 0.961145 0.667860 0.399500
O O14 0.900608 0.869833 0.721501
#
# Coordination Sequence:
#
# PCOD9116953 Si02
#       7
#     2   2   2   2   2   2   2
#     4  11  24  40  62  91 126 164 219 265 320 381
#     4  12  22  42  62  86 124 172 210 268 324 374
#     4  11  24  42  64  94 130 163 211 266 314 379
#     4  11  24  40  62  91 126 164 219 265 320 381
#     4  11  24  42  64  94 130 163 211 266 314 379
#     4  10  22  42  66  95 129 165 209 256 313 387
#     4  10  22  42  66  95 129 165 209 256 313 387
#
# _framework density 25.170401999999999
#
# number of rings (size 3 to 8) (size 9 to 14) (size 15 to 20)
#    0.000    1.143    4.286    1.714    2.000    1.143 
#    5.143    0.000    0.000    0.000    0.000    0.000 
#    0.000    0.000    0.000    0.000    0.000    0.000 
#
# Total GULP energy -78229.169851 kJ/mol
# GULP energy per Si atom -5587.797846 kJ/mol
# Density = 2.511311 g / cm^3
# Si number density = 25.170402 Si / 1000 Ang^3
#
#
#
# Elastic Constant Matrix: (Units=GPa)
#
#
# Indices 1 2 3 4 5 6 
#
# 1 38.8140 5.8108 15.4176 0.0000 4.9851 0.0000
# 2 5.8108 75.8108 17.9737 0.0000 -13.8881 0.0000
# 3 15.4176 17.9737 89.5025 0.0000 -9.0209 0.0000
# 4 0.0000 0.0000 0.0000 24.3664 0.0000 5.5649
# 5 4.9851 -13.8881 -9.0209 0.0000 39.9449 0.0000
# 6 0.0000 0.0000 0.0000 5.5649 0.0000 26.1440
#
#
#
# Elastic Compliance Matrix: (Units=1/GPa)
#
#
# Indices 1 2 3 4 5 6 
#
# 1 0.028789 -0.001992 -0.005107 0.000000 -0.005439 0.000000
# 2 -0.001992 0.014744 -0.002124 0.000000 0.004895 0.000000
# 3 -0.005107 -0.002124 0.012759 0.000000 0.002780 0.000000
# 4 0.000000 0.000000 0.000000 0.043137 0.000000 -0.009182
# 5 -0.005439 0.004895 0.002780 0.000000 0.028043 0.000000
# 6 0.000000 0.000000 0.000000 -0.009182 0.000000 0.040204
#
#
# Mechanical properties :
#
#
# Convention : Reuss Voigt Hill
#
# Bulk Modulus (GPa) = 26.42349 31.39238 28.90793
# Shear Modulus (GPa) = 25.15853 29.08608 27.12231
#
# Velocity S-wave (km/s) = 3.16496 3.40305 3.28616
# Velocity P-wave (km/s) = 4.88637 5.28583 5.09002
#
# Compressibility (1/GPa) = 0.03784511
#
# Stress axis : x y z
#
# Youngs Moduli (GPa) = 34.73500 67.82510 78.37313
#
# Poissons Ratio (x) = 0.13512 0.40028
# Poissons Ratio (y) = 0.06920 0.16649
# Poissons Ratio (z) = 0.17740 0.14408
#
# Static dielectric constant tensor:
#      x y z
#    x 2.023150 0.000000 -0.001570 
#    y 0.000000 2.018480 0.000000 
#    z -0.001570 0.000000 2.022750 
# 
# From -- ./inp_files/3881.got.cif
#   From: 2010.05.17/outbox.cif.g08.bks.cpg/sg4_2_cif.got.tgz:3881.got - 2010.06.03 18:43:04.
