data_PCOD9116111
_publ_section_title
;
Structure prediction by ZEFSAII (Michael W. Deem and Ramdas Pophale) SiO2 
 PCOD9116111
Probable space group: P 21
;
_chemical_formula_sum "Si O2"
_cell_formula_units_Z 12
_cell_length_a 7.453014
_cell_length_b 8.518784
_cell_length_c 11.817705
_cell_angle_alpha 90.000000
_cell_angle_beta 42.350045
_cell_angle_gamma 90.000000
_cell_volume 505.454823
_symmetry_space_group_name_H-M "P 21"
_symmetry_group_IT_number 4
_symmetry_cell_setting 'monoclinic'
loop_
_space_group_symop_operation_xyz
x,y,z
-x,1/2+y,-z
loop_
_atom_site_type_symbol
_atom_site_label
_atom_site_fract_x
_atom_site_fract_y
_atom_site_fract_z
Si Si1 0.409415 0.381260 0.788608
Si Si2 0.814540 0.028919 0.309542
Si Si3 0.341308 0.552137 0.357698
Si Si4 0.151208 0.445110 0.233038
Si Si5 0.371424 0.088527 0.118906
Si Si6 0.160609 0.858906 0.821034
O O1 0.356405 0.405612 0.680487
O O2 0.575268 0.223270 0.721723
O O3 0.114140 0.362266 0.980886
O O4 0.596662 0.437984 0.227657
O O5 0.732452 0.054012 0.476818
O O6 0.448334 0.017353 0.204944
O O7 0.783082 0.183769 0.246898
O O8 0.113472 0.487439 0.380906
O O9 0.268666 0.267590 0.170583
O O10 0.901233 0.452667 0.266473
O O11 0.370923 0.561035 0.077993
O O12 0.128683 0.993806 0.173941
#
# Coordination Sequence:
#
# PCOD9116111 Si02
#       6
#     2   2   2   2   2   2
#     4  11  23  40  65  89 117 162 206 246 293 356
#     4  11  24  40  60  90 124 157 197 249 306 357
#     4  12  24  38  61  91 125 157 194 251 310 356
#     4  10  21  40  63  88 117 157 203 249 295 353
#     4  10  22  40  64  88 117 157 205 249 292 355
#     4  10  22  42  63  86 118 160 207 246 288 357
#
# _framework density 23.740995999999999
#
# number of rings (size 3 to 8) (size 9 to 14) (size 15 to 20)
#    0.000    1.333    0.000    7.000    0.000    9.333 
#    0.000    0.000    0.000    0.000    0.000    0.000 
#    0.000    0.000    0.000    0.000    0.000    0.000 
#
# Total GULP energy -67169.430609 kJ/mol
# GULP energy per Si atom -5597.452551 kJ/mol
# Density = 2.368696 g / cm^3
# Si number density = 23.740996 Si / 1000 Ang^3
#
#
#
# Elastic Constant Matrix: (Units=GPa)
#
#
# Indices 1 2 3 4 5 6 
#
# 1 95.1729 -5.3659 6.3947 0.0000 31.2157 0.0000
# 2 -5.3659 20.2596 2.5651 0.0000 6.3415 0.0000
# 3 6.3947 2.5651 71.8298 0.0000 18.0648 0.0000
# 4 0.0000 0.0000 0.0000 19.5511 0.0000 7.9156
# 5 31.2157 6.3415 18.0648 0.0000 32.9954 0.0000
# 6 0.0000 0.0000 0.0000 7.9156 0.0000 35.8066
#
#
#
# Elastic Compliance Matrix: (Units=1/GPa)
#
#
# Indices 1 2 3 4 5 6 
#
# 1 0.017600 0.010658 0.003195 0.000000 -0.020449 0.000000
# 2 0.010658 0.059009 0.002704 0.000000 -0.022905 0.000000
# 3 0.003195 0.002704 0.016736 0.000000 -0.012706 0.000000
# 4 0.000000 0.000000 0.000000 0.056176 0.000000 -0.012419
# 5 -0.020449 -0.022905 -0.012706 0.000000 0.061012 0.000000
# 6 0.000000 0.000000 0.000000 -0.012419 0.000000 0.030673
#
#
# Mechanical properties :
#
#
# Convention : Reuss Voigt Hill
#
# Bulk Modulus (GPa) = 7.90762 21.60558 14.75660
# Shear Modulus (GPa) = 19.98043 29.91519 24.94781
#
# Velocity S-wave (km/s) = 2.90418 3.55359 3.24517
# Velocity P-wave (km/s) = 3.81886 5.09486 4.50230
#
# Compressibility (1/GPa) = 0.12646025
#
# Stress axis : x y z
#
# Youngs Moduli (GPa) = 56.81690 16.94657 59.75085
#
# Poissons Ratio (x) = -0.18061 -0.19092
# Poissons Ratio (y) = -0.60554 -0.16159
# Poissons Ratio (z) = -0.18155 -0.04583
#
# Static dielectric constant tensor:
#      x y z
#    x 1.872890 0.000000 0.023410 
#    y 0.000000 1.888920 0.000000 
#    z 0.023410 0.000000 1.921930 
# 
# From -- ./inp_files/10986.got.cif
#   From: 2010.05.17/outbox.cif.g08.bks.cpg/sg4_6_cif.got.tgz:10986.got - 2010.06.03 18:43:04.
