data_PCOD9116992
_publ_section_title
;
Structure prediction by ZEFSAII (Michael W. Deem and Ramdas Pophale) SiO2 
 PCOD9116992
Probable space group: P 21
;
_chemical_formula_sum "Si O2"
_cell_formula_units_Z 14
_cell_length_a 7.965303
_cell_length_b 8.994749
_cell_length_c 10.954672
_cell_angle_alpha 90.000000
_cell_angle_beta 134.055349
_cell_angle_gamma 90.000000
_cell_volume 564.052182
_symmetry_space_group_name_H-M "P 21"
_symmetry_group_IT_number 4
_symmetry_cell_setting 'monoclinic'
loop_
_space_group_symop_operation_xyz
x,y,z
-x,1/2+y,-z
loop_
_atom_site_type_symbol
_atom_site_label
_atom_site_fract_x
_atom_site_fract_y
_atom_site_fract_z
Si Si1 0.686884 0.033500 0.388683
Si Si2 0.479539 0.938249 0.544288
Si Si3 0.694285 0.337237 0.912873
Si Si4 0.115739 0.817720 0.632086
Si Si5 0.893035 0.739532 0.757625
Si Si6 0.048043 0.919228 0.178546
Si Si7 0.551426 0.009349 0.860855
O O1 0.763493 0.199669 0.395965
O O2 0.594246 0.011741 0.480543
O O3 0.490826 0.967754 0.197572
O O4 0.907415 0.923547 0.483351
O O5 0.630162 0.788810 0.623147
O O6 0.204053 0.918915 0.379485
O O7 0.528299 0.007965 0.701109
O O8 0.804515 0.312105 0.833810
O O9 0.585093 0.183878 0.909237
O O10 0.935753 0.367057 0.105578
O O11 0.316909 0.927348 0.784050
O O12 0.995680 0.716843 0.675504
O O13 0.917838 0.591048 0.847929
O O14 0.769734 0.912248 0.023676
#
# Coordination Sequence:
#
# PCOD9116992 Si02
#       7
#     2   2   2   2   2   2   2
#     4  10  24  42  67  98 136 180 228 273 337 410
#     4  10  23  40  70  95 131 174 223 276 335 391
#     4  10  22  42  68  99 132 173 229 282 333 395
#     4  11  25  44  65  99 140 183 220 279 340 411
#     4  10  23  45  65  97 142 174 223 279 341 403
#     4  10  23  39  70  99 132 174 226 283 328 396
#     4  11  24  42  69  97 137 172 227 284 332 404
#
# _framework density 24.820398999999998
#
# number of rings (size 3 to 8) (size 9 to 14) (size 15 to 20)
#    0.000    1.714    1.429    0.857   12.000    2.286 
#    0.000    0.000    0.000    0.000    0.000    0.000 
#    0.000    0.000    0.000    0.000    0.000    0.000 
#
# Total GULP energy -78132.306446 kJ/mol
# GULP energy per Si atom -5580.879032 kJ/mol
# Density = 2.476391 g / cm^3
# Si number density = 24.820399 Si / 1000 Ang^3
#
#
#
# Elastic Constant Matrix: (Units=GPa)
#
#
# Indices 1 2 3 4 5 6 
#
# 1 73.3837 21.0955 31.4522 0.0000 11.6917 0.0000
# 2 21.0955 85.2792 26.8562 0.0000 14.6105 0.0000
# 3 31.4522 26.8562 154.9927 0.0000 41.7984 0.0000
# 4 0.0000 0.0000 0.0000 35.0647 0.0000 14.8038
# 5 11.6917 14.6105 41.7984 0.0000 39.5749 0.0000
# 6 0.0000 0.0000 0.0000 14.8038 0.0000 34.3208
#
#
#
# Elastic Compliance Matrix: (Units=1/GPa)
#
#
# Indices 1 2 3 4 5 6 
#
# 1 0.015662 -0.002947 -0.002395 0.000000 -0.001009 0.000000
# 2 -0.002947 0.013260 -0.000859 0.000000 -0.003118 0.000000
# 3 -0.002395 -0.000859 0.009523 0.000000 -0.009033 0.000000
# 4 0.000000 0.000000 0.000000 0.034868 0.000000 -0.015040
# 5 -0.001009 -0.003118 -0.009033 0.000000 0.036258 0.000000
# 6 0.000000 0.000000 0.000000 -0.015040 0.000000 0.035624
#
#
# Mechanical properties :
#
#
# Convention : Reuss Voigt Hill
#
# Bulk Modulus (GPa) = 38.39969 52.49591 45.44780
# Shear Modulus (GPa) = 30.07011 37.40886 33.73949
#
# Velocity S-wave (km/s) = 3.48445 3.88646 3.69093
# Velocity P-wave (km/s) = 5.62966 6.42928 6.04271
#
# Compressibility (1/GPa) = 0.02604187
#
# Stress axis : x y z
#
# Youngs Moduli (GPa) = 63.85043 75.41611 105.01016
#
# Poissons Ratio (x) = 0.22225 0.25154
# Poissons Ratio (y) = 0.18817 0.09018
# Poissons Ratio (z) = 0.15295 0.06477
#
# Static dielectric constant tensor:
#      x y z
#    x 1.985600 0.000000 -0.059050 
#    y 0.000000 1.954520 0.000000 
#    z -0.059050 0.000000 2.092760 
# 
# From -- ./inp_files/5569.got.cif
#   From: 2010.05.17/outbox.cif.g08.bks.cpg/sg4_3_cif.got.tgz:5569.got - 2010.06.03 18:43:04.
