data_PCOD9116618
_publ_section_title
;
Structure prediction by ZEFSAII (Michael W. Deem and Ramdas Pophale) SiO2 
 PCOD9116618
Probable space group: P 21
;
_chemical_formula_sum "Si O2"
_cell_formula_units_Z 16
_cell_length_a 25.905533
_cell_length_b 5.841063
_cell_length_c 14.847913
_cell_angle_alpha 90.000000
_cell_angle_beta 159.906602
_cell_angle_gamma 90.000000
_cell_volume 771.865563
_symmetry_space_group_name_H-M "P 21"
_symmetry_group_IT_number 4
_symmetry_cell_setting 'monoclinic'
loop_
_space_group_symop_operation_xyz
x,y,z
-x,1/2+y,-z
loop_
_atom_site_type_symbol
_atom_site_label
_atom_site_fract_x
_atom_site_fract_y
_atom_site_fract_z
Si Si1 0.834057 0.107000 0.568836
Si Si2 0.181726 0.823071 0.274425
Si Si3 0.303038 0.011216 0.717829
Si Si4 0.024156 0.731573 0.833408
Si Si5 0.620688 0.650336 0.790727
Si Si6 0.668791 0.719218 0.415708
Si Si7 0.695722 0.149373 0.834389
Si Si8 0.489995 0.093737 0.194124
O O1 0.882464 0.263316 0.732492
O O2 0.720864 0.239187 0.318464
O O3 0.745254 0.914746 0.479945
O O4 0.970241 0.995990 0.738307
O O5 0.352235 0.728277 0.544253
O O6 0.210347 0.094170 0.323765
O O7 0.085065 0.724511 0.035438
O O8 0.377051 0.053315 0.741208
O O9 0.130231 0.096597 0.435806
O O10 0.395385 0.126020 0.948222
O O11 0.155932 0.658718 0.983848
O O12 0.690245 0.399880 0.876306
O O13 0.454405 0.649868 0.473254
O O14 0.601552 0.645242 0.866819
O O15 0.691120 0.899422 0.877430
O O16 0.542146 0.828790 0.269594
#
# Coordination Sequence:
#
# PCOD9116618 Si02
#       8
#     2   2   2   2   2   2   2   2
#     4   9  22  38  56  94 137 174 214 263 330 408
#     4  10  22  38  64  96 130 175 229 271 324 407
#     4  10  24  41  61  95 142 177 217 271 338 423
#     4  11  23  40  66  95 131 180 215 283 348 403
#     4  10  23  44  68 104 130 171 236 294 344 411
#     4   9  22  37  60  92 135 175 220 264 323 402
#     4  10  23  44  70  98 136 171 228 299 354 400
#     4  11  23  40  67  96 129 179 221 277 337 404
#
# _framework density 20.728997
#
# number of rings (size 3 to 8) (size 9 to 14) (size 15 to 20)
#    0.000    2.000    1.250    0.000   14.000    3.000 
#    0.000    1.250    0.000    0.000    0.000    0.000 
#    0.000    0.000    0.000    0.000    0.000    0.000 
#
# Total GULP energy -89091.261226 kJ/mol
# GULP energy per Si atom -5568.203827 kJ/mol
# Density = 2.068182 g / cm^3
# Si number density = 20.728997 Si / 1000 Ang^3
#
#
#
# Elastic Constant Matrix: (Units=GPa)
#
#
# Indices 1 2 3 4 5 6 
#
# 1 89.0064 47.4775 24.0432 0.0000 10.6628 0.0000
# 2 47.4775 110.2948 36.0010 0.0000 6.9797 0.0000
# 3 24.0432 36.0010 95.4376 0.0000 -1.2851 0.0000
# 4 0.0000 0.0000 0.0000 29.7702 0.0000 11.9743
# 5 10.6628 6.9797 -1.2851 0.0000 28.9499 0.0000
# 6 0.0000 0.0000 0.0000 11.9743 0.0000 31.4177
#
#
#
# Elastic Compliance Matrix: (Units=1/GPa)
#
#
# Indices 1 2 3 4 5 6 
#
# 1 0.015284 -0.005736 -0.001745 0.000000 -0.004324 0.000000
# 2 -0.005736 0.012702 -0.003361 0.000000 -0.001099 0.000000
# 3 -0.001745 -0.003361 0.012212 0.000000 0.001995 0.000000
# 4 0.000000 0.000000 0.000000 0.039672 0.000000 -0.015120
# 5 -0.004324 -0.001099 0.001995 0.000000 0.036489 0.000000
# 6 0.000000 0.000000 0.000000 -0.015120 0.000000 0.037592
#
#
# Mechanical properties :
#
#
# Convention : Reuss Voigt Hill
#
# Bulk Modulus (GPa) = 54.01191 56.64247 55.32719
# Shear Modulus (GPa) = 27.50146 30.50870 29.00508
#
# Velocity S-wave (km/s) = 3.64636 3.84055 3.74472
# Velocity P-wave (km/s) = 6.62123 6.85937 6.74135
#
# Compressibility (1/GPa) = 0.01851443
#
# Stress axis : x y z
#
# Youngs Moduli (GPa) = 65.42691 78.72484 81.88338
#
# Poissons Ratio (x) = 0.45157 0.14288
# Poissons Ratio (y) = 0.37529 0.27524
# Poissons Ratio (z) = 0.11417 0.26462
#
# Static dielectric constant tensor:
#      x y z
#    x 1.706750 0.000000 -0.008260 
#    y 0.000000 2.016330 0.000000 
#    z -0.008260 0.000000 1.763790 
# 
# From -- ./inp_files/8928.got.cif
#   From: 2010.05.17/outbox.cif.g08.bks.cpg/sg4_5_cif.got.tgz:8928.got - 2010.06.03 18:43:04.
