data_PCOD9116362
_publ_section_title
;
Structure prediction by ZEFSAII (Michael W. Deem and Ramdas Pophale) SiO2 
 PCOD9116362
Probable space group: P 21
;
_chemical_formula_sum "Si O2"
_cell_formula_units_Z 16
_cell_length_a 24.401233
_cell_length_b 5.164468
_cell_length_c 6.952175
_cell_angle_alpha 90.000000
_cell_angle_beta 47.673051
_cell_angle_gamma 90.000000
_cell_volume 647.719930
_symmetry_space_group_name_H-M "P 21"
_symmetry_group_IT_number 4
_symmetry_cell_setting 'monoclinic'
loop_
_space_group_symop_operation_xyz
x,y,z
-x,1/2+y,-z
loop_
_atom_site_type_symbol
_atom_site_label
_atom_site_fract_x
_atom_site_fract_y
_atom_site_fract_z
Si Si1 0.653076 0.758590 0.195274
Si Si2 0.756590 0.413563 0.126433
Si Si3 0.403634 0.597679 0.322790
Si Si4 0.836326 0.194243 0.248207
Si Si5 0.964796 0.539601 0.988171
Si Si6 0.580551 0.606662 0.969137
Si Si7 0.809276 0.981759 0.712859
Si Si8 0.104723 0.290070 0.171914
O O1 0.675788 0.520015 0.278077
O O2 0.603032 0.657161 0.139026
O O3 0.629079 0.993804 0.391524
O O4 0.734512 0.819861 0.917268
O O5 0.762009 0.240165 0.303907
O O6 0.789748 0.248102 0.871926
O O7 0.817394 0.633023 0.034001
O O8 0.491571 0.612358 0.163656
O O9 0.388836 0.351284 0.220539
O O10 0.393386 0.844812 0.201372
O O11 0.880440 0.443023 0.222279
O O12 0.888972 0.047846 0.971204
O O13 0.821667 0.021170 0.462971
O O14 0.959909 0.622446 0.772702
O O15 0.010488 0.292522 0.953870
O O16 0.883653 0.869763 0.635964
#
# Coordination Sequence:
#
# PCOD9116362 Si02
#       8
#     2   2   2   2   2   2   2   2
#     4  11  25  43  72 102 145 192 249 301 371 449
#     4   9  22  40  62 100 136 182 225 289 348 421
#     4  10  25  47  70 104 147 191 245 313 371 441
#     4  10  21  42  73  94 147 181 225 294 356 409
#     4  11  21  39  74 101 131 187 233 277 353 422
#     4  10  25  46  73 103 144 196 248 303 379 446
#     4  10  23  42  67 106 137 184 235 287 365 424
#     4   9  20  41  67  92 137 177 222 288 337 412
#
# _framework density 24.702036
#
# number of rings (size 3 to 8) (size 9 to 14) (size 15 to 20)
#    0.000    2.000    1.250    0.000    3.500   11.000 
#    0.000    0.000   11.000    0.000    0.000    0.000 
#    0.000    0.000    0.000    0.000    0.000    0.000 
#
# Total GULP energy -89264.876545 kJ/mol
# GULP energy per Si atom -5579.054784 kJ/mol
# Density = 2.464581 g / cm^3
# Si number density = 24.702036 Si / 1000 Ang^3
#
#
#
# Elastic Constant Matrix: (Units=GPa)
#
#
# Indices 1 2 3 4 5 6 
#
# 1 79.4272 44.5576 25.4533 0.0000 38.8513 0.0000
# 2 44.5576 152.8347 17.5926 0.0000 23.2556 0.0000
# 3 25.4533 17.5926 76.6908 0.0000 29.5731 0.0000
# 4 0.0000 0.0000 0.0000 4.9451 0.0000 5.7121
# 5 38.8513 23.2556 29.5731 0.0000 40.7163 0.0000
# 6 0.0000 0.0000 0.0000 5.7121 0.0000 46.4253
#
#
#
# Elastic Compliance Matrix: (Units=1/GPa)
#
#
# Indices 1 2 3 4 5 6 
#
# 1 0.025893 -0.004157 0.001350 0.000000 -0.023313 0.000000
# 2 -0.004157 0.007834 -0.000308 0.000000 -0.000284 0.000000
# 3 0.001350 -0.000308 0.018184 0.000000 -0.014319 0.000000
# 4 0.000000 0.000000 0.000000 0.235720 0.000000 -0.029003
# 5 -0.023313 -0.000284 -0.014319 0.000000 0.057368 0.000000
# 6 0.000000 0.000000 0.000000 -0.029003 0.000000 0.025108
#
#
# Mechanical properties :
#
#
# Convention : Reuss Voigt Hill
#
# Bulk Modulus (GPa) = 21.89117 53.79551 37.84334
# Shear Modulus (GPa) = 12.76930 33.17396 22.97163
#
# Velocity S-wave (km/s) = 2.27608 3.66862 3.05281
# Velocity P-wave (km/s) = 3.97350 6.30635 5.27062
#
# Compressibility (1/GPa) = 0.04568052
#
# Stress axis : x y z
#
# Youngs Moduli (GPa) = 38.62038 127.65528 54.99404
#
# Poissons Ratio (x) = 0.53065 -0.07422
# Poissons Ratio (y) = 0.16054 0.01692
# Poissons Ratio (z) = -0.05212 0.03928
#
# Static dielectric constant tensor:
#      x y z
#    x 1.960450 0.000000 0.003580 
#    y 0.000000 2.118990 0.000000 
#    z 0.003580 0.000000 2.025460 
# 
# From -- ./inp_files/4402.got.cif
#   From: 2010.05.17/outbox.cif.g08.bks.cpg/sg4_3_cif.got.tgz:4402.got - 2010.06.03 18:43:04.
