data_PCOD9116653
_publ_section_title
;
Structure prediction by ZEFSAII (Michael W. Deem and Ramdas Pophale) SiO2 
 PCOD9116653
Probable space group: P 21
;
_chemical_formula_sum "Si O2"
_cell_formula_units_Z 16
_cell_length_a 6.068616
_cell_length_b 7.010556
_cell_length_c 18.925767
_cell_angle_alpha 90.000000
_cell_angle_beta 70.382360
_cell_angle_gamma 90.000000
_cell_volume 758.447221
_symmetry_space_group_name_H-M "P 21"
_symmetry_group_IT_number 4
_symmetry_cell_setting 'monoclinic'
loop_
_space_group_symop_operation_xyz
x,y,z
-x,1/2+y,-z
loop_
_atom_site_type_symbol
_atom_site_label
_atom_site_fract_x
_atom_site_fract_y
_atom_site_fract_z
Si Si1 0.287930 0.462350 0.600392
Si Si2 0.299443 0.735720 0.954371
Si Si3 0.337870 0.966015 0.166074
Si Si4 0.079311 0.245314 0.410898
Si Si5 0.032902 0.746458 0.845073
Si Si6 0.273210 0.087614 0.535674
Si Si7 0.512398 0.168625 0.284191
Si Si8 0.664192 0.067762 0.897760
O O1 0.284471 0.235085 0.598376
O O2 0.473763 0.523164 0.519494
O O3 0.380110 0.548174 0.663207
O O4 0.040950 0.556175 0.607860
O O5 0.476388 0.578152 0.903148
O O6 0.083590 0.739522 0.923494
O O7 0.434088 0.938999 0.937345
O O8 0.251690 0.668664 0.038723
O O9 0.394878 0.033439 0.238564
O O10 0.087750 0.051591 0.168898
O O11 0.368292 0.742247 0.151835
O O12 0.154833 0.198822 0.482562
O O13 0.308381 0.294606 0.340911
O O14 0.884714 0.407217 0.429793
O O15 0.277912 0.774209 0.778745
O O16 0.855047 0.917543 0.850157
#
# Coordination Sequence:
#
# PCOD9116653 Si02
#       8
#     2   2   2   2   2   2   2   2
#     4  11  22  41  69 100 131 165 218 267 328 381
#     4  10  22  39  64 102 128 164 215 275 332 374
#     4  10  22  45  65  90 135 172 215 267 321 394
#     4  11  22  41  69  97 137 166 216 268 330 379
#     4  10  24  42  65  94 131 172 220 264 323 391
#     4  11  22  39  70 103 128 166 213 277 320 379
#     4  10  24  46  65  89 138 182 209 263 322 397
#     4  11  22  39  69  97 130 167 218 277 328 379
#
# _framework density 21.095732999999999
#
# number of rings (size 3 to 8) (size 9 to 14) (size 15 to 20)
#    0.000    1.500    3.750    0.750    1.750    2.000 
#    0.000   16.250    0.000    0.000    0.000    0.000 
#    0.000    0.000    0.000    0.000    0.000    0.000 
#
# Total GULP energy -89455.403778 kJ/mol
# GULP energy per Si atom -5590.962736 kJ/mol
# Density = 2.104772 g / cm^3
# Si number density = 21.095733 Si / 1000 Ang^3
#
#
#
# Elastic Constant Matrix: (Units=GPa)
#
#
# Indices 1 2 3 4 5 6 
#
# 1 51.1250 6.9428 2.6835 0.0000 5.6198 0.0000
# 2 6.9428 90.2585 6.9811 0.0000 -9.4495 0.0000
# 3 2.6835 6.9811 63.8117 0.0000 1.6014 0.0000
# 4 0.0000 0.0000 0.0000 14.9130 0.0000 -2.8337
# 5 5.6198 -9.4495 1.6014 0.0000 34.2482 0.0000
# 6 0.0000 0.0000 0.0000 -2.8337 0.0000 15.7015
#
#
#
# Elastic Compliance Matrix: (Units=1/GPa)
#
#
# Indices 1 2 3 4 5 6 
#
# 1 0.020270 -0.001918 -0.000546 0.000000 -0.003830 0.000000
# 2 -0.001918 0.011704 -0.001290 0.000000 0.003604 0.000000
# 3 -0.000546 -0.001290 0.015861 0.000000 -0.001008 0.000000
# 4 0.000000 0.000000 0.000000 0.069437 0.000000 0.012532
# 5 -0.003830 0.003604 -0.001008 0.000000 0.030869 0.000000
# 6 0.000000 0.000000 0.000000 0.012532 0.000000 0.065950
#
#
# Mechanical properties :
#
#
# Convention : Reuss Voigt Hill
#
# Bulk Modulus (GPa) = 24.79833 26.49001 25.64417
# Shear Modulus (GPa) = 21.27289 25.54504 23.40896
#
# Velocity S-wave (km/s) = 3.17897 3.48359 3.33476
# Velocity P-wave (km/s) = 5.02545 5.36329 5.19711
#
# Compressibility (1/GPa) = 0.04032530
#
# Stress axis : x y z
#
# Youngs Moduli (GPa) = 49.33393 85.44119 63.04954
#
# Poissons Ratio (x) = 0.16387 0.03446
# Poissons Ratio (y) = 0.09462 0.08135
# Poissons Ratio (z) = 0.02696 0.11024
#
# Static dielectric constant tensor:
#      x y z
#    x 1.771820 0.000000 -0.009960 
#    y 0.000000 1.728760 0.000000 
#    z -0.009960 0.000000 1.756360 
# 
# From -- ./inp_files/3949.got.cif
#   From: 2010.05.17/outbox.cif.g08.bks.cpg/sg4_2_cif.got.tgz:3949.got - 2010.06.03 18:43:04.
