data_PCOD9116165
_publ_section_title
;
Structure prediction by ZEFSAII (Michael W. Deem and Ramdas Pophale) SiO2 
 PCOD9116165
Probable space group: P 21
;
_chemical_formula_sum "Si O2"
_cell_formula_units_Z 14
_cell_length_a 10.523763
_cell_length_b 5.001377
_cell_length_c 12.343298
_cell_angle_alpha 90.000000
_cell_angle_beta 107.272246
_cell_angle_gamma 90.000000
_cell_volume 620.371607
_symmetry_space_group_name_H-M "P 21"
_symmetry_group_IT_number 4
_symmetry_cell_setting 'monoclinic'
loop_
_space_group_symop_operation_xyz
x,y,z
-x,1/2+y,-z
loop_
_atom_site_type_symbol
_atom_site_label
_atom_site_fract_x
_atom_site_fract_y
_atom_site_fract_z
Si Si1 0.113902 0.659530 0.139997
Si Si2 0.285301 0.358484 0.683842
Si Si3 0.414925 0.143118 0.501814
Si Si4 0.817469 0.474140 0.041904
Si Si5 0.148311 0.166329 0.296821
Si Si6 0.128808 0.850619 0.699827
Si Si7 0.417259 0.339859 0.950439
O O1 0.166346 0.389955 0.208220
O O2 0.962519 0.607730 0.064753
O O3 0.110115 0.889766 0.229872
O O4 0.196364 0.771082 0.060276
O O5 0.373016 0.259584 0.607099
O O6 0.217745 0.646335 0.654164
O O7 0.373510 0.360258 0.814725
O O8 0.165545 0.147864 0.673257
O O9 0.516222 0.355671 0.474941
O O10 0.281605 0.129367 0.397536
O O11 0.826444 0.332318 0.161948
O O12 0.705299 0.699087 0.019115
O O13 0.025473 0.272329 0.338403
O O14 0.463719 0.626433 0.004609
#
# Coordination Sequence:
#
# PCOD9116165 Si02
#       7
#     2   2   2   2   2   2   2
#     4  11  23  39  67  97 134 171 210 268 324 376
#     4  11  24  44  66  91 124 167 209 267 327 362
#     4  12  28  48  67  91 131 173 216 265 320 388
#     4  10  22  40  62  97 134 167 206 260 326 377
#     4  11  24  42  65  99 127 168 223 266 315 379
#     4  10  21  40  68  95 124 155 210 273 318 375
#     4  11  24  39  61  92 128 167 210 255 310 391
#
# _framework density 22.567121
#
# number of rings (size 3 to 8) (size 9 to 14) (size 15 to 20)
#    0.000    1.143    0.000    7.714    0.000   10.286 
#    0.000    0.000    0.000    0.000    0.000    0.000 
#    0.000    0.000    0.000    0.000    0.000    0.000 
#
# Total GULP energy -78457.505770 kJ/mol
# GULP energy per Si atom -5604.107555 kJ/mol
# Density = 2.251576 g / cm^3
# Si number density = 22.567121 Si / 1000 Ang^3
#
#
#
# Elastic Constant Matrix: (Units=GPa)
#
#
# Indices 1 2 3 4 5 6 
#
# 1 62.4478 -1.5647 26.6312 0.0000 9.9251 0.0000
# 2 -1.5647 84.8997 7.8716 0.0000 14.3405 0.0000
# 3 26.6312 7.8716 35.4918 0.0000 0.4721 0.0000
# 4 0.0000 0.0000 0.0000 22.9576 0.0000 -6.2105
# 5 9.9251 14.3405 0.4721 0.0000 38.7253 0.0000
# 6 0.0000 0.0000 0.0000 -6.2105 0.0000 40.9267
#
#
#
# Elastic Compliance Matrix: (Units=1/GPa)
#
#
# Indices 1 2 3 4 5 6 
#
# 1 0.025941 0.003659 -0.020173 0.000000 -0.007757 0.000000
# 2 0.003659 0.013350 -0.005629 0.000000 -0.005813 0.000000
# 3 -0.020173 -0.005629 0.044471 0.000000 0.006712 0.000000
# 4 0.000000 0.000000 0.000000 0.045423 0.000000 0.006893
# 5 -0.007757 -0.005813 0.006712 0.000000 0.029882 0.000000
# 6 0.000000 0.000000 0.000000 0.006893 0.000000 0.025480
#
#
# Mechanical properties :
#
#
# Convention : Reuss Voigt Hill
#
# Bulk Modulus (GPa) = 25.33185 27.63505 26.48345
# Shear Modulus (GPa) = 20.66192 30.51534 25.58863
#
# Velocity S-wave (km/s) = 3.02913 3.68122 3.37098
# Velocity P-wave (km/s) = 4.84599 5.50825 5.18770
#
# Compressibility (1/GPa) = 0.03947599
#
# Stress axis : x y z
#
# Youngs Moduli (GPa) = 38.54934 74.90784 22.48644
#
# Poissons Ratio (x) = -0.27407 0.45362
# Poissons Ratio (y) = -0.14104 0.12657
# Poissons Ratio (z) = 0.77765 0.42164
#
# Static dielectric constant tensor:
#      x y z
#    x 1.835380 0.000000 -0.018810 
#    y 0.000000 1.816300 0.000000 
#    z -0.018810 0.000000 1.814760 
# 
# From -- ./inp_files/10667.got.cif
#   From: 2010.05.17/outbox.cif.g08.bks.cpg/sg4_6_cif.got.tgz:10667.got - 2010.06.03 18:43:04.
