data_PCOD9116586
_publ_section_title
;
Structure prediction by ZEFSAII (Michael W. Deem and Ramdas Pophale) SiO2 
 PCOD9116586
Probable space group: P 21
;
_chemical_formula_sum "Si O2"
_cell_formula_units_Z 14
_cell_length_a 9.670756
_cell_length_b 11.578871
_cell_length_c 7.817584
_cell_angle_alpha 90.000000
_cell_angle_beta 45.155091
_cell_angle_gamma 90.000000
_cell_volume 620.664053
_symmetry_space_group_name_H-M "P 21"
_symmetry_group_IT_number 4
_symmetry_cell_setting 'monoclinic'
loop_
_space_group_symop_operation_xyz
x,y,z
-x,1/2+y,-z
loop_
_atom_site_type_symbol
_atom_site_label
_atom_site_fract_x
_atom_site_fract_y
_atom_site_fract_z
Si Si1 0.315512 0.125000 0.963222
Si Si2 0.619904 0.943082 0.151245
Si Si3 0.809118 0.792532 0.240049
Si Si4 0.080365 0.304279 0.329878
Si Si5 0.327942 0.739752 0.465844
Si Si6 0.834695 0.367096 0.873091
Si Si7 0.530023 0.205501 0.266635
O O1 0.229772 0.195989 0.198274
O O2 0.239582 0.995988 0.032336
O O3 0.230462 0.196949 0.873055
O O4 0.548449 0.139229 0.738035
O O5 0.713448 0.910900 0.253836
O O6 0.436513 0.856498 0.305721
O O7 0.553701 0.073171 0.195765
O O8 0.789275 0.904077 0.872700
O O9 0.688351 0.747595 0.507060
O O10 0.028476 0.820444 0.093962
O O11 0.896963 0.255143 0.380028
O O12 0.973334 0.352917 0.589021
O O13 0.373756 0.722590 0.626822
O O14 0.646867 0.285270 0.033992
#
# Coordination Sequence:
#
# PCOD9116586 Si02
#       7
#     2   2   2   2   2   2   2
#     4   9  23  44  62  91 131 163 211 266 309 379
#     4   9  21  41  63  92 124 162 214 258 313 378
#     4   9  23  40  65  94 124 159 215 270 312 364
#     4  10  23  43  61  91 130 173 199 259 319 383
#     4   9  21  43  64  86 128 164 206 267 323 356
#     4  12  25  38  67  98 124 170 213 251 327 382
#     4  10  22  37  64  96 117 165 218 259 309 372
#
# _framework density 22.556484999999999
#
# number of rings (size 3 to 8) (size 9 to 14) (size 15 to 20)
#    0.000    2.857    0.000    1.714   14.000    3.429 
#    2.571    0.000    0.000    0.000    0.000    0.000 
#    0.000    0.000    0.000    0.000    0.000    0.000 
#
# Total GULP energy -78171.564537 kJ/mol
# GULP energy per Si atom -5583.683181 kJ/mol
# Density = 2.250515 g / cm^3
# Si number density = 22.556485 Si / 1000 Ang^3
#
#
#
# Elastic Constant Matrix: (Units=GPa)
#
#
# Indices 1 2 3 4 5 6 
#
# 1 38.3217 1.0900 4.5169 0.0000 -7.5888 0.0000
# 2 1.0900 153.8800 63.8945 0.0000 -13.0271 0.0000
# 3 4.5169 63.8945 150.4672 0.0000 -18.4930 0.0000
# 4 0.0000 0.0000 0.0000 32.4381 0.0000 -5.2909
# 5 -7.5888 -13.0271 -18.4930 0.0000 34.5082 0.0000
# 6 0.0000 0.0000 0.0000 -5.2909 0.0000 10.8129
#
#
#
# Elastic Compliance Matrix: (Units=1/GPa)
#
#
# Indices 1 2 3 4 5 6 
#
# 1 0.027307 0.000424 -0.000259 0.000000 0.006026 0.000000
# 2 0.000424 0.007948 -0.003220 0.000000 0.001368 0.000000
# 3 -0.000259 -0.003220 0.008419 0.000000 0.003239 0.000000
# 4 0.000000 0.000000 0.000000 0.033502 0.000000 0.016393
# 5 0.006026 0.001368 0.003239 0.000000 0.032556 0.000000
# 6 0.000000 0.000000 0.000000 0.016393 0.000000 0.100504
#
#
# Mechanical properties :
#
#
# Convention : Reuss Voigt Hill
#
# Bulk Modulus (GPa) = 26.62055 53.51908 40.06981
# Shear Modulus (GPa) = 21.84674 33.76300 27.80487
#
# Velocity S-wave (km/s) = 3.11551 3.87307 3.51476
# Velocity P-wave (km/s) = 4.97686 6.61658 5.85441
#
# Compressibility (1/GPa) = 0.03756496
#
# Stress axis : x y z
#
# Youngs Moduli (GPa) = 36.62096 125.81278 118.77744
#
# Poissons Ratio (x) = -0.05340 0.03080
# Poissons Ratio (y) = -0.01554 0.38243
# Poissons Ratio (z) = 0.00950 0.40508
#
# Static dielectric constant tensor:
#      x y z
#    x 1.944630 0.000000 0.045410 
#    y 0.000000 1.773140 0.000000 
#    z 0.045410 0.000000 1.867670 
# 
# From -- ./inp_files/8290.got.cif
#   From: 2010.05.17/outbox.cif.g08.bks.cpg/sg4_5_cif.got.tgz:8290.got - 2010.06.03 18:43:04.
