data_PCOD9116872
_publ_section_title
;
Structure prediction by ZEFSAII (Michael W. Deem and Ramdas Pophale) SiO2 
 PCOD9116872
Probable space group: P 21
;
_chemical_formula_sum "Si O2"
_cell_formula_units_Z 12
_cell_length_a 11.307278
_cell_length_b 8.647554
_cell_length_c 5.260924
_cell_angle_alpha 90.000000
_cell_angle_beta 67.067333
_cell_angle_gamma 90.000000
_cell_volume 473.757121
_symmetry_space_group_name_H-M "P 21"
_symmetry_group_IT_number 4
_symmetry_cell_setting 'monoclinic'
loop_
_space_group_symop_operation_xyz
x,y,z
-x,1/2+y,-z
loop_
_atom_site_type_symbol
_atom_site_label
_atom_site_fract_x
_atom_site_fract_y
_atom_site_fract_z
Si Si1 0.593732 0.319060 0.395989
Si Si2 0.835939 0.142815 0.109507
Si Si3 0.082844 0.816899 0.436559
Si Si4 0.446706 0.549055 0.186992
Si Si5 0.808874 0.897526 0.521086
Si Si6 0.703301 0.554926 0.646932
O O1 0.690590 0.202504 0.179345
O O2 0.483188 0.401464 0.333751
O O3 0.548715 0.213213 0.669309
O O4 0.679116 0.465478 0.405764
O O5 0.886469 0.232243 0.323028
O O6 0.829617 0.968715 0.221365
O O7 0.916277 0.200827 0.804054
O O8 0.944142 0.894225 0.549775
O O9 0.193429 0.945696 0.299454
O O10 0.298843 0.506270 0.257067
O O11 0.561505 0.555101 0.889666
O O12 0.758493 0.723461 0.565890
#
# Coordination Sequence:
#
# PCOD9116872 Si02
#       6
#     2   2   2   2   2   2
#     4  10  22  41  67 100 138 190 240 307 363 442
#     4  10  24  47  71 104 150 192 247 305 368 441
#     4  11  24  49  74 105 149 193 245 308 372 442
#     4  11  22  44  67 104 144 188 251 303 377 445
#     4  11  25  44  71 114 138 199 250 312 373 453
#     4  11  23  45  72  99 145 192 247 305 375 443
#
# _framework density 25.329436999999999
#
# number of rings (size 3 to 8) (size 9 to 14) (size 15 to 20)
#    0.000    1.333    1.667    3.000    0.000    4.000 
#   30.000    0.000    0.000    0.000    0.000    0.000 
#    0.000    0.000    0.000    0.000    0.000    0.000 
#
# Total GULP energy -67182.794757 kJ/mol
# GULP energy per Si atom -5598.566230 kJ/mol
# Density = 2.527179 g / cm^3
# Si number density = 25.329437 Si / 1000 Ang^3
#
#
#
# Elastic Constant Matrix: (Units=GPa)
#
#
# Indices 1 2 3 4 5 6 
#
# 1 142.4624 40.9683 45.9203 0.0000 -29.3491 0.0000
# 2 40.9683 154.7773 73.3265 0.0000 7.2993 0.0000
# 3 45.9203 73.3265 119.5424 0.0000 -2.2569 0.0000
# 4 0.0000 0.0000 0.0000 43.1521 0.0000 6.5973
# 5 -29.3491 7.2993 -2.2569 0.0000 22.8181 0.0000
# 6 0.0000 0.0000 0.0000 6.5973 0.0000 22.2504
#
#
#
# Elastic Compliance Matrix: (Units=1/GPa)
#
#
# Indices 1 2 3 4 5 6 
#
# 1 0.011912 -0.002647 -0.002652 0.000000 0.015906 0.000000
# 2 -0.002647 0.009979 -0.005239 0.000000 -0.007115 0.000000
# 3 -0.002652 -0.005239 0.012588 0.000000 -0.000490 0.000000
# 4 0.000000 0.000000 0.000000 0.024274 0.000000 -0.007197
# 5 0.015906 -0.007115 -0.000490 0.000000 0.066511 0.000000
# 6 0.000000 0.000000 0.000000 -0.007197 0.000000 0.047077
#
#
# Mechanical properties :
#
#
# Convention : Reuss Voigt Hill
#
# Bulk Modulus (GPa) = 74.60303 81.91248 78.25776
# Shear Modulus (GPa) = 25.26731 34.74859 30.00795
#
# Velocity S-wave (km/s) = 3.16182 3.70789 3.44569
# Velocity P-wave (km/s) = 6.54573 7.12322 6.84057
#
# Compressibility (1/GPa) = 0.01340428
#
# Stress axis : x y z
#
# Youngs Moduli (GPa) = 83.94719 100.21269 79.44069
#
# Poissons Ratio (x) = 0.26524 0.21068
# Poissons Ratio (y) = 0.22219 0.41615
# Poissons Ratio (z) = 0.22263 0.52497
#
# Static dielectric constant tensor:
#      x y z
#    x 2.031430 0.000000 0.024470 
#    y 0.000000 1.986180 0.000000 
#    z 0.024470 0.000000 2.012390 
# 
# From -- ./inp_files/2351.got.cif
#   From: 2010.05.17/outbox.cif.g08.bks.cpg/sg4_2_cif.got.tgz:2351.got - 2010.06.03 18:43:04.
