data_PCOD9116054
_publ_section_title
;
Structure prediction by ZEFSAII (Michael W. Deem and Ramdas Pophale) SiO2 
 PCOD9116054
Probable space group: P 21
;
_chemical_formula_sum "Si O2"
_cell_formula_units_Z 14
_cell_length_a 7.425390
_cell_length_b 5.390376
_cell_length_c 15.424831
_cell_angle_alpha 90.000000
_cell_angle_beta 105.841066
_cell_angle_gamma 90.000000
_cell_volume 593.941970
_symmetry_space_group_name_H-M "P 21"
_symmetry_group_IT_number 4
_symmetry_cell_setting 'monoclinic'
loop_
_space_group_symop_operation_xyz
x,y,z
-x,1/2+y,-z
loop_
_atom_site_type_symbol
_atom_site_label
_atom_site_fract_x
_atom_site_fract_y
_atom_site_fract_z
Si Si1 0.032129 0.055770 0.283902
Si Si2 0.938304 0.556426 0.193273
Si Si3 0.089309 0.161797 0.490157
Si Si4 0.626174 0.056047 0.755988
Si Si5 0.512650 0.544127 0.446783
Si Si6 0.376349 0.089045 0.993553
Si Si7 0.368178 0.056206 0.188647
O O1 0.916479 0.296179 0.239667
O O2 0.101735 0.093419 0.390401
O O3 0.207748 0.050301 0.241038
O O4 0.932164 0.794158 0.255447
O O5 0.155245 0.552413 0.185863
O O6 0.790558 0.584364 0.097270
O O7 0.280792 0.092537 0.562634
O O8 0.055741 0.455677 0.494003
O O9 0.627121 0.056779 0.652031
O O10 0.529760 0.297999 0.782029
O O11 0.527144 0.809378 0.776396
O O12 0.515259 0.275879 0.492249
O O13 0.299625 0.068918 0.081613
O O14 0.491522 0.347062 0.001984
#
# Coordination Sequence:
#
# PCOD9116054 Si02
#       7
#     2   2   2   2   2   2   2
#     4  10  21  42  70  96 129 181 232 271 337 411
#     4  10  21  41  68  97 129 173 229 284 332 418
#     4  12  26  46  68 108 151 186 229 301 363 411
#     4  10  21  39  67 100 122 174 234 282 326 391
#     4  12  23  43  73 101 141 186 244 291 336 428
#     4  12  26  45  63 101 142 177 218 285 370 412
#     4  10  22  42  67  95 132 171 238 274 332 419
#
# _framework density 23.571324000000001
#
# number of rings (size 3 to 8) (size 9 to 14) (size 15 to 20)
#    0.000    1.143    0.000    7.714    0.000    4.571 
#   15.429    0.000    0.000    0.000    0.000    0.000 
#    0.000    0.000    0.000    0.000    0.000    0.000 
#
# Total GULP energy -78286.333745 kJ/mol
# GULP energy per Si atom -5591.880982 kJ/mol
# Density = 2.351767 g / cm^3
# Si number density = 23.571324 Si / 1000 Ang^3
#
#
#
# Elastic Constant Matrix: (Units=GPa)
#
#
# Indices 1 2 3 4 5 6 
#
# 1 63.8458 -2.0260 21.3442 0.0000 5.9192 0.0000
# 2 -2.0260 188.8675 15.0287 0.0000 7.8007 0.0000
# 3 21.3442 15.0287 131.0769 0.0000 5.0071 0.0000
# 4 0.0000 0.0000 0.0000 40.2337 0.0000 -2.8694
# 5 5.9192 7.8007 5.0071 0.0000 18.2804 0.0000
# 6 0.0000 0.0000 0.0000 -2.8694 0.0000 14.2547
#
#
#
# Elastic Compliance Matrix: (Units=1/GPa)
#
#
# Indices 1 2 3 4 5 6 
#
# 1 0.017036 0.000602 -0.002650 0.000000 -0.005047 0.000000
# 2 0.000602 0.005448 -0.000633 0.000000 -0.002347 0.000000
# 3 -0.002650 -0.000633 0.008176 0.000000 -0.001111 0.000000
# 4 0.000000 0.000000 0.000000 0.025217 0.000000 0.005076
# 5 -0.005047 -0.002347 -0.001111 0.000000 0.057643 0.000000
# 6 0.000000 0.000000 0.000000 0.005076 0.000000 0.071174
#
#
# Mechanical properties :
#
#
# Convention : Reuss Voigt Hill
#
# Bulk Modulus (GPa) = 39.52980 50.27600 44.90290
# Shear Modulus (GPa) = 25.19028 37.84998 31.52013
#
# Velocity S-wave (km/s) = 3.27262 4.01155 3.66077
# Velocity P-wave (km/s) = 5.57555 6.54464 6.07943
#
# Compressibility (1/GPa) = 0.02529737
#
# Stress axis : x y z
#
# Youngs Moduli (GPa) = 58.69991 183.53767 122.31358
#
# Poissons Ratio (x) = -0.11051 0.32417
# Poissons Ratio (y) = -0.03534 0.07744
# Poissons Ratio (z) = 0.15557 0.11620
#
# Static dielectric constant tensor:
#      x y z
#    x 1.939950 0.000000 -0.033470 
#    y 0.000000 2.025180 0.000000 
#    z -0.033470 0.000000 1.823620 
# 
# From -- ./inp_files/13600.got.cif
#   From: 2010.05.17/outbox.cif.g08.bks.cpg/sg4_7_cif.got.tgz:13600.got - 2010.06.03 18:43:04.
