data_PCOD9116051
_publ_section_title
;
Structure prediction by ZEFSAII (Michael W. Deem and Ramdas Pophale) SiO2 
 PCOD9116051
Probable space group: P 21
;
_chemical_formula_sum "Si O2"
_cell_formula_units_Z 16
_cell_length_a 5.489889
_cell_length_b 10.620704
_cell_length_c 11.987133
_cell_angle_alpha 90.000000
_cell_angle_beta 114.161759
_cell_angle_gamma 90.000000
_cell_volume 637.697008
_symmetry_space_group_name_H-M "P 21"
_symmetry_group_IT_number 4
_symmetry_cell_setting 'monoclinic'
loop_
_space_group_symop_operation_xyz
x,y,z
-x,1/2+y,-z
loop_
_atom_site_type_symbol
_atom_site_label
_atom_site_fract_x
_atom_site_fract_y
_atom_site_fract_z
Si Si1 0.100734 0.103070 0.008114
Si Si2 0.503292 0.911214 0.042510
Si Si3 0.122029 0.261186 0.328583
Si Si4 0.509780 0.608960 0.451996
Si Si5 0.505768 0.326608 0.711814
Si Si6 0.042588 0.455157 0.489292
Si Si7 0.946884 0.508190 0.768117
Si Si8 0.231514 0.361012 0.105384
O O1 0.192457 0.074477 0.152070
O O2 0.058841 0.251234 0.009560
O O3 0.351132 0.042590 0.991912
O O4 0.871676 0.004603 0.929452
O O5 0.436162 0.839163 0.145308
O O6 0.501641 0.846312 0.920452
O O7 0.805277 0.940480 0.131915
O O8 0.389964 0.213675 0.440720
O O9 0.969796 0.348591 0.386188
O O10 0.964822 0.129806 0.283557
O O11 0.203585 0.330612 0.230035
O O12 0.461761 0.686653 0.329340
O O13 0.254074 0.541913 0.459129
O O14 0.771533 0.523387 0.475814
O O15 0.219373 0.387960 0.621052
O O16 0.725927 0.410618 0.688408
#
# Coordination Sequence:
#
# PCOD9116051 Si02
#       8
#     2   2   2   2   2   2   2   2
#     4   9  21  40  62  96 129 184 229 286 347 419
#     4  10  21  39  66  98 130 179 232 281 347 427
#     4  10  22  43  70  98 136 187 229 295 352 429
#     4  11  25  44  68 100 141 178 231 292 356 417
#     4  10  22  38  68  94 133 183 228 281 352 419
#     4  11  25  45  66 104 136 181 234 292 350 415
#     4   9  18  40  65  91 127 178 228 275 336 431
#     4  10  22  43  65  99 142 180 237 288 354 431
#
# _framework density 25.090284
#
# number of rings (size 3 to 8) (size 9 to 14) (size 15 to 20)
#    0.000    2.000    1.250    0.750    1.750    7.000 
#   18.000    0.000    0.000    0.000    0.000    0.000 
#    0.000    0.000    0.000    0.000    0.000    0.000 
#
# Total GULP energy -89140.142775 kJ/mol
# GULP energy per Si atom -5571.258923 kJ/mol
# Density = 2.503318 g / cm^3
# Si number density = 25.090284 Si / 1000 Ang^3
#
#
#
# Elastic Constant Matrix: (Units=GPa)
#
#
# Indices 1 2 3 4 5 6 
#
# 1 96.6302 24.7323 35.3368 0.0000 -14.8976 0.0000
# 2 24.7323 57.9989 46.2328 0.0000 -14.0080 0.0000
# 3 35.3368 46.2328 96.4735 0.0000 -21.0965 0.0000
# 4 0.0000 0.0000 0.0000 35.6573 0.0000 3.8311
# 5 -14.8976 -14.0080 -21.0965 0.0000 26.1498 0.0000
# 6 0.0000 0.0000 0.0000 3.8311 0.0000 26.7221
#
#
#
# Elastic Compliance Matrix: (Units=1/GPa)
#
#
# Indices 1 2 3 4 5 6 
#
# 1 0.012485 -0.002310 -0.002649 0.000000 0.003739 0.000000
# 2 -0.002310 0.028887 -0.012022 0.000000 0.004459 0.000000
# 3 -0.002649 -0.012022 0.018649 0.000000 0.007096 0.000000
# 4 0.000000 0.000000 0.000000 0.028483 0.000000 -0.004084
# 5 0.003739 0.004459 0.007096 0.000000 0.048485 0.000000
# 6 0.000000 0.000000 0.000000 -0.004084 0.000000 0.038008
#
#
# Mechanical properties :
#
#
# Convention : Reuss Voigt Hill
#
# Bulk Modulus (GPa) = 38.37360 51.52294 44.94827
# Shear Modulus (GPa) = 22.97327 27.35923 25.16625
#
# Velocity S-wave (km/s) = 3.02921 3.30575 3.17050
# Velocity P-wave (km/s) = 5.24997 5.92876 5.59966
#
# Compressibility (1/GPa) = 0.02605958
#
# Stress axis : x y z
#
# Youngs Moduli (GPa) = 80.09717 34.61763 53.62255
#
# Poissons Ratio (x) = 0.07995 0.14203
# Poissons Ratio (y) = 0.18499 0.64467
# Poissons Ratio (z) = 0.21215 0.41618
#
# Static dielectric constant tensor:
#      x y z
#    x 2.041350 0.000000 -0.076400 
#    y 0.000000 2.081920 0.000000 
#    z -0.076400 0.000000 2.115240 
# 
# From -- ./inp_files/10484.got.cif
#   From: 2010.05.17/outbox.cif.g08.bks.cpg/sg4_6_cif.got.tgz:10484.got - 2010.06.03 18:43:04.
