data_PCOD9116426
_publ_section_title
;
Structure prediction by ZEFSAII (Michael W. Deem and Ramdas Pophale) SiO2 
 PCOD9116426
Probable space group: P 21
;
_chemical_formula_sum "Si O2"
_cell_formula_units_Z 16
_cell_length_a 11.439574
_cell_length_b 8.157995
_cell_length_c 11.623473
_cell_angle_alpha 90.000000
_cell_angle_beta 35.379358
_cell_angle_gamma 90.000000
_cell_volume 628.055989
_symmetry_space_group_name_H-M "P 21"
_symmetry_group_IT_number 4
_symmetry_cell_setting 'monoclinic'
loop_
_space_group_symop_operation_xyz
x,y,z
-x,1/2+y,-z
loop_
_atom_site_type_symbol
_atom_site_label
_atom_site_fract_x
_atom_site_fract_y
_atom_site_fract_z
Si Si1 0.191654 0.152500 0.035194
Si Si2 0.528413 0.565657 0.980583
Si Si3 0.178007 0.979236 0.823418
Si Si4 0.952908 0.860623 0.318865
Si Si5 0.354875 0.170503 0.339964
Si Si6 0.779477 0.273550 0.690165
Si Si7 0.111006 0.893066 0.628102
Si Si8 0.793909 0.148067 0.063320
O O1 0.101092 0.325089 0.152168
O O2 0.360857 0.086475 0.986425
O O3 0.008342 0.025429 0.207982
O O4 0.251908 0.121370 0.853358
O O5 0.612171 0.699015 0.820875
O O6 0.594246 0.399835 0.863789
O O7 0.297278 0.604786 0.192159
O O8 0.233514 0.948745 0.644989
O O9 0.226458 0.807316 0.841257
O O10 0.938284 0.019331 0.009216
O O11 0.045429 0.853356 0.373078
O O12 0.717898 0.821474 0.524021
O O13 0.074404 0.721937 0.148211
O O14 0.569629 0.099303 0.207693
O O15 0.164924 0.048849 0.505460
O O16 0.821695 0.258889 0.521430
#
# Coordination Sequence:
#
# PCOD9116426 Si02
#       8
#     2   2   2   2   2   2   2   2
#     4  10  23  43  65  97 140 184 229 281 352 404
#     4  10  22  41  67 102 136 178 225 283 354 408
#     4  11  23  47  67  93 143 182 230 279 342 407
#     4  10  21  43  69  99 139 181 222 289 351 408
#     4  11  23  42  72 102 135 177 235 283 347 415
#     4  10  22  40  66 102 141 173 229 287 349 414
#     4  11  23  42  64 103 132 180 231 283 337 406
#     4  11  23  46  70  98 138 187 227 283 350 408
#
# _framework density 25.475434
#
# number of rings (size 3 to 8) (size 9 to 14) (size 15 to 20)
#    0.000    1.500    3.750    0.750    0.000    4.000 
#    6.750    0.000    0.000    0.000    0.000    0.000 
#    0.000    0.000    0.000    0.000    0.000    0.000 
#
# Total GULP energy -89187.723862 kJ/mol
# GULP energy per Si atom -5574.232741 kJ/mol
# Density = 2.541745 g / cm^3
# Si number density = 25.475434 Si / 1000 Ang^3
#
#
#
# Elastic Constant Matrix: (Units=GPa)
#
#
# Indices 1 2 3 4 5 6 
#
# 1 118.6968 4.1438 43.2235 0.0000 26.2362 0.0000
# 2 4.1438 33.7005 5.6859 0.0000 -2.7516 0.0000
# 3 43.2235 5.6859 108.7280 0.0000 28.6605 0.0000
# 4 0.0000 0.0000 0.0000 42.6409 0.0000 0.4425
# 5 26.2362 -2.7516 28.6605 0.0000 48.1127 0.0000
# 6 0.0000 0.0000 0.0000 0.4425 0.0000 33.1345
#
#
#
# Elastic Compliance Matrix: (Units=1/GPa)
#
#
# Indices 1 2 3 4 5 6 
#
# 1 0.010447 -0.001090 -0.003058 0.000000 -0.003937 0.000000
# 2 -0.001090 0.030456 -0.002106 0.000000 0.003591 0.000000
# 3 -0.003058 -0.002106 0.011999 0.000000 -0.005601 0.000000
# 4 0.000000 0.000000 0.000000 0.023455 0.000000 -0.000313
# 5 -0.003937 0.003591 -0.005601 0.000000 0.026473 0.000000
# 6 0.000000 0.000000 0.000000 -0.000313 0.000000 0.030184
#
#
# Mechanical properties :
#
#
# Convention : Reuss Voigt Hill
#
# Bulk Modulus (GPa) = 24.75616 40.80351 32.77984
# Shear Modulus (GPa) = 31.44912 38.64908 35.04910
#
# Velocity S-wave (km/s) = 3.51734 3.89924 3.71320
# Velocity P-wave (km/s) = 5.12195 6.02691 5.59276
#
# Compressibility (1/GPa) = 0.04039398
#
# Stress axis : x y z
#
# Youngs Moduli (GPa) = 95.72327 32.83465 83.33692
#
# Poissons Ratio (x) = 0.03579 0.25485
# Poissons Ratio (y) = 0.10434 0.17549
# Poissons Ratio (z) = 0.29273 0.06914
#
# Static dielectric constant tensor:
#      x y z
#    x 2.014990 0.000000 0.036650 
#    y 0.000000 2.192790 0.000000 
#    z 0.036650 0.000000 1.999990 
# 
# From -- ./inp_files/11985.got.cif
#   From: 2010.05.17/outbox.cif.g08.bks.cpg/sg4_6_cif.got.tgz:11985.got - 2010.06.03 18:43:04.
