data_PCOD9116839
_publ_section_title
;
Structure prediction by ZEFSAII (Michael W. Deem and Ramdas Pophale) SiO2 
 PCOD9116839
Probable space group: P 21
;
_chemical_formula_sum "Si O2"
_cell_formula_units_Z 10
_cell_length_a 12.784472
_cell_length_b 5.398351
_cell_length_c 11.556106
_cell_angle_alpha 90.000000
_cell_angle_beta 25.059479
_cell_angle_gamma 90.000000
_cell_volume 337.807447
_symmetry_space_group_name_H-M "P 21"
_symmetry_group_IT_number 4
_symmetry_cell_setting 'monoclinic'
loop_
_space_group_symop_operation_xyz
x,y,z
-x,1/2+y,-z
loop_
_atom_site_type_symbol
_atom_site_label
_atom_site_fract_x
_atom_site_fract_y
_atom_site_fract_z
Si Si1 0.213669 0.602860 0.232453
Si Si2 0.421158 0.411012 0.732612
Si Si3 0.531758 0.601839 0.115156
Si Si4 0.916981 0.662898 0.330770
Si Si5 0.876426 0.976550 0.169438
O O1 0.267257 0.617749 0.315228
O O2 0.948413 0.633371 0.437169
O O3 0.325946 0.340768 0.079635
O O4 0.352702 0.841335 0.037839
O O5 0.440997 0.145888 0.775581
O O6 0.666862 0.540024 0.534824
O O7 0.385675 0.428784 0.630953
O O8 0.167837 0.536123 0.032198
O O9 0.906848 0.925347 0.275014
O O10 0.032098 0.749508 0.955243
#
# Coordination Sequence:
#
# PCOD9116839 Si02
#       5
#     2   2   2   2   2
#     4   9  18  37  63  92 126 164 207 255 309 369
#     4  10  22  41  64  92 126 164 208 257 311 370
#     4   9  18  37  63  92 126 164 207 255 309 369
#     4  10  22  41  64  92 126 164 208 257 311 370
#     4  10  22  42  66  94 128 166 210 258 312 372
#
# _framework density 29.602665999999999
#
# number of rings (size 3 to 8) (size 9 to 14) (size 15 to 20)
#    0.000    2.400    0.000    1.200    0.000    6.400 
#    0.000   40.000    0.000    0.000    0.000    0.000 
#    0.000    0.000    0.000    0.000    0.000    0.000 
#
# Total GULP energy -55985.719303 kJ/mol
# GULP energy per Si atom -5598.571930 kJ/mol
# Density = 2.953529 g / cm^3
# Si number density = 29.602666 Si / 1000 Ang^3
#
#
#
# Elastic Constant Matrix: (Units=GPa)
#
#
# Indices 1 2 3 4 5 6 
#
# 1 256.5655 32.9908 62.6877 0.0000 -50.8388 0.0000
# 2 32.9908 190.6557 74.3395 0.0000 1.0131 0.0000
# 3 62.6877 74.3395 139.6422 0.0000 -40.6360 0.0000
# 4 0.0000 0.0000 0.0000 84.3094 0.0000 2.0324
# 5 -50.8388 1.0131 -40.6360 0.0000 64.4997 0.0000
# 6 0.0000 0.0000 0.0000 2.0324 0.0000 48.3829
#
#
#
# Elastic Compliance Matrix: (Units=1/GPa)
#
#
# Indices 1 2 3 4 5 6 
#
# 1 0.004832 -0.000466 -0.000993 0.000000 0.003191 0.000000
# 2 -0.000466 0.007120 -0.004556 0.000000 -0.003349 0.000000
# 3 -0.000993 -0.004556 0.012031 0.000000 0.006869 0.000000
# 4 0.000000 0.000000 0.000000 0.011873 0.000000 -0.000499
# 5 0.003191 -0.003349 0.006869 0.000000 0.022399 0.000000
# 6 0.000000 0.000000 0.000000 -0.000499 0.000000 0.020689
#
#
# Mechanical properties :
#
#
# Convention : Reuss Voigt Hill
#
# Bulk Modulus (GPa) = 83.65329 102.98884 93.32107
# Shear Modulus (GPa) = 52.65458 67.22809 59.94133
#
# Velocity S-wave (km/s) = 4.22205 4.77069 4.50473
# Velocity P-wave (km/s) = 7.21718 8.07539 7.65831
#
# Compressibility (1/GPa) = 0.01195410
#
# Stress axis : x y z
#
# Youngs Moduli (GPa) = 206.93737 140.45209 83.11911
#
# Poissons Ratio (x) = 0.06546 0.08251
# Poissons Ratio (y) = 0.09645 0.37867
# Poissons Ratio (z) = 0.20542 0.63987
#
# Static dielectric constant tensor:
#      x y z
#    x 2.483300 0.000000 0.147510 
#    y 0.000000 2.297400 0.000000 
#    z 0.147510 0.000000 2.419840 
# 
# From -- ./inp_files/3264.got.cif
#   From: 2010.05.17/outbox.cif.g08.bks.cpg/sg4_2_cif.got.tgz:3264.got - 2010.06.03 18:43:04.
