data_PCOD9116548
_publ_section_title
;
Structure prediction by ZEFSAII (Michael W. Deem and Ramdas Pophale) SiO2 
 PCOD9116548
Probable space group: P 21
;
_chemical_formula_sum "Si O2"
_cell_formula_units_Z 14
_cell_length_a 6.159621
_cell_length_b 10.359922
_cell_length_c 8.949128
_cell_angle_alpha 90.000000
_cell_angle_beta 81.350117
_cell_angle_gamma 90.000000
_cell_volume 564.576951
_symmetry_space_group_name_H-M "P 21"
_symmetry_group_IT_number 4
_symmetry_cell_setting 'monoclinic'
loop_
_space_group_symop_operation_xyz
x,y,z
-x,1/2+y,-z
loop_
_atom_site_type_symbol
_atom_site_label
_atom_site_fract_x
_atom_site_fract_y
_atom_site_fract_z
Si Si1 0.986905 0.129000 0.633422
Si Si2 0.695802 0.924653 0.807465
Si Si3 0.363158 0.229497 0.422293
Si Si4 0.673769 0.324334 0.814147
Si Si5 0.694504 0.625925 0.116407
Si Si6 0.607796 0.979055 0.362013
Si Si7 0.028332 0.472833 0.921958
O O1 0.127371 0.162372 0.474741
O O2 0.171473 0.141207 0.744083
O O3 0.803039 0.234854 0.684963
O O4 0.863663 0.993753 0.670945
O O5 0.632811 0.788116 0.743971
O O6 0.474015 0.007579 0.846133
O O7 0.822674 0.942299 0.950181
O O8 0.392227 0.355221 0.527618
O O9 0.543129 0.118094 0.434083
O O10 0.464937 0.245768 0.893627
O O11 0.582309 0.448522 0.739564
O O12 0.850946 0.360032 0.918687
O O13 0.879240 0.596208 0.975634
O O14 0.829605 0.983493 0.242333
#
# Coordination Sequence:
#
# PCOD9116548 Si02
#       7
#     2   2   2   2   2   2   2
#     4  10  22  44  79 104 152 206 252 326 399 458
#     4  10  25  48  77 115 154 204 263 330 400 474
#     4  12  26  52  80 118 156 213 271 327 402 481
#     4  11  22  47  76 109 155 204 259 333 399 468
#     4  10  21  47  76 108 152 205 256 330 399 464
#     4  12  28  51  81 117 161 213 271 334 395 485
#     4  11  24  51  77 117 154 211 264 332 410 472
#
# _framework density 24.797329000000001
#
# number of rings (size 3 to 8) (size 9 to 14) (size 15 to 20)
#    0.000    1.143    2.857    1.714    4.000    0.000 
#   33.429    0.000    3.143    0.000    0.000    0.000 
#    0.000    0.000    0.000    0.000    0.000    0.000 
#
# Total GULP energy -78401.477408 kJ/mol
# GULP energy per Si atom -5600.105529 kJ/mol
# Density = 2.474089 g / cm^3
# Si number density = 24.797329 Si / 1000 Ang^3
#
#
#
# Elastic Constant Matrix: (Units=GPa)
#
#
# Indices 1 2 3 4 5 6 
#
# 1 144.1108 62.8027 52.6320 0.0000 -6.8933 0.0000
# 2 62.8027 128.1326 61.2393 0.0000 -12.1699 0.0000
# 3 52.6320 61.2393 95.0807 0.0000 -12.3312 0.0000
# 4 0.0000 0.0000 0.0000 44.5607 0.0000 -10.5102
# 5 -6.8933 -12.1699 -12.3312 0.0000 38.4711 0.0000
# 6 0.0000 0.0000 0.0000 -10.5102 0.0000 57.3601
#
#
#
# Elastic Compliance Matrix: (Units=1/GPa)
#
#
# Indices 1 2 3 4 5 6 
#
# 1 0.009478 -0.003105 -0.003291 0.000000 -0.000339 0.000000
# 2 -0.003105 0.012354 -0.006055 0.000000 0.001411 0.000000
# 3 -0.003291 -0.006055 0.016604 0.000000 0.002817 0.000000
# 4 0.000000 0.000000 0.000000 0.023455 0.000000 0.004298
# 5 -0.000339 0.001411 0.002817 0.000000 0.027282 0.000000
# 6 0.000000 0.000000 0.000000 0.004298 0.000000 0.018221
#
#
# Mechanical properties :
#
#
# Convention : Reuss Voigt Hill
#
# Bulk Modulus (GPa) = 73.88422 80.07471 76.97947
# Shear Modulus (GPa) = 36.54748 40.78839 38.66794
#
# Velocity S-wave (km/s) = 3.84324 4.06010 3.95316
# Velocity P-wave (km/s) = 7.03945 7.37163 7.20746
#
# Compressibility (1/GPa) = 0.01353469
#
# Stress axis : x y z
#
# Youngs Moduli (GPa) = 105.50994 80.94287 60.22495
#
# Poissons Ratio (x) = 0.25132 0.19817
# Poissons Ratio (y) = 0.32760 0.36469
# Poissons Ratio (z) = 0.34719 0.49015
#
# Static dielectric constant tensor:
#      x y z
#    x 1.908950 0.000000 0.011640 
#    y 0.000000 1.992860 0.000000 
#    z 0.011640 0.000000 2.006520 
# 
# From -- ./inp_files/4624.got.cif
#   From: 2010.05.17/outbox.cif.g08.bks.cpg/sg4_3_cif.got.tgz:4624.got - 2010.06.03 18:43:04.
