data_PCOD9116196
_publ_section_title
;
Structure prediction by ZEFSAII (Michael W. Deem and Ramdas Pophale) SiO2 
 PCOD9116196
Probable space group: P 21
;
_chemical_formula_sum "Si O2"
_cell_formula_units_Z 16
_cell_length_a 7.189486
_cell_length_b 8.801081
_cell_length_c 12.923645
_cell_angle_alpha 90.000000
_cell_angle_beta 116.587813
_cell_angle_gamma 90.000000
_cell_volume 731.269677
_symmetry_space_group_name_H-M "P 21"
_symmetry_group_IT_number 4
_symmetry_cell_setting 'monoclinic'
loop_
_space_group_symop_operation_xyz
x,y,z
-x,1/2+y,-z
loop_
_atom_site_type_symbol
_atom_site_label
_atom_site_fract_x
_atom_site_fract_y
_atom_site_fract_z
Si Si1 0.929706 0.839060 0.102804
Si Si2 0.484604 0.345921 0.101254
Si Si3 0.623109 0.344005 0.484111
Si Si4 0.051591 0.871863 0.740337
Si Si5 0.763766 0.012259 0.520276
Si Si6 0.466412 0.638977 0.707735
Si Si7 0.120966 0.045564 0.317729
Si Si8 0.863594 0.017807 0.888358
O O1 0.055001 0.684514 0.115665
O O2 0.679280 0.819496 0.032126
O O3 0.993578 0.920714 0.223148
O O4 0.982494 0.948170 0.017794
O O5 0.723197 0.389686 0.152289
O O6 0.489515 0.184858 0.164766
O O7 0.371210 0.483827 0.134517
O O8 0.699104 0.179924 0.545808
O O9 0.401624 0.391406 0.476043
O O10 0.598589 0.301920 0.358488
O O11 0.783542 0.473282 0.555446
O O12 0.011012 0.697030 0.702496
O O13 0.984136 0.967850 0.622931
O O14 0.898943 0.919382 0.794896
O O15 0.711433 0.028318 0.384535
O O16 0.676600 0.585864 0.702818
#
# Coordination Sequence:
#
# PCOD9116196 Si02
#       8
#     2   2   2   2   2   2   2   2
#     4  10  22  40  66  91 125 167 205 261 321 369
#     4  10  23  39  62  93 120 165 208 255 316 377
#     4   9  17  31  61  88 117 159 212 249 314 369
#     4  12  21  38  65  87 132 164 206 261 318 373
#     4   9  17  32  58  88 114 165 195 260 305 367
#     4   9  18  37  58  82 129 148 210 252 305 371
#     4  11  19  36  64  93 120 166 210 251 322 374
#     4  10  21  41  62  88 125 160 208 259 309 376
#
# _framework density 21.879752
#
# number of rings (size 3 to 8) (size 9 to 14) (size 15 to 20)
#    1.500    0.500    2.500    2.250    0.000    1.000 
#    2.250    0.000    5.500    0.000    0.000    0.000 
#    0.000    0.000    0.000    0.000    0.000    0.000 
#
# Total GULP energy -89101.283409 kJ/mol
# GULP energy per Si atom -5568.830213 kJ/mol
# Density = 2.182995 g / cm^3
# Si number density = 21.879752 Si / 1000 Ang^3
#
#
#
# Elastic Constant Matrix: (Units=GPa)
#
#
# Indices 1 2 3 4 5 6 
#
# 1 33.8474 1.3242 3.8210 0.0000 19.2096 0.0000
# 2 1.3242 68.4274 -12.4230 0.0000 8.0003 0.0000
# 3 3.8210 -12.4230 69.8145 0.0000 16.7573 0.0000
# 4 0.0000 0.0000 0.0000 44.1601 0.0000 10.1490
# 5 19.2096 8.0003 16.7573 0.0000 30.2397 0.0000
# 6 0.0000 0.0000 0.0000 10.1490 0.0000 12.9813
#
#
#
# Elastic Compliance Matrix: (Units=1/GPa)
#
#
# Indices 1 2 3 4 5 6 
#
# 1 0.049126 0.004511 0.006795 0.000000 -0.036166 0.000000
# 2 0.004511 0.016644 0.005144 0.000000 -0.010119 0.000000
# 3 0.006795 0.005144 0.018720 0.000000 -0.016051 0.000000
# 4 0.000000 0.000000 0.000000 0.027605 0.000000 -0.021582
# 5 -0.036166 -0.010119 -0.016051 0.000000 0.067615 0.000000
# 6 0.000000 0.000000 0.000000 -0.021582 0.000000 0.093907
#
#
# Mechanical properties :
#
#
# Convention : Reuss Voigt Hill
#
# Bulk Modulus (GPa) = 8.51867 17.50375 13.01121
# Shear Modulus (GPa) = 17.86692 29.43403 23.65047
#
# Velocity S-wave (km/s) = 2.86071 3.67176 3.29132
# Velocity P-wave (km/s) = 3.84882 5.09835 4.51700
#
# Compressibility (1/GPa) = 0.11738928
#
# Stress axis : x y z
#
# Youngs Moduli (GPa) = 20.35567 60.08288 53.41980
#
# Poissons Ratio (x) = -0.27105 -0.36298
# Poissons Ratio (y) = -0.09183 -0.27477
# Poissons Ratio (z) = -0.13831 -0.30904
#
# Static dielectric constant tensor:
#      x y z
#    x 1.851780 0.000000 0.001740 
#    y 0.000000 1.782350 0.000000 
#    z 0.001740 0.000000 1.824360 
# 
# From -- ./inp_files/14912.got.cif
#   From: 2010.05.17/outbox.cif.g08.bks.cpg/sg4_8_cif.got.tgz:14912.got - 2010.06.03 18:43:04.
