data_PCOD9116915
_publ_section_title
;
Structure prediction by ZEFSAII (Michael W. Deem and Ramdas Pophale) SiO2 
 PCOD9116915
Probable space group: P 21
;
_chemical_formula_sum "Si O2"
_cell_formula_units_Z 14
_cell_length_a 12.556214
_cell_length_b 7.931938
_cell_length_c 6.021574
_cell_angle_alpha 90.000000
_cell_angle_beta 66.409650
_cell_angle_gamma 90.000000
_cell_volume 549.600873
_symmetry_space_group_name_H-M "P 21"
_symmetry_group_IT_number 4
_symmetry_cell_setting 'monoclinic'
loop_
_space_group_symop_operation_xyz
x,y,z
-x,1/2+y,-z
loop_
_atom_site_type_symbol
_atom_site_label
_atom_site_fract_x
_atom_site_fract_y
_atom_site_fract_z
Si Si1 0.854902 0.767380 0.868844
Si Si2 0.587527 0.283658 0.461549
Si Si3 0.998220 0.688615 0.357261
Si Si4 0.749960 0.181443 0.704673
Si Si5 0.557120 0.009989 0.117812
Si Si6 0.344101 0.012754 0.969462
Si Si7 0.013464 0.966944 0.997798
O O1 0.731074 0.680611 0.966277
O O2 0.903445 0.787120 0.579252
O O3 0.939546 0.615025 0.886205
O O4 0.883224 0.916698 0.020125
O O5 0.687760 0.192456 0.518872
O O6 0.544599 0.163625 0.301539
O O7 0.485744 0.348650 0.707624
O O8 0.720615 0.361721 0.843421
O O9 0.113363 0.654914 0.402746
O O10 0.940200 0.526135 0.284652
O O11 0.045287 0.802470 0.113078
O O12 0.639972 0.445669 0.292720
O O13 0.683187 0.037939 0.903080
O O14 0.465936 0.029457 0.993781
#
# Coordination Sequence:
#
# PCOD9116915 Si02
#       7
#     2   2   2   2   2   2   2
#     4  11  23  42  67  96 133 169 217 269 324 388
#     4  10  22  42  70  93 133 175 208 274 329 382
#     4  11  23  44  66  98 132 170 216 274 322 387
#     4  10  22  41  70  95 130 173 218 266 326 392
#     4  10  22  43  66 101 127 171 219 265 327 395
#     4  10  22  42  67  97 129 175 219 262 324 396
#     4  10  24  40  64  94 130 169 219 260 322 386
#
# _framework density 25.473032
#
# number of rings (size 3 to 8) (size 9 to 14) (size 15 to 20)
#    0.000    1.714    1.429    1.714    2.000    4.571 
#   15.429    0.000    0.000    0.000    0.000    0.000 
#    0.000    0.000    0.000    0.000    0.000    0.000 
#
# Total GULP energy -78203.727017 kJ/mol
# GULP energy per Si atom -5585.980501 kJ/mol
# Density = 2.541505 g / cm^3
# Si number density = 25.473032 Si / 1000 Ang^3
#
#
#
# Elastic Constant Matrix: (Units=GPa)
#
#
# Indices 1 2 3 4 5 6 
#
# 1 102.6540 1.5105 37.4210 0.0000 -1.3070 0.0000
# 2 1.5105 79.4795 23.5380 0.0000 2.5130 0.0000
# 3 37.4210 23.5380 79.8848 0.0000 -4.4298 0.0000
# 4 0.0000 0.0000 0.0000 51.8344 0.0000 14.6601
# 5 -1.3070 2.5130 -4.4298 0.0000 36.9025 0.0000
# 6 0.0000 0.0000 0.0000 14.6601 0.0000 46.1586
#
#
#
# Elastic Compliance Matrix: (Units=1/GPa)
#
#
# Indices 1 2 3 4 5 6 
#
# 1 0.011929 0.001587 -0.006078 0.000000 -0.000415 0.000000
# 2 0.001587 0.014072 -0.004973 0.000000 -0.001499 0.000000
# 3 -0.006078 -0.004973 0.016950 0.000000 0.002158 0.000000
# 4 0.000000 0.000000 0.000000 0.021196 0.000000 -0.006732
# 5 -0.000415 -0.001499 0.002158 0.000000 0.027445 0.000000
# 6 0.000000 0.000000 0.000000 -0.006732 0.000000 0.023803
#
#
# Mechanical properties :
#
#
# Convention : Reuss Voigt Hill
#
# Bulk Modulus (GPa) = 41.62873 42.99525 42.31199
# Shear Modulus (GPa) = 35.12967 40.28235 37.70601
#
# Velocity S-wave (km/s) = 3.71764 3.98096 3.85155
# Velocity P-wave (km/s) = 5.89962 6.16815 6.03538
#
# Compressibility (1/GPa) = 0.02402187
#
# Stress axis : x y z
#
# Youngs Moduli (GPa) = 83.83233 71.06449 58.99659
#
# Poissons Ratio (x) = -0.11275 0.35860
# Poissons Ratio (y) = -0.13300 0.29336
# Poissons Ratio (z) = 0.50956 0.35337
#
# Static dielectric constant tensor:
#      x y z
#    x 1.958660 0.000000 -0.005600 
#    y 0.000000 2.116160 0.000000 
#    z -0.005600 0.000000 2.004100 
# 
# From -- ./inp_files/2436.got.cif
#   From: 2010.05.17/outbox.cif.g08.bks.cpg/sg4_2_cif.got.tgz:2436.got - 2010.06.03 18:43:04.
