data_PCOD9116676
_publ_section_title
;
Structure prediction by ZEFSAII (Michael W. Deem and Ramdas Pophale) SiO2 
 PCOD9116676
Probable space group: P 21
;
_chemical_formula_sum "Si O2"
_cell_formula_units_Z 14
_cell_length_a 5.081845
_cell_length_b 10.677990
_cell_length_c 9.758526
_cell_angle_alpha 90.000000
_cell_angle_beta 103.094144
_cell_angle_gamma 90.000000
_cell_volume 515.767195
_symmetry_space_group_name_H-M "P 21"
_symmetry_group_IT_number 4
_symmetry_cell_setting 'monoclinic'
loop_
_space_group_symop_operation_xyz
x,y,z
-x,1/2+y,-z
loop_
_atom_site_type_symbol
_atom_site_label
_atom_site_fract_x
_atom_site_fract_y
_atom_site_fract_z
Si Si1 0.636298 0.452920 0.387477
Si Si2 0.791499 0.798962 0.829591
Si Si3 0.124021 0.759949 0.210818
Si Si4 0.408439 0.378697 0.910197
Si Si5 0.612496 0.610570 0.624444
Si Si6 0.932733 0.225766 0.483040
Si Si7 0.792605 0.523874 0.113313
O O1 0.389819 0.368872 0.305315
O O2 0.583583 0.480493 0.542061
O O3 0.901471 0.366740 0.428702
O O4 0.682157 0.537126 0.256377
O O5 0.802306 0.658711 0.770183
O O6 0.047583 0.890388 0.879540
O O7 0.626088 0.805332 0.950292
O O8 0.893285 0.868421 0.184433
O O9 0.998946 0.638479 0.117987
O O10 0.389374 0.811390 0.170074
O O11 0.153446 0.715937 0.369736
O O12 0.545651 0.507030 0.978109
O O13 0.306823 0.649776 0.620756
O O14 0.775053 0.673754 0.515307
#
# Coordination Sequence:
#
# PCOD9116676 Si02
#       7
#     2   2   2   2   2   2   2
#     4  10  22  39  69 101 129 173 213 271 333 388
#     4  10  22  44  68  98 135 172 221 271 324 395
#     4  12  25  43  70  96 134 179 220 271 331 394
#     4  11  26  44  65  99 132 175 229 273 314 394
#     4  11  22  40  67 100 130 167 214 270 326 384
#     4  11  23  40  65 101 133 162 221 268 320 393
#     4  11  22  44  74  91 129 180 226 266 336 394
#
# _framework density 27.144030000000001
#
# number of rings (size 3 to 8) (size 9 to 14) (size 15 to 20)
#    0.000    1.143    4.286    1.714    4.000    0.000 
#    2.571    1.429    3.143    0.000    0.000    0.000 
#    0.000    0.000    0.000    0.000    0.000    0.000 
#
# Total GULP energy -78175.973764 kJ/mol
# GULP energy per Si atom -5583.998126 kJ/mol
# Density = 2.708225 g / cm^3
# Si number density = 27.144030 Si / 1000 Ang^3
#
#
#
# Elastic Constant Matrix: (Units=GPa)
#
#
# Indices 1 2 3 4 5 6 
#
# 1 140.6558 7.6905 22.8256 0.0000 -18.4673 0.0000
# 2 7.6905 32.2595 -2.6348 0.0000 -2.0864 0.0000
# 3 22.8256 -2.6348 34.8839 0.0000 -16.9360 0.0000
# 4 0.0000 0.0000 0.0000 45.5395 0.0000 -3.7429
# 5 -18.4673 -2.0864 -16.9360 0.0000 52.4775 0.0000
# 6 0.0000 0.0000 0.0000 -3.7429 0.0000 22.0303
#
#
#
# Elastic Compliance Matrix: (Units=1/GPa)
#
#
# Indices 1 2 3 4 5 6 
#
# 1 0.008195 -0.002281 -0.004955 0.000000 0.001194 0.000000
# 2 -0.002281 0.032077 0.004915 0.000000 0.002059 0.000000
# 3 -0.004955 0.004915 0.037386 0.000000 0.010517 0.000000
# 4 0.000000 0.000000 0.000000 0.022270 0.000000 0.003784
# 5 0.001194 0.002059 0.010517 0.000000 0.022952 0.000000
# 6 0.000000 0.000000 0.000000 0.003784 0.000000 0.046035
#
#
# Mechanical properties :
#
#
# Convention : Reuss Voigt Hill
#
# Bulk Modulus (GPa) = 13.69561 29.28464 21.49012
# Shear Modulus (GPa) = 25.26583 36.00399 30.63491
#
# Velocity S-wave (km/s) = 3.05422 3.64594 3.36312
# Velocity P-wave (km/s) = 4.18260 5.34189 4.79740
#
# Compressibility (1/GPa) = 0.07301610
#
# Stress axis : x y z
#
# Youngs Moduli (GPa) = 122.02347 31.17496 26.74797
#
# Poissons Ratio (x) = 0.07111 0.13253
# Poissons Ratio (y) = 0.27835 -0.13147
# Poissons Ratio (z) = 0.60461 -0.15322
#
# Static dielectric constant tensor:
#      x y z
#    x 2.051360 0.000000 -0.009920 
#    y 0.000000 2.391120 0.000000 
#    z -0.009920 0.000000 2.329130 
# 
# From -- ./inp_files/3014.got.cif
#   From: 2010.05.17/outbox.cif.g08.bks.cpg/sg4_2_cif.got.tgz:3014.got - 2010.06.03 18:43:04.
