data_PCOD9116124
_publ_section_title
;
Structure prediction by ZEFSAII (Michael W. Deem and Ramdas Pophale) SiO2 
 PCOD9116124
Probable space group: P 21
;
_chemical_formula_sum "Si O2"
_cell_formula_units_Z 16
_cell_length_a 9.496276
_cell_length_b 9.006508
_cell_length_c 10.621014
_cell_angle_alpha 90.000000
_cell_angle_beta 41.030622
_cell_angle_gamma 90.000000
_cell_volume 596.328457
_symmetry_space_group_name_H-M "P 21"
_symmetry_group_IT_number 4
_symmetry_cell_setting 'monoclinic'
loop_
_space_group_symop_operation_xyz
x,y,z
-x,1/2+y,-z
loop_
_atom_site_type_symbol
_atom_site_label
_atom_site_fract_x
_atom_site_fract_y
_atom_site_fract_z
Si Si1 0.110541 0.375000 0.071836
Si Si2 0.324209 0.126024 0.032587
Si Si3 0.214605 0.907155 0.913160
Si Si4 0.804132 0.655987 0.505529
Si Si5 0.709688 0.210744 0.466612
Si Si6 0.945765 0.996138 0.465397
Si Si7 0.369359 0.645116 0.960424
Si Si8 0.547729 0.484657 0.493980
O O1 0.308093 0.299565 0.013049
O O2 0.010681 0.364911 0.998072
O O3 0.917184 0.302173 0.283455
O O4 0.179398 0.543865 0.039370
O O5 0.545571 0.108099 0.958072
O O6 0.141288 0.054993 0.246199
O O7 0.246165 0.068882 0.948994
O O8 0.285078 0.808852 0.984348
O O9 0.383270 0.907516 0.683952
O O10 0.581436 0.635439 0.731223
O O11 0.729527 0.600267 0.418891
O O12 0.971885 0.538808 0.451782
O O13 0.885316 0.825035 0.475907
O O14 0.755771 0.110046 0.556046
O O15 0.535176 0.342822 0.594610
O O16 0.652898 0.088051 0.399485
#
# Coordination Sequence:
#
# PCOD9116124 Si02
#       8
#     2   2   2   2   2   2   2   2
#     4  10  22  41  64  94 133 179 228 288 354 421
#     4  10  23  41  66  98 134 183 234 288 353 426
#     4  11  23  41  65  99 137 180 234 290 353 430
#     4  11  23  42  68 101 141 187 238 296 362 432
#     4  10  21  40  64  97 136 181 233 289 359 427
#     4  10  22  42  67 100 143 188 237 292 356 434
#     4  11  23  43  67  96 137 181 233 294 356 430
#     4  11  23  40  65  99 139 183 233 297 361 426
#
# _framework density 26.830850999999999
#
# number of rings (size 3 to 8) (size 9 to 14) (size 15 to 20)
#    0.000    1.500    0.000    5.250    0.000    6.000 
#    0.000    7.500    0.000    0.000    0.000    1.750 
#    0.000    0.000    0.000    0.000    0.000    0.000 
#
# Total GULP energy -89342.538207 kJ/mol
# GULP energy per Si atom -5583.908638 kJ/mol
# Density = 2.676978 g / cm^3
# Si number density = 26.830851 Si / 1000 Ang^3
#
#
#
# Elastic Constant Matrix: (Units=GPa)
#
#
# Indices 1 2 3 4 5 6 
#
# 1 187.3789 50.9337 23.7719 0.0000 -7.0808 0.0000
# 2 50.9337 118.6824 8.3150 0.0000 1.5316 0.0000
# 3 23.7719 8.3150 69.9135 0.0000 -2.3101 0.0000
# 4 0.0000 0.0000 0.0000 29.7299 0.0000 -7.1940
# 5 -7.0808 1.5316 -2.3101 0.0000 28.1514 0.0000
# 6 0.0000 0.0000 0.0000 -7.1940 0.0000 70.4556
#
#
#
# Elastic Compliance Matrix: (Units=1/GPa)
#
#
# Indices 1 2 3 4 5 6 
#
# 1 0.006334 -0.002614 -0.001790 0.000000 0.001589 0.000000
# 2 -0.002614 0.009583 -0.000291 0.000000 -0.001203 0.000000
# 3 -0.001790 -0.000291 0.014973 0.000000 0.000794 0.000000
# 4 0.000000 0.000000 0.000000 0.034488 0.000000 0.003522
# 5 0.001589 -0.001203 0.000794 0.000000 0.036052 0.000000
# 6 0.000000 0.000000 0.000000 0.003522 0.000000 0.014553
#
#
# Mechanical properties :
#
#
# Convention : Reuss Voigt Hill
#
# Bulk Modulus (GPa) = 46.50942 60.22401 53.36672
# Shear Modulus (GPa) = 37.72413 45.19764 41.46088
#
# Velocity S-wave (km/s) = 3.75373 4.10877 3.93526
# Velocity P-wave (km/s) = 6.01326 6.70849 6.37037
#
# Compressibility (1/GPa) = 0.02150102
#
# Stress axis : x y z
#
# Youngs Moduli (GPa) = 157.86886 104.34753 66.78679
#
# Poissons Ratio (x) = 0.27271 0.11958
# Poissons Ratio (y) = 0.41259 0.01943
# Poissons Ratio (z) = 0.28266 0.03035
#
# Static dielectric constant tensor:
#      x y z
#    x 2.089240 0.000000 0.014550 
#    y 0.000000 2.068220 0.000000 
#    z 0.014550 0.000000 2.236350 
# 
# From -- ./inp_files/11033.got.cif
#   From: 2010.05.17/outbox.cif.g08.bks.cpg/sg4_6_cif.got.tgz:11033.got - 2010.06.03 18:43:04.
