data_PCOD9116907
_publ_section_title
;
Structure prediction by ZEFSAII (Michael W. Deem and Ramdas Pophale) SiO2 
 PCOD9116907
Probable space group: P 21
;
_chemical_formula_sum "Si O2"
_cell_formula_units_Z 12
_cell_length_a 14.482071
_cell_length_b 4.891498
_cell_length_c 20.634171
_cell_angle_alpha 90.000000
_cell_angle_beta 161.821748
_cell_angle_gamma 90.000000
_cell_volume 456.014248
_symmetry_space_group_name_H-M "P 21"
_symmetry_group_IT_number 4
_symmetry_cell_setting 'monoclinic'
loop_
_space_group_symop_operation_xyz
x,y,z
-x,1/2+y,-z
loop_
_atom_site_type_symbol
_atom_site_label
_atom_site_fract_x
_atom_site_fract_y
_atom_site_fract_z
Si Si1 0.370440 0.398610 0.378701
Si Si2 0.160699 0.389643 0.579960
Si Si3 0.253147 0.201247 0.023362
Si Si4 0.096587 0.070934 0.720721
Si Si5 0.202185 0.439979 0.128065
Si Si6 0.233232 0.572331 0.886559
O O1 0.587291 0.608005 0.559609
O O2 0.412866 0.382444 0.329583
O O3 0.045734 0.527812 0.169010
O O4 0.477617 0.498127 0.813507
O O5 0.921732 0.580826 0.458068
O O6 0.123787 0.456431 0.479732
O O7 0.313702 0.352448 0.132133
O O8 0.214914 0.428231 0.942967
O O9 0.064053 0.378086 0.722474
O O10 0.110868 0.873529 0.792426
O O11 0.422317 0.059674 0.904979
O O12 0.090094 0.751173 0.054712
#
# Coordination Sequence:
#
# PCOD9116907 Si02
#       6
#     2   2   2   2   2   2
#     4  11  25  48  76 107 145 183 242 309 364 424
#     4  12  26  44  72 107 147 191 243 289 353 433
#     4  11  26  47  77 105 145 196 240 292 367 431
#     4  10  22  42  64  99 145 186 232 291 333 409
#     4  10  23  46  74 107 142 184 239 303 361 427
#     4  10  22  41  69  97 138 190 234 282 350 410
#
# _framework density 26.314968
#
# number of rings (size 3 to 8) (size 9 to 14) (size 15 to 20)
#    0.000    1.333    1.667    3.000    4.667    9.333 
#    0.000    8.333    0.000    0.000    0.000    0.000 
#    0.000    0.000    0.000    0.000    0.000    0.000 
#
# Total GULP energy -67396.867424 kJ/mol
# GULP energy per Si atom -5616.405619 kJ/mol
# Density = 2.625507 g / cm^3
# Si number density = 26.314968 Si / 1000 Ang^3
#
#
#
# Elastic Constant Matrix: (Units=GPa)
#
#
# Indices 1 2 3 4 5 6 
#
# 1 131.5010 8.7316 29.2563 0.0000 -23.8341 0.0000
# 2 8.7316 88.5238 2.0773 0.0000 -1.5752 0.0000
# 3 29.2563 2.0773 94.5931 0.0000 -3.9840 0.0000
# 4 0.0000 0.0000 0.0000 36.2360 0.0000 -11.2419
# 5 -23.8341 -1.5752 -3.9840 0.0000 57.3747 0.0000
# 6 0.0000 0.0000 0.0000 -11.2419 0.0000 41.0400
#
#
#
# Elastic Compliance Matrix: (Units=1/GPa)
#
#
# Indices 1 2 3 4 5 6 
#
# 1 0.008858 -0.000751 -0.002577 0.000000 0.003480 0.000000
# 2 -0.000751 0.011371 -0.000017 0.000000 -0.000001 0.000000
# 3 -0.002577 -0.000017 0.011357 0.000000 -0.000282 0.000000
# 4 0.000000 0.000000 0.000000 0.030160 0.000000 0.008262
# 5 0.003480 -0.000001 -0.000282 0.000000 0.018855 0.000000
# 6 0.000000 0.000000 0.000000 0.008262 0.000000 0.026630
#
#
# Mechanical properties :
#
#
# Convention : Reuss Voigt Hill
#
# Bulk Modulus (GPa) = 40.16793 43.86094 42.01444
# Shear Modulus (GPa) = 40.90960 45.23365 43.07162
#
# Velocity S-wave (km/s) = 3.94714 4.15050 4.05009
# Velocity P-wave (km/s) = 6.00588 6.29863 6.15400
#
# Compressibility (1/GPa) = 0.02489548
#
# Stress axis : x y z
#
# Youngs Moduli (GPa) = 112.88640 87.94386 88.05115
#
# Poissons Ratio (x) = 0.06608 0.22688
# Poissons Ratio (y) = 0.08482 0.00153
# Poissons Ratio (z) = 0.29088 0.00153
#
# Static dielectric constant tensor:
#      x y z
#    x 2.046410 0.000000 -0.000020 
#    y 0.000000 1.957310 0.000000 
#    z -0.000020 0.000000 2.038950 
# 
# From -- ./inp_files/7264.got.cif
#   From: 2010.05.17/outbox.cif.g08.bks.cpg/sg4_4_cif.got.tgz:7264.got - 2010.06.03 18:43:04.
