data_PCOD9116268
_publ_section_title
;
Structure prediction by ZEFSAII (Michael W. Deem and Ramdas Pophale) SiO2 
 PCOD9116268
Probable space group: P 21
;
_chemical_formula_sum "Si O2"
_cell_formula_units_Z 16
_cell_length_a 8.726397
_cell_length_b 5.191834
_cell_length_c 19.058383
_cell_angle_alpha 90.000000
_cell_angle_beta 127.088094
_cell_angle_gamma 90.000000
_cell_volume 688.789388
_symmetry_space_group_name_H-M "P 21"
_symmetry_group_IT_number 4
_symmetry_cell_setting 'monoclinic'
loop_
_space_group_symop_operation_xyz
x,y,z
-x,1/2+y,-z
loop_
_atom_site_type_symbol
_atom_site_label
_atom_site_fract_x
_atom_site_fract_y
_atom_site_fract_z
Si Si1 0.632600 0.330870 0.047241
Si Si2 0.883114 0.562368 0.234675
Si Si3 0.685539 0.617275 0.408988
Si Si4 0.721344 0.167346 0.733760
Si Si5 0.637086 0.676721 0.793551
Si Si6 0.002059 0.816762 0.585391
Si Si7 0.262884 0.443222 0.711250
Si Si8 0.883438 0.459566 0.983711
O O1 0.748949 0.372828 0.152290
O O2 0.477261 0.561432 0.994021
O O3 0.793465 0.369545 0.031702
O O4 0.961832 0.469645 0.332487
O O5 0.752502 0.807258 0.219060
O O6 0.071981 0.638642 0.244280
O O7 0.461778 0.573911 0.364881
O O8 0.845095 0.401357 0.432986
O O9 0.661278 0.751352 0.326740
O O10 0.792810 0.803061 0.493483
O O11 0.712580 0.955324 0.793558
O O12 0.695601 0.463831 0.751168
O O13 0.409223 0.678781 0.743504
O O14 0.718492 0.563133 0.887319
O O15 0.057131 0.532905 0.627309
O O16 0.017724 0.711694 0.024452
#
# Coordination Sequence:
#
# PCOD9116268 Si02
#       8
#     2   2   2   2   2   2   2   2
#     4  12  28  47  73 103 145 188 240 298 355 426
#     4  11  27  43  66 103 141 185 226 293 368 408
#     4  10  21  41  68  99 128 177 236 277 337 402
#     4  11  25  45  69 102 141 183 223 291 351 423
#     4  11  23  43  71  95 134 180 238 278 342 418
#     4  11  21  41  69  96 134 176 232 285 331 421
#     4  10  22  40  68  94 129 177 227 280 334 412
#     4  12  25  44  70 102 136 184 236 294 350 418
#
# _framework density 23.22916
#
# number of rings (size 3 to 8) (size 9 to 14) (size 15 to 20)
#    0.000    1.000    2.500    3.750    5.250    0.000 
#    2.250    0.000    0.000    0.000    0.000    0.000 
#    0.000    0.000    0.000    0.000    0.000    0.000 
#
# Total GULP energy -89323.447851 kJ/mol
# GULP energy per Si atom -5582.715491 kJ/mol
# Density = 2.317629 g / cm^3
# Si number density = 23.229160 Si / 1000 Ang^3
#
#
#
# Elastic Constant Matrix: (Units=GPa)
#
#
# Indices 1 2 3 4 5 6 
#
# 1 67.5278 3.9488 17.6859 0.0000 0.2328 0.0000
# 2 3.9488 82.4350 9.4080 0.0000 -0.5948 0.0000
# 3 17.6859 9.4080 104.0388 0.0000 6.7103 0.0000
# 4 0.0000 0.0000 0.0000 30.6448 0.0000 -21.7993
# 5 0.2328 -0.5948 6.7103 0.0000 27.3948 0.0000
# 6 0.0000 0.0000 0.0000 -21.7993 0.0000 -73.3099
#
#
#
# Elastic Compliance Matrix: (Units=1/GPa)
#
#
# Indices 1 2 3 4 5 6 
#
# 1 0.015522 -0.000440 -0.002631 0.000000 0.000503 0.000000
# 2 -0.000440 0.012278 -0.001070 0.000000 0.000532 0.000000
# 3 -0.002631 -0.001070 0.010319 0.000000 -0.002528 0.000000
# 4 0.000000 0.000000 0.000000 0.026935 0.000000 -0.008009
# 5 0.000503 0.000532 -0.002528 0.000000 0.037130 0.000000
# 6 0.000000 0.000000 0.000000 -0.008009 0.000000 -0.011259
#
#
# Mechanical properties :
#
#
# Convention : Reuss Voigt Hill
#
# Bulk Modulus (GPa) = 33.51544 35.12080 34.31812
# Shear Modulus (GPa) = 45.80802 11.80984 28.80893
#
# Velocity S-wave (km/s) = 4.44554 2.25723 3.52548
# Velocity P-wave (km/s) = 6.38827 4.68461 5.60159
#
# Compressibility (1/GPa) = 0.02983699
#
# Stress axis : x y z
#
# Youngs Moduli (GPa) = 64.42535 81.44807 96.90926
#
# Poissons Ratio (x) = 0.03580 0.25500
# Poissons Ratio (y) = 0.02832 0.10368
# Poissons Ratio (z) = 0.16952 0.08714
#
# Static dielectric constant tensor:
#      x y z
#    x 1.925970 0.000000 0.086120 
#    y 0.000000 1.940400 0.000000 
#    z 0.086120 0.000000 2.026030 
# 
# From -- ./inp_files/8697.got.cif
#   From: 2010.05.17/outbox.cif.g08.bks.cpg/sg4_5_cif.got.tgz:8697.got - 2010.06.03 18:43:04.
