data_PCOD9116567
_publ_section_title
;
Structure prediction by ZEFSAII (Michael W. Deem and Ramdas Pophale) SiO2 
 PCOD9116567
Probable space group: P 21
;
_chemical_formula_sum "Si O2"
_cell_formula_units_Z 14
_cell_length_a 10.663842
_cell_length_b 5.521761
_cell_length_c 11.720670
_cell_angle_alpha 90.000000
_cell_angle_beta 117.284556
_cell_angle_gamma 90.000000
_cell_volume 613.364840
_symmetry_space_group_name_H-M "P 21"
_symmetry_group_IT_number 4
_symmetry_cell_setting 'monoclinic'
loop_
_space_group_symop_operation_xyz
x,y,z
-x,1/2+y,-z
loop_
_atom_site_type_symbol
_atom_site_label
_atom_site_fract_x
_atom_site_fract_y
_atom_site_fract_z
Si Si1 0.095380 0.834340 0.666439
Si Si2 0.324859 0.817308 0.374682
Si Si3 0.814450 0.417805 0.040658
Si Si4 0.642362 0.702082 0.806625
Si Si5 0.567493 0.549119 0.373715
Si Si6 0.820754 0.835884 0.424576
Si Si7 0.124536 0.574862 0.136383
O O1 0.150613 0.590607 0.626535
O O2 0.924606 0.828022 0.578399
O O3 0.161257 0.839015 0.819998
O O4 0.137072 0.094261 0.629483
O O5 0.438806 0.605481 0.405918
O O6 0.175594 0.733015 0.264529
O O7 0.378876 0.010546 0.303688
O O8 0.323813 0.899926 0.503263
O O9 0.958575 0.557910 0.069547
O O10 0.681317 0.575114 0.942653
O O11 0.819139 0.193757 0.956195
O O12 0.512060 0.889904 0.754444
O O13 0.786786 0.830011 0.823860
O O14 0.655893 0.784228 0.376372
#
# Coordination Sequence:
#
# PCOD9116567 Si02
#       7
#     2   2   2   2   2   2   2
#     4  10  25  45  69 101 134 178 236 291 339 404
#     4  10  22  36  61 100 133 169 214 273 345 412
#     4  11  22  39  69  93 140 175 220 281 348 408
#     4  10  22  40  58 100 136 170 222 274 334 432
#     4  11  22  39  69  93 140 175 220 281 348 408
#     4  10  25  45  69 101 134 178 236 291 339 404
#     4  10  22  36  61 100 133 169 214 273 345 412
#
# _framework density 22.824912000000001
#
# number of rings (size 3 to 8) (size 9 to 14) (size 15 to 20)
#    0.000    1.714    2.857    0.000    6.000    3.429 
#    0.000    0.000    9.429    0.000    0.000    0.000 
#    0.000    0.000    0.000    0.000    0.000    0.000 
#
# Total GULP energy -78130.692081 kJ/mol
# GULP energy per Si atom -5580.763720 kJ/mol
# Density = 2.277296 g / cm^3
# Si number density = 22.824912 Si / 1000 Ang^3
#
#
#
# Elastic Constant Matrix: (Units=GPa)
#
#
# Indices 1 2 3 4 5 6 
#
# 1 43.2211 25.0839 34.7102 0.0000 11.4731 0.0000
# 2 25.0839 93.0105 57.1219 0.0000 2.1471 0.0000
# 3 34.7102 57.1219 183.7944 0.0000 5.6987 0.0000
# 4 0.0000 0.0000 0.0000 39.9268 0.0000 13.4909
# 5 11.4731 2.1471 5.6987 0.0000 22.4800 0.0000
# 6 0.0000 0.0000 0.0000 13.4909 0.0000 34.8745
#
#
#
# Elastic Compliance Matrix: (Units=1/GPa)
#
#
# Indices 1 2 3 4 5 6 
#
# 1 0.034282 -0.006433 -0.003983 0.000000 -0.015873 0.000000
# 2 -0.006433 0.014496 -0.003376 0.000000 0.002754 0.000000
# 3 -0.003983 -0.003376 0.007226 0.000000 0.000523 0.000000
# 4 0.000000 0.000000 0.000000 0.028812 0.000000 -0.011146
# 5 -0.015873 0.002754 0.000523 0.000000 0.052189 0.000000
# 6 0.000000 0.000000 0.000000 -0.011146 0.000000 0.032986
#
#
# Mechanical properties :
#
#
# Convention : Reuss Voigt Hill
#
# Bulk Modulus (GPa) = 35.18528 61.53979 48.36254
# Shear Modulus (GPa) = 24.14893 32.99692 28.57293
#
# Velocity S-wave (km/s) = 3.25623 3.80630 3.54196
# Velocity P-wave (km/s) = 5.43932 6.80716 6.16131
#
# Compressibility (1/GPa) = 0.02842097
#
# Stress axis : x y z
#
# Youngs Moduli (GPa) = 29.16945 68.98435 138.38985
#
# Poissons Ratio (x) = 0.44379 0.55119
# Poissons Ratio (y) = 0.18765 0.46717
# Poissons Ratio (z) = 0.11618 0.23287
#
# Static dielectric constant tensor:
#      x y z
#    x 1.844190 0.000000 0.006320 
#    y 0.000000 1.940770 0.000000 
#    z 0.006320 0.000000 1.849960 
# 
# From -- ./inp_files/11462.got.cif
#   From: 2010.05.17/outbox.cif.g08.bks.cpg/sg4_6_cif.got.tgz:11462.got - 2010.06.03 18:43:04.
