data_PCOD9116562
_publ_section_title
;
Structure prediction by ZEFSAII (Michael W. Deem and Ramdas Pophale) SiO2 
 PCOD9116562
Probable space group: P 21
;
_chemical_formula_sum "Si O2"
_cell_formula_units_Z 16
_cell_length_a 10.122336
_cell_length_b 10.954472
_cell_length_c 7.577736
_cell_angle_alpha 90.000000
_cell_angle_beta 135.756372
_cell_angle_gamma 90.000000
_cell_volume 586.255745
_symmetry_space_group_name_H-M "P 21"
_symmetry_group_IT_number 4
_symmetry_cell_setting 'monoclinic'
loop_
_space_group_symop_operation_xyz
x,y,z
-x,1/2+y,-z
loop_
_atom_site_type_symbol
_atom_site_label
_atom_site_fract_x
_atom_site_fract_y
_atom_site_fract_z
Si Si1 0.859675 0.948370 0.616669
Si Si2 0.831354 0.346016 0.856213
Si Si3 0.688569 0.278670 0.202590
Si Si4 0.786922 0.781625 0.989404
Si Si5 0.169567 0.538853 0.817438
Si Si6 0.692975 0.738663 0.284657
Si Si7 0.759288 0.499284 0.485738
Si Si8 0.585853 0.154266 0.477861
O O1 0.853406 0.994692 0.408905
O O2 0.800550 0.807724 0.539474
O O3 0.700395 0.025362 0.571703
O O4 0.067762 0.932010 0.902193
O O5 0.703578 0.435981 0.612414
O O6 0.690903 0.230758 0.731390
O O7 0.010970 0.294742 0.912973
O O8 0.791189 0.398241 0.365668
O O9 0.640710 0.211341 0.339489
O O10 0.774910 0.178676 0.160131
O O11 0.491282 0.318348 0.929937
O O12 0.636454 0.695678 0.741864
O O13 0.731128 0.924571 0.984054
O O14 0.804719 0.726668 0.206047
O O15 0.967132 0.550292 0.716893
O O16 0.631311 0.605130 0.287454
#
# Coordination Sequence:
#
# PCOD9116562 Si02
#       8
#     2   2   2   2   2   2   2   2
#     4  10  22  38  59  88 119 156 202 243 296 364
#     4  10  22  40  59  85 122 159 195 240 303 365
#     4   9  20  35  59  89 115 149 199 249 305 345
#     4   9  20  39  62  83 115 155 197 248 305 345
#     4   9  20  37  61  89 116 150 201 253 295 359
#     4  10  22  35  62  85 119 149 201 251 293 354
#     4  10  22  36  60  88 118 157 196 246 306 354
#     4   9  20  38  62  79 120 159 193 242 305 350
#
# _framework density 27.291843
#
# number of rings (size 3 to 8) (size 9 to 14) (size 15 to 20)
#    0.000    2.500    0.000    0.000   21.000    0.000 
#    0.000    5.000    0.000    0.000    0.000    0.000 
#    0.000    0.000    0.000    0.000    0.000    0.000 
#
# Total GULP energy -89302.539254 kJ/mol
# GULP energy per Si atom -5581.408703 kJ/mol
# Density = 2.722973 g / cm^3
# Si number density = 27.291843 Si / 1000 Ang^3
#
#
#
# Elastic Constant Matrix: (Units=GPa)
#
#
# Indices 1 2 3 4 5 6 
#
# 1 37.3788 2.6366 15.4090 0.0000 -5.4141 0.0000
# 2 2.6366 110.2273 39.2205 0.0000 0.0911 0.0000
# 3 15.4090 39.2205 137.2537 0.0000 -12.9054 0.0000
# 4 0.0000 0.0000 0.0000 40.3211 0.0000 9.5315
# 5 -5.4141 0.0911 -12.9054 0.0000 40.8075 0.0000
# 6 0.0000 0.0000 0.0000 9.5315 0.0000 4.6668
#
#
#
# Elastic Compliance Matrix: (Units=1/GPa)
#
#
# Indices 1 2 3 4 5 6 
#
# 1 0.028383 0.000399 -0.003037 0.000000 0.002804 0.000000
# 2 0.000399 0.010142 -0.003030 0.000000 -0.000928 0.000000
# 3 -0.003037 -0.003030 0.008714 0.000000 0.002360 0.000000
# 4 0.000000 0.000000 0.000000 0.047953 0.000000 -0.097939
# 5 0.002804 -0.000928 0.002360 0.000000 0.025626 0.000000
# 6 0.000000 0.000000 0.000000 -0.097939 0.000000 0.414313
#
#
# Mechanical properties :
#
#
# Convention : Reuss Voigt Hill
#
# Bulk Modulus (GPa) = 27.85213 44.37688 36.11451
# Shear Modulus (GPa) = 8.95362 32.33198 20.64280
#
# Velocity S-wave (km/s) = 1.81323 3.44565 2.75321
# Velocity P-wave (km/s) = 3.82246 5.66793 4.83408
#
# Compressibility (1/GPa) = 0.03590390
#
# Stress axis : x y z
#
# Youngs Moduli (GPa) = 35.23219 98.60462 114.75204
#
# Poissons Ratio (x) = -0.03938 0.34849
# Poissons Ratio (y) = -0.01407 0.34770
# Poissons Ratio (z) = 0.10700 0.29878
#
# Static dielectric constant tensor:
#      x y z
#    x 2.255070 0.000000 0.038970 
#    y 0.000000 2.233070 0.000000 
#    z 0.038970 0.000000 2.157830 
# 
# From -- ./inp_files/9281.got.cif
#   From: 2010.05.17/outbox.cif.g08.bks.cpg/sg4_5_cif.got.tgz:9281.got - 2010.06.03 18:43:04.
