data_PCOD9116753
_publ_section_title
;
Structure prediction by ZEFSAII (Michael W. Deem and Ramdas Pophale) SiO2 
 PCOD9116753
Probable space group: P 21
;
_chemical_formula_sum "Si O2"
_cell_formula_units_Z 14
_cell_length_a 10.679622
_cell_length_b 4.920811
_cell_length_c 26.308722
_cell_angle_alpha 90.000000
_cell_angle_beta 24.154691
_cell_angle_gamma 90.000000
_cell_volume 565.756628
_symmetry_space_group_name_H-M "P 21"
_symmetry_group_IT_number 4
_symmetry_cell_setting 'monoclinic'
loop_
_space_group_symop_operation_xyz
x,y,z
-x,1/2+y,-z
loop_
_atom_site_type_symbol
_atom_site_label
_atom_site_fract_x
_atom_site_fract_y
_atom_site_fract_z
Si Si1 0.292821 0.182020 0.085441
Si Si2 0.203796 0.419595 0.412287
Si Si3 0.389643 0.662202 0.826782
Si Si4 0.318884 0.154945 0.921892
Si Si5 0.621367 0.862109 0.481091
Si Si6 0.721173 0.467792 0.295645
Si Si7 0.133436 0.816300 0.221451
O O1 0.984907 0.283444 0.173549
O O2 0.174030 0.122853 0.186834
O O3 0.559429 0.400088 0.985330
O O4 0.356005 0.273429 0.306567
O O5 0.485830 0.553337 0.339558
O O6 0.966245 0.670094 0.495193
O O7 0.409827 0.358569 0.841807
O O8 0.388345 0.854950 0.876559
O O9 0.042153 0.689088 0.934574
O O10 0.526324 0.216503 0.893590
O O11 0.583424 0.176933 0.480332
O O12 0.497551 0.817201 0.582754
O O13 0.959943 0.786046 0.338962
O O14 0.917979 0.676948 0.258012
#
# Coordination Sequence:
#
# PCOD9116753 Si02
#       7
#     2   2   2   2   2   2   2
#     4  12  26  44  68 109 152 187 231 292 378 443
#     4  12  30  49  74 104 147 206 251 297 365 444
#     4  10  24  48  70 105 146 193 243 305 345 450
#     4  10  24  45  76 107 140 187 249 298 376 417
#     4  10  22  40  65  99 141 176 229 292 355 420
#     4  11  27  49  71 110 146 193 246 303 369 435
#     4  11  25  45  76 110 140 192 235 317 370 431
#
# _framework density 24.745622000000001
#
# number of rings (size 3 to 8) (size 9 to 14) (size 15 to 20)
#    0.000    1.143    2.857    0.857   10.000    0.000 
#    7.714    0.000    0.000    0.000    0.000    0.000 
#    0.000    0.000    0.000    0.000    0.000    0.000 
#
# Total GULP energy -78185.364997 kJ/mol
# GULP energy per Si atom -5584.668928 kJ/mol
# Density = 2.468930 g / cm^3
# Si number density = 24.745622 Si / 1000 Ang^3
#
#
#
# Elastic Constant Matrix: (Units=GPa)
#
#
# Indices 1 2 3 4 5 6 
#
# 1 80.6410 -0.4513 35.2270 0.0000 -18.7675 0.0000
# 2 -0.4513 77.0500 32.5472 0.0000 -3.2431 0.0000
# 3 35.2270 32.5472 134.1993 0.0001 -5.4495 0.0000
# 4 0.0000 0.0000 0.0001 38.9101 0.0000 3.0971
# 5 -18.7675 -3.2431 -5.4495 0.0000 36.5489 0.0000
# 6 0.0000 0.0000 0.0000 3.0971 0.0000 17.4547
#
#
#
# Elastic Compliance Matrix: (Units=1/GPa)
#
#
# Indices 1 2 3 4 5 6 
#
# 1 0.016208 0.002326 -0.004500 0.000000 0.007858 0.000000
# 2 0.002326 0.014815 -0.004127 0.000000 0.001894 0.000000
# 3 -0.004500 -0.004127 0.009583 0.000000 -0.001248 0.000000
# 4 0.000000 0.000000 0.000000 0.026068 0.000000 -0.004625
# 5 0.007858 0.001894 -0.001248 0.000000 0.031378 0.000000
# 6 0.000000 0.000000 0.000000 -0.004625 0.000000 0.058112
#
#
# Mechanical properties :
#
#
# Convention : Reuss Voigt Hill
#
# Bulk Modulus (GPa) = 35.70664 47.39289 41.54977
# Shear Modulus (GPa) = 28.07413 33.55392 30.81403
#
# Velocity S-wave (km/s) = 3.37190 3.68632 3.53261
# Velocity P-wave (km/s) = 5.44247 6.10837 5.78501
#
# Compressibility (1/GPa) = 0.02800599
#
# Stress axis : x y z
#
# Youngs Moduli (GPa) = 61.69738 67.49827 104.35159
#
# Poissons Ratio (x) = -0.15703 0.46955
# Poissons Ratio (y) = -0.14354 0.43065
# Poissons Ratio (z) = 0.27762 0.27856
#
# Static dielectric constant tensor:
#      x y z
#    x 1.988130 0.000000 0.056260 
#    y 0.000000 1.950740 0.000000 
#    z 0.056260 0.000000 2.015840 
# 
# From -- ./inp_files/16527.got.cif
#   From: 2010.05.17/outbox.cif.g08.bks.cpg/sg4_9_cif.got.tgz:16527.got - 2010.06.03 18:43:04.
