data_PCOD9116654
_publ_section_title
;
Structure prediction by ZEFSAII (Michael W. Deem and Ramdas Pophale) SiO2 
 PCOD9116654
Probable space group: P 21
;
_chemical_formula_sum "Si O2"
_cell_formula_units_Z 16
_cell_length_a 9.469830
_cell_length_b 5.101028
_cell_length_c 19.661346
_cell_angle_alpha 90.000000
_cell_angle_beta 47.225309
_cell_angle_gamma 90.000000
_cell_volume 697.151070
_symmetry_space_group_name_H-M "P 21"
_symmetry_group_IT_number 4
_symmetry_cell_setting 'monoclinic'
loop_
_space_group_symop_operation_xyz
x,y,z
-x,1/2+y,-z
loop_
_atom_site_type_symbol
_atom_site_label
_atom_site_fract_x
_atom_site_fract_y
_atom_site_fract_z
Si Si1 0.964994 0.157020 0.966143
Si Si2 0.785108 0.634374 0.546028
Si Si3 0.796343 0.281937 0.417683
Si Si4 0.813890 0.878681 0.234896
Si Si5 0.893041 0.377040 0.636528
Si Si6 0.102648 0.642950 0.236879
Si Si7 0.592144 0.372353 0.353835
Si Si8 0.633010 0.034473 0.966317
O O1 0.766765 0.090186 0.989115
O O2 0.109020 0.277733 0.862373
O O3 0.954927 0.389985 0.025575
O O4 0.731621 0.414823 0.508474
O O5 0.771189 0.562501 0.629065
O O6 0.632152 0.861307 0.586483
O O7 0.005440 0.689268 0.452231
O O8 0.625871 0.268762 0.419676
O O9 0.944703 0.471803 0.328462
O O10 0.922725 0.027696 0.392281
O O11 0.673590 0.657022 0.311096
O O12 0.996891 0.863762 0.226064
O O13 0.711639 0.158910 0.270480
O O14 0.782796 0.259906 0.736554
O O15 0.222048 0.479122 0.143804
O O16 0.513874 0.292706 0.982848
#
# Coordination Sequence:
#
# PCOD9116654 Si02
#       8
#     2   2   2   2   2   2   2   2
#     4  11  23  45  73  99 139 182 218 276 353 416
#     4  11  25  37  62  91 129 172 215 274 320 379
#     4  10  22  39  64  85 126 170 226 255 323 388
#     4  10  22  43  66  94 129 168 221 260 331 393
#     4  11  21  42  58  89 127 176 215 255 333 394
#     4   9  22  41  67  90 124 180 212 265 324 405
#     4  11  24  40  64  97 123 168 222 276 308 375
#     4  11  25  45  72 107 137 174 231 285 336 410
#
# _framework density 22.95055
#
# number of rings (size 3 to 8) (size 9 to 14) (size 15 to 20)
#    0.000    1.500    2.500    1.500    5.250    2.000 
#    6.750    0.000    0.000    0.000    0.000    0.000 
#    0.000    0.000    0.000    0.000    0.000    0.000 
#
# Total GULP energy -89366.936606 kJ/mol
# GULP energy per Si atom -5585.433538 kJ/mol
# Density = 2.289831 g / cm^3
# Si number density = 22.950550 Si / 1000 Ang^3
#
#
#
# Elastic Constant Matrix: (Units=GPa)
#
#
# Indices 1 2 3 4 5 6 
#
# 1 109.9366 18.0732 26.9159 0.0000 19.2647 0.0000
# 2 18.0732 86.2835 9.5172 0.0000 1.9991 0.0000
# 3 26.9159 9.5172 61.1193 0.0000 16.9057 0.0000
# 4 0.0000 0.0000 0.0000 35.5465 0.0000 0.9584
# 5 19.2647 1.9991 16.9057 0.0000 33.1004 0.0000
# 6 0.0000 0.0000 0.0000 0.9584 0.0000 31.6130
#
#
#
# Elastic Compliance Matrix: (Units=1/GPa)
#
#
# Indices 1 2 3 4 5 6 
#
# 1 0.011012 -0.001837 -0.003286 0.000000 -0.004620 0.000000
# 2 -0.001837 0.012101 -0.001361 0.000000 0.001034 0.000000
# 3 -0.003286 -0.001361 0.020342 0.000000 -0.008395 0.000000
# 4 0.000000 0.000000 0.000000 0.028155 0.000000 -0.000854
# 5 -0.004620 0.001034 -0.008395 0.000000 0.037126 0.000000
# 6 0.000000 0.000000 0.000000 -0.000854 0.000000 0.031658
#
#
# Mechanical properties :
#
#
# Convention : Reuss Voigt Hill
#
# Bulk Modulus (GPa) = 32.80015 40.70578 36.75297
# Shear Modulus (GPa) = 30.57641 33.57417 32.07529
#
# Velocity S-wave (km/s) = 3.65399 3.82893 3.74248
# Velocity P-wave (km/s) = 5.66788 6.10920 5.89268
#
# Compressibility (1/GPa) = 0.03048766
#
# Stress axis : x y z
#
# Youngs Moduli (GPa) = 90.80831 82.63979 49.15830
#
# Poissons Ratio (x) = 0.15183 0.16151
# Poissons Ratio (y) = 0.16683 0.06691
# Poissons Ratio (z) = 0.29836 0.11248
#
# Static dielectric constant tensor:
#      x y z
#    x 1.904130 0.000000 0.020570 
#    y 0.000000 1.939930 0.000000 
#    z 0.020570 0.000000 1.861760 
# 
# From -- ./inp_files/8719.got.cif
#   From: 2010.05.17/outbox.cif.g08.bks.cpg/sg4_5_cif.got.tgz:8719.got - 2010.06.03 18:43:04.
