data_PCOD9116376
_publ_section_title
;
Structure prediction by ZEFSAII (Michael W. Deem and Ramdas Pophale) SiO2 
 PCOD9116376
Probable space group: P 21
;
_chemical_formula_sum "Si O2"
_cell_formula_units_Z 12
_cell_length_a 13.823250
_cell_length_b 5.465923
_cell_length_c 7.877826
_cell_angle_alpha 90.000000
_cell_angle_beta 52.413244
_cell_angle_gamma 90.000000
_cell_volume 471.673336
_symmetry_space_group_name_H-M "P 21"
_symmetry_group_IT_number 4
_symmetry_cell_setting 'monoclinic'
loop_
_space_group_symop_operation_xyz
x,y,z
-x,1/2+y,-z
loop_
_atom_site_type_symbol
_atom_site_label
_atom_site_fract_x
_atom_site_fract_y
_atom_site_fract_z
Si Si1 0.955158 0.856550 0.324247
Si Si2 0.457590 0.304683 0.215770
Si Si3 0.091634 0.354548 0.218069
Si Si4 0.735042 0.116767 0.429306
Si Si5 0.308892 0.944112 0.216710
Si Si6 0.698182 0.163981 0.099574
O O1 0.920675 0.853188 0.563029
O O2 0.839428 0.911524 0.328178
O O3 0.018273 0.594004 0.228529
O O4 0.036887 0.100471 0.212364
O O5 0.401295 0.512415 0.394823
O O6 0.552095 0.148086 0.228145
O O7 0.333882 0.209970 0.260418
O O8 0.547667 0.378624 0.966971
O O9 0.230965 0.414331 0.017745
O O10 0.755737 0.294823 0.566616
O O11 0.732762 0.243091 0.250208
O O12 0.258092 0.856448 0.092237
#
# Coordination Sequence:
#
# PCOD9116376 Si02
#       6
#     2   2   2   2   2   2
#     4  10  23  42  74  93 140 181 244 285 355 423
#     4  10  22  42  68  96 138 183 227 282 359 425
#     4  10  22  46  66 103 130 192 233 293 350 426
#     4  12  24  42  66 104 136 181 233 293 354 421
#     4  10  21  43  63  94 135 186 217 282 349 428
#     4  10  24  43  65 104 137 179 234 293 351 423
#
# _framework density 25.441337999999998
#
# number of rings (size 3 to 8) (size 9 to 14) (size 15 to 20)
#    1.000    0.667    3.333    0.000    4.667    2.667 
#    6.000    0.000    0.000    0.000    0.000    0.000 
#    0.000    0.000    0.000    0.000    0.000    0.000 
#
# Total GULP energy -66973.520760 kJ/mol
# GULP energy per Si atom -5581.126730 kJ/mol
# Density = 2.538343 g / cm^3
# Si number density = 25.441338 Si / 1000 Ang^3
#
#
#
# Elastic Constant Matrix: (Units=GPa)
#
#
# Indices 1 2 3 4 5 6 
#
# 1 129.3085 39.3416 50.9724 0.0000 10.0475 0.0000
# 2 39.3416 75.5407 30.2147 0.0000 -10.8317 0.0000
# 3 50.9724 30.2147 83.6825 0.0000 18.2002 0.0000
# 4 0.0000 0.0000 0.0000 19.3220 0.0000 -15.7979
# 5 10.0475 -10.8317 18.2002 0.0000 53.8806 0.0000
# 6 0.0000 0.0000 0.0000 -15.7979 0.0000 36.8406
#
#
#
# Elastic Compliance Matrix: (Units=1/GPa)
#
#
# Indices 1 2 3 4 5 6 
#
# 1 0.010988 -0.003860 -0.005056 0.000000 -0.001117 0.000000
# 2 -0.003860 0.018431 -0.005684 0.000000 0.006345 0.000000
# 3 -0.005056 -0.005684 0.018483 0.000000 -0.006443 0.000000
# 4 0.000000 0.000000 0.000000 0.079697 0.000000 0.034175
# 5 -0.001117 0.006345 -0.006443 0.000000 0.022220 0.000000
# 6 0.000000 0.000000 0.000000 0.034175 0.000000 0.041799
#
#
# Mechanical properties :
#
#
# Convention : Reuss Voigt Hill
#
# Bulk Modulus (GPa) = 53.46869 58.84324 56.15597
# Shear Modulus (GPa) = 22.02140 33.20882 27.61511
#
# Velocity S-wave (km/s) = 2.94526 3.61683 3.29818
# Velocity P-wave (km/s) = 5.71211 6.37347 6.05183
#
# Compressibility (1/GPa) = 0.01870253
#
# Stress axis : x y z
#
# Youngs Moduli (GPa) = 91.01011 54.25518 54.10357
#
# Poissons Ratio (x) = 0.20944 0.27355
# Poissons Ratio (y) = 0.35133 0.30750
# Poissons Ratio (z) = 0.46015 0.30836
#
# Static dielectric constant tensor:
#      x y z
#    x 2.037830 0.000000 0.008840 
#    y 0.000000 2.128760 0.000000 
#    z 0.008840 0.000000 1.994320 
# 
# From -- ./inp_files/8555.got.cif
#   From: 2010.05.17/outbox.cif.g08.bks.cpg/sg4_5_cif.got.tgz:8555.got - 2010.06.03 18:43:04.
