data_PCOD9116683
_publ_section_title
;
Structure prediction by ZEFSAII (Michael W. Deem and Ramdas Pophale) SiO2 
 PCOD9116683
Probable space group: P 21
;
_chemical_formula_sum "Si O2"
_cell_formula_units_Z 12
_cell_length_a 15.566159
_cell_length_b 5.149643
_cell_length_c 23.880453
_cell_angle_alpha 90.000000
_cell_angle_beta 18.926808
_cell_angle_gamma 90.000000
_cell_volume 620.909775
_symmetry_space_group_name_H-M "P 21"
_symmetry_group_IT_number 4
_symmetry_cell_setting 'monoclinic'
loop_
_space_group_symop_operation_xyz
x,y,z
-x,1/2+y,-z
loop_
_atom_site_type_symbol
_atom_site_label
_atom_site_fract_x
_atom_site_fract_y
_atom_site_fract_z
Si Si1 0.909710 0.852280 0.590290
Si Si2 0.162928 0.102314 0.918536
Si Si3 0.356660 0.754265 0.890032
Si Si4 0.482619 0.104480 0.435743
Si Si5 0.809161 0.600165 0.272470
Si Si6 0.369884 0.950351 0.383423
O O1 0.595142 0.814064 0.785145
O O2 0.035389 0.602259 0.482313
O O3 0.073995 0.890532 0.545717
O O4 0.447382 0.195803 0.720918
O O5 0.225835 0.008826 0.942470
O O6 0.661157 0.352325 0.338838
O O7 0.973403 0.352310 0.026595
O O8 0.491505 0.602311 0.754246
O O9 0.115054 0.605353 0.067150
O O10 0.662166 0.852327 0.337833
O O11 0.386209 0.099272 0.431577
O O12 0.246625 0.102318 0.626689
#
# Coordination Sequence:
#
# PCOD9116683 Si02
#       6
#     2   2   2   2   2   2
#     4  10  22  40  56  88 122 158 194 250 304 340
#     4  12  24  34  54  98 122 150 192 254 302 350
#     4  11  24  38  63  89 123 155 207 245 299 357
#     4  10  24  40  59  88 125 160 194 246 309 360
#     4  10  24  40  59  88 125 160 194 246 309 360
#     4  11  24  38  63  89 123 155 207 245 299 357
#
# _framework density 19.326478999999999
#
# number of rings (size 3 to 8) (size 9 to 14) (size 15 to 20)
#    0.000    1.333    3.333    1.000    9.333    0.000 
#    0.000    0.000    0.000   14.000    0.000    0.000 
#    0.000    0.000    0.000    0.000    0.000    0.000 
#
# Total GULP energy -67057.832420 kJ/mol
# GULP energy per Si atom -5588.152702 kJ/mol
# Density = 1.928249 g / cm^3
# Si number density = 19.326479 Si / 1000 Ang^3
#
#
#
# Elastic Constant Matrix: (Units=GPa)
#
#
# Indices 1 2 3 4 5 6 
#
# 1 149.9386 44.0093 101.7420 0.0000 -19.8465 0.0000
# 2 44.0093 132.2672 37.0473 0.0000 -8.8685 0.0000
# 3 101.7420 37.0473 129.7837 0.0000 -5.8083 0.0000
# 4 0.0000 0.0000 0.0000 18.9492 0.0000 -1.6540
# 5 -19.8465 -8.8685 -5.8083 0.0000 34.1974 0.0000
# 6 0.0000 0.0000 0.0000 -1.6540 0.0000 20.2525
#
#
#
# Elastic Compliance Matrix: (Units=1/GPa)
#
#
# Indices 1 2 3 4 5 6 
#
# 1 0.016091 -0.001569 -0.011857 0.000000 0.006918 0.000000
# 2 -0.001569 0.008475 -0.001140 0.000000 0.001094 0.000000
# 3 -0.011857 -0.001140 0.017135 0.000000 -0.004267 0.000000
# 4 0.000000 0.000000 0.000000 0.053151 0.000000 0.004341
# 5 0.006918 0.001094 -0.004267 0.000000 0.032816 0.000000
# 6 0.000000 0.000000 0.000000 0.004341 0.000000 0.049731
#
#
# Mechanical properties :
#
#
# Convention : Reuss Voigt Hill
#
# Bulk Modulus (GPa) = 79.56374 86.39852 82.98113
# Shear Modulus (GPa) = 23.72796 29.95923 26.84360
#
# Velocity S-wave (km/s) = 3.50772 3.94149 3.73091
# Velocity P-wave (km/s) = 7.59362 8.09417 7.84789
#
# Compressibility (1/GPa) = 0.01256854
#
# Stress axis : x y z
#
# Youngs Moduli (GPa) = 62.14532 117.99052 58.36072
#
# Poissons Ratio (x) = 0.18514 0.69199
# Poissons Ratio (y) = 0.09751 0.06655
# Poissons Ratio (z) = 0.73686 0.13454
#
# Static dielectric constant tensor:
#      x y z
#    x 1.685090 0.000000 0.007380 
#    y 0.000000 1.738220 0.000000 
#    z 0.007380 0.000000 1.690850 
# 
# From -- ./inp_files/15754.got.cif
#   From: 2010.05.17/outbox.cif.g08.bks.cpg/sg4_8_cif.got.tgz:15754.got - 2010.06.03 18:43:04.
