data_PCOD9116669
_publ_section_title
;
Structure prediction by ZEFSAII (Michael W. Deem and Ramdas Pophale) SiO2 
 PCOD9116669
Probable space group: P 21
;
_chemical_formula_sum "Si O2"
_cell_formula_units_Z 14
_cell_length_a 8.141067
_cell_length_b 9.188355
_cell_length_c 9.882049
_cell_angle_alpha 90.000000
_cell_angle_beta 132.324112
_cell_angle_gamma 90.000000
_cell_volume 546.531106
_symmetry_space_group_name_H-M "P 21"
_symmetry_group_IT_number 4
_symmetry_cell_setting 'monoclinic'
loop_
_space_group_symop_operation_xyz
x,y,z
-x,1/2+y,-z
loop_
_atom_site_type_symbol
_atom_site_label
_atom_site_fract_x
_atom_site_fract_y
_atom_site_fract_z
Si Si1 0.219877 0.571630 0.338285
Si Si2 0.280605 0.846839 0.083589
Si Si3 0.721455 0.581998 0.131458
Si Si4 0.386017 0.254272 0.523235
Si Si5 0.143160 0.431263 0.013872
Si Si6 0.446196 0.794555 0.832571
Si Si7 0.914314 0.138057 0.251733
O O1 0.300181 0.413005 0.432500
O O2 0.423378 0.682951 0.464469
O O3 0.172066 0.547496 0.150577
O O4 0.984486 0.610929 0.275971
O O5 0.494858 0.776867 0.267593
O O6 0.142565 0.761911 0.892055
O O7 0.329846 0.000066 0.039915
O O8 0.102355 0.871016 0.103952
O O9 0.649442 0.458056 0.198261
O O10 0.569511 0.723869 0.033055
O O11 0.174962 0.148481 0.419846
O O12 0.342194 0.317244 0.145672
O O13 0.158091 0.496213 0.871208
O O14 0.235502 0.687130 0.704074
#
# Coordination Sequence:
#
# PCOD9116669 Si02
#       7
#     2   2   2   2   2   2   2
#     4  11  24  40  68  98 130 171 225 270 314 388
#     4  10  22  39  67  91 126 164 219 267 312 380
#     4  10  22  42  65  97 128 174 218 267 326 386
#     4  12  22  41  67  96 131 166 218 276 315 373
#     4  11  21  40  68  94 126 173 218 260 330 385
#     4  11  21  39  70  91 129 176 212 262 336 393
#     4  11  22  41  63  93 126 170 210 266 321 383
#
# _framework density 25.616109000000002
#
# number of rings (size 3 to 8) (size 9 to 14) (size 15 to 20)
#    0.000    1.143    7.143    1.714    2.000    1.143 
#    0.000    1.429   15.714    0.000    0.000    0.000 
#    0.000    0.000    0.000    0.000    0.000    0.000 
#
# Total GULP energy -78240.456867 kJ/mol
# GULP energy per Si atom -5588.604062 kJ/mol
# Density = 2.555781 g / cm^3
# Si number density = 25.616109 Si / 1000 Ang^3
#
#
#
# Elastic Constant Matrix: (Units=GPa)
#
#
# Indices 1 2 3 4 5 6 
#
# 1 55.9674 -2.6332 34.3375 0.0000 26.2336 0.0000
# 2 -2.6332 69.5027 27.0699 0.0000 4.0042 0.0000
# 3 34.3375 27.0699 134.2378 0.0000 32.8236 0.0000
# 4 0.0000 0.0000 0.0000 40.5461 0.0000 13.7462
# 5 26.2336 4.0042 32.8236 0.0000 45.2255 0.0000
# 6 0.0000 0.0000 0.0000 13.7462 0.0000 32.7366
#
#
#
# Elastic Compliance Matrix: (Units=1/GPa)
#
#
# Indices 1 2 3 4 5 6 
#
# 1 0.026630 0.003463 -0.004447 0.000000 -0.012526 0.000000
# 2 0.003463 0.016109 -0.004005 0.000000 -0.000528 0.000000
# 3 -0.004447 -0.004005 0.010549 0.000000 -0.004722 0.000000
# 4 0.000000 0.000000 0.000000 0.028757 0.000000 -0.012075
# 5 -0.012526 -0.000528 -0.004722 0.000000 0.032851 0.000000
# 6 0.000000 0.000000 0.000000 -0.012075 0.000000 0.035617
#
#
# Mechanical properties :
#
#
# Convention : Reuss Voigt Hill
#
# Bulk Modulus (GPa) = 23.08957 41.91738 32.50347
# Shear Modulus (GPa) = 28.58267 37.09721 32.83994
#
# Velocity S-wave (km/s) = 3.34400 3.80965 3.58439
# Velocity P-wave (km/s) = 4.89316 5.97917 5.46321
#
# Compressibility (1/GPa) = 0.04330959
#
# Stress axis : x y z
#
# Youngs Moduli (GPa) = 37.55105 62.07518 94.79186
#
# Poissons Ratio (x) = -0.21495 0.42158
# Poissons Ratio (y) = -0.13003 0.37966
# Poissons Ratio (z) = 0.16700 0.24863
#
# Static dielectric constant tensor:
#      x y z
#    x 2.130940 0.000000 -0.035260 
#    y 0.000000 2.082410 0.000000 
#    z -0.035260 0.000000 1.965380 
# 
# From -- ./inp_files/8242.got.cif
#   From: 2010.05.17/outbox.cif.g08.bks.cpg/sg4_5_cif.got.tgz:8242.got - 2010.06.03 18:43:04.
