data_PCOD9116512
_publ_section_title
;
Structure prediction by ZEFSAII (Michael W. Deem and Ramdas Pophale) SiO2 
 PCOD9116512
Probable space group: P 21
;
_chemical_formula_sum "Si O2"
_cell_formula_units_Z 16
_cell_length_a 14.788899
_cell_length_b 7.397758
_cell_length_c 18.781643
_cell_angle_alpha 90.000000
_cell_angle_beta 18.830756
_cell_angle_gamma 90.000000
_cell_volume 663.235593
_symmetry_space_group_name_H-M "P 21"
_symmetry_group_IT_number 4
_symmetry_cell_setting 'monoclinic'
loop_
_space_group_symop_operation_xyz
x,y,z
-x,1/2+y,-z
loop_
_atom_site_type_symbol
_atom_site_label
_atom_site_fract_x
_atom_site_fract_y
_atom_site_fract_z
Si Si1 0.455624 0.032590 0.274339
Si Si2 0.633133 0.243249 0.274548
Si Si3 0.808509 0.760337 0.927422
Si Si4 0.115153 0.395597 0.506446
Si Si5 0.107385 0.384229 0.350841
Si Si6 0.111476 0.064458 0.995282
Si Si7 0.654546 0.095487 0.528447
Si Si8 0.537597 0.203155 0.958867
O O1 0.516770 0.086602 0.310158
O O2 0.323435 0.222023 0.346208
O O3 0.202061 0.892275 0.449468
O O4 0.713682 0.942618 0.039161
O O5 0.841371 0.362263 0.068212
O O6 0.408767 0.400041 0.463569
O O7 0.813150 0.153660 0.202586
O O8 0.791365 0.596651 0.996880
O O9 0.129658 0.737403 0.663897
O O10 0.611731 0.725245 0.006481
O O11 0.101223 0.457789 0.435281
O O12 0.227925 0.524479 0.483567
O O13 0.812039 0.328481 0.758475
O O14 0.304630 0.512029 0.156583
O O15 0.297137 0.208724 0.198062
O O16 0.345391 0.170076 0.773793
#
# Coordination Sequence:
#
# PCOD9116512 Si02
#       8
#     2   2   2   2   2   2   2   2
#     4  10  23  41  69 100 137 187 230 299 349 425
#     4   9  21  47  71 100 139 184 238 287 367 425
#     4  12  23  41  66 106 136 181 234 290 364 412
#     4  10  21  46  66  94 144 189 235 280 359 410
#     4  11  24  41  66  94 142 187 234 286 348 417
#     4  10  22  44  73  94 140 183 229 298 361 428
#     4   9  23  41  69  96 139 179 231 296 345 432
#     4  11  25  37  64 100 133 184 239 280 335 425
#
# _framework density 24.124155999999999
#
# number of rings (size 3 to 8) (size 9 to 14) (size 15 to 20)
#    0.750    1.000    1.250    2.250    3.500    2.000 
#    2.250    1.250    0.000    0.000    0.000    0.000 
#    0.000    0.000    0.000    0.000    0.000    0.000 
#
# Total GULP energy -89275.927033 kJ/mol
# GULP energy per Si atom -5579.745440 kJ/mol
# Density = 2.406925 g / cm^3
# Si number density = 24.124156 Si / 1000 Ang^3
#
#
#
# Elastic Constant Matrix: (Units=GPa)
#
#
# Indices 1 2 3 4 5 6 
#
# 1 73.2638 -2.2357 25.7151 0.0000 -16.1944 0.0000
# 2 -2.2357 65.5668 31.9112 0.0000 -1.0717 0.0000
# 3 25.7151 31.9112 123.1203 0.0000 -7.8687 0.0000
# 4 0.0000 0.0000 0.0000 51.1358 0.0000 -5.8719
# 5 -16.1944 -1.0717 -7.8687 0.0000 34.5952 0.0000
# 6 0.0000 0.0000 0.0000 -5.8719 0.0000 23.7033
#
#
#
# Elastic Compliance Matrix: (Units=1/GPa)
#
#
# Indices 1 2 3 4 5 6 
#
# 1 0.016550 0.002453 -0.003645 0.000000 0.006994 0.000000
# 2 0.002453 0.017825 -0.005098 0.000000 0.000541 0.000000
# 3 -0.003645 -0.005098 0.010234 0.000000 0.000463 0.000000
# 4 0.000000 0.000000 0.000000 0.020128 0.000000 0.004986
# 5 0.006994 0.000541 0.000463 0.000000 0.032302 0.000000
# 6 0.000000 0.000000 0.000000 0.004986 0.000000 0.043424
#
#
# Mechanical properties :
#
#
# Convention : Reuss Voigt Hill
#
# Bulk Modulus (GPa) = 31.22213 41.41468 36.31841
# Shear Modulus (GPa) = 30.54000 35.65755 33.09878
#
# Velocity S-wave (km/s) = 3.56188 3.84876 3.70809
# Velocity P-wave (km/s) = 5.46684 6.07908 5.78107
#
# Compressibility (1/GPa) = 0.03202856
#
# Stress axis : x y z
#
# Youngs Moduli (GPa) = 60.42446 56.10046 97.70965
#
# Poissons Ratio (x) = -0.13760 0.35618
# Poissons Ratio (y) = -0.14821 0.49810
# Poissons Ratio (z) = 0.22027 0.28599
#
# Static dielectric constant tensor:
#      x y z
#    x 1.908440 0.000000 0.017570 
#    y 0.000000 2.273240 0.000000 
#    z 0.017570 0.000000 2.016880 
# 
# From -- ./inp_files/15258.got.cif
#   From: 2010.05.17/outbox.cif.g08.bks.cpg/sg4_8_cif.got.tgz:15258.got - 2010.06.03 18:43:04.
