data_PCOD9116764
_publ_section_title
;
Structure prediction by ZEFSAII (Michael W. Deem and Ramdas Pophale) SiO2 
 PCOD9116764
Probable space group: P 21
;
_chemical_formula_sum "Si O2"
_cell_formula_units_Z 14
_cell_length_a 5.355906
_cell_length_b 20.413650
_cell_length_c 5.355747
_cell_angle_alpha 90.000000
_cell_angle_beta 117.808039
_cell_angle_gamma 90.000000
_cell_volume 517.939611
_symmetry_space_group_name_H-M "P 21"
_symmetry_group_IT_number 4
_symmetry_cell_setting 'monoclinic'
loop_
_space_group_symop_operation_xyz
x,y,z
-x,1/2+y,-z
loop_
_atom_site_type_symbol
_atom_site_label
_atom_site_fract_x
_atom_site_fract_y
_atom_site_fract_z
Si Si1 0.167540 0.313980 0.417411
Si Si2 0.082720 0.713649 0.332333
Si Si3 0.655296 0.687263 0.754688
Si Si4 0.745171 0.340360 0.844812
Si Si5 0.316753 0.957246 0.522830
Si Si6 0.431526 0.013835 0.068206
Si Si7 0.023092 0.570384 0.816989
O O1 0.338474 0.264346 0.313599
O O2 0.406491 0.342449 0.710882
O O3 0.974277 0.263815 0.474406
O O4 0.971041 0.360615 0.160532
O O5 0.339573 0.667011 0.528847
O O6 0.186565 0.763275 0.161396
O O7 0.789234 0.685192 0.093382
O O8 0.871466 0.639736 0.708294
O O9 0.791635 0.387869 0.628631
O O10 0.443760 0.959556 0.856420
O O11 0.081026 0.013793 0.418550
O O12 0.504262 0.984029 0.376035
O O13 0.123681 0.043637 0.995425
O O14 0.643323 0.068116 0.056011
#
# Coordination Sequence:
#
# PCOD9116764 Si02
#       7
#     2   2   2   2   2   2   2
#     4  10  22  40  66  96 137 176 240 286 370 417
#     4  10  22  40  66  96 137 176 240 286 370 417
#     4  10  23  41  64 100 132 186 230 302 352 439
#     4  10  23  41  64 100 132 186 230 302 352 439
#     4  10  26  44  70 103 143 189 244 296 370 430
#     4  10  26  44  70 104 140 186 246 294 372 430
#     4  10  26  44  70 103 143 189 244 296 370 430
#
# _framework density 27.030180000000001
#
# number of rings (size 3 to 8) (size 9 to 14) (size 15 to 20)
#    0.857    1.143    0.000    0.857   10.000    2.286 
#    0.000    0.000    0.000    0.000    0.000    0.000 
#    0.000    0.000    0.000    0.000    0.000    0.000 
#
# Total GULP energy -78051.893860 kJ/mol
# GULP energy per Si atom -5575.135276 kJ/mol
# Density = 2.696866 g / cm^3
# Si number density = 27.030180 Si / 1000 Ang^3
#
#
#
# Elastic Constant Matrix: (Units=GPa)
#
#
# Indices 1 2 3 4 5 6 
#
# 1 118.9861 12.5031 60.3812 0.0000 -0.2826 0.0000
# 2 12.5031 102.5929 15.7554 0.0000 2.8595 0.0000
# 3 60.3812 15.7554 127.7920 0.0000 8.0245 0.0000
# 4 0.0000 0.0000 0.0000 39.0892 0.0000 6.8135
# 5 -0.2826 2.8595 8.0245 0.0000 36.3316 0.0000
# 6 0.0000 0.0000 0.0000 6.8135 0.0000 31.2184
#
#
#
# Elastic Compliance Matrix: (Units=1/GPa)
#
#
# Indices 1 2 3 4 5 6 
#
# 1 0.011146 -0.000584 -0.005276 0.000000 0.001298 0.000000
# 2 -0.000584 0.009976 -0.000917 0.000000 -0.000587 0.000000
# 3 -0.005276 -0.000917 0.010576 0.000000 -0.002305 0.000000
# 4 0.000000 0.000000 0.000000 0.026594 0.000000 -0.005804
# 5 0.001298 -0.000587 -0.002305 0.000000 0.028090 0.000000
# 6 0.000000 0.000000 0.000000 -0.005804 0.000000 0.033299
#
#
# Mechanical properties :
#
#
# Convention : Reuss Voigt Hill
#
# Bulk Modulus (GPa) = 55.11702 58.51672 56.81687
# Shear Modulus (GPa) = 35.89813 38.70993 37.30403
#
# Velocity S-wave (km/s) = 3.64823 3.78842 3.71898
# Velocity P-wave (km/s) = 6.17910 6.38998 6.28542
#
# Compressibility (1/GPa) = 0.01814322
#
# Stress axis : x y z
#
# Youngs Moduli (GPa) = 89.71664 100.24402 94.55486
#
# Poissons Ratio (x) = 0.05858 0.49887
# Poissons Ratio (y) = 0.05242 0.08670
# Poissons Ratio (z) = 0.47334 0.09192
#
# Static dielectric constant tensor:
#      x y z
#    x 2.166960 0.000000 0.030300 
#    y 0.000000 2.154990 0.000000 
#    z 0.030300 0.000000 2.201990 
# 
# From -- ./inp_files/516.got.cif
#   From: 2010.05.17/outbox.cif.g08.bks.cpg/sg4_1_cif.got.tgz:516.got - 2010.06.03 18:43:04.
