data_PCOD9116566
_publ_section_title
;
Structure prediction by ZEFSAII (Michael W. Deem and Ramdas Pophale) SiO2 
 PCOD9116566
Probable space group: P 21
;
_chemical_formula_sum "Si O2"
_cell_formula_units_Z 14
_cell_length_a 15.934655
_cell_length_b 8.928059
_cell_length_c 5.513690
_cell_angle_alpha 90.000000
_cell_angle_beta 44.518780
_cell_angle_gamma 90.000000
_cell_volume 549.982246
_symmetry_space_group_name_H-M "P 21"
_symmetry_group_IT_number 4
_symmetry_cell_setting 'monoclinic'
loop_
_space_group_symop_operation_xyz
x,y,z
-x,1/2+y,-z
loop_
_atom_site_type_symbol
_atom_site_label
_atom_site_fract_x
_atom_site_fract_y
_atom_site_fract_z
Si Si1 0.676441 0.404420 0.126839
Si Si2 0.036919 0.468701 0.148260
Si Si3 0.261853 0.944739 0.508309
Si Si4 0.763799 0.787431 0.482547
Si Si5 0.450909 0.479439 0.086805
Si Si6 0.012709 0.317531 0.700888
Si Si7 0.520836 0.129081 0.468335
O O1 0.756383 0.367706 0.196176
O O2 0.557036 0.302340 0.380554
O O3 0.618119 0.572623 0.247327
O O4 0.753763 0.380999 0.727325
O O5 0.991197 0.396507 0.490928
O O6 0.029482 0.646666 0.185864
O O7 0.169896 0.402519 0.833543
O O8 0.975222 0.409589 0.022825
O O9 0.219921 0.115455 0.616389
O O10 0.408365 0.950438 0.205556
O O11 0.625674 0.828530 0.769101
O O12 0.841492 0.810955 0.565329
O O13 0.426798 0.566684 0.386781
O O14 0.422148 0.567181 0.898679
#
# Coordination Sequence:
#
# PCOD9116566 Si02
#       7
#     2   2   2   2   2   2   2
#     4  10  22  36  58  85 124 177 231 269 320 367
#     4  10  23  45  78 107 137 176 227 297 366 419
#     4  10  23  36  64  90 135 176 221 260 320 388
#     4  10  26  42  74  98 140 178 232 260 362 400
#     4  10  23  36  64  90 135 176 221 260 320 388
#     4  10  23  45  78 107 137 176 227 297 366 419
#     4  10  22  36  58  85 124 177 231 269 320 367
#
# _framework density 25.455366999999999
#
# number of rings (size 3 to 8) (size 9 to 14) (size 15 to 20)
#    0.857    1.143    0.000    1.714   20.000    0.000 
#    0.000    4.286    0.000    0.000    0.000    0.000 
#    0.000    0.000    0.000    0.000    0.000    0.000 
#
# Total GULP energy -78227.225668 kJ/mol
# GULP energy per Si atom -5587.658976 kJ/mol
# Density = 2.539743 g / cm^3
# Si number density = 25.455367 Si / 1000 Ang^3
#
#
#
# Elastic Constant Matrix: (Units=GPa)
#
#
# Indices 1 2 3 4 5 6 
#
# 1 103.4876 45.0198 73.5961 0.0000 40.5153 0.0000
# 2 45.0198 134.6624 48.5342 0.0000 22.7959 0.0000
# 3 73.5961 48.5342 92.8546 0.0000 45.1909 0.0000
# 4 0.0000 0.0000 0.0000 39.7034 0.0000 -4.5515
# 5 40.5153 22.7959 45.1909 0.0000 64.1722 0.0000
# 6 0.0000 0.0000 0.0000 -4.5515 0.0000 37.9973
#
#
#
# Elastic Compliance Matrix: (Units=1/GPa)
#
#
# Indices 1 2 3 4 5 6 
#
# 1 0.022610 -0.001375 -0.015963 0.000000 -0.002545 0.000000
# 2 -0.001375 0.009235 -0.003900 0.000000 0.000334 0.000000
# 3 -0.015963 -0.003900 0.030248 0.000000 -0.009837 0.000000
# 4 0.000000 0.000000 0.000000 0.025537 0.000000 0.003059
# 5 -0.002545 0.000334 -0.009837 0.000000 0.023999 0.000000
# 6 0.000000 0.000000 0.000000 0.003059 0.000000 0.026684
#
#
# Mechanical properties :
#
#
# Convention : Reuss Voigt Hill
#
# Bulk Modulus (GPa) = 50.97643 73.92276 62.44959
# Shear Modulus (GPa) = 26.69136 39.29822 32.99479
#
# Velocity S-wave (km/s) = 3.24165 3.93340 3.60416
# Velocity P-wave (km/s) = 5.83784 7.05209 6.47350
#
# Compressibility (1/GPa) = 0.01961691
#
# Stress axis : x y z
#
# Youngs Moduli (GPa) = 44.22879 108.28902 33.06018
#
# Poissons Ratio (x) = 0.14885 0.52775
# Poissons Ratio (y) = 0.06080 0.12893
# Poissons Ratio (z) = 0.70604 0.42230
#
# Static dielectric constant tensor:
#      x y z
#    x 2.161400 0.000000 -0.026030 
#    y 0.000000 1.974950 0.000000 
#    z -0.026030 0.000000 2.140020 
# 
# From -- ./inp_files/3461.got.cif
#   From: 2010.05.17/outbox.cif.g08.bks.cpg/sg4_2_cif.got.tgz:3461.got - 2010.06.03 18:43:04.
