data_PCOD9116256
_publ_section_title
;
Structure prediction by ZEFSAII (Michael W. Deem and Ramdas Pophale) SiO2 
 PCOD9116256
Probable space group: P 21
;
_chemical_formula_sum "Si O2"
_cell_formula_units_Z 16
_cell_length_a 14.335291
_cell_length_b 6.895541
_cell_length_c 12.852549
_cell_angle_alpha 90.000000
_cell_angle_beta 30.349565
_cell_angle_gamma 90.000000
_cell_volume 641.935459
_symmetry_space_group_name_H-M "P 21"
_symmetry_group_IT_number 4
_symmetry_cell_setting 'monoclinic'
loop_
_space_group_symop_operation_xyz
x,y,z
-x,1/2+y,-z
loop_
_atom_site_type_symbol
_atom_site_label
_atom_site_fract_x
_atom_site_fract_y
_atom_site_fract_z
Si Si1 0.071967 0.625000 0.334598
Si Si2 0.296991 0.338882 0.241778
Si Si3 0.182015 0.192214 0.967193
Si Si4 0.321757 0.588003 0.754744
Si Si5 0.397337 0.734282 0.898239
Si Si6 0.476859 0.272773 0.853395
Si Si7 0.725508 0.445298 0.320579
Si Si8 0.128128 0.821863 0.613570
O O1 0.208299 0.541158 0.290598
O O2 0.309898 0.749676 0.381246
O O3 0.008910 0.438504 0.329036
O O4 0.198744 0.765414 0.143113
O O5 0.441746 0.347387 0.197115
O O6 0.117431 0.214888 0.444111
O O7 0.403878 0.240861 0.040820
O O8 0.191633 0.419831 0.923839
O O9 0.351914 0.171203 0.884824
O O10 0.196729 0.075833 0.846492
O O11 0.997227 0.160514 0.210779
O O12 0.376624 0.736932 0.794418
O O13 0.506822 0.483238 0.538032
O O14 0.242009 0.722401 0.742172
O O15 0.443995 0.505873 0.872412
O O16 0.802058 0.468307 0.362858
#
# Coordination Sequence:
#
# PCOD9116256 Si02
#       8
#     2   2   2   2   2   2   2   2
#     4  11  24  42  69  97 138 182 222 293 344 413
#     4  11  23  42  70  99 130 187 228 272 353 419
#     4  11  24  45  65 103 142 181 235 285 349 416
#     4  11  21  45  69  99 142 183 228 293 350 410
#     4  10  21  41  67  97 135 182 223 284 355 405
#     4  10  21  44  69  93 136 186 217 285 348 401
#     4  12  24  41  75 102 135 191 232 285 348 426
#     4  12  22  44  70  96 140 186 227 285 365 406
#
# _framework density 24.924624000000001
#
# number of rings (size 3 to 8) (size 9 to 14) (size 15 to 20)
#    0.000    1.000    8.750    0.000    3.500    0.000 
#    6.750    1.250    0.000    0.000    0.000    0.000 
#    0.000    0.000    0.000    0.000    0.000    0.000 
#
# Total GULP energy -89611.289132 kJ/mol
# GULP energy per Si atom -5600.705571 kJ/mol
# Density = 2.486789 g / cm^3
# Si number density = 24.924624 Si / 1000 Ang^3
#
#
#
# Elastic Constant Matrix: (Units=GPa)
#
#
# Indices 1 2 3 4 5 6 
#
# 1 142.9811 28.6014 46.6806 0.0000 -0.4397 0.0000
# 2 28.6014 47.9437 23.0507 0.0000 1.9141 0.0000
# 3 46.6806 23.0507 208.8593 0.0000 -16.6327 0.0000
# 4 0.0000 0.0000 0.0000 29.7890 0.0000 13.1760
# 5 -0.4397 1.9141 -16.6327 0.0000 38.5391 0.0000
# 6 0.0000 0.0000 0.0000 13.1760 0.0000 33.5670
#
#
#
# Elastic Compliance Matrix: (Units=1/GPa)
#
#
# Indices 1 2 3 4 5 6 
#
# 1 0.008307 -0.004266 -0.001410 0.000000 -0.000302 0.000000
# 2 -0.004266 0.024402 -0.001906 0.000000 -0.002083 0.000000
# 3 -0.001410 -0.001906 0.005509 0.000000 0.002456 0.000000
# 4 0.000000 0.000000 0.000000 0.040622 0.000000 -0.015945
# 5 -0.000302 -0.002083 0.002456 0.000000 0.027108 0.000000
# 6 0.000000 0.000000 0.000000 -0.015945 0.000000 0.036050
#
#
# Mechanical properties :
#
#
# Convention : Reuss Voigt Hill
#
# Bulk Modulus (GPa) = 43.37384 66.27219 54.82302
# Shear Modulus (GPa) = 30.33161 40.47578 35.40369
#
# Velocity S-wave (km/s) = 3.49224 4.03417 3.77295
# Velocity P-wave (km/s) = 5.80524 6.95314 6.40496
#
# Compressibility (1/GPa) = 0.02305537
#
# Stress axis : x y z
#
# Youngs Moduli (GPa) = 120.38719 40.98057 181.52388
#
# Poissons Ratio (x) = 0.17480 0.25591
# Poissons Ratio (y) = 0.51351 0.34592
# Poissons Ratio (z) = 0.16972 0.07809
#
# Static dielectric constant tensor:
#      x y z
#    x 1.946790 0.000000 0.007300 
#    y 0.000000 2.016560 0.000000 
#    z 0.007300 0.000000 1.980050 
# 
# From -- ./inp_files/11852.got.cif
#   From: 2010.05.17/outbox.cif.g08.bks.cpg/sg4_6_cif.got.tgz:11852.got - 2010.06.03 18:43:04.
