data_PCOD9116662
_publ_section_title
;
Structure prediction by ZEFSAII (Michael W. Deem and Ramdas Pophale) SiO2 
 PCOD9116662
Probable space group: P 21
;
_chemical_formula_sum "Si O2"
_cell_formula_units_Z 12
_cell_length_a 17.940233
_cell_length_b 5.095788
_cell_length_c 4.874217
_cell_angle_alpha 90.000000
_cell_angle_beta 96.608946
_cell_angle_gamma 90.000000
_cell_volume 442.637994
_symmetry_space_group_name_H-M "P 21"
_symmetry_group_IT_number 4
_symmetry_cell_setting 'monoclinic'
loop_
_space_group_symop_operation_xyz
x,y,z
-x,1/2+y,-z
loop_
_atom_site_type_symbol
_atom_site_label
_atom_site_fract_x
_atom_site_fract_y
_atom_site_fract_z
Si Si1 0.251697 0.062340 0.330306
Si Si2 0.951032 0.074199 0.000003
Si Si3 0.438592 0.557214 0.193732
Si Si4 0.718354 0.056484 0.041908
Si Si5 0.850214 0.195835 0.467588
Si Si6 0.408595 0.057856 0.565030
O O1 0.260062 0.311453 0.139761
O O2 0.320003 0.063247 0.580254
O O3 0.264723 0.814506 0.132267
O O4 0.174874 0.987006 0.449182
O O5 0.888970 0.056514 0.738271
O O6 0.909411 0.184998 0.248899
O O7 0.010975 0.294321 0.935596
O O8 0.371750 0.553788 0.942816
O O9 0.424076 0.306954 0.379287
O O10 0.527961 0.557626 0.170517
O O11 0.423536 0.806091 0.381343
O O12 0.773424 0.066126 0.323493
#
# Coordination Sequence:
#
# PCOD9116662 Si02
#       6
#     2   2   2   2   2   2
#     4  10  22  39  66 105 144 191 247 299 362 428
#     4  12  30  52  78 110 144 188 236 300 380 460
#     4   8  14  28  53  87 133 185 238 293 349 413
#     4  10  22  39  66 105 144 191 247 299 362 428
#     4  12  26  50  78 110 148 190 242 306 368 452
#     4   8  14  28  53  87 133 185 238 293 349 413
#
# _framework density 27.110189999999999
#
# number of rings (size 3 to 8) (size 9 to 14) (size 15 to 20)
#    0.000    2.000    1.667    1.000    2.333    4.000 
#    0.000    0.000    0.000   20.000    0.000    0.000 
#    0.000    0.000    0.000    0.000    0.000    0.000 
#
# Total GULP energy -67346.071477 kJ/mol
# GULP energy per Si atom -5612.172623 kJ/mol
# Density = 2.704849 g / cm^3
# Si number density = 27.110190 Si / 1000 Ang^3
#
#
#
# Elastic Constant Matrix: (Units=GPa)
#
#
# Indices 1 2 3 4 5 6 
#
# 1 101.0830 22.7973 33.8669 0.0000 25.4870 0.0000
# 2 22.7973 186.0103 36.8065 0.0000 8.0694 0.0000
# 3 33.8669 36.8065 110.1301 0.0000 13.9027 0.0000
# 4 0.0000 0.0000 0.0000 32.8552 0.0000 4.8437
# 5 25.4870 8.0694 13.9027 0.0000 68.8537 0.0000
# 6 0.0000 0.0000 0.0000 4.8437 0.0000 39.1369
#
#
#
# Elastic Compliance Matrix: (Units=1/GPa)
#
#
# Indices 1 2 3 4 5 6 
#
# 1 0.011999 -0.000719 -0.002975 0.000000 -0.003757 0.000000
# 2 -0.000719 0.005806 -0.001711 0.000000 -0.000069 0.000000
# 3 -0.002975 -0.001711 0.010675 0.000000 -0.000854 0.000000
# 4 0.000000 0.000000 0.000000 0.031002 0.000000 -0.003837
# 5 -0.003757 -0.000069 -0.000854 0.000000 0.016094 0.000000
# 6 0.000000 0.000000 0.000000 -0.003837 0.000000 0.026026
#
#
# Mechanical properties :
#
#
# Convention : Reuss Voigt Hill
#
# Bulk Modulus (GPa) = 56.59445 64.90721 60.75083
# Shear Modulus (GPa) = 42.26481 48.41934 45.34208
#
# Velocity S-wave (km/s) = 3.95270 4.23072 4.09407
# Velocity P-wave (km/s) = 6.46164 6.91804 6.69373
#
# Compressibility (1/GPa) = 0.01766958
#
# Stress axis : x y z
#
# Youngs Moduli (GPa) = 83.33991 172.24726 93.68044
#
# Poissons Ratio (x) = 0.12382 0.27874
# Poissons Ratio (y) = 0.05991 0.16024
# Poissons Ratio (z) = 0.24797 0.29463
#
# Static dielectric constant tensor:
#      x y z
#    x 2.148410 0.000000 0.033990 
#    y 0.000000 2.134010 0.000000 
#    z 0.033990 0.000000 2.054460 
# 
# From -- ./inp_files/3911.got.cif
#   From: 2010.05.17/outbox.cif.g08.bks.cpg/sg4_2_cif.got.tgz:3911.got - 2010.06.03 18:43:04.
