data_PCOD9116783
_publ_section_title
;
Structure prediction by ZEFSAII (Michael W. Deem and Ramdas Pophale) SiO2 
 PCOD9116783
Probable space group: P 21
;
_chemical_formula_sum "Si O2"
_cell_formula_units_Z 14
_cell_length_a 6.465318
_cell_length_b 7.555852
_cell_length_c 13.189844
_cell_angle_alpha 90.000000
_cell_angle_beta 101.210146
_cell_angle_gamma 90.000000
_cell_volume 632.043416
_symmetry_space_group_name_H-M "P 21"
_symmetry_group_IT_number 4
_symmetry_cell_setting 'monoclinic'
loop_
_space_group_symop_operation_xyz
x,y,z
-x,1/2+y,-z
loop_
_atom_site_type_symbol
_atom_site_label
_atom_site_fract_x
_atom_site_fract_y
_atom_site_fract_z
Si Si1 0.841167 0.112580 0.545407
Si Si2 0.815942 0.492908 0.306906
Si Si3 0.536541 0.886842 0.880266
Si Si4 0.864617 0.589885 0.858320
Si Si5 0.919833 0.633300 0.638394
Si Si6 0.748448 0.239867 0.973193
Si Si7 0.584510 0.468711 0.489812
O O1 0.966713 0.068749 0.454308
O O2 0.701799 0.286605 0.523451
O O3 0.665056 0.962808 0.534979
O O4 0.002461 0.136508 0.654223
O O5 0.671768 0.459063 0.196998
O O6 0.962077 0.320260 0.336518
O O7 0.654583 0.522100 0.383752
O O8 0.669687 0.731251 0.837660
O O9 0.681386 0.058748 0.911079
O O10 0.447565 0.801502 0.975267
O O11 0.802852 0.406898 0.907369
O O12 0.941971 0.551087 0.751874
O O13 0.050418 0.686960 0.938830
O O14 0.677079 0.598877 0.584678
#
# Coordination Sequence:
#
# PCOD9116783 Si02
#       7
#     2   2   2   2   2   2   2
#     4  10  22  43  66 101 139 180 232 287 343 429
#     4  10  23  42  67  97 138 179 230 288 351 416
#     4  12  26  47  76 107 142 191 234 303 360 426
#     4  12  26  47  77 104 142 192 235 302 360 425
#     4  10  23  42  68  97 136 180 233 283 351 421
#     4  12  26  49  74 109 147 182 246 296 360 427
#     4  10  22  40  68  97 134 184 224 283 347 420
#
# _framework density 22.150376000000001
#
# number of rings (size 3 to 8) (size 9 to 14) (size 15 to 20)
#    0.000    1.143    4.286    0.857    6.000    2.286 
#    7.714    0.000    0.000    0.000    0.000    0.000 
#    0.000    0.000    0.000    0.000    0.000    0.000 
#
# Total GULP energy -78091.077866 kJ/mol
# GULP energy per Si atom -5577.934133 kJ/mol
# Density = 2.209996 g / cm^3
# Si number density = 22.150376 Si / 1000 Ang^3
#
#
#
# Elastic Constant Matrix: (Units=GPa)
#
#
# Indices 1 2 3 4 5 6 
#
# 1 86.1290 30.7373 28.9827 0.0000 24.2824 0.0000
# 2 30.7373 101.7236 36.5053 0.0000 1.5266 0.0000
# 3 28.9827 36.5053 77.1326 0.0000 13.7138 0.0000
# 4 0.0000 0.0000 0.0000 25.9986 0.0000 5.8834
# 5 24.2824 1.5266 13.7138 0.0000 36.4485 0.0000
# 6 0.0000 0.0000 0.0000 5.8834 0.0000 29.6568
#
#
#
# Elastic Compliance Matrix: (Units=1/GPa)
#
#
# Indices 1 2 3 4 5 6 
#
# 1 0.016725 -0.003958 -0.002636 0.000000 -0.009985 0.000000
# 2 -0.003958 0.012881 -0.005339 0.000000 0.004106 0.000000
# 3 -0.002636 -0.005339 0.017286 0.000000 -0.004524 0.000000
# 4 0.000000 0.000000 0.000000 0.040272 0.000000 -0.007989
# 5 -0.009985 0.004106 -0.004524 0.000000 0.035618 0.000000
# 6 0.000000 0.000000 0.000000 -0.007989 0.000000 0.035304
#
#
# Mechanical properties :
#
#
# Convention : Reuss Voigt Hill
#
# Bulk Modulus (GPa) = 43.42856 50.82620 47.12738
# Shear Modulus (GPa) = 26.36742 29.67143 28.01943
#
# Velocity S-wave (km/s) = 3.45394 3.66395 3.56049
# Velocity P-wave (km/s) = 5.96280 6.39493 6.18265
#
# Compressibility (1/GPa) = 0.02302632
#
# Stress axis : x y z
#
# Youngs Moduli (GPa) = 59.79070 77.63411 57.84863
#
# Poissons Ratio (x) = 0.30727 0.15249
# Poissons Ratio (y) = 0.23665 0.30886
# Poissons Ratio (z) = 0.15761 0.41450
#
# Static dielectric constant tensor:
#      x y z
#    x 1.816220 0.000000 0.016960 
#    y 0.000000 1.924840 0.000000 
#    z 0.016960 0.000000 1.819710 
# 
# From -- ./inp_files/3385.got.cif
#   From: 2010.05.17/outbox.cif.g08.bks.cpg/sg4_2_cif.got.tgz:3385.got - 2010.06.03 18:43:04.
