data_PCOD9116236
_publ_section_title
;
Structure prediction by ZEFSAII (Michael W. Deem and Ramdas Pophale) SiO2 
 PCOD9116236
Probable space group: P 21
;
_chemical_formula_sum "Si O2"
_cell_formula_units_Z 16
_cell_length_a 20.582242
_cell_length_b 5.035843
_cell_length_c 10.886849
_cell_angle_alpha 90.000000
_cell_angle_beta 147.646282
_cell_angle_gamma 90.000000
_cell_volume 603.862700
_symmetry_space_group_name_H-M "P 21"
_symmetry_group_IT_number 4
_symmetry_cell_setting 'monoclinic'
loop_
_space_group_symop_operation_xyz
x,y,z
-x,1/2+y,-z
loop_
_atom_site_type_symbol
_atom_site_label
_atom_site_fract_x
_atom_site_fract_y
_atom_site_fract_z
Si Si1 0.886358 0.819390 0.696355
Si Si2 0.378207 0.599713 0.427509
Si Si3 0.440057 0.280915 0.755227
Si Si4 0.652189 0.810810 0.862209
Si Si5 0.882715 0.488099 0.194129
Si Si6 0.398201 0.287021 0.956985
Si Si7 0.838835 0.327364 0.765966
Si Si8 0.027775 0.994901 0.383815
O O1 0.825325 0.623942 0.697131
O O2 0.882205 0.650489 0.563660
O O3 0.845328 0.117433 0.663135
O O4 0.030435 0.806634 0.960874
O O5 0.393184 0.350607 0.545367
O O6 0.512478 0.721514 0.639929
O O7 0.345942 0.534805 0.236852
O O8 0.270720 0.759069 0.320128
O O9 0.363513 0.332678 0.758998
O O10 0.485790 0.981175 0.839740
O O11 0.555674 0.484137 0.954834
O O12 0.747539 0.594286 0.967283
O O13 0.682672 0.867601 0.054430
O O14 0.912509 0.190693 0.204193
O O15 0.915241 0.495340 0.390448
O O16 0.975174 0.699555 0.275921
#
# Coordination Sequence:
#
# PCOD9116236 Si02
#       8
#     2   2   2   2   2   2   2   2
#     4  10  21  41  66  89 120 163 215 272 332 380
#     4  11  24  40  62  95 135 175 216 262 321 394
#     4   9  19  37  58  81 115 163 212 261 303 358
#     4  11  24  41  64  97 137 181 219 261 323 400
#     4  10  23  40  66  99 130 168 218 273 328 390
#     4   9  19  37  58  81 116 162 214 257 303 362
#     4  10  23  39  61  93 123 162 213 269 323 383
#     4  10  21  43  69  95 126 166 219 279 335 385
#
# _framework density 26.496088
#
# number of rings (size 3 to 8) (size 9 to 14) (size 15 to 20)
#    0.000    2.000    0.000    2.250    0.000   10.000 
#    0.000    7.500    0.000    0.000    0.000    0.000 
#    0.000    0.000    0.000    0.000    0.000    0.000 
#
# Total GULP energy -89542.408450 kJ/mol
# GULP energy per Si atom -5596.400528 kJ/mol
# Density = 2.643578 g / cm^3
# Si number density = 26.496088 Si / 1000 Ang^3
#
#
#
# Elastic Constant Matrix: (Units=GPa)
#
#
# Indices 1 2 3 4 5 6 
#
# 1 131.9305 -4.1660 21.8761 0.0000 -4.6373 0.0000
# 2 -4.1660 84.3137 21.7089 0.0000 -1.9668 0.0000
# 3 21.8761 21.7089 66.6670 0.0000 13.9917 0.0000
# 4 0.0000 0.0000 0.0000 31.7937 0.0000 3.6753
# 5 -4.6373 -1.9668 13.9917 0.0000 49.3299 0.0000
# 6 0.0000 0.0000 0.0000 3.6753 0.0000 36.8902
#
#
#
# Elastic Compliance Matrix: (Units=1/GPa)
#
#
# Indices 1 2 3 4 5 6 
#
# 1 0.008275 0.001365 -0.003546 0.000000 0.001838 0.000000
# 2 0.001365 0.013326 -0.005238 0.000000 0.002145 0.000000
# 3 -0.003546 -0.005238 0.019121 0.000000 -0.005965 0.000000
# 4 0.000000 0.000000 0.000000 0.031819 0.000000 -0.003170
# 5 0.001838 0.002145 -0.005965 0.000000 0.022222 0.000000
# 6 0.000000 0.000000 0.000000 -0.003170 0.000000 0.027423
#
#
# Mechanical properties :
#
#
# Convention : Reuss Voigt Hill
#
# Bulk Modulus (GPa) = 38.63123 40.19435 39.41279
# Shear Modulus (GPa) = 34.32822 39.83559 37.08190
#
# Velocity S-wave (km/s) = 3.60334 3.88164 3.74508
# Velocity P-wave (km/s) = 5.65011 5.94074 5.79725
#
# Compressibility (1/GPa) = 0.02588579
#
# Stress axis : x y z
#
# Youngs Moduli (GPa) = 120.84069 75.03848 52.29886
#
# Poissons Ratio (x) = -0.10240 0.18543
# Poissons Ratio (y) = -0.16491 0.27392
# Poissons Ratio (z) = 0.42845 0.39302
#
# Static dielectric constant tensor:
#      x y z
#    x 2.104730 0.000000 -0.006830 
#    y 0.000000 2.008910 0.000000 
#    z -0.006830 0.000000 2.154600 
# 
# From -- ./inp_files/13034.got.cif
#   From: 2010.05.17/outbox.cif.g08.bks.cpg/sg4_7_cif.got.tgz:13034.got - 2010.06.03 18:43:04.
