data_PCOD9116579
_publ_section_title
;
Structure prediction by ZEFSAII (Michael W. Deem and Ramdas Pophale) SiO2 
 PCOD9116579
Probable space group: P 21
;
_chemical_formula_sum "Si O2"
_cell_formula_units_Z 12
_cell_length_a 11.776796
_cell_length_b 5.240484
_cell_length_c 17.708012
_cell_angle_alpha 90.000000
_cell_angle_beta 27.353475
_cell_angle_gamma 90.000000
_cell_volume 502.150334
_symmetry_space_group_name_H-M "P 21"
_symmetry_group_IT_number 4
_symmetry_cell_setting 'monoclinic'
loop_
_space_group_symop_operation_xyz
x,y,z
-x,1/2+y,-z
loop_
_atom_site_type_symbol
_atom_site_label
_atom_site_fract_x
_atom_site_fract_y
_atom_site_fract_z
Si Si1 0.484688 0.254580 0.743691
Si Si2 0.488023 0.761251 0.838375
Si Si3 0.829087 0.361532 0.314591
Si Si4 0.272261 0.359171 0.711559
Si Si5 0.339675 0.850198 0.082813
Si Si6 0.971880 0.708819 0.649192
O O1 0.484859 0.483752 0.803232
O O2 0.304076 0.335962 0.782399
O O3 0.762083 0.220772 0.546386
O O4 0.427709 0.983945 0.815439
O O5 0.761335 0.796358 0.715011
O O6 0.304686 0.778755 0.016996
O O7 0.553355 0.364382 0.512986
O O8 0.840473 0.601211 0.253886
O O9 0.002784 0.357961 0.285823
O O10 0.852994 0.109061 0.249595
O O11 0.113814 0.927561 0.270540
O O12 0.505804 0.616643 0.013399
#
# Coordination Sequence:
#
# PCOD9116579 Si02
#       6
#     2   2   2   2   2   2
#     4  11  22  36  59  86 122 153 191 244 300 361
#     4  11  22  37  56  87 122 153 187 243 308 356
#     4   9  18  32  54  79 111 145 194 245 281 341
#     4   9  18  33  51  80 112 150 187 236 300 338
#     4  10  22  39  58  83 122 164 202 238 291 365
#     4  10  22  37  60  89 115 153 201 246 292 351
#
# _framework density 23.897226
#
# number of rings (size 3 to 8) (size 9 to 14) (size 15 to 20)
#    0.000    2.000    0.000    4.000    0.000   10.667 
#    0.000    0.000    0.000    4.000    0.000    0.000 
#    0.000    0.000    0.000    0.000    0.000    0.000 
#
# Total GULP energy -67129.625423 kJ/mol
# GULP energy per Si atom -5594.135452 kJ/mol
# Density = 2.384283 g / cm^3
# Si number density = 23.897226 Si / 1000 Ang^3
#
#
#
# Elastic Constant Matrix: (Units=GPa)
#
#
# Indices 1 2 3 4 5 6 
#
# 1 99.2273 28.3091 8.1058 0.0000 1.3081 0.0000
# 2 28.3091 145.4461 24.9638 0.0000 5.0336 0.0000
# 3 8.1058 24.9638 59.8315 0.0000 6.8878 0.0000
# 4 0.0000 0.0000 0.0000 28.9397 0.0000 13.3920
# 5 1.3081 5.0336 6.8878 0.0000 33.5118 0.0000
# 6 0.0000 0.0000 0.0000 13.3920 0.0000 46.6335
#
#
#
# Elastic Compliance Matrix: (Units=1/GPa)
#
#
# Indices 1 2 3 4 5 6 
#
# 1 0.010692 -0.001974 -0.000626 0.000000 0.000008 0.000000
# 2 -0.001974 0.007778 -0.002921 0.000000 -0.000491 0.000000
# 3 -0.000626 -0.002921 0.018399 0.000000 -0.003318 0.000000
# 4 0.000000 0.000000 0.000000 0.039850 0.000000 -0.011444
# 5 0.000008 -0.000491 -0.003318 0.000000 0.030596 0.000000
# 6 0.000000 0.000000 0.000000 -0.011444 0.000000 0.024730
#
#
# Mechanical properties :
#
#
# Convention : Reuss Voigt Hill
#
# Bulk Modulus (GPa) = 38.71891 47.47358 43.09624
# Shear Modulus (GPa) = 32.96045 38.02540 35.49293
#
# Velocity S-wave (km/s) = 3.71787 3.99332 3.85805
# Velocity P-wave (km/s) = 5.88791 6.41646 6.15786
#
# Compressibility (1/GPa) = 0.02582718
#
# Stress axis : x y z
#
# Youngs Moduli (GPa) = 93.52750 128.56798 54.34989
#
# Poissons Ratio (x) = 0.25378 0.03401
# Poissons Ratio (y) = 0.18461 0.15877
# Poissons Ratio (z) = 0.05853 0.37559
#
# Static dielectric constant tensor:
#      x y z
#    x 1.916350 0.000000 -0.034120 
#    y 0.000000 1.897450 0.000000 
#    z -0.034120 0.000000 1.943510 
# 
# From -- ./inp_files/15016.got.cif
#   From: 2010.05.17/outbox.cif.g08.bks.cpg/sg4_8_cif.got.tgz:15016.got - 2010.06.03 18:43:04.
