data_PCOD9116097
_publ_section_title
;
Structure prediction by ZEFSAII (Michael W. Deem and Ramdas Pophale) SiO2 
 PCOD9116097
Probable space group: P 21
;
_chemical_formula_sum "Si O2"
_cell_formula_units_Z 14
_cell_length_a 5.064478
_cell_length_b 10.313179
_cell_length_c 9.611653
_cell_angle_alpha 90.000000
_cell_angle_beta 87.699862
_cell_angle_gamma 90.000000
_cell_volume 501.620498
_symmetry_space_group_name_H-M "P 21"
_symmetry_group_IT_number 4
_symmetry_cell_setting 'monoclinic'
loop_
_space_group_symop_operation_xyz
x,y,z
-x,1/2+y,-z
loop_
_atom_site_type_symbol
_atom_site_label
_atom_site_fract_x
_atom_site_fract_y
_atom_site_fract_z
Si Si1 0.854916 0.451660 0.133910
Si Si2 0.600419 0.892074 0.488939
Si Si3 0.874023 0.182891 0.156540
Si Si4 0.095832 0.026130 0.393324
Si Si5 0.712179 0.149122 0.607824
Si Si6 0.927428 0.725407 0.160417
Si Si7 0.619062 0.955720 0.056803
O O1 0.832154 0.322755 0.226218
O O2 0.785805 0.589762 0.200128
O O3 0.655365 0.427354 0.010264
O O4 0.152686 0.462220 0.067567
O O5 0.894831 0.906181 0.422237
O O6 0.628537 0.994295 0.620054
O O7 0.387947 0.977534 0.408512
O O8 0.483946 0.747077 0.472380
O O9 0.049958 0.091085 0.246611
O O10 0.002303 0.209902 0.004404
O O11 0.619887 0.096791 0.127390
O O12 0.028525 0.628004 0.495191
O O13 0.813744 0.216223 0.747931
O O14 0.728231 0.845816 0.158013
#
# Coordination Sequence:
#
# PCOD9116097 Si02
#       7
#     2   2   2   2   2   2   2
#     4  10  22  39  60  96 131 169 219 278 339 404
#     4  10  25  46  74 100 141 191 237 292 356 425
#     4  10  22  42  67  97 135 179 225 283 352 414
#     4  10  25  43  71  98 141 183 234 290 357 422
#     4  10  25  48  73 103 144 189 244 294 354 425
#     4  10  22  44  70 105 134 185 235 295 343 423
#     4  10  21  40  61  93 132 172 216 276 343 407
#
# _framework density 27.909545999999999
#
# number of rings (size 3 to 8) (size 9 to 14) (size 15 to 20)
#    0.857    1.143    0.000    1.714    2.000    9.143 
#   15.429    0.000    0.000    0.000    0.000    0.000 
#    0.000    0.000    0.000    0.000    0.000    0.000 
#
# Total GULP energy -78230.812575 kJ/mol
# GULP energy per Si atom -5587.915184 kJ/mol
# Density = 2.784602 g / cm^3
# Si number density = 27.909546 Si / 1000 Ang^3
#
#
#
# Elastic Constant Matrix: (Units=GPa)
#
#
# Indices 1 2 3 4 5 6 
#
# 1 99.2209 15.7746 22.7448 0.0000 8.3580 0.0000
# 2 15.7746 199.0034 -2.2373 0.0000 9.6357 0.0000
# 3 22.7448 -2.2373 80.0276 0.0000 9.7109 0.0000
# 4 0.0000 0.0000 0.0000 36.2159 0.0000 12.5762
# 5 8.3580 9.6357 9.7109 0.0000 34.6955 0.0000
# 6 0.0000 0.0000 0.0000 12.5762 0.0000 40.1961
#
#
#
# Elastic Compliance Matrix: (Units=1/GPa)
#
#
# Indices 1 2 3 4 5 6 
#
# 1 0.011024 -0.000830 -0.002963 0.000000 -0.001596 0.000000
# 2 -0.000830 0.005164 0.000549 0.000000 -0.001388 0.000000
# 3 -0.002963 0.000549 0.013752 0.000000 -0.003288 0.000000
# 4 0.000000 0.000000 0.000000 0.030978 0.000000 -0.009692
# 5 -0.001596 -0.001388 -0.003288 0.000000 0.030512 0.000000
# 6 0.000000 0.000000 0.000000 -0.009692 0.000000 0.027910
#
#
# Mechanical properties :
#
#
# Convention : Reuss Voigt Hill
#
# Bulk Modulus (GPa) = 42.63966 50.09068 46.36517
# Shear Modulus (GPa) = 37.41226 45.01950 41.21588
#
# Velocity S-wave (km/s) = 3.66523 4.02064 3.84704
# Velocity P-wave (km/s) = 5.76393 6.28812 6.03172
#
# Compressibility (1/GPa) = 0.02345234
#
# Stress axis : x y z
#
# Youngs Moduli (GPa) = 90.71080 193.64118 72.71668
#
# Poissons Ratio (x) = 0.16070 0.21544
# Poissons Ratio (y) = 0.07528 -0.03990
# Poissons Ratio (z) = 0.26875 -0.10624
#
# Static dielectric constant tensor:
#      x y z
#    x 2.113250 0.000000 -0.058730 
#    y 0.000000 2.375340 0.000000 
#    z -0.058730 0.000000 2.234420 
# 
# From -- ./inp_files/10422.got.cif
#   From: 2010.05.17/outbox.cif.g08.bks.cpg/sg4_6_cif.got.tgz:10422.got - 2010.06.03 18:43:04.
