data_PCOD9116546
_publ_section_title
;
Structure prediction by ZEFSAII (Michael W. Deem and Ramdas Pophale) SiO2 
 PCOD9116546
Probable space group: P 21
;
_chemical_formula_sum "Si O2"
_cell_formula_units_Z 14
_cell_length_a 9.497635
_cell_length_b 8.720995
_cell_length_c 9.996777
_cell_angle_alpha 90.000000
_cell_angle_beta 126.545642
_cell_angle_gamma 90.000000
_cell_volume 665.218057
_symmetry_space_group_name_H-M "P 21"
_symmetry_group_IT_number 4
_symmetry_cell_setting 'monoclinic'
loop_
_space_group_symop_operation_xyz
x,y,z
-x,1/2+y,-z
loop_
_atom_site_type_symbol
_atom_site_label
_atom_site_fract_x
_atom_site_fract_y
_atom_site_fract_z
Si Si1 0.084190 0.446010 0.770217
Si Si2 0.163481 0.460635 0.106312
Si Si3 0.311244 0.697595 0.016348
Si Si4 0.707887 0.682525 0.221512
Si Si5 0.320707 0.992984 0.521721
Si Si6 0.403486 0.222580 0.336005
Si Si7 0.204006 0.037001 0.003742
O O1 0.183797 0.609904 0.839832
O O2 0.177061 0.337224 0.714929
O O3 0.878208 0.459495 0.637235
O O4 0.121316 0.378401 0.940460
O O5 0.239630 0.341869 0.254764
O O6 0.992125 0.552139 0.051003
O O7 0.311130 0.580197 0.141858
O O8 0.237358 0.855679 0.026252
O O9 0.506101 0.722121 0.073891
O O10 0.703255 0.584012 0.353090
O O11 0.781487 0.583355 0.141618
O O12 0.430073 0.833870 0.589942
O O13 0.407979 0.107232 0.462344
O O14 0.348769 0.122511 0.175723
#
# Coordination Sequence:
#
# PCOD9116546 Si02
#       7
#     2   2   2   2   2   2   2
#     4  10  23  47  71 103 153 182 248 311 365 442
#     4  10  21  47  74 102 138 193 265 287 352 454
#     4  10  23  43  73 108 139 186 256 299 358 449
#     4  12  26  46  72 108 147 188 246 306 379 429
#     4  12  28  48  67 118 153 196 239 318 383 436
#     4  12  26  48  73 104 155 196 252 298 371 452
#     4  12  23  41  80 103 135 201 242 307 352 448
#
# _framework density 21.045729999999999
#
# number of rings (size 3 to 8) (size 9 to 14) (size 15 to 20)
#    0.857    0.000    4.286    2.571    4.000    3.429 
#    2.571    0.000    0.000    0.000    0.000    0.000 
#    0.000    0.000    0.000    0.000    0.000    0.000 
#
# Total GULP energy -78123.871186 kJ/mol
# GULP energy per Si atom -5580.276513 kJ/mol
# Density = 2.099783 g / cm^3
# Si number density = 21.045730 Si / 1000 Ang^3
#
#
#
# Elastic Constant Matrix: (Units=GPa)
#
#
# Indices 1 2 3 4 5 6 
#
# 1 96.3348 34.3393 29.3287 0.0000 9.3202 0.0000
# 2 34.3393 124.1422 41.8116 0.0000 4.5430 0.0000
# 3 29.3287 41.8116 90.1278 0.0000 2.0425 0.0000
# 4 0.0000 0.0000 0.0000 31.0074 0.0000 1.0643
# 5 9.3202 4.5430 2.0425 0.0000 42.3526 0.0000
# 6 0.0000 0.0000 0.0000 1.0643 0.0000 48.4980
#
#
#
# Elastic Compliance Matrix: (Units=1/GPa)
#
#
# Indices 1 2 3 4 5 6 
#
# 1 0.012317 -0.002358 -0.002861 0.000000 -0.002319 0.000000
# 2 -0.002358 0.010026 -0.003876 0.000000 -0.000370 0.000000
# 3 -0.002861 -0.003876 0.013816 0.000000 0.000379 0.000000
# 4 0.000000 0.000000 0.000000 0.032275 0.000000 -0.000708
# 5 -0.002319 -0.000370 0.000379 0.000000 0.024143 0.000000
# 6 0.000000 0.000000 0.000000 -0.000708 0.000000 0.020635
#
#
# Mechanical properties :
#
#
# Convention : Reuss Voigt Hill
#
# Bulk Modulus (GPa) = 55.65347 57.95156 56.80252
# Shear Modulus (GPa) = 36.39228 38.04661 37.21945
#
# Velocity S-wave (km/s) = 4.16288 4.25644 4.20992
# Velocity P-wave (km/s) = 7.04326 7.19390 7.11898
#
# Compressibility (1/GPa) = 0.01796833
#
# Stress axis : x y z
#
# Youngs Moduli (GPa) = 81.19093 99.73597 72.38069
#
# Poissons Ratio (x) = 0.23521 0.20711
# Poissons Ratio (y) = 0.19148 0.28052
# Poissons Ratio (z) = 0.23232 0.38654
#
# Static dielectric constant tensor:
#      x y z
#    x 1.786760 0.000000 0.030080 
#    y 0.000000 1.804090 0.000000 
#    z 0.030080 0.000000 1.773830 
# 
# From -- ./inp_files/5294.got.cif
#   From: 2010.05.17/outbox.cif.g08.bks.cpg/sg4_3_cif.got.tgz:5294.got - 2010.06.03 18:43:04.
