data_PCOD9116886
_publ_section_title
;
Structure prediction by ZEFSAII (Michael W. Deem and Ramdas Pophale) SiO2 
 PCOD9116886
Probable space group: P 21
;
_chemical_formula_sum "Si O2"
_cell_formula_units_Z 16
_cell_length_a 5.114048
_cell_length_b 15.915192
_cell_length_c 8.404042
_cell_angle_alpha 90.000000
_cell_angle_beta 61.516853
_cell_angle_gamma 90.000000
_cell_volume 601.219054
_symmetry_space_group_name_H-M "P 21"
_symmetry_group_IT_number 4
_symmetry_cell_setting 'monoclinic'
loop_
_space_group_symop_operation_xyz
x,y,z
-x,1/2+y,-z
loop_
_atom_site_type_symbol
_atom_site_label
_atom_site_fract_x
_atom_site_fract_y
_atom_site_fract_z
Si Si1 0.068035 0.621850 0.720979
Si Si2 0.498116 0.454628 0.162627
Si Si3 0.728725 0.227900 0.790977
Si Si4 0.907853 0.812778 0.790471
Si Si5 0.615606 0.698913 0.430169
Si Si6 0.971441 0.875356 0.120248
Si Si7 0.500229 0.385245 0.485249
Si Si8 0.421003 0.590319 0.930451
O O1 0.393448 0.625264 0.544798
O O2 0.976390 0.719193 0.720232
O O3 0.759951 0.574877 0.767379
O O4 0.171170 0.602464 0.870459
O O5 0.395575 0.360076 0.153082
O O6 0.840380 0.450786 0.009508
O O7 0.439834 0.454712 0.367260
O O8 0.355119 0.521452 0.085943
O O9 0.037811 0.177675 0.669298
O O10 0.847354 0.319950 0.803610
O O11 0.510032 0.225284 0.705860
O O12 0.570932 0.178965 0.978838
O O13 0.933405 0.818387 0.974467
O O14 0.145471 0.871978 0.626992
O O15 0.595277 0.788077 0.531169
O O16 0.675893 0.904370 0.300795
#
# Coordination Sequence:
#
# PCOD9116886 Si02
#       8
#     2   2   2   2   2   2   2   2
#     4  11  24  44  70  97 132 179 228 284 336 407
#     4  11  26  43  65  98 143 181 224 280 349 413
#     4  11  22  42  68 101 130 172 227 287 336 398
#     4  10  22  41  71  97 129 175 229 286 331 403
#     4  10  23  41  71 100 128 165 232 286 333 397
#     4  10  22  41  67  99 128 175 229 280 330 406
#     4   9  23  40  66 100 127 170 224 287 332 400
#     4  12  26  44  66  98 141 183 221 278 353 410
#
# _framework density 26.612596
#
# number of rings (size 3 to 8) (size 9 to 14) (size 15 to 20)
#    0.000    1.500    1.250    2.250   19.250    0.000 
#    4.500    0.000    0.000    0.000    0.000    0.000 
#    0.000    0.000    0.000    0.000    0.000    0.000 
#
# Total GULP energy -89371.607214 kJ/mol
# GULP energy per Si atom -5585.725451 kJ/mol
# Density = 2.655203 g / cm^3
# Si number density = 26.612596 Si / 1000 Ang^3
#
#
#
# Elastic Constant Matrix: (Units=GPa)
#
#
# Indices 1 2 3 4 5 6 
#
# 1 97.1362 16.3749 27.0930 0.0000 -7.5590 0.0000
# 2 16.3749 56.6212 12.4780 0.0000 7.3142 0.0000
# 3 27.0930 12.4780 111.1767 0.0000 -29.2107 0.0000
# 4 0.0000 0.0000 0.0000 20.8399 0.0000 7.1780
# 5 -7.5590 7.3142 -29.2107 0.0000 47.3049 0.0000
# 6 0.0000 0.0000 0.0000 7.1780 0.0000 33.7047
#
#
#
# Elastic Compliance Matrix: (Units=1/GPa)
#
#
# Indices 1 2 3 4 5 6 
#
# 1 0.011484 -0.002949 -0.002227 0.000000 0.000916 0.000000
# 2 -0.002949 0.019845 -0.002911 0.000000 -0.005337 0.000000
# 3 -0.002227 -0.002911 0.011804 0.000000 0.007383 0.000000
# 4 0.000000 0.000000 0.000000 0.051783 0.000000 -0.011028
# 5 0.000916 -0.005337 0.007383 0.000000 0.026670 0.000000
# 6 0.000000 0.000000 0.000000 -0.011028 0.000000 0.032018
#
#
# Mechanical properties :
#
#
# Convention : Reuss Voigt Hill
#
# Bulk Modulus (GPa) = 37.09255 41.86955 39.48105
# Shear Modulus (GPa) = 27.96964 34.30244 31.13604
#
# Velocity S-wave (km/s) = 3.24542 3.59410 3.42420
# Velocity P-wave (km/s) = 5.29263 5.74374 5.52279
#
# Compressibility (1/GPa) = 0.02695959
#
# Stress axis : x y z
#
# Youngs Moduli (GPa) = 87.07490 50.39062 84.71709
#
# Poissons Ratio (x) = 0.14859 0.18867
# Poissons Ratio (y) = 0.25677 0.24661
# Poissons Ratio (z) = 0.19392 0.14669
#
# Static dielectric constant tensor:
#      x y z
#    x 2.076980 0.000000 -0.048260 
#    y 0.000000 2.092010 0.000000 
#    z -0.048260 0.000000 2.226130 
# 
# From -- ./inp_files/4923.got.cif
#   From: 2010.05.17/outbox.cif.g08.bks.cpg/sg4_3_cif.got.tgz:4923.got - 2010.06.03 18:43:04.
