data_PCOD9116543
_publ_section_title
;
Structure prediction by ZEFSAII (Michael W. Deem and Ramdas Pophale) SiO2 
 PCOD9116543
Probable space group: P 21
;
_chemical_formula_sum "Si O2"
_cell_formula_units_Z 16
_cell_length_a 13.139128
_cell_length_b 8.735886
_cell_length_c 18.779223
_cell_angle_alpha 90.000000
_cell_angle_beta 18.088029
_cell_angle_gamma 90.000000
_cell_volume 669.239726
_symmetry_space_group_name_H-M "P 21"
_symmetry_group_IT_number 4
_symmetry_cell_setting 'monoclinic'
loop_
_space_group_symop_operation_xyz
x,y,z
-x,1/2+y,-z
loop_
_atom_site_type_symbol
_atom_site_label
_atom_site_fract_x
_atom_site_fract_y
_atom_site_fract_z
Si Si1 0.893029 0.761660 0.255339
Si Si2 0.840155 0.594146 0.931504
Si Si3 0.288948 0.117625 0.382244
Si Si4 0.593755 0.181676 0.536864
Si Si5 0.592834 0.650126 0.847745
Si Si6 0.481037 0.855717 0.663140
Si Si7 0.350566 0.476944 0.135948
Si Si8 0.721804 0.838613 0.129278
O O1 0.712496 0.669721 0.313497
O O2 0.649905 0.768148 0.484654
O O3 0.960176 0.937101 0.184697
O O4 0.235148 0.693136 0.053916
O O5 0.088093 0.703024 0.722717
O O6 0.564634 0.537732 0.060021
O O7 0.719885 0.691416 0.078469
O O8 0.567667 0.987646 0.196377
O O9 0.988397 0.066646 0.631411
O O10 0.182584 0.131490 0.370797
O O11 0.432372 0.271969 0.321092
O O12 0.503831 0.310418 0.652170
O O13 0.625728 0.025104 0.559602
O O14 0.704635 0.797354 0.817762
O O15 0.542636 0.511924 0.935446
O O16 0.093269 0.859574 0.908421
#
# Coordination Sequence:
#
# PCOD9116543 Si02
#       8
#     2   2   2   2   2   2   2   2
#     4  10  21  47  72 102 147 192 232 300 358 425
#     4  10  26  45  69 104 144 188 243 298 352 426
#     4  12  29  46  75 108 149 190 237 303 363 432
#     4  11  25  42  75 104 144 192 234 291 366 429
#     4  11  26  49  75 100 144 189 247 298 357 424
#     4  11  23  46  70 108 148 185 234 298 365 426
#     4  11  28  49  73 103 140 198 243 299 356 427
#     4  12  26  42  71 109 142 186 242 291 359 439
#
# _framework density 23.907727999999999
#
# number of rings (size 3 to 8) (size 9 to 14) (size 15 to 20)
#    0.000    1.000    2.500    2.250   12.250    0.000 
#    0.000    0.000    0.000    0.000    0.000    0.000 
#    0.000    0.000    0.000    0.000    0.000    0.000 
#
# Total GULP energy -89644.999042 kJ/mol
# GULP energy per Si atom -5602.812440 kJ/mol
# Density = 2.385331 g / cm^3
# Si number density = 23.907728 Si / 1000 Ang^3
#
#
#
# Elastic Constant Matrix: (Units=GPa)
#
#
# Indices 1 2 3 4 5 6 
#
# 1 81.1891 20.8767 8.1106 0.0000 22.0063 0.0000
# 2 20.8767 28.9557 2.1672 0.0000 10.2345 0.0000
# 3 8.1106 2.1672 60.0785 0.0000 1.2744 0.0000
# 4 0.0000 0.0000 0.0000 27.6889 0.0000 3.2230
# 5 22.0063 10.2345 1.2744 0.0000 38.7061 0.0000
# 6 0.0000 0.0000 0.0000 3.2230 0.0000 44.8084
#
#
#
# Elastic Compliance Matrix: (Units=1/GPa)
#
#
# Indices 1 2 3 4 5 6 
#
# 1 0.016844 -0.009538 -0.001781 0.000000 -0.006996 0.000000
# 2 -0.009538 0.043578 -0.000155 0.000000 -0.006095 0.000000
# 3 -0.001781 -0.000155 0.016880 0.000000 0.000498 0.000000
# 4 0.000000 0.000000 0.000000 0.036420 0.000000 -0.002620
# 5 -0.006996 -0.006095 0.000498 0.000000 0.031408 0.000000
# 6 0.000000 0.000000 0.000000 -0.002620 0.000000 0.022506
#
#
# Mechanical properties :
#
#
# Convention : Reuss Voigt Hill
#
# Bulk Modulus (GPa) = 18.39821 25.83692 22.11756
# Shear Modulus (GPa) = 23.95743 31.51194 27.73469
#
# Velocity S-wave (km/s) = 3.16900 3.63446 3.40968
# Velocity P-wave (km/s) = 4.59372 5.33317 4.97720
#
# Compressibility (1/GPa) = 0.05435312
#
# Stress axis : x y z
#
# Youngs Moduli (GPa) = 59.36944 22.94729 59.24026
#
# Poissons Ratio (x) = 0.21887 0.10553
# Poissons Ratio (y) = 0.56627 0.00918
# Poissons Ratio (z) = 0.10576 0.00356
#
# Static dielectric constant tensor:
#      x y z
#    x 1.913520 0.000000 0.009110 
#    y 0.000000 1.892370 0.000000 
#    z 0.009110 0.000000 1.899830 
# 
# From -- ./inp_files/12584.got.cif
#   From: 2010.05.17/outbox.cif.g08.bks.cpg/sg4_7_cif.got.tgz:12584.got - 2010.06.03 18:43:04.
