data_PCOD9116458
_publ_section_title
;
Structure prediction by ZEFSAII (Michael W. Deem and Ramdas Pophale) SiO2 
 PCOD9116458
Probable space group: P 21
;
_chemical_formula_sum "Si O2"
_cell_formula_units_Z 16
_cell_length_a 18.751871
_cell_length_b 7.756190
_cell_length_c 14.771620
_cell_angle_alpha 90.000000
_cell_angle_beta 19.276767
_cell_angle_gamma 90.000000
_cell_volume 709.264708
_symmetry_space_group_name_H-M "P 21"
_symmetry_group_IT_number 4
_symmetry_cell_setting 'monoclinic'
loop_
_space_group_symop_operation_xyz
x,y,z
-x,1/2+y,-z
loop_
_atom_site_type_symbol
_atom_site_label
_atom_site_fract_x
_atom_site_fract_y
_atom_site_fract_z
Si Si1 0.441803 0.000000 0.562534
Si Si2 0.718311 0.582907 0.892940
Si Si3 0.829048 0.161531 0.145617
Si Si4 0.012167 0.741067 0.397205
Si Si5 0.673403 0.679959 0.487090
Si Si6 0.600049 0.035431 0.027623
Si Si7 0.455261 0.576247 0.371615
Si Si8 0.449378 0.340257 0.091030
O O1 0.703871 0.993443 0.256971
O O2 0.395449 0.101692 0.526827
O O3 0.400750 0.086999 0.709571
O O4 0.306232 0.826877 0.723756
O O5 0.900461 0.698471 0.627628
O O6 0.849150 0.414958 0.772295
O O7 0.583297 0.661947 0.137128
O O8 0.546165 0.505859 0.027283
O O9 0.775326 0.150032 0.317668
O O10 0.069431 0.178216 0.826166
O O11 0.798805 0.780422 0.592345
O O12 0.171773 0.576545 0.194254
O O13 0.579061 0.568550 0.682094
O O14 0.585009 0.875082 0.602869
O O15 0.594677 0.191975 0.960720
O O16 0.546546 0.882221 0.021225
#
# Coordination Sequence:
#
# PCOD9116458 Si02
#       8
#     2   2   2   2   2   2   2   2
#     4  10  22  44  63  94 136 157 229 267 326 397
#     4  11  23  42  66  96 129 173 215 267 331 388
#     4  10  23  41  67  94 133 167 215 283 310 396
#     4  11  22  41  65  94 133 163 219 270 312 391
#     4  12  22  43  69  94 131 174 217 267 337 388
#     4  11  25  41  66  97 128 175 218 266 326 398
#     4  10  21  44  64  95 130 171 215 264 331 390
#     4  11  22  42  62  94 132 164 220 268 315 392
#
# _framework density 22.558575000000001
#
# number of rings (size 3 to 8) (size 9 to 14) (size 15 to 20)
#    0.750    0.500    6.250    0.750    0.000    3.000 
#    2.250    1.250    0.000    0.000    0.000    0.000 
#    0.000    0.000    0.000    0.000    0.000    0.000 
#
# Total GULP energy -89074.231829 kJ/mol
# GULP energy per Si atom -5567.139489 kJ/mol
# Density = 2.250723 g / cm^3
# Si number density = 22.558575 Si / 1000 Ang^3
#
#
#
# Elastic Constant Matrix: (Units=GPa)
#
#
# Indices 1 2 3 4 5 6 
#
# 1 84.9640 7.0174 43.6112 0.0000 10.3402 0.0000
# 2 7.0174 32.5710 14.4035 0.0000 7.5796 0.0000
# 3 43.6112 14.4035 151.6921 0.0000 13.8380 0.0000
# 4 0.0000 0.0000 0.0000 26.2723 0.0000 5.2745
# 5 10.3402 7.5796 13.8380 0.0000 40.0342 0.0000
# 6 0.0000 0.0000 0.0000 5.2745 0.0000 28.2999
#
#
#
# Elastic Compliance Matrix: (Units=1/GPa)
#
#
# Indices 1 2 3 4 5 6 
#
# 1 0.014031 -0.000859 -0.003755 0.000000 -0.002163 0.000000
# 2 -0.000859 0.033175 -0.002427 0.000000 -0.005220 0.000000
# 3 -0.003755 -0.002427 0.008025 0.000000 -0.001345 0.000000
# 4 0.000000 0.000000 0.000000 0.039543 0.000000 -0.007370
# 5 -0.002163 -0.005220 -0.001345 0.000000 0.026990 0.000000
# 6 0.000000 0.000000 0.000000 -0.007370 0.000000 0.036709
#
#
# Mechanical properties :
#
#
# Convention : Reuss Voigt Hill
#
# Bulk Modulus (GPa) = 24.30157 44.36569 34.33363
# Shear Modulus (GPa) = 26.84240 32.53429 29.68835
#
# Velocity S-wave (km/s) = 3.45323 3.80177 3.63168
# Velocity P-wave (km/s) = 5.16680 6.24346 5.73047
#
# Compressibility (1/GPa) = 0.04114961
#
# Stress axis : x y z
#
# Youngs Moduli (GPa) = 71.26886 30.14299 124.61119
#
# Poissons Ratio (x) = 0.02589 0.46792
# Poissons Ratio (y) = 0.06122 0.30241
# Poissons Ratio (z) = 0.26762 0.07315
#
# Static dielectric constant tensor:
#      x y z
#    x 1.873050 0.000000 -0.017310 
#    y 0.000000 2.031920 0.000000 
#    z -0.017310 0.000000 1.836780 
# 
# From -- ./inp_files/14322.got.cif
#   From: 2010.05.17/outbox.cif.g08.bks.cpg/sg4_8_cif.got.tgz:14322.got - 2010.06.03 18:43:04.
