data_PCOD9116070
_publ_section_title
;
Structure prediction by ZEFSAII (Michael W. Deem and Ramdas Pophale) SiO2 
 PCOD9116070
Probable space group: P 21
;
_chemical_formula_sum "Si O2"
_cell_formula_units_Z 16
_cell_length_a 8.263380
_cell_length_b 8.534203
_cell_length_c 8.704007
_cell_angle_alpha 90.000000
_cell_angle_beta 85.141335
_cell_angle_gamma 90.000000
_cell_volume 611.612773
_symmetry_space_group_name_H-M "P 21"
_symmetry_group_IT_number 4
_symmetry_cell_setting 'monoclinic'
loop_
_space_group_symop_operation_xyz
x,y,z
-x,1/2+y,-z
loop_
_atom_site_type_symbol
_atom_site_label
_atom_site_fract_x
_atom_site_fract_y
_atom_site_fract_z
Si Si1 0.216935 0.698470 0.240196
Si Si2 0.135698 0.744451 0.806075
Si Si3 0.992064 0.430948 0.937561
Si Si4 0.978410 0.925607 0.575622
Si Si5 0.661647 0.775967 0.122189
Si Si6 0.565193 0.110931 0.070468
Si Si7 0.656278 0.459236 0.556863
Si Si8 0.343063 0.286165 0.523905
O O1 0.108582 0.560472 0.317787
O O2 0.324694 0.627781 0.093833
O O3 0.320001 0.794212 0.355395
O O4 0.110116 0.839401 0.180039
O O5 0.038984 0.606489 0.897944
O O6 0.040611 0.767946 0.657108
O O7 0.323963 0.699796 0.811287
O O8 0.107394 0.906149 0.898752
O O9 0.162357 0.341799 0.930018
O O10 0.832132 0.871348 0.476888
O O11 0.157136 0.982422 0.514749
O O12 0.602718 0.671705 0.984900
O O13 0.656315 0.720191 0.299306
O O14 0.549885 0.933007 0.124811
O O15 0.486796 0.412769 0.486426
O O16 0.629340 0.643317 0.597768
#
# Coordination Sequence:
#
# PCOD9116070 Si02
#       8
#     2   2   2   2   2   2   2   2
#     4  11  23  47  70 104 146 186 251 303 363 448
#     4  10  22  42  64 105 135 191 245 300 369 438
#     4  10  21  39  69  95 140 184 246 308 367 434
#     4  12  25  46  74 108 147 198 241 302 373 443
#     4  11  23  45  67 104 139 188 238 305 371 428
#     4  10  24  43  69  99 145 186 245 309 365 434
#     4  12  26  48  72 106 148 198 241 299 366 440
#     4  12  28  46  73 109 146 195 245 302 366 449
#
# _framework density 26.160340000000001
#
# number of rings (size 3 to 8) (size 9 to 14) (size 15 to 20)
#    0.000    1.000    1.250    6.000    0.000    9.000 
#    6.750    0.000    0.000    0.000    0.000    0.000 
#    0.000    0.000    0.000    0.000    0.000    0.000 
#
# Total GULP energy -89363.451816 kJ/mol
# GULP energy per Si atom -5585.215739 kJ/mol
# Density = 2.610080 g / cm^3
# Si number density = 26.160340 Si / 1000 Ang^3
#
#
#
# Elastic Constant Matrix: (Units=GPa)
#
#
# Indices 1 2 3 4 5 6 
#
# 1 123.2494 26.8739 29.4324 0.0000 4.3044 0.0000
# 2 26.8739 68.5997 23.8566 0.0000 -2.5098 0.0000
# 3 29.4324 23.8566 37.6693 0.0000 17.6396 0.0000
# 4 0.0000 0.0000 0.0000 44.8769 0.0000 8.3385
# 5 4.3044 -2.5098 17.6396 0.0000 43.7022 0.0000
# 6 0.0000 0.0000 0.0000 8.3385 0.0000 46.8290
#
#
#
# Elastic Compliance Matrix: (Units=1/GPa)
#
#
# Indices 1 2 3 4 5 6 
#
# 1 0.010279 -0.000976 -0.008525 0.000000 0.002372 0.000000
# 2 -0.000976 0.020835 -0.016077 0.000000 0.007782 0.000000
# 3 -0.008525 -0.016077 0.053550 0.000000 -0.021698 0.000000
# 4 0.000000 0.000000 0.000000 0.023046 0.000000 -0.004104
# 5 0.002372 0.007782 -0.021698 0.000000 0.031853 0.000000
# 6 0.000000 0.000000 0.000000 -0.004104 0.000000 0.022085
#
#
# Mechanical properties :
#
#
# Convention : Reuss Voigt Hill
#
# Bulk Modulus (GPa) = 29.84193 43.31602 36.57898
# Shear Modulus (GPa) = 22.32409 37.03864 29.68137
#
# Velocity S-wave (km/s) = 2.92440 3.76684 3.37203
# Velocity P-wave (km/s) = 4.77858 5.95924 5.40127
#
# Compressibility (1/GPa) = 0.03350989
#
# Stress axis : x y z
#
# Youngs Moduli (GPa) = 97.28389 47.99548 18.67412
#
# Poissons Ratio (x) = 0.04682 0.15919
# Poissons Ratio (y) = 0.09490 0.30023
# Poissons Ratio (z) = 0.82931 0.77163
#
# Static dielectric constant tensor:
#      x y z
#    x 2.030720 0.000000 -0.014160 
#    y 0.000000 2.010440 0.000000 
#    z -0.014160 0.000000 2.275530 
# 
# From -- ./inp_files/5734.got.cif
#   From: 2010.05.17/outbox.cif.g08.bks.cpg/sg4_3_cif.got.tgz:5734.got - 2010.06.03 18:43:04.
