data_PCOD9116554
_publ_section_title
;
Structure prediction by ZEFSAII (Michael W. Deem and Ramdas Pophale) SiO2 
 PCOD9116554
Probable space group: P 21
;
_chemical_formula_sum "Si O2"
_cell_formula_units_Z 8
_cell_length_a 11.500573
_cell_length_b 5.384018
_cell_length_c 9.795472
_cell_angle_alpha 90.000000
_cell_angle_beta 152.385645
_cell_angle_gamma 90.000000
_cell_volume 281.136997
_symmetry_space_group_name_H-M "P 21"
_symmetry_group_IT_number 4
_symmetry_cell_setting 'monoclinic'
loop_
_space_group_symop_operation_xyz
x,y,z
-x,1/2+y,-z
loop_
_atom_site_type_symbol
_atom_site_label
_atom_site_fract_x
_atom_site_fract_y
_atom_site_fract_z
Si Si1 0.868570 0.736870 0.827082
Si Si2 0.837113 0.165434 0.481572
Si Si3 0.328937 0.166681 0.679340
Si Si4 0.635832 0.820821 0.852858
O O1 0.827602 0.696543 0.624265
O O2 0.656767 0.832697 0.712197
O O3 0.937673 0.462207 0.952033
O O4 0.744539 0.912816 0.316564
O O5 0.769127 0.426981 0.339550
O O6 0.620706 0.180642 0.375281
O O7 0.114241 0.192741 0.828727
O O8 0.592835 0.085042 0.885824
#
# Coordination Sequence:
#
# PCOD9116554 Si02
#       4
#     2   2   2   2
#     4  12  21  31  43  51  63  71  85  93 105 115
#     4  10  22  32  46  48  66  66  90  84 110 106
#     4  10  22  31  41  53  60  75  78  97  98 117
#     4  10  23  32  42  52  61  74  79  96  99 116
#
# _framework density 28.455877000000001
#
# number of rings (size 3 to 8) (size 9 to 14) (size 15 to 20)
#    1.500    0.000    5.000    0.000   10.500    0.000 
#    0.000    0.000    0.000    0.000    0.000    0.000 
#    0.000    0.000    0.000    0.000    0.000    0.000 
#
# Total GULP energy -44668.734570 kJ/mol
# GULP energy per Si atom -5583.591821 kJ/mol
# Density = 2.839111 g / cm^3
# Si number density = 28.455877 Si / 1000 Ang^3
#
#
#
# Elastic Constant Matrix: (Units=GPa)
#
#
# Indices 1 2 3 4 5 6 
#
# 1 128.8998 11.6515 38.7701 0.0000 5.8681 0.0000
# 2 11.6515 233.1066 46.1469 0.0000 1.1841 0.0000
# 3 38.7701 46.1469 160.4410 0.0000 12.7223 0.0000
# 4 0.0000 0.0000 0.0000 39.7778 0.0000 21.9444
# 5 5.8681 1.1841 12.7223 0.0000 57.5775 0.0000
# 6 0.0000 0.0000 0.0000 21.9444 0.0000 -34.3581
#
#
#
# Elastic Compliance Matrix: (Units=1/GPa)
#
#
# Indices 1 2 3 4 5 6 
#
# 1 0.008376 -0.000024 -0.001984 0.000000 -0.000415 0.000000
# 2 -0.000024 0.004551 -0.001319 0.000000 0.000200 0.000000
# 3 -0.001984 -0.001319 0.007200 0.000000 -0.001361 0.000000
# 4 0.000000 0.000000 0.000000 0.018590 0.000000 0.011873
# 5 -0.000415 0.000200 -0.001361 0.000000 0.017707 0.000000
# 6 0.000000 0.000000 0.000000 0.011873 0.000000 -0.021522
#
#
# Mechanical properties :
#
#
# Convention : Reuss Voigt Hill
#
# Bulk Modulus (GPa) = 74.22624 79.50937 76.86781
# Shear Modulus (GPa) = 108.58612 40.99138 74.78875
#
# Velocity S-wave (km/s) = 6.18404 3.79954 5.13219
# Velocity P-wave (km/s) = 8.78243 6.87391 7.88612
#
# Compressibility (1/GPa) = 0.01347232
#
# Stress axis : x y z
#
# Youngs Moduli (GPa) = 119.39140 219.72198 138.89449
#
# Poissons Ratio (x) = 0.00521 0.27561
# Poissons Ratio (y) = 0.00283 0.18323
# Poissons Ratio (z) = 0.23691 0.28986
#
# Static dielectric constant tensor:
#      x y z
#    x 2.140630 0.000000 0.024340 
#    y 0.000000 2.635630 0.000000 
#    z 0.024340 0.000000 2.211700 
# 
# From -- ./inp_files/14025.got.cif
#   From: 2010.05.17/outbox.cif.g08.bks.cpg/sg4_8_cif.got.tgz:14025.got - 2010.06.03 18:43:04.
