data_PCOD9116336
_publ_section_title
;
Structure prediction by ZEFSAII (Michael W. Deem and Ramdas Pophale) SiO2 
 PCOD9116336
Probable space group: P 21
;
_chemical_formula_sum "Si O2"
_cell_formula_units_Z 14
_cell_length_a 10.028645
_cell_length_b 10.921580
_cell_length_c 5.382706
_cell_angle_alpha 90.000000
_cell_angle_beta 111.704152
_cell_angle_gamma 90.000000
_cell_volume 547.764079
_symmetry_space_group_name_H-M "P 21"
_symmetry_group_IT_number 4
_symmetry_cell_setting 'monoclinic'
loop_
_space_group_symop_operation_xyz
x,y,z
-x,1/2+y,-z
loop_
_atom_site_type_symbol
_atom_site_label
_atom_site_fract_x
_atom_site_fract_y
_atom_site_fract_z
Si Si1 0.080249 0.014180 0.032241
Si Si2 0.687495 0.724606 0.737213
Si Si3 0.691395 0.952045 0.430424
Si Si4 0.478572 0.868788 0.911234
Si Si5 0.836752 0.119782 0.177805
Si Si6 0.859263 0.365360 0.422787
Si Si7 0.430424 0.615065 0.291421
O O1 0.202334 0.119307 0.117952
O O2 0.936784 0.084866 0.016186
O O3 0.107494 0.919267 0.281102
O O4 0.082376 0.948047 0.767045
O O5 0.750995 0.848728 0.657449
O O6 0.580897 0.758801 0.889554
O O7 0.579481 0.674514 0.454831
O O8 0.798382 0.991134 0.285503
O O9 0.657123 0.084217 0.521888
O O10 0.535768 0.906100 0.222586
O O11 0.313192 0.867776 0.727938
O O12 0.536670 0.982507 0.791476
O O13 0.905725 0.224967 0.396821
O O14 0.685438 0.173812 0.969620
#
# Coordination Sequence:
#
# PCOD9116336 Si02
#       7
#     2   2   2   2   2   2   2
#     4  12  31  48  76 113 152 197 255 309 379 447
#     4  11  23  42  76 110 150 191 251 317 367 448
#     4  10  23  41  73 105 147 193 254 301 384 433
#     4  10  22  41  72 110 143 195 245 310 369 440
#     4  11  28  46  75 103 152 199 250 307 381 457
#     4  12  28  50  76 109 152 199 250 314 378 451
#     4  10  21  42  68 108 144 194 243 306 370 444
#
# _framework density 25.558447000000001
#
# number of rings (size 3 to 8) (size 9 to 14) (size 15 to 20)
#    0.000    1.143    1.429    2.571   12.000    4.571 
#    0.000    0.000    0.000    0.000    0.000    0.000 
#    0.000    0.000    0.000    0.000    0.000    0.000 
#
# Total GULP energy -78292.196418 kJ/mol
# GULP energy per Si atom -5592.299744 kJ/mol
# Density = 2.550027 g / cm^3
# Si number density = 25.558447 Si / 1000 Ang^3
#
#
#
# Elastic Constant Matrix: (Units=GPa)
#
#
# Indices 1 2 3 4 5 6 
#
# 1 68.4215 -5.8974 -20.9170 0.0000 12.9774 0.0000
# 2 -5.8974 67.6515 -1.0012 0.0000 6.1774 0.0000
# 3 -20.9170 -1.0012 65.8274 0.0000 9.7568 0.0000
# 4 0.0000 0.0000 0.0000 40.0000 0.0000 -11.2588
# 5 12.9774 6.1774 9.7568 0.0000 33.1182 0.0000
# 6 0.0000 0.0000 0.0000 -11.2588 0.0000 28.9819
#
#
#
# Elastic Compliance Matrix: (Units=1/GPa)
#
#
# Indices 1 2 3 4 5 6 
#
# 1 0.019130 0.002717 0.007640 0.000000 -0.010253 0.000000
# 2 0.002717 0.015452 0.001760 0.000000 -0.004465 0.000000
# 3 0.007640 0.001760 0.018966 0.000000 -0.008909 0.000000
# 4 0.000000 0.000000 0.000000 0.028069 0.000000 0.010904
# 5 -0.010253 -0.004465 -0.008909 0.000000 0.037670 0.000000
# 6 0.000000 0.000000 0.000000 0.010904 0.000000 0.038740
#
#
# Mechanical properties :
#
#
# Convention : Reuss Voigt Hill
#
# Bulk Modulus (GPa) = 12.85653 16.25212 14.55433
# Shear Modulus (GPa) = 31.30448 35.73443 33.51946
#
# Velocity S-wave (km/s) = 3.50354 3.74324 3.62537
# Velocity P-wave (km/s) = 4.62683 5.00550 4.81988
#
# Compressibility (1/GPa) = 0.07778149
#
# Stress axis : x y z
#
# Youngs Moduli (GPa) = 52.27474 64.71539 52.72580
#
# Poissons Ratio (x) = -0.17583 -0.40280
# Poissons Ratio (y) = -0.14203 -0.09281
# Poissons Ratio (z) = -0.39936 -0.11391
#
# Static dielectric constant tensor:
#      x y z
#    x 2.034460 0.000000 -0.084920 
#    y 0.000000 2.050370 0.000000 
#    z -0.084920 0.000000 2.165200 
# 
# From -- ./inp_files/1124.got.cif
#   From: 2010.05.17/outbox.cif.g08.bks.cpg/sg4_1_cif.got.tgz:1124.got - 2010.06.03 18:43:04.
