data_PCOD9116025
_publ_section_title
;
Structure prediction by ZEFSAII (Michael W. Deem and Ramdas Pophale) SiO2 
 PCOD9116025
Probable space group: P 21
;
_chemical_formula_sum "Si O2"
_cell_formula_units_Z 16
_cell_length_a 12.673814
_cell_length_b 5.260154
_cell_length_c 14.837881
_cell_angle_alpha 90.000000
_cell_angle_beta 140.896721
_cell_angle_gamma 90.000000
_cell_volume 623.899195
_symmetry_space_group_name_H-M "P 21"
_symmetry_group_IT_number 4
_symmetry_cell_setting 'monoclinic'
loop_
_space_group_symop_operation_xyz
x,y,z
-x,1/2+y,-z
loop_
_atom_site_type_symbol
_atom_site_label
_atom_site_fract_x
_atom_site_fract_y
_atom_site_fract_z
Si Si1 0.667423 0.477460 0.210844
Si Si2 0.993718 0.598569 0.441848
Si Si3 0.547890 0.678819 0.824117
Si Si4 0.142665 0.861608 0.263524
Si Si5 0.569986 0.323550 0.673106
Si Si6 0.175623 0.344760 0.392471
Si Si7 0.346832 0.767511 0.978994
Si Si8 0.176535 0.541903 0.025726
O O1 0.605983 0.370613 0.266342
O O2 0.479356 0.543848 0.053487
O O3 0.804054 0.697863 0.297211
O O4 0.733377 0.315026 0.169901
O O5 0.107542 0.476535 0.439225
O O6 0.061447 0.847119 0.537042
O O7 0.554848 0.553778 0.732444
O O8 0.534378 0.477779 0.895019
O O9 0.727831 0.803804 0.953124
O O10 0.329946 0.893607 0.349976
O O11 0.135646 0.570070 0.293134
O O12 0.104754 0.067600 0.316876
O O13 0.015079 0.952049 0.098160
O O14 0.373946 0.277318 0.528158
O O15 0.701726 0.128595 0.811169
O O16 0.210334 0.740003 0.967672
#
# Coordination Sequence:
#
# PCOD9116025 Si02
#       8
#     2   2   2   2   2   2   2   2
#     4  11  22  38  68  98 140 182 237 292 366 431
#     4  12  29  46  74 104 149 192 247 291 364 438
#     4  10  23  41  68 100 144 180 246 295 373 433
#     4  12  29  49  79 110 152 195 254 313 382 437
#     4  11  27  47  79 102 149 193 254 301 384 439
#     4  12  29  52  75 111 153 200 249 309 375 459
#     4  10  21  39  64 101 136 187 230 302 366 438
#     4  10  26  42  73 106 145 187 249 311 372 443
#
# _framework density 25.64517
#
# number of rings (size 3 to 8) (size 9 to 14) (size 15 to 20)
#    0.000    1.000    1.250    3.000   17.500    0.000 
#    0.000    0.000    0.000    0.000    0.000    0.000 
#    0.000    0.000    0.000    0.000    0.000    0.000 
#
# Total GULP energy -89071.978665 kJ/mol
# GULP energy per Si atom -5566.998667 kJ/mol
# Density = 2.558680 g / cm^3
# Si number density = 25.645170 Si / 1000 Ang^3
#
#
#
# Elastic Constant Matrix: (Units=GPa)
#
#
# Indices 1 2 3 4 5 6 
#
# 1 74.6156 19.5582 12.7363 0.0000 6.0063 0.0000
# 2 19.5582 47.7934 -2.9702 0.0000 -3.4723 0.0000
# 3 12.7363 -2.9702 55.8391 0.0000 40.4923 0.0000
# 4 0.0000 0.0000 0.0000 23.3112 0.0000 -12.6391
# 5 6.0063 -3.4723 40.4923 0.0000 43.3594 0.0000
# 6 0.0000 0.0000 0.0000 -12.6391 0.0000 19.7562
#
#
#
# Elastic Compliance Matrix: (Units=1/GPa)
#
#
# Indices 1 2 3 4 5 6 
#
# 1 0.015973 -0.006701 -0.006215 0.000000 0.003055 0.000000
# 2 -0.006701 0.023859 0.002289 0.000000 0.000701 0.000000
# 3 -0.006215 0.002289 0.057903 0.000000 -0.053030 0.000000
# 4 0.000000 0.000000 0.000000 0.065680 0.000000 0.042019
# 5 0.003055 0.000701 -0.053030 0.000000 0.072220 0.000000
# 6 0.000000 0.000000 0.000000 0.042019 0.000000 0.077499
#
#
# Mechanical properties :
#
#
# Convention : Reuss Voigt Hill
#
# Bulk Modulus (GPa) = 13.07498 26.32185 19.69841
# Shear Modulus (GPa) = 13.89342 27.21361 20.55352
#
# Velocity S-wave (km/s) = 2.33009 3.26108 2.83407
# Velocity P-wave (km/s) = 3.51405 4.94628 4.29035
#
# Compressibility (1/GPa) = 0.07648196
#
# Stress axis : x y z
#
# Youngs Moduli (GPa) = 62.60387 41.91323 17.27012
#
# Poissons Ratio (x) = 0.28086 0.10733
# Poissons Ratio (y) = 0.41951 -0.03953
# Poissons Ratio (z) = 0.38908 -0.09594
#
# Static dielectric constant tensor:
#      x y z
#    x 2.005070 0.000000 -0.015040 
#    y 0.000000 2.245220 0.000000 
#    z -0.015040 0.000000 2.178650 
# 
# From -- ./inp_files/13873.got.cif
#   From: 2010.05.17/outbox.cif.g08.bks.cpg/sg4_7_cif.got.tgz:13873.got - 2010.06.03 18:43:04.
