data_PCOD9116776
_publ_section_title
;
Structure prediction by ZEFSAII (Michael W. Deem and Ramdas Pophale) SiO2 
 PCOD9116776
Probable space group: P 21
;
_chemical_formula_sum "Si O2"
_cell_formula_units_Z 14
_cell_length_a 7.336531
_cell_length_b 10.038676
_cell_length_c 9.737068
_cell_angle_alpha 90.000000
_cell_angle_beta 66.732710
_cell_angle_gamma 90.000000
_cell_volume 658.803503
_symmetry_space_group_name_H-M "P 21"
_symmetry_group_IT_number 4
_symmetry_cell_setting 'monoclinic'
loop_
_space_group_symop_operation_xyz
x,y,z
-x,1/2+y,-z
loop_
_atom_site_type_symbol
_atom_site_label
_atom_site_fract_x
_atom_site_fract_y
_atom_site_fract_z
Si Si1 0.489471 0.484260 0.128133
Si Si2 0.771763 0.741563 0.701289
Si Si3 0.119046 0.287486 0.641346
Si Si4 0.575593 0.751641 0.229422
Si Si5 0.103784 0.592732 0.092045
Si Si6 0.256724 0.949096 0.208045
Si Si7 0.961118 0.798001 0.926038
O O1 0.398209 0.349702 0.215953
O O2 0.536693 0.594308 0.228691
O O3 0.318963 0.551953 0.083201
O O4 0.666985 0.456697 0.970456
O O5 0.858859 0.768440 0.526122
O O6 0.700956 0.590267 0.734971
O O7 0.931293 0.759631 0.776597
O O8 0.329334 0.296870 0.655714
O O9 0.012125 0.163296 0.748836
O O10 0.001829 0.955113 0.918586
O O11 0.382724 0.834352 0.245493
O O12 0.746735 0.779768 0.064677
O O13 0.026200 0.910793 0.284123
O O14 0.100901 0.698212 0.968619
#
# Coordination Sequence:
#
# PCOD9116776 Si02
#       7
#     2   2   2   2   2   2   2
#     4  11  22  46  72  99 138 182 237 289 341 411
#     4  11  26  43  69 106 136 185 233 281 359 412
#     4  11  28  43  69 101 147 180 227 290 354 411
#     4  11  23  44  70 100 135 182 231 286 345 408
#     4  10  22  40  68 101 137 182 232 288 338 411
#     4  12  23  44  74  96 137 184 229 290 340 415
#     4  10  22  40  68 103 134 179 239 278 343 410
#
# _framework density 21.250648999999999
#
# number of rings (size 3 to 8) (size 9 to 14) (size 15 to 20)
#    0.000    1.143    5.714    0.000    8.000    1.143 
#    0.000    1.429    0.000    0.000    0.000    0.000 
#    0.000    0.000    0.000    0.000    0.000    0.000 
#
# Total GULP energy -78301.222684 kJ/mol
# GULP energy per Si atom -5592.944477 kJ/mol
# Density = 2.120228 g / cm^3
# Si number density = 21.250649 Si / 1000 Ang^3
#
#
#
# Elastic Constant Matrix: (Units=GPa)
#
#
# Indices 1 2 3 4 5 6 
#
# 1 60.3445 14.6796 24.2023 0.0000 16.8872 0.0000
# 2 14.6796 149.3152 41.0021 0.0000 -3.8397 0.0000
# 3 24.2023 41.0021 138.4865 0.0000 18.1914 0.0000
# 4 0.0000 0.0000 0.0000 16.7993 0.0000 -11.6924
# 5 16.8872 -3.8397 18.1914 0.0000 25.9074 0.0000
# 6 0.0000 0.0000 0.0000 -11.6924 0.0000 24.6720
#
#
#
# Elastic Compliance Matrix: (Units=1/GPa)
#
#
# Indices 1 2 3 4 5 6 
#
# 1 0.021331 -0.002059 -0.001379 0.000000 -0.013241 0.000000
# 2 -0.002059 0.007686 -0.002470 0.000000 0.004215 0.000000
# 3 -0.001379 -0.002470 0.008948 0.000000 -0.005751 0.000000
# 4 0.000000 0.000000 0.000000 0.088825 0.000000 0.042095
# 5 -0.013241 0.004215 -0.005751 0.000000 0.051892 0.000000
# 6 0.000000 0.000000 0.000000 0.042095 0.000000 0.060481
#
#
# Mechanical properties :
#
#
# Convention : Reuss Voigt Hill
#
# Bulk Modulus (GPa) = 38.23997 56.43490 47.33744
# Shear Modulus (GPa) = 19.25332 31.35989 25.30660
#
# Velocity S-wave (km/s) = 3.01327 3.84567 3.45463
# Velocity P-wave (km/s) = 5.49001 6.80686 6.18359
#
# Compressibility (1/GPa) = 0.02615065
#
# Stress axis : x y z
#
# Youngs Moduli (GPa) = 46.88048 130.10325 111.75111
#
# Poissons Ratio (x) = 0.26787 0.15410
# Poissons Ratio (y) = 0.09652 0.27598
# Poissons Ratio (z) = 0.06464 0.32130
#
# Static dielectric constant tensor:
#      x y z
#    x 1.833800 0.000000 0.022370 
#    y 0.000000 1.787920 0.000000 
#    z 0.022370 0.000000 1.716270 
# 
# From -- ./inp_files/5293.got.cif
#   From: 2010.05.17/outbox.cif.g08.bks.cpg/sg4_3_cif.got.tgz:5293.got - 2010.06.03 18:43:04.
