data_PCOD9116596
_publ_section_title
;
Structure prediction by ZEFSAII (Michael W. Deem and Ramdas Pophale) SiO2 
 PCOD9116596
Probable space group: P 21
;
_chemical_formula_sum "Si O2"
_cell_formula_units_Z 16
_cell_length_a 12.435389
_cell_length_b 7.688282
_cell_length_c 8.987735
_cell_angle_alpha 90.000000
_cell_angle_beta 54.055025
_cell_angle_gamma 90.000000
_cell_volume 695.663641
_symmetry_space_group_name_H-M "P 21"
_symmetry_group_IT_number 4
_symmetry_cell_setting 'monoclinic'
loop_
_space_group_symop_operation_xyz
x,y,z
-x,1/2+y,-z
loop_
_atom_site_type_symbol
_atom_site_label
_atom_site_fract_x
_atom_site_fract_y
_atom_site_fract_z
Si Si1 0.560520 0.150380 0.107710
Si Si2 0.800421 0.413859 0.668174
Si Si3 0.361709 0.950724 0.472593
Si Si4 0.613472 0.637298 0.023778
Si Si5 0.989792 0.665560 0.355214
Si Si6 0.516136 0.953589 0.629039
Si Si7 0.219571 0.314164 0.684056
Si Si8 0.198175 0.438799 0.036287
O O1 0.479806 0.006700 0.266774
O O2 0.517421 0.149097 0.972209
O O3 0.496436 0.322912 0.224545
O O4 0.710665 0.112264 0.029533
O O5 0.734956 0.356119 0.564084
O O6 0.697637 0.480804 0.877773
O O7 0.896913 0.268578 0.650974
O O8 0.884280 0.584207 0.554086
O O9 0.288469 0.126016 0.593519
O O10 0.429735 0.874592 0.563815
O O11 0.560566 0.614757 0.235206
O O12 0.713958 0.800997 0.940578
O O13 0.913071 0.796843 0.306635
O O14 0.058143 0.502753 0.214345
O O15 0.668874 0.954818 0.456762
O O16 0.186607 0.357866 0.881319
#
# Coordination Sequence:
#
# PCOD9116596 Si02
#       8
#     2   2   2   2   2   2   2   2
#     4  10  22  38  60 105 135 166 226 287 353 415
#     4  10  23  46  65  99 135 178 237 284 338 418
#     4   9  19  41  68  93 135 167 220 290 350 401
#     4  11  23  40  71  99 139 178 224 296 357 407
#     4  11  25  45  68  97 139 193 238 274 338 419
#     4  11  20  41  70  96 133 175 219 295 361 404
#     4  10  23  43  66 101 136 177 230 282 338 419
#     4  12  23  42  66 100 142 188 234 284 343 417
#
# _framework density 22.999621000000001
#
# number of rings (size 3 to 8) (size 9 to 14) (size 15 to 20)
#    0.000    1.500    2.500    3.000    0.000    3.000 
#    6.750    1.250    0.000    0.000    0.000    0.000 
#    0.000    0.000    0.000    0.000    0.000    0.000 
#
# Total GULP energy -89335.841598 kJ/mol
# GULP energy per Si atom -5583.490100 kJ/mol
# Density = 2.294727 g / cm^3
# Si number density = 22.999621 Si / 1000 Ang^3
#
#
#
# Elastic Constant Matrix: (Units=GPa)
#
#
# Indices 1 2 3 4 5 6 
#
# 1 122.3378 21.8885 57.1427 0.0000 17.6925 0.0000
# 2 21.8885 51.6190 19.4839 0.0000 8.9698 0.0000
# 3 57.1427 19.4839 114.7360 0.0000 15.6889 0.0000
# 4 0.0000 0.0000 0.0000 34.3225 0.0000 -2.5901
# 5 17.6925 8.9698 15.6889 0.0000 35.7438 0.0000
# 6 0.0000 0.0000 0.0000 -2.5901 0.0000 39.3356
#
#
#
# Elastic Compliance Matrix: (Units=1/GPa)
#
#
# Indices 1 2 3 4 5 6 
#
# 1 0.011273 -0.002471 -0.004805 0.000000 -0.002851 0.000000
# 2 -0.002471 0.021761 -0.002006 0.000000 -0.003357 0.000000
# 3 -0.004805 -0.002006 0.011761 0.000000 -0.002281 0.000000
# 4 0.000000 0.000000 0.000000 0.029281 0.000000 0.001928
# 5 -0.002851 -0.003357 -0.002281 0.000000 0.031231 0.000000
# 6 0.000000 0.000000 0.000000 0.001928 0.000000 0.025549
#
#
# Mechanical properties :
#
#
# Convention : Reuss Voigt Hill
#
# Bulk Modulus (GPa) = 38.12163 53.96923 46.04543
# Shear Modulus (GPa) = 31.61289 34.55889 33.08589
#
# Velocity S-wave (km/s) = 3.71144 3.88052 3.79692
# Velocity P-wave (km/s) = 5.91416 6.60259 6.26783
#
# Compressibility (1/GPa) = 0.02623183
#
# Stress axis : x y z
#
# Youngs Moduli (GPa) = 88.70936 45.95381 85.02634
#
# Poissons Ratio (x) = 0.11356 0.40854
# Poissons Ratio (y) = 0.21921 0.17052
# Poissons Ratio (z) = 0.42623 0.09216
#
# Static dielectric constant tensor:
#      x y z
#    x 1.854120 0.000000 -0.032550 
#    y 0.000000 2.007610 0.000000 
#    z -0.032550 0.000000 1.847210 
# 
# From -- ./inp_files/7826.got.cif
#   From: 2010.05.17/outbox.cif.g08.bks.cpg/sg4_4_cif.got.tgz:7826.got - 2010.06.03 18:43:04.
