data_PCOD9116612
_publ_section_title
;
Structure prediction by ZEFSAII (Michael W. Deem and Ramdas Pophale) SiO2 
 PCOD9116612
Probable space group: P 21
;
_chemical_formula_sum "Si O2"
_cell_formula_units_Z 14
_cell_length_a 5.203745
_cell_length_b 13.360329
_cell_length_c 9.922656
_cell_angle_alpha 90.000000
_cell_angle_beta 100.800291
_cell_angle_gamma 90.000000
_cell_volume 677.640230
_symmetry_space_group_name_H-M "P 21"
_symmetry_group_IT_number 4
_symmetry_cell_setting 'monoclinic'
loop_
_space_group_symop_operation_xyz
x,y,z
-x,1/2+y,-z
loop_
_atom_site_type_symbol
_atom_site_label
_atom_site_fract_x
_atom_site_fract_y
_atom_site_fract_z
Si Si1 0.713446 0.515670 0.219706
Si Si2 0.325832 0.783497 0.850760
Si Si3 0.720042 0.106257 0.655421
Si Si4 0.786554 0.515670 0.780294
Si Si5 0.779958 0.106257 0.344578
Si Si6 0.174169 0.783497 0.149240
Si Si7 0.750000 0.659640 1.000000
O O1 0.697490 0.398724 0.187061
O O2 0.531707 0.541376 0.328522
O O3 0.600769 0.580759 0.082344
O O4 0.014015 0.550700 0.268316
O O5 0.185061 0.711342 0.730678
O O6 0.250001 0.769696 0.000000
O O7 0.614353 0.735658 0.883009
O O8 0.750000 0.121880 0.500000
O O9 0.685061 0.211342 0.730677
O O10 0.485985 0.550700 0.731684
O O11 0.802510 0.398724 0.812938
O O12 0.968293 0.541376 0.671478
O O13 0.899231 0.580759 0.917656
O O14 0.885647 0.735658 0.116991
#
# Coordination Sequence:
#
# PCOD9116612 Si02
#       7
#     2   2   2   2   2   2   2
#     4  11  24  41  68  96 131 168 214 264 325 378
#     4  11  23  40  70  97 127 167 218 270 322 375
#     4  11  26  45  64  95 135 172 214 262 319 389
#     4  11  24  41  68  96 131 168 214 264 325 378
#     4  11  26  45  64  95 135 172 214 262 319 389
#     4  11  23  40  70  97 127 167 218 270 322 375
#     4  10  22  38  64 102 132 158 212 272 324 374
#
# _framework density 20.659929000000002
#
# number of rings (size 3 to 8) (size 9 to 14) (size 15 to 20)
#    0.000    1.143    4.286    0.857    4.000    2.286 
#    0.000    0.000    0.000    0.000    0.000    0.000 
#    0.000    0.000    0.000    0.000    0.000    0.000 
#
# Total GULP energy -78052.163152 kJ/mol
# GULP energy per Si atom -5575.154511 kJ/mol
# Density = 2.061291 g / cm^3
# Si number density = 20.659929 Si / 1000 Ang^3
#
#
#
# Elastic Constant Matrix: (Units=GPa)
#
#
# Indices 1 2 3 4 5 6 
#
# 1 69.3555 38.0394 8.9135 0.0000 -16.1977 0.0000
# 2 38.0394 211.6487 63.3812 0.0000 -4.0099 0.0000
# 3 8.9135 63.3812 114.6597 0.0000 -31.2405 0.0000
# 4 0.0000 0.0000 0.0000 19.2716 0.0000 -2.8890
# 5 -16.1977 -4.0099 -31.2405 0.0000 39.2304 0.0000
# 6 0.0000 0.0000 0.0000 -2.8890 0.0000 21.8789
#
#
#
# Elastic Compliance Matrix: (Units=1/GPa)
#
#
# Indices 1 2 3 4 5 6 
#
# 1 0.018669 -0.004267 0.003689 0.000000 0.010210 0.000000
# 2 -0.004267 0.006827 -0.004766 0.000000 -0.004859 0.000000
# 3 0.003689 -0.004766 0.014497 0.000000 0.012580 0.000000
# 4 0.000000 0.000000 0.000000 0.052938 0.000000 0.006990
# 5 0.010210 -0.004859 0.012580 0.000000 0.039227 0.000000
# 6 0.000000 0.000000 0.000000 0.006990 0.000000 0.046629
#
#
# Mechanical properties :
#
#
# Convention : Reuss Voigt Hill
#
# Bulk Modulus (GPa) = 34.12357 68.48135 51.30246
# Shear Modulus (GPa) = 25.09509 35.09817 30.09663
#
# Velocity S-wave (km/s) = 3.48900 4.12619 3.82090
# Velocity P-wave (km/s) = 5.72568 7.47793 6.65969
#
# Compressibility (1/GPa) = 0.02930526
#
# Stress axis : x y z
#
# Youngs Moduli (GPa) = 53.56506 146.48127 68.98060
#
# Poissons Ratio (x) = 0.62498 -0.25446
# Poissons Ratio (y) = 0.22854 0.32876
# Poissons Ratio (z) = -0.19760 0.69812
#
# Static dielectric constant tensor:
#      x y z
#    x 1.918530 0.000000 0.031660 
#    y 0.000000 1.676840 0.000000 
#    z 0.031660 0.000000 1.773640 
# 
# From -- ./inp_files/1177.got.cif
#   From: 2010.05.17/outbox.cif.g08.bks.cpg/sg4_1_cif.got.tgz:1177.got - 2010.06.03 18:43:04.
