data_PCOD9116824
_publ_section_title
;
Structure prediction by ZEFSAII (Michael W. Deem and Ramdas Pophale) SiO2 
 PCOD9116824
Probable space group: P 21
;
_chemical_formula_sum "Si O2"
_cell_formula_units_Z 16
_cell_length_a 16.806574
_cell_length_b 8.887996
_cell_length_c 8.910390
_cell_angle_alpha 90.000000
_cell_angle_beta 37.410962
_cell_angle_gamma 90.000000
_cell_volume 808.622692
_symmetry_space_group_name_H-M "P 21"
_symmetry_group_IT_number 4
_symmetry_cell_setting 'monoclinic'
loop_
_space_group_symop_operation_xyz
x,y,z
-x,1/2+y,-z
loop_
_atom_site_type_symbol
_atom_site_label
_atom_site_fract_x
_atom_site_fract_y
_atom_site_fract_z
Si Si1 0.347901 0.932010 0.407465
Si Si2 0.581214 0.121238 0.203682
Si Si3 0.131711 0.439388 0.890774
Si Si4 0.622529 0.440809 0.991266
Si Si5 0.888813 0.441381 0.765467
Si Si6 0.393604 0.613496 0.477962
Si Si7 0.893241 0.582088 0.082810
Si Si8 0.120239 0.581597 0.233323
O O1 0.371940 0.919749 0.194648
O O2 0.337149 0.769111 0.500055
O O3 0.468630 0.018187 0.304345
O O4 0.215538 0.022665 0.638820
O O5 0.570989 0.129662 0.399448
O O6 0.575744 0.287151 0.141491
O O7 0.727594 0.060699 0.950150
O O8 0.280761 0.487718 0.634734
O O9 0.111110 0.261598 0.916190
O O10 0.100376 0.500369 0.104107
O O11 0.033950 0.521595 0.923425
O O12 0.766530 0.474901 0.839941
O O13 0.520208 0.567601 0.193761
O O14 0.900525 0.260543 0.755992
O O15 0.019790 0.514431 0.502815
O O16 0.860722 0.511033 0.969935
#
# Coordination Sequence:
#
# PCOD9116824 Si02
#       8
#     2   2   2   2   2   2   2   2
#     4  12  24  40  64  94 128 164 211 265 319 378
#     4  10  22  42  63  90 127 168 212 257 316 382
#     4  11  24  42  64  91 124 162 211 263 320 384
#     4  11  24  41  62  92 128 165 210 262 316 378
#     4  11  23  40  65  92 127 169 213 262 320 383
#     4  11  23  41  66  92 126 167 211 262 319 386
#     4  12  24  41  65  91 125 167 210 262 321 386
#     4  10  22  41  63  92 125 164 212 263 317 379
#
# _framework density 19.786729999999999
#
# number of rings (size 3 to 8) (size 9 to 14) (size 15 to 20)
#    0.000    1.000    0.000    8.250    0.000    8.000 
#    0.000    1.250    0.000    0.000    0.000    0.000 
#    0.000    0.000    0.000    0.000    0.000    0.000 
#
# Total GULP energy -89543.137226 kJ/mol
# GULP energy per Si atom -5596.446077 kJ/mol
# Density = 1.974169 g / cm^3
# Si number density = 19.786730 Si / 1000 Ang^3
#
#
#
# Elastic Constant Matrix: (Units=GPa)
#
#
# Indices 1 2 3 4 5 6 
#
# 1 92.0322 5.8568 10.6351 0.0000 10.4537 0.0000
# 2 5.8568 49.6156 1.0156 0.0000 -2.2349 0.0000
# 3 10.6351 1.0156 55.4977 0.0000 3.9340 0.0000
# 4 0.0000 0.0000 0.0000 29.8311 0.0000 1.3175
# 5 10.4537 -2.2349 3.9340 0.0000 19.9618 0.0000
# 6 0.0000 0.0000 0.0000 1.3175 0.0000 27.8609
#
#
#
# Elastic Compliance Matrix: (Units=1/GPa)
#
#
# Indices 1 2 3 4 5 6 
#
# 1 0.011866 -0.001636 -0.001816 0.000000 -0.006039 0.000000
# 2 -0.001636 0.020498 -0.000289 0.000000 0.003209 0.000000
# 3 -0.001816 -0.000289 0.018566 0.000000 -0.002740 0.000000
# 4 0.000000 0.000000 0.000000 0.033592 0.000000 -0.001589
# 5 -0.006039 0.003209 -0.002740 0.000000 0.054158 0.000000
# 6 0.000000 0.000000 0.000000 -0.001589 0.000000 0.035968
#
#
# Mechanical properties :
#
#
# Convention : Reuss Voigt Hill
#
# Bulk Modulus (GPa) = 23.01525 25.79560 24.40543
# Shear Modulus (GPa) = 25.43079 27.50662 26.46871
#
# Velocity S-wave (km/s) = 3.58892 3.73252 3.66143
# Velocity P-wave (km/s) = 5.36942 5.62501 5.49870
#
# Compressibility (1/GPa) = 0.04344944
#
# Stress axis : x y z
#
# Youngs Moduli (GPa) = 84.27698 48.78414 53.86109
#
# Poissons Ratio (x) = 0.07979 0.09780
# Poissons Ratio (y) = 0.13784 0.01557
# Poissons Ratio (z) = 0.15303 0.01411
#
# Static dielectric constant tensor:
#      x y z
#    x 1.673840 0.000000 -0.009800 
#    y 0.000000 1.676000 0.000000 
#    z -0.009800 0.000000 1.669090 
# 
# From -- ./inp_files/7821.got.cif
#   From: 2010.05.17/outbox.cif.g08.bks.cpg/sg4_4_cif.got.tgz:7821.got - 2010.06.03 18:43:04.
