data_PCOD9116188
_publ_section_title
;
Structure prediction by ZEFSAII (Michael W. Deem and Ramdas Pophale) SiO2 
 PCOD9116188
Probable space group: P 21
;
_chemical_formula_sum "Si O2"
_cell_formula_units_Z 16
_cell_length_a 14.205617
_cell_length_b 5.379712
_cell_length_c 10.189597
_cell_angle_alpha 90.000000
_cell_angle_beta 123.077631
_cell_angle_gamma 90.000000
_cell_volume 652.506494
_symmetry_space_group_name_H-M "P 21"
_symmetry_group_IT_number 4
_symmetry_cell_setting 'monoclinic'
loop_
_space_group_symop_operation_xyz
x,y,z
-x,1/2+y,-z
loop_
_atom_site_type_symbol
_atom_site_label
_atom_site_fract_x
_atom_site_fract_y
_atom_site_fract_z
Si Si1 0.817700 0.633640 0.596240
Si Si2 0.792524 0.912549 0.313448
Si Si3 0.814895 0.424474 0.030789
Si Si4 0.335876 0.964830 0.326946
Si Si5 0.937915 0.936694 0.187429
Si Si6 0.593856 0.188263 0.261264
Si Si7 0.378356 0.053045 0.926971
Si Si8 0.360319 0.467015 0.428292
O O1 0.821819 0.715565 0.449110
O O2 0.719869 0.446873 0.569230
O O3 0.768693 0.877005 0.637090
O O4 0.932547 0.508095 0.727095
O O5 0.899187 0.978763 0.308817
O O6 0.724377 0.132548 0.326749
O O7 0.695646 0.800001 0.145877
O O8 0.755152 0.513348 0.853106
O O9 0.714679 0.395041 0.062170
O O10 0.901178 0.650927 0.131351
O O11 0.872387 0.155439 0.060028
O O12 0.372811 0.685317 0.333379
O O13 0.406756 0.213366 0.399855
O O14 0.490968 0.072313 0.097378
O O15 0.584626 0.047333 0.392898
O O16 0.588113 0.465970 0.194762
#
# Coordination Sequence:
#
# PCOD9116188 Si02
#       8
#     2   2   2   2   2   2   2   2
#     4   9  23  39  65  88 126 167 211 254 313 378
#     4  10  21  41  58  94 127 160 205 266 313 385
#     4  11  25  41  63  90 132 161 216 265 316 373
#     4  10  21  43  62  87 126 168 210 265 308 369
#     4  11  24  40  61  95 124 168 207 263 322 377
#     4  11  20  38  64  90 125 166 206 265 318 391
#     4  11  22  37  64  94 125 166 206 262 329 381
#     4   9  22  39  65  88 121 164 217 254 309 374
#
# _framework density 24.520828999999999
#
# number of rings (size 3 to 8) (size 9 to 14) (size 15 to 20)
#    0.750    1.000    2.500    1.500    1.750    3.000 
#    2.250    1.250    0.000    0.000    0.000    0.000 
#    0.000    0.000    0.000    0.000    0.000    0.000 
#
# Total GULP energy -89070.333366 kJ/mol
# GULP energy per Si atom -5566.895835 kJ/mol
# Density = 2.446502 g / cm^3
# Si number density = 24.520829 Si / 1000 Ang^3
#
#
#
# Elastic Constant Matrix: (Units=GPa)
#
#
# Indices 1 2 3 4 5 6 
#
# 1 52.9534 27.5703 11.0555 0.0000 12.0720 0.0000
# 2 27.5703 118.8237 21.7687 0.0000 1.0438 0.0000
# 3 11.0555 21.7687 64.8224 0.0000 -7.3670 0.0000
# 4 0.0000 0.0000 0.0000 27.8300 0.0000 -14.7564
# 5 12.0720 1.0438 -7.3670 0.0000 36.0358 0.0000
# 6 0.0000 0.0000 0.0000 -14.7564 0.0000 -8.7480
#
#
#
# Elastic Compliance Matrix: (Units=1/GPa)
#
#
# Indices 1 2 3 4 5 6 
#
# 1 0.024122 -0.004888 -0.003455 0.000000 -0.008646 0.000000
# 2 -0.004888 0.009986 -0.002423 0.000000 0.000853 0.000000
# 3 -0.003455 -0.002423 0.017373 0.000000 0.004779 0.000000
# 4 0.000000 0.000000 0.000000 0.018968 0.000000 -0.031995
# 5 -0.008646 0.000853 0.004779 0.000000 0.031599 0.000000
# 6 0.000000 0.000000 0.000000 -0.031995 0.000000 -0.060341
#
#
# Mechanical properties :
#
#
# Convention : Reuss Voigt Hill
#
# Bulk Modulus (GPa) = 33.39024 39.70982 36.55003
# Shear Modulus (GPa) = 68.28592 22.77054 45.52823
#
# Velocity S-wave (km/s) = 5.28286 3.05063 4.31364
# Velocity P-wave (km/s) = 7.13149 5.35145 6.30460
#
# Compressibility (1/GPa) = 0.02994887
#
# Stress axis : x y z
#
# Youngs Moduli (GPa) = 41.45625 100.13629 57.56088
#
# Poissons Ratio (x) = 0.48947 0.19888
# Poissons Ratio (y) = 0.20264 0.13947
# Poissons Ratio (z) = 0.14323 0.24264
#
# Static dielectric constant tensor:
#      x y z
#    x 2.029430 0.000000 -0.032570 
#    y 0.000000 2.065700 0.000000 
#    z -0.032570 0.000000 1.963380 
# 
# From -- ./inp_files/12816.got.cif
#   From: 2010.05.17/outbox.cif.g08.bks.cpg/sg4_7_cif.got.tgz:12816.got - 2010.06.03 18:43:04.
