data_PCOD9116946
_publ_section_title
;
Structure prediction by ZEFSAII (Michael W. Deem and Ramdas Pophale) SiO2 
 PCOD9116946
Probable space group: P 21
;
_chemical_formula_sum "Si O2"
_cell_formula_units_Z 12
_cell_length_a 19.501155
_cell_length_b 4.913747
_cell_length_c 5.402498
_cell_angle_alpha 90.000000
_cell_angle_beta 125.329405
_cell_angle_gamma 90.000000
_cell_volume 422.350705
_symmetry_space_group_name_H-M "P 21"
_symmetry_group_IT_number 4
_symmetry_cell_setting 'monoclinic'
loop_
_space_group_symop_operation_xyz
x,y,z
-x,1/2+y,-z
loop_
_atom_site_type_symbol
_atom_site_label
_atom_site_fract_x
_atom_site_fract_y
_atom_site_fract_z
Si Si1 0.188186 0.165610 0.570250
Si Si2 0.313765 0.726795 0.320514
Si Si3 0.361369 0.211808 0.730501
Si Si4 0.544314 0.997289 0.689194
Si Si5 0.149007 0.496558 0.978677
Si Si6 0.980455 0.387047 0.807857
O O1 0.286205 0.092328 0.746643
O O2 0.164642 0.334420 0.270459
O O3 0.117679 0.931484 0.444436
O O4 0.178052 0.335580 0.798402
O O5 0.329497 0.495090 0.555740
O O6 0.362099 0.597187 0.189773
O O7 0.212770 0.753287 0.108233
O O8 0.361632 0.992742 0.512077
O O9 0.443706 0.303221 0.049011
O O10 0.504781 0.782580 0.412212
O O11 0.048142 0.516254 0.760262
O O12 0.999444 0.576489 0.088410
#
# Coordination Sequence:
#
# PCOD9116946 Si02
#       6
#     2   2   2   2   2   2
#     4  10  22  43  70 105 150 197 255 312 378 455
#     4  11  24  46  72 106 148 199 247 316 388 466
#     4  11  24  46  72 106 148 199 247 316 388 466
#     4  12  26  46  74 110 148 194 256 328 396 480
#     4  10  22  43  70 105 150 197 255 312 378 455
#     4  10  22  42  66 104 146 200 254 314 374 448
#
# _framework density 28.412410999999999
#
# number of rings (size 3 to 8) (size 9 to 14) (size 15 to 20)
#    0.000    1.333    1.667    3.000    0.000    8.000 
#    0.000   10.000    0.000    0.000    0.000    0.000 
#    0.000    0.000    0.000    0.000    0.000    0.000 
#
# Total GULP energy -67209.092652 kJ/mol
# GULP energy per Si atom -5600.757721 kJ/mol
# Density = 2.834774 g / cm^3
# Si number density = 28.412411 Si / 1000 Ang^3
#
#
#
# Elastic Constant Matrix: (Units=GPa)
#
#
# Indices 1 2 3 4 5 6 
#
# 1 125.6044 25.2698 9.6091 0.0000 -1.9983 0.0000
# 2 25.2698 145.6984 64.5596 0.0000 6.2192 0.0000
# 3 9.6091 64.5596 115.9853 0.0000 -7.7905 0.0000
# 4 0.0000 0.0000 0.0000 50.9648 0.0000 9.4159
# 5 -1.9983 6.2192 -7.7905 0.0000 40.3300 0.0000
# 6 0.0000 0.0000 0.0000 9.4159 0.0000 37.3614
#
#
#
# Elastic Compliance Matrix: (Units=1/GPa)
#
#
# Indices 1 2 3 4 5 6 
#
# 1 0.008270 -0.001568 0.000234 0.000000 0.000697 0.000000
# 2 -0.001568 0.009646 -0.005415 0.000000 -0.002611 0.000000
# 3 0.000234 -0.005415 0.011827 0.000000 0.003131 0.000000
# 4 0.000000 0.000000 0.000000 0.020580 0.000000 -0.005187
# 5 0.000697 -0.002611 0.003131 0.000000 0.025837 0.000000
# 6 0.000000 0.000000 0.000000 -0.005187 0.000000 0.028073
#
#
# Mechanical properties :
#
#
# Convention : Reuss Voigt Hill
#
# Bulk Modulus (GPa) = 61.55239 65.12947 63.34093
# Shear Modulus (GPa) = 40.60261 44.92122 42.76191
#
# Velocity S-wave (km/s) = 3.78437 3.98055 3.88370
# Velocity P-wave (km/s) = 6.38798 6.64071 6.51557
#
# Compressibility (1/GPa) = 0.01624632
#
# Stress axis : x y z
#
# Youngs Moduli (GPa) = 120.91736 103.66776 84.55492
#
# Poissons Ratio (x) = 0.16255 -0.01982
# Poissons Ratio (y) = 0.18960 0.45784
# Poissons Ratio (z) = -0.02834 0.56133
#
# Static dielectric constant tensor:
#      x y z
#    x 2.303420 0.000000 0.091410 
#    y 0.000000 2.099230 0.000000 
#    z 0.091410 0.000000 2.362950 
# 
# From -- ./inp_files/4214.got.cif
#   From: 2010.05.17/outbox.cif.g08.bks.cpg/sg4_3_cif.got.tgz:4214.got - 2010.06.03 18:43:04.
