data_PCOD9116710
_publ_section_title
;
Structure prediction by ZEFSAII (Michael W. Deem and Ramdas Pophale) SiO2 
 PCOD9116710
Probable space group: P 21
;
_chemical_formula_sum "Si O2"
_cell_formula_units_Z 14
_cell_length_a 14.100970
_cell_length_b 5.644008
_cell_length_c 7.863079
_cell_angle_alpha 90.000000
_cell_angle_beta 57.739243
_cell_angle_gamma 90.000000
_cell_volume 529.186077
_symmetry_space_group_name_H-M "P 21"
_symmetry_group_IT_number 4
_symmetry_cell_setting 'monoclinic'
loop_
_space_group_symop_operation_xyz
x,y,z
-x,1/2+y,-z
loop_
_atom_site_type_symbol
_atom_site_label
_atom_site_fract_x
_atom_site_fract_y
_atom_site_fract_z
Si Si1 0.680043 0.470630 0.373277
Si Si2 0.300694 0.336194 0.037435
Si Si3 0.831167 0.084724 0.146885
Si Si4 0.494397 0.170291 0.704257
Si Si5 0.123415 0.006156 0.289003
Si Si6 0.698930 0.871397 0.591487
Si Si7 0.017157 0.507005 0.262794
O O1 0.795281 0.356899 0.203797
O O2 0.583756 0.277428 0.489664
O O3 0.619389 0.629763 0.292638
O O4 0.689688 0.600963 0.542231
O O5 0.250364 0.069552 0.115918
O O6 0.264096 0.442188 0.256117
O O7 0.242915 0.478619 0.938747
O O8 0.435809 0.335310 0.899529
O O9 0.785789 0.972669 0.366251
O O10 0.956308 0.029434 0.964049
O O11 0.570383 0.961315 0.700165
O O12 0.061641 0.241650 0.269689
O O13 0.095448 0.016327 0.517350
O O14 0.077597 0.754675 0.266611
#
# Coordination Sequence:
#
# PCOD9116710 Si02
#       7
#     2   2   2   2   2   2   2
#     4  11  20  39  59  83 121 159 212 256 312 381
#     4  11  23  40  63  89 126 163 213 262 326 377
#     4  10  22  40  63  86 122 167 203 259 327 379
#     4  11  21  36  58  83 116 165 207 253 315 371
#     4   9  19  38  62 102 121 163 214 265 307 399
#     4  11  25  39  57  91 123 160 216 265 309 390
#     4   9  18  36  70  92 127 163 213 254 328 379
#
# _framework density 26.455722000000002
#
# number of rings (size 3 to 8) (size 9 to 14) (size 15 to 20)
#    0.000    1.714    2.857    1.714    4.000    0.000 
#   12.857    0.000    3.143    0.000    0.000    0.000 
#    0.000    0.000    0.000    0.000    0.000    0.000 
#
# Total GULP energy -78023.687959 kJ/mol
# GULP energy per Si atom -5573.120569 kJ/mol
# Density = 2.639551 g / cm^3
# Si number density = 26.455722 Si / 1000 Ang^3
#
#
#
# Elastic Constant Matrix: (Units=GPa)
#
#
# Indices 1 2 3 4 5 6 
#
# 1 60.5797 30.8300 19.7448 0.0000 3.2619 0.0000
# 2 30.8300 79.3863 3.7540 0.0000 2.4750 0.0000
# 3 19.7448 3.7540 172.2333 0.0000 -4.1508 0.0000
# 4 0.0000 0.0000 0.0000 42.9695 0.0000 -7.5970
# 5 3.2619 2.4750 -4.1508 0.0000 45.5977 0.0000
# 6 0.0000 0.0000 0.0000 -7.5970 0.0000 15.8863
#
#
#
# Elastic Compliance Matrix: (Units=1/GPa)
#
#
# Indices 1 2 3 4 5 6 
#
# 1 0.021507 -0.008202 -0.002318 0.000000 -0.001304 0.000000
# 2 -0.008202 0.015761 0.000592 0.000000 -0.000215 0.000000
# 3 -0.002318 0.000592 0.006075 0.000000 0.000687 0.000000
# 4 0.000000 0.000000 0.000000 0.025422 0.000000 0.012157
# 5 -0.001304 -0.000215 0.000687 0.000000 0.022098 0.000000
# 6 0.000000 0.000000 0.000000 0.012157 0.000000 0.068761
#
#
# Mechanical properties :
#
#
# Convention : Reuss Voigt Hill
#
# Bulk Modulus (GPa) = 42.57886 46.76188 44.67037
# Shear Modulus (GPa) = 26.69365 38.08207 32.38786
#
# Velocity S-wave (km/s) = 3.17991 3.79814 3.50269
# Velocity P-wave (km/s) = 5.44167 6.07852 5.76889
#
# Compressibility (1/GPa) = 0.02348583
#
# Stress axis : x y z
#
# Youngs Moduli (GPa) = 46.49602 63.44904 164.59559
#
# Poissons Ratio (x) = 0.52042 0.38157
# Poissons Ratio (y) = 0.38137 -0.09737
# Poissons Ratio (z) = 0.10779 -0.03754
#
# Static dielectric constant tensor:
#      x y z
#    x 2.146700 0.000000 0.133870 
#    y 0.000000 2.298490 0.000000 
#    z 0.133870 0.000000 2.300690 
# 
# From -- ./inp_files/8852.got.cif
#   From: 2010.05.17/outbox.cif.g08.bks.cpg/sg4_5_cif.got.tgz:8852.got - 2010.06.03 18:43:04.
