data_PCOD9116689
_publ_section_title
;
Structure prediction by ZEFSAII (Michael W. Deem and Ramdas Pophale) SiO2 
 PCOD9116689
Probable space group: P 21
;
_chemical_formula_sum "Si O2"
_cell_formula_units_Z 16
_cell_length_a 16.282243
_cell_length_b 7.270259
_cell_length_c 5.595288
_cell_angle_alpha 90.000000
_cell_angle_beta 89.288222
_cell_angle_gamma 90.000000
_cell_volume 662.297396
_symmetry_space_group_name_H-M "P 21"
_symmetry_group_IT_number 4
_symmetry_cell_setting 'monoclinic'
loop_
_space_group_symop_operation_xyz
x,y,z
-x,1/2+y,-z
loop_
_atom_site_type_symbol
_atom_site_label
_atom_site_fract_x
_atom_site_fract_y
_atom_site_fract_z
Si Si1 0.517287 0.923860 0.863882
Si Si2 0.863640 0.961696 0.022162
Si Si3 0.880340 0.426373 0.495471
Si Si4 0.931567 0.999200 0.518769
Si Si5 0.677924 0.837436 0.098587
Si Si6 0.585452 0.653621 0.484401
Si Si7 0.352993 0.937005 0.137081
Si Si8 0.816253 0.370549 0.997593
O O1 0.648971 0.798473 0.370337
O O2 0.480367 0.083350 0.701828
O O3 0.603981 0.956210 0.988253
O O4 0.441840 0.882819 0.040372
O O5 0.898725 0.903160 0.762620
O O6 0.868650 0.184178 0.011605
O O7 0.909635 0.905697 0.264828
O O8 0.768783 0.908281 0.058892
O O9 0.891919 0.203472 0.508899
O O10 0.842584 0.477323 0.755370
O O11 0.970627 0.509678 0.466685
O O12 0.828950 0.465810 0.254901
O O13 0.535323 0.749746 0.695702
O O14 0.670813 0.635917 0.976443
O O15 0.635981 0.479808 0.583882
O O16 0.277763 0.815796 0.053864
#
# Coordination Sequence:
#
# PCOD9116689 Si02
#       8
#     2   2   2   2   2   2   2   2
#     4  10  22  40  60  90 122 166 210 264 308 382
#     4  10  23  40  63  92 126 163 208 258 312 375
#     4  10  22  41  63  92 123 161 205 255 316 379
#     4  10  22  41  63  92 123 161 205 255 316 379
#     4  10  23  39  59  90 123 162 211 256 311 372
#     4  10  22  40  62  86 126 162 220 254 320 372
#     4  10  23  39  59  90 123 162 211 256 311 372
#     4  10  23  40  63  92 126 163 208 258 312 375
#
# _framework density 24.158332999999999
#
# number of rings (size 3 to 8) (size 9 to 14) (size 15 to 20)
#    0.000    2.000    0.000    1.500    7.000    7.000 
#    2.250    0.000    0.000    0.000    0.000    0.000 
#    0.000    0.000    0.000    0.000    0.000    0.000 
#
# Total GULP energy -89404.991741 kJ/mol
# GULP energy per Si atom -5587.811984 kJ/mol
# Density = 2.410335 g / cm^3
# Si number density = 24.158333 Si / 1000 Ang^3
#
#
#
# Elastic Constant Matrix: (Units=GPa)
#
#
# Indices 1 2 3 4 5 6 
#
# 1 140.9470 -2.6153 84.7952 0.0000 8.1248 0.0000
# 2 -2.6153 41.3420 18.6834 0.0000 2.3476 0.0000
# 3 84.7952 18.6834 196.6744 0.0000 8.5999 0.0000
# 4 0.0000 0.0000 0.0000 10.8733 0.0000 1.8001
# 5 8.1248 2.3476 8.5999 0.0000 35.8361 0.0000
# 6 0.0000 0.0000 0.0000 1.8001 0.0000 28.4214
#
#
#
# Elastic Compliance Matrix: (Units=1/GPa)
#
#
# Indices 1 2 3 4 5 6 
#
# 1 0.009916 0.002726 -0.004475 0.000000 -0.001353 0.000000
# 2 0.002726 0.026065 -0.003588 0.000000 -0.001465 0.000000
# 3 -0.004475 -0.003588 0.007377 0.000000 -0.000521 0.000000
# 4 0.000000 0.000000 0.000000 0.092943 0.000000 -0.005887
# 5 -0.001353 -0.001465 -0.000521 0.000000 0.028432 0.000000
# 6 0.000000 0.000000 0.000000 -0.005887 0.000000 0.035558
#
#
# Mechanical properties :
#
#
# Convention : Reuss Voigt Hill
#
# Bulk Modulus (GPa) = 30.59385 64.52110 47.55748
# Shear Modulus (GPa) = 22.53683 33.56617 28.05150
#
# Velocity S-wave (km/s) = 3.05762 3.73154 3.41127
# Velocity P-wave (km/s) = 5.01565 6.73286 5.93668
#
# Compressibility (1/GPa) = 0.03268631
#
# Stress axis : x y z
#
# Youngs Moduli (GPa) = 100.85141 38.36507 135.54816
#
# Poissons Ratio (x) = -0.10460 0.60656
# Poissons Ratio (y) = -0.27496 0.48628
# Poissons Ratio (z) = 0.45130 0.13764
#
# Static dielectric constant tensor:
#      x y z
#    x 1.885900 0.000000 0.003620 
#    y 0.000000 1.988680 0.000000 
#    z 0.003620 0.000000 2.001360 
# 
# From -- ./inp_files/3572.got.cif
#   From: 2010.05.17/outbox.cif.g08.bks.cpg/sg4_2_cif.got.tgz:3572.got - 2010.06.03 18:43:04.
