data_PCOD9116295
_publ_section_title
;
Structure prediction by ZEFSAII (Michael W. Deem and Ramdas Pophale) SiO2 
 PCOD9116295
Probable space group: P 21
;
_chemical_formula_sum "Si O2"
_cell_formula_units_Z 16
_cell_length_a 9.170209
_cell_length_b 8.159193
_cell_length_c 11.048887
_cell_angle_alpha 90.000000
_cell_angle_beta 120.206586
_cell_angle_gamma 90.000000
_cell_volume 714.443295
_symmetry_space_group_name_H-M "P 21"
_symmetry_group_IT_number 4
_symmetry_cell_setting 'monoclinic'
loop_
_space_group_symop_operation_xyz
x,y,z
-x,1/2+y,-z
loop_
_atom_site_type_symbol
_atom_site_label
_atom_site_fract_x
_atom_site_fract_y
_atom_site_fract_z
Si Si1 0.807235 0.753310 0.035628
Si Si2 0.350422 0.802632 0.504771
Si Si3 0.925116 0.499825 0.491718
Si Si4 0.599763 0.975580 0.794828
Si Si5 0.087278 0.287029 0.355062
Si Si6 0.030306 0.452630 0.084398
Si Si7 0.579576 0.922440 0.422678
Si Si8 0.340021 0.224662 0.764609
O O1 0.351074 0.312863 0.109956
O O2 0.749727 0.768717 0.148667
O O3 0.876420 0.573620 0.037642
O O4 0.953445 0.869922 0.040399
O O5 0.385707 0.611312 0.535406
O O6 0.167483 0.851187 0.477998
O O7 0.476092 0.915728 0.638231
O O8 0.395851 0.864401 0.389842
O O9 0.792573 0.615658 0.366436
O O10 0.036356 0.426487 0.431264
O O11 0.989872 0.620204 0.623744
O O12 0.782918 0.036143 0.824831
O O13 0.504950 0.108305 0.837880
O O14 0.028973 0.324778 0.195280
O O15 0.290520 0.302222 0.448870
O O16 0.610784 0.879479 0.296270
#
# Coordination Sequence:
#
# PCOD9116295 Si02
#       8
#     2   2   2   2   2   2   2   2
#     4  10  22  45  63  93 124 177 216 274 319 380
#     4  11  21  40  60  95 127 164 211 263 327 396
#     4  10  22  37  63  92 132 167 206 267 324 388
#     4   9  22  41  61  86 124 171 216 264 323 373
#     4  11  20  41  61  93 129 171 208 264 326 391
#     4  10  22  44  65  87 132 170 222 264 321 390
#     4  11  22  36  64  93 128 163 208 264 329 398
#     4  10  21  42  61  91 130 165 219 274 321 382
#
# _framework density 22.395057999999999
#
# number of rings (size 3 to 8) (size 9 to 14) (size 15 to 20)
#    0.750    1.000    2.500    3.000    0.000    1.000 
#   11.250    0.000    0.000    0.000    0.000    0.000 
#    0.000    0.000    0.000    0.000    0.000    0.000 
#
# Total GULP energy -89251.119749 kJ/mol
# GULP energy per Si atom -5578.194984 kJ/mol
# Density = 2.234409 g / cm^3
# Si number density = 22.395058 Si / 1000 Ang^3
#
#
#
# Elastic Constant Matrix: (Units=GPa)
#
#
# Indices 1 2 3 4 5 6 
#
# 1 86.1376 32.4775 45.0758 0.0000 -44.5285 0.0000
# 2 32.4775 80.0880 34.1987 0.0000 -21.0391 0.0000
# 3 45.0758 34.1987 63.7501 0.0000 -42.1597 0.0000
# 4 0.0000 0.0000 0.0000 28.8957 0.0000 -4.8700
# 5 -44.5285 -21.0391 -42.1597 0.0000 47.8577 0.0000
# 6 0.0000 0.0000 0.0000 -4.8700 0.0000 46.0206
#
#
#
# Elastic Compliance Matrix: (Units=1/GPa)
#
#
# Indices 1 2 3 4 5 6 
#
# 1 0.023827 -0.003658 -0.003084 0.000000 0.017845 0.000000
# 2 -0.003658 0.016791 -0.009080 0.000000 -0.004021 0.000000
# 3 -0.003084 -0.009080 0.043603 0.000000 0.031550 0.000000
# 4 0.000000 0.000000 0.000000 0.035236 0.000000 0.003729
# 5 0.017845 -0.004021 0.031550 0.000000 0.063525 0.000000
# 6 0.000000 0.000000 0.000000 0.003729 0.000000 0.022124
#
#
# Mechanical properties :
#
#
# Convention : Reuss Voigt Hill
#
# Bulk Modulus (GPa) = 19.01977 50.38662 34.70320
# Shear Modulus (GPa) = 19.66379 32.43637 26.05008
#
# Velocity S-wave (km/s) = 2.96639 3.80988 3.41428
# Velocity P-wave (km/s) = 4.49932 6.47313 5.57428
#
# Compressibility (1/GPa) = 0.05257687
#
# Stress axis : x y z
#
# Youngs Moduli (GPa) = 41.96894 59.55704 22.93426
#
# Poissons Ratio (x) = 0.21784 0.07073
# Poissons Ratio (y) = 0.15351 0.20825
# Poissons Ratio (z) = 0.12943 0.54079
#
# Static dielectric constant tensor:
#      x y z
#    x 1.902340 0.000000 -0.005060 
#    y 0.000000 1.840250 0.000000 
#    z -0.005060 0.000000 1.841320 
# 
# From -- ./inp_files/10886.got.cif
#   From: 2010.05.17/outbox.cif.g08.bks.cpg/sg4_6_cif.got.tgz:10886.got - 2010.06.03 18:43:04.
