data_PCOD9116123
_publ_section_title
;
Structure prediction by ZEFSAII (Michael W. Deem and Ramdas Pophale) SiO2 
 PCOD9116123
Probable space group: P 21
;
_chemical_formula_sum "Si O2"
_cell_formula_units_Z 16
_cell_length_a 8.298346
_cell_length_b 15.589570
_cell_length_c 5.411958
_cell_angle_alpha 90.000000
_cell_angle_beta 73.927896
_cell_angle_gamma 90.000000
_cell_volume 672.766937
_symmetry_space_group_name_H-M "P 21"
_symmetry_group_IT_number 4
_symmetry_cell_setting 'monoclinic'
loop_
_space_group_symop_operation_xyz
x,y,z
-x,1/2+y,-z
loop_
_atom_site_type_symbol
_atom_site_label
_atom_site_fract_x
_atom_site_fract_y
_atom_site_fract_z
Si Si1 0.203307 0.464910 0.674209
Si Si2 0.720379 0.300541 0.453523
Si Si3 0.941003 0.445163 0.151471
Si Si4 0.398224 0.353517 0.246315
Si Si5 0.120045 0.055857 0.421727
Si Si6 0.655141 0.427019 0.868677
Si Si7 0.364618 0.173055 0.061287
Si Si8 0.432476 0.626537 0.527381
O O1 0.254915 0.383586 0.490140
O O2 0.352771 0.532805 0.587114
O O3 0.041833 0.512644 0.630126
O O4 0.127049 0.435622 0.966888
O O5 0.884333 0.357882 0.320506
O O6 0.561307 0.328628 0.348537
O O7 0.676553 0.332933 0.746666
O O8 0.715342 0.198055 0.446420
O O9 0.932245 0.541221 0.272922
O O10 0.794410 0.444616 0.011998
O O11 0.351763 0.275221 0.089905
O O12 0.471609 0.431995 0.053969
O O13 0.187548 0.133637 0.231328
O O14 0.286160 0.993899 0.359876
O O15 0.484261 0.148332 0.243318
O O16 0.441303 0.141325 0.764150
#
# Coordination Sequence:
#
# PCOD9116123 Si02
#       8
#     2   2   2   2   2   2   2   2
#     4  11  25  41  64 100 135 175 222 276 332 402
#     4   9  19  40  66  95 126 174 219 275 328 397
#     4   9  21  40  61  93 131 175 213 259 346 401
#     4  10  21  40  64  96 126 166 229 277 321 390
#     4  10  23  41  62  92 133 176 215 267 341 401
#     4   9  17  37  68  86 123 165 223 264 330 386
#     4  11  25  45  68  98 131 177 223 279 334 391
#     4  11  25  44  71 100 131 172 232 279 326 386
#
# _framework density 23.782381000000001
#
# number of rings (size 3 to 8) (size 9 to 14) (size 15 to 20)
#    0.000    2.000    1.250    0.750   10.500    1.000 
#    9.000    0.000    0.000    0.000    0.000    0.000 
#    0.000    0.000    0.000    0.000    0.000    0.000 
#
# Total GULP energy -89098.938286 kJ/mol
# GULP energy per Si atom -5568.683643 kJ/mol
# Density = 2.372825 g / cm^3
# Si number density = 23.782381 Si / 1000 Ang^3
#
#
#
# Elastic Constant Matrix: (Units=GPa)
#
#
# Indices 1 2 3 4 5 6 
#
# 1 79.1642 5.2537 18.6755 0.0000 -11.3201 0.0000
# 2 5.2537 58.3738 15.8994 0.0000 -17.8221 0.0000
# 3 18.6755 15.8994 134.9674 0.0000 -29.3962 0.0000
# 4 0.0000 0.0000 0.0000 36.4779 0.0000 -7.7045
# 5 -11.3201 -17.8221 -29.3962 0.0000 39.9939 0.0000
# 6 0.0000 0.0000 0.0000 -7.7045 0.0000 23.3168
#
#
#
# Elastic Compliance Matrix: (Units=1/GPa)
#
#
# Indices 1 2 3 4 5 6 
#
# 1 0.013331 0.000012 -0.001218 0.000000 0.002883 0.000000
# 2 0.000012 0.019856 -0.000492 0.000000 0.008490 0.000000
# 3 -0.001218 -0.000492 0.008945 0.000000 0.006011 0.000000
# 4 0.000000 0.000000 0.000000 0.029471 0.000000 0.009738
# 5 0.002883 0.008490 0.006011 0.000000 0.034022 0.000000
# 6 0.000000 0.000000 0.000000 0.009738 0.000000 0.046105
#
#
# Mechanical properties :
#
#
# Convention : Reuss Voigt Hill
#
# Bulk Modulus (GPa) = 25.81504 39.12919 32.47212
# Shear Modulus (GPa) = 29.75557 35.46950 32.61254
#
# Velocity S-wave (km/s) = 3.54101 3.86608 3.70711
# Velocity P-wave (km/s) = 5.25325 6.03469 5.65748
#
# Compressibility (1/GPa) = 0.03873711
#
# Stress axis : x y z
#
# Youngs Moduli (GPa) = 75.01410 50.36267 111.79687
#
# Poissons Ratio (x) = -0.00062 0.13617
# Poissons Ratio (y) = -0.00092 0.05495
# Poissons Ratio (z) = 0.09137 0.02476
#
# Static dielectric constant tensor:
#      x y z
#    x 1.913690 0.000000 0.044750 
#    y 0.000000 2.017990 0.000000 
#    z 0.044750 0.000000 2.131850 
# 
# From -- ./inp_files/2036.got.cif
#   From: 2010.05.17/outbox.cif.g08.bks.cpg/sg4_2_cif.got.tgz:2036.got - 2010.06.03 18:43:04.
