data_PCOD9116802
_publ_section_title
;
Structure prediction by ZEFSAII (Michael W. Deem and Ramdas Pophale) SiO2 
 PCOD9116802
Probable space group: P 21
;
_chemical_formula_sum "Si O2"
_cell_formula_units_Z 16
_cell_length_a 21.472061
_cell_length_b 5.611564
_cell_length_c 9.247594
_cell_angle_alpha 90.000000
_cell_angle_beta 38.063620
_cell_angle_gamma 90.000000
_cell_volume 686.981288
_symmetry_space_group_name_H-M "P 21"
_symmetry_group_IT_number 4
_symmetry_cell_setting 'monoclinic'
loop_
_space_group_symop_operation_xyz
x,y,z
-x,1/2+y,-z
loop_
_atom_site_type_symbol
_atom_site_label
_atom_site_fract_x
_atom_site_fract_y
_atom_site_fract_z
Si Si1 0.053077 0.165020 0.746035
Si Si2 0.048858 0.596974 0.360877
Si Si3 0.279010 0.557657 0.621060
Si Si4 0.655523 0.676487 0.301222
Si Si5 0.553113 0.981396 0.919084
Si Si6 0.102592 0.666220 0.725770
Si Si7 0.734161 0.273646 0.038806
Si Si8 0.435210 0.511279 0.780886
O O1 0.103308 0.423877 0.631155
O O2 0.968053 0.128943 0.780168
O O3 0.118026 0.921818 0.622033
O O4 0.005903 0.179023 0.993974
O O5 0.009139 0.331705 0.470446
O O6 0.165864 0.636669 0.187044
O O7 0.285521 0.291711 0.672889
O O8 0.370108 0.572238 0.342654
O O9 0.183379 0.629645 0.703530
O O10 0.288232 0.704288 0.752380
O O11 0.742002 0.553724 0.045727
O O12 0.554969 0.546336 0.545751
O O13 0.602153 0.851056 0.283616
O O14 0.488175 0.225139 0.059579
O O15 0.591182 0.923136 0.011145
O O16 0.636229 0.238976 0.118136
#
# Coordination Sequence:
#
# PCOD9116802 Si02
#       8
#     2   2   2   2   2   2   2   2
#     4  10  22  43  67 101 140 173 232 295 367 419
#     4  12  28  48  74 106 148 193 246 311 374 436
#     4  11  25  44  73 106 139 193 248 300 364 438
#     4  11  23  43  75 104 148 195 254 294 368 441
#     4  12  28  45  68 104 149 187 232 298 365 424
#     4  10  22  40  73 100 131 183 229 296 351 436
#     4  11  26  46  75 105 142 200 254 303 363 456
#     4  11  24  43  71 108 147 194 243 305 364 444
#
# _framework density 23.290299999999998
#
# number of rings (size 3 to 8) (size 9 to 14) (size 15 to 20)
#    0.000    1.000    3.750    1.500    8.750    3.000 
#    0.000    0.000    0.000    0.000    0.000    0.000 
#    0.000    0.000    0.000    0.000    0.000    0.000 
#
# Total GULP energy -89163.665434 kJ/mol
# GULP energy per Si atom -5572.729090 kJ/mol
# Density = 2.323729 g / cm^3
# Si number density = 23.290300 Si / 1000 Ang^3
#
#
#
# Elastic Constant Matrix: (Units=GPa)
#
#
# Indices 1 2 3 4 5 6 
#
# 1 41.3603 -9.1600 -5.5725 0.0000 -2.8997 0.0000
# 2 -9.1600 94.1107 18.3300 0.0000 -11.8902 0.0000
# 3 -5.5725 18.3300 47.5531 0.0000 4.1320 0.0000
# 4 0.0000 0.0000 0.0000 32.3437 0.0000 7.7125
# 5 -2.8997 -11.8902 4.1320 0.0000 26.4508 0.0000
# 6 0.0000 0.0000 0.0000 7.7125 0.0000 36.8780
#
#
#
# Elastic Compliance Matrix: (Units=1/GPa)
#
#
# Indices 1 2 3 4 5 6 
#
# 1 0.025232 0.002603 0.001634 0.000000 0.003681 0.000000
# 2 0.002603 0.012756 -0.005206 0.000000 0.006833 0.000000
# 3 0.001634 -0.005206 0.023737 0.000000 -0.005869 0.000000
# 4 0.000000 0.000000 0.000000 0.032541 0.000000 -0.006805
# 5 0.003681 0.006833 -0.005869 0.000000 0.042198 0.000000
# 6 0.000000 0.000000 0.000000 -0.006805 0.000000 0.028540
#
#
# Mechanical properties :
#
#
# Convention : Reuss Voigt Hill
#
# Bulk Modulus (GPa) = 16.72594 21.13544 18.93069
# Shear Modulus (GPa) = 26.75629 31.09627 28.92628
#
# Velocity S-wave (km/s) = 3.39310 3.65795 3.52801
# Velocity P-wave (km/s) = 4.74846 5.18992 4.97409
#
# Compressibility (1/GPa) = 0.05978736
#
# Stress axis : x y z
#
# Youngs Moduli (GPa) = 39.63162 78.39242 42.12791
#
# Poissons Ratio (x) = -0.20404 -0.06883
# Poissons Ratio (y) = -0.10315 0.21931
# Poissons Ratio (z) = -0.06475 0.40810
#
# Static dielectric constant tensor:
#      x y z
#    x 1.852650 0.000000 -0.014930 
#    y 0.000000 2.183850 0.000000 
#    z -0.014930 0.000000 1.897340 
# 
# From -- ./inp_files/7306.got.cif
#   From: 2010.05.17/outbox.cif.g08.bks.cpg/sg4_4_cif.got.tgz:7306.got - 2010.06.03 18:43:04.
