data_PCOD9116066
_publ_section_title
;
Structure prediction by ZEFSAII (Michael W. Deem and Ramdas Pophale) SiO2 
 PCOD9116066
Probable space group: P 21
;
_chemical_formula_sum "Si O2"
_cell_formula_units_Z 16
_cell_length_a 11.983577
_cell_length_b 9.019850
_cell_length_c 10.086874
_cell_angle_alpha 90.000000
_cell_angle_beta 39.347815
_cell_angle_gamma 90.000000
_cell_volume 691.273254
_symmetry_space_group_name_H-M "P 21"
_symmetry_group_IT_number 4
_symmetry_cell_setting 'monoclinic'
loop_
_space_group_symop_operation_xyz
x,y,z
-x,1/2+y,-z
loop_
_atom_site_type_symbol
_atom_site_label
_atom_site_fract_x
_atom_site_fract_y
_atom_site_fract_z
Si Si1 0.043133 0.537910 0.073688
Si Si2 0.123769 0.723464 0.766406
Si Si3 0.319515 0.142997 0.663146
Si Si4 0.803875 0.546934 0.940663
Si Si5 0.519307 0.381212 0.626975
Si Si6 0.915400 0.998481 0.657607
Si Si7 0.394914 0.296030 0.026300
Si Si8 0.206536 0.817240 0.256823
O O1 0.101701 0.519187 0.169220
O O2 0.977303 0.373127 0.094626
O O3 0.870394 0.641369 0.228950
O O4 0.163206 0.615520 0.853699
O O5 0.300958 0.783494 0.537138
O O6 0.986634 0.634301 0.799575
O O7 0.395394 0.299743 0.634805
O O8 0.437578 0.044872 0.459336
O O9 0.293193 0.056345 0.828292
O O10 0.830583 0.385503 0.854813
O O11 0.685664 0.637733 0.943121
O O12 0.435626 0.372772 0.847538
O O13 0.882289 0.160399 0.631651
O O14 0.105081 0.932154 0.446396
O O15 0.758540 0.887352 0.759744
O O16 0.583924 0.295478 0.922382
#
# Coordination Sequence:
#
# PCOD9116066 Si02
#       8
#     2   2   2   2   2   2   2   2
#     4  10  22  40  65  96 130 175 217 273 342 402
#     4  10  21  39  68  95 138 174 217 276 347 409
#     4   9  21  38  60  97 130 170 216 272 339 413
#     4  10  22  44  66  95 137 176 229 282 341 407
#     4  10  22  37  65  94 136 170 216 275 343 403
#     4  12  27  45  71 100 139 183 234 288 340 403
#     4  11  24  46  70  94 134 185 225 297 336 397
#     4  12  27  45  71  99 134 185 240 281 340 406
#
# _framework density 23.145695
#
# number of rings (size 3 to 8) (size 9 to 14) (size 15 to 20)
#    0.000    1.500    1.250    3.000    8.750    0.000 
#    0.000    1.250    0.000    0.000    0.000    0.000 
#    0.000    0.000    0.000    0.000    0.000    0.000 
#
# Total GULP energy -89469.781814 kJ/mol
# GULP energy per Si atom -5591.861363 kJ/mol
# Density = 2.309301 g / cm^3
# Si number density = 23.145695 Si / 1000 Ang^3
#
#
#
# Elastic Constant Matrix: (Units=GPa)
#
#
# Indices 1 2 3 4 5 6 
#
# 1 59.6956 4.5643 8.5486 0.0000 -22.9112 0.0000
# 2 4.5643 35.1649 0.8356 0.0000 -4.7009 0.0000
# 3 8.5486 0.8356 72.9868 0.0000 -12.8314 0.0000
# 4 0.0000 0.0000 0.0000 39.5919 0.0000 -2.3413
# 5 -22.9112 -4.7009 -12.8314 0.0000 40.8581 0.0000
# 6 0.0000 0.0000 0.0000 -2.3413 0.0000 32.8230
#
#
#
# Elastic Compliance Matrix: (Units=1/GPa)
#
#
# Indices 1 2 3 4 5 6 
#
# 1 0.021407 -0.001200 -0.000431 0.000000 0.011731 0.000000
# 2 -0.001200 0.028954 0.000293 0.000000 0.002750 0.000000
# 3 -0.000431 0.000293 0.014513 0.000000 0.004350 0.000000
# 4 0.000000 0.000000 0.000000 0.025365 0.000000 0.001809
# 5 0.011731 0.002750 0.004350 0.000000 0.032735 0.000000
# 6 0.000000 0.000000 0.000000 0.001809 0.000000 0.030595
#
#
# Mechanical properties :
#
#
# Convention : Reuss Voigt Hill
#
# Bulk Modulus (GPa) = 16.07809 21.74936 18.91372
# Shear Modulus (GPa) = 28.25180 32.91453 30.58317
#
# Velocity S-wave (km/s) = 3.49751 3.77511 3.63896
# Velocity P-wave (km/s) = 4.82407 5.33095 5.08383
#
# Compressibility (1/GPa) = 0.06219646
#
# Stress axis : x y z
#
# Youngs Moduli (GPa) = 46.71270 34.53763 68.90400
#
# Poissons Ratio (x) = 0.04145 0.02972
# Poissons Ratio (y) = 0.05607 -0.02016
# Poissons Ratio (z) = 0.02015 -0.01011
#
# Static dielectric constant tensor:
#      x y z
#    x 1.879220 0.000000 -0.016150 
#    y 0.000000 1.862780 0.000000 
#    z -0.016150 0.000000 1.876990 
# 
# From -- ./inp_files/9228.got.cif
#   From: 2010.05.17/outbox.cif.g08.bks.cpg/sg4_5_cif.got.tgz:9228.got - 2010.06.03 18:43:04.
