data_PCOD9116859
_publ_section_title
;
Structure prediction by ZEFSAII (Michael W. Deem and Ramdas Pophale) SiO2 
 PCOD9116859
Probable space group: P 21
;
_chemical_formula_sum "Si O2"
_cell_formula_units_Z 14
_cell_length_a 5.355451
_cell_length_b 19.102275
_cell_length_c 5.156745
_cell_angle_alpha 90.000000
_cell_angle_beta 91.881450
_cell_angle_gamma 90.000000
_cell_volume 527.257307
_symmetry_space_group_name_H-M "P 21"
_symmetry_group_IT_number 4
_symmetry_cell_setting 'monoclinic'
loop_
_space_group_symop_operation_xyz
x,y,z
-x,1/2+y,-z
loop_
_atom_site_type_symbol
_atom_site_label
_atom_site_fract_x
_atom_site_fract_y
_atom_site_fract_z
Si Si1 0.819178 0.479790 0.053056
Si Si2 0.958373 0.047636 0.462250
Si Si3 0.554099 0.090632 0.042665
Si Si4 0.815978 0.214818 0.920031
Si Si5 0.859380 0.815054 0.404637
Si Si6 0.178834 0.185435 0.330370
Si Si7 0.637834 0.352917 0.760503
O O1 0.905761 0.508506 0.775265
O O2 0.571490 0.525072 0.098193
O O3 0.744219 0.400626 0.993465
O O4 0.014413 0.499584 0.283121
O O5 0.118184 0.119571 0.513133
O O6 0.698989 0.065864 0.307293
O O7 0.727776 0.136520 0.857070
O O8 0.347962 0.147227 0.124150
O O9 0.902388 0.205724 0.217125
O O10 0.612471 0.273208 0.858372
O O11 0.049363 0.253281 0.790745
O O12 0.727014 0.763145 0.604070
O O13 0.645375 0.870657 0.326257
O O14 0.133043 0.851016 0.440026
#
# Coordination Sequence:
#
# PCOD9116859 Si02
#       7
#     2   2   2   2   2   2   2
#     4  11  26  50  68 109 150 201 256 301 385 451
#     4  10  26  43  74 104 147 194 244 315 369 454
#     4  10  23  44  76 109 145 197 251 320 372 450
#     4   9  22  42  65 106 140 186 246 313 374 434
#     4  10  24  43  70 101 140 188 238 307 372 440
#     4  10  22  41  66 108 136 185 247 309 377 435
#     4  10  25  45  71 103 144 197 248 307 373 456
#
# _framework density 26.552502
#
# number of rings (size 3 to 8) (size 9 to 14) (size 15 to 20)
#    0.857    1.143    0.000    0.857   14.000    3.429 
#    5.143    0.000    0.000    0.000    0.000    0.000 
#    0.000    0.000    0.000    0.000    0.000    0.000 
#
# Total GULP energy -77998.808582 kJ/mol
# GULP energy per Si atom -5571.343470 kJ/mol
# Density = 2.649207 g / cm^3
# Si number density = 26.552502 Si / 1000 Ang^3
#
#
#
# Elastic Constant Matrix: (Units=GPa)
#
#
# Indices 1 2 3 4 5 6 
#
# 1 123.3642 21.6728 24.2961 0.0000 -3.5240 0.0000
# 2 21.6728 42.2984 12.5124 0.0000 9.1499 0.0000
# 3 24.2961 12.5124 61.9984 0.0000 2.8923 0.0000
# 4 0.0000 0.0000 0.0000 34.5845 0.0000 3.6827
# 5 -3.5240 9.1499 2.8923 0.0000 36.2798 0.0000
# 6 0.0000 0.0000 0.0000 3.6827 0.0000 26.3406
#
#
#
# Elastic Compliance Matrix: (Units=1/GPa)
#
#
# Indices 1 2 3 4 5 6 
#
# 1 0.009544 -0.004520 -0.002935 0.000000 0.002301 0.000000
# 2 -0.004520 0.028635 -0.003664 0.000000 -0.007369 0.000000
# 3 -0.002935 -0.003664 0.018057 0.000000 -0.000800 0.000000
# 4 0.000000 0.000000 0.000000 0.029352 0.000000 -0.004104
# 5 0.002301 -0.007369 -0.000800 0.000000 0.029709 0.000000
# 6 0.000000 0.000000 0.000000 -0.004104 0.000000 0.038538
#
#
# Mechanical properties :
#
#
# Convention : Reuss Voigt Hill
#
# Bulk Modulus (GPa) = 29.41384 38.29150 33.85267
# Shear Modulus (GPa) = 26.68017 30.71964 28.69990
#
# Velocity S-wave (km/s) = 3.17331 3.40507 3.29123
# Velocity P-wave (km/s) = 4.95259 5.46916 5.21727
#
# Compressibility (1/GPa) = 0.03399760
#
# Stress axis : x y z
#
# Youngs Moduli (GPa) = 104.77902 34.92204 55.38139
#
# Poissons Ratio (x) = 0.15783 0.16256
# Poissons Ratio (y) = 0.47355 0.20293
# Poissons Ratio (z) = 0.30756 0.12796
#
# Static dielectric constant tensor:
#      x y z
#    x 2.203720 0.000000 -0.048030 
#    y 0.000000 2.106480 0.000000 
#    z -0.048030 0.000000 2.324650 
# 
# From -- ./inp_files/652.got.cif
#   From: 2010.05.17/outbox.cif.g08.bks.cpg/sg4_1_cif.got.tgz:652.got - 2010.06.03 18:43:04.
