data_PCOD9116681
_publ_section_title
;
Structure prediction by ZEFSAII (Michael W. Deem and Ramdas Pophale) SiO2 
 PCOD9116681
Probable space group: P 21
;
_chemical_formula_sum "Si O2"
_cell_formula_units_Z 16
_cell_length_a 11.154415
_cell_length_b 8.938087
_cell_length_c 16.033497
_cell_angle_alpha 90.000000
_cell_angle_beta 23.561372
_cell_angle_gamma 90.000000
_cell_volume 638.980517
_symmetry_space_group_name_H-M "P 21"
_symmetry_group_IT_number 4
_symmetry_cell_setting 'monoclinic'
loop_
_space_group_symop_operation_xyz
x,y,z
-x,1/2+y,-z
loop_
_atom_site_type_symbol
_atom_site_label
_atom_site_fract_x
_atom_site_fract_y
_atom_site_fract_z
Si Si1 0.145787 0.001400 0.923142
Si Si2 0.385441 0.161882 0.101625
Si Si3 0.278320 0.336872 0.492421
Si Si4 0.730552 0.341364 0.747264
Si Si5 0.858025 0.250295 0.324598
Si Si6 0.349888 0.075744 0.556477
Si Si7 0.858338 0.302033 0.908621
Si Si8 0.707577 0.821861 0.106806
O O1 0.226333 0.173508 0.882516
O O2 0.144930 0.910779 0.011091
O O3 0.054940 0.148367 0.790041
O O4 0.839156 0.960757 0.072851
O O5 0.053560 0.203960 0.280189
O O6 0.397687 0.992450 0.127343
O O7 0.604682 0.201618 0.882999
O O8 0.531848 0.260211 0.082056
O O9 0.358265 0.168010 0.465041
O O10 0.581209 0.427601 0.301292
O O11 0.041691 0.378972 0.715977
O O12 0.087224 0.348797 0.530830
O O13 0.620909 0.334048 0.722471
O O14 0.632126 0.130860 0.429377
O O15 0.670225 0.403024 0.452103
O O16 0.096751 0.293224 0.101133
#
# Coordination Sequence:
#
# PCOD9116681 Si02
#       8
#     2   2   2   2   2   2   2   2
#     4  12  26  47  71 104 148 195 240 305 355 436
#     4  10  22  39  73 104 143 185 240 302 362 434
#     4   9  23  46  72 100 149 182 241 311 355 428
#     4  10  23  43  71 107 147 187 246 302 367 437
#     4  11  24  41  72 111 145 189 251 296 371 434
#     4  10  23  40  70 105 145 183 236 307 351 438
#     4   9  22  42  74  98 137 196 236 294 369 425
#     4  11  27  44  71 105 150 195 250 293 368 444
#
# _framework density 25.039888999999999
#
# number of rings (size 3 to 8) (size 9 to 14) (size 15 to 20)
#    0.750    1.000    1.250    1.500   14.000    0.000 
#    2.250    0.000    0.000    0.000    0.000    0.000 
#    0.000    0.000    0.000    0.000    0.000    0.000 
#
# Total GULP energy -89530.222500 kJ/mol
# GULP energy per Si atom -5595.638906 kJ/mol
# Density = 2.498290 g / cm^3
# Si number density = 25.039889 Si / 1000 Ang^3
#
#
#
# Elastic Constant Matrix: (Units=GPa)
#
#
# Indices 1 2 3 4 5 6 
#
# 1 81.1025 20.2269 34.2104 0.0000 -30.7424 0.0000
# 2 20.2269 129.5179 25.4022 0.0000 -20.9529 0.0000
# 3 34.2104 25.4022 88.9649 0.0000 -38.0760 0.0000
# 4 0.0000 0.0000 0.0000 29.0632 0.0000 -1.1475
# 5 -30.7424 -20.9529 -38.0760 0.0000 61.7157 0.0000
# 6 0.0000 0.0000 0.0000 -1.1475 0.0000 34.3693
#
#
#
# Elastic Compliance Matrix: (Units=1/GPa)
#
#
# Indices 1 2 3 4 5 6 
#
# 1 0.016169 -0.000928 -0.003588 0.000000 0.005526 0.000000
# 2 -0.000928 0.008385 -0.001382 0.000000 0.001532 0.000000
# 3 -0.003588 -0.001382 0.016372 0.000000 0.007844 0.000000
# 4 0.000000 0.000000 0.000000 0.034453 0.000000 0.001150
# 5 0.005526 0.001532 0.007844 0.000000 0.024316 0.000000
# 6 0.000000 0.000000 0.000000 0.001150 0.000000 0.029134
#
#
# Mechanical properties :
#
#
# Convention : Reuss Voigt Hill
#
# Bulk Modulus (GPa) = 34.32657 51.02937 42.67797
# Shear Modulus (GPa) = 33.25929 39.67938 36.46933
#
# Velocity S-wave (km/s) = 3.64847 3.98508 3.82049
# Velocity P-wave (km/s) = 5.61133 6.44965 6.04504
#
# Compressibility (1/GPa) = 0.02913195
#
# Stress axis : x y z
#
# Youngs Moduli (GPa) = 61.84486 119.26562 61.08022
#
# Poissons Ratio (x) = 0.11062 0.21915
# Poissons Ratio (y) = 0.05736 0.08439
# Poissons Ratio (z) = 0.22189 0.16478
#
# Static dielectric constant tensor:
#      x y z
#    x 2.039740 0.000000 -0.002330 
#    y 0.000000 1.986270 0.000000 
#    z -0.002330 0.000000 2.001850 
# 
# From -- ./inp_files/7853.got.cif
#   From: 2010.05.17/outbox.cif.g08.bks.cpg/sg4_4_cif.got.tgz:7853.got - 2010.06.03 18:43:04.
