data_PCOD9116351
_publ_section_title
;
Structure prediction by ZEFSAII (Michael W. Deem and Ramdas Pophale) SiO2 
 PCOD9116351
Probable space group: P 21
;
_chemical_formula_sum "Si O2"
_cell_formula_units_Z 16
_cell_length_a 9.113123
_cell_length_b 8.053131
_cell_length_c 12.001594
_cell_angle_alpha 90.000000
_cell_angle_beta 127.769285
_cell_angle_gamma 90.000000
_cell_volume 696.247609
_symmetry_space_group_name_H-M "P 21"
_symmetry_group_IT_number 4
_symmetry_cell_setting 'monoclinic'
loop_
_space_group_symop_operation_xyz
x,y,z
-x,1/2+y,-z
loop_
_atom_site_type_symbol
_atom_site_label
_atom_site_fract_x
_atom_site_fract_y
_atom_site_fract_z
Si Si1 0.659415 0.577470 0.165096
Si Si2 0.089776 0.093968 0.303274
Si Si3 0.800871 0.239675 0.545645
Si Si4 0.331762 0.692506 0.887373
Si Si5 0.562437 0.037703 0.287921
Si Si6 0.156193 0.247255 0.557412
Si Si7 0.974095 0.649340 0.154362
Si Si8 0.154259 0.956842 0.112835
O O1 0.684273 0.389276 0.136537
O O2 0.732765 0.604774 0.323691
O O3 0.793444 0.685623 0.146614
O O4 0.451839 0.640867 0.049974
O O5 0.156112 0.223897 0.425756
O O6 0.134887 0.105650 0.194309
O O7 0.867037 0.105083 0.205154
O O8 0.178885 0.920988 0.389439
O O9 0.610330 0.172356 0.405738
O O10 0.872323 0.119354 0.678410
O O11 0.950463 0.242843 0.513940
O O12 0.446145 0.628009 0.834188
O O13 0.375424 0.933011 0.213905
O O14 0.738036 0.915809 0.366569
O O15 0.042626 0.804129 0.113010
O O16 0.923840 0.507207 0.043341
#
# Coordination Sequence:
#
# PCOD9116351 Si02
#       8
#     2   2   2   2   2   2   2   2
#     4  11  26  42  71 106 138 178 239 302 345 408
#     4  11  25  42  68  99 141 187 225 282 352 417
#     4  10  21  42  69  99 136 174 233 292 335 407
#     4  12  24  42  72 105 134 182 239 294 344 408
#     4  12  24  43  72 104 144 176 235 287 350 428
#     4  11  22  41  68 103 131 182 229 290 347 401
#     4  10  25  46  68  98 143 187 229 279 354 420
#     4  11  27  46  66 102 143 190 225 284 351 431
#
# _framework density 22.980329000000001
#
# number of rings (size 3 to 8) (size 9 to 14) (size 15 to 20)
#    0.000    1.000    3.750    1.500    8.750    2.000 
#    0.000    0.000    0.000    0.000    0.000    0.000 
#    0.000    0.000    0.000    0.000    0.000    0.000 
#
# Total GULP energy -89444.347617 kJ/mol
# GULP energy per Si atom -5590.271726 kJ/mol
# Density = 2.292802 g / cm^3
# Si number density = 22.980329 Si / 1000 Ang^3
#
#
#
# Elastic Constant Matrix: (Units=GPa)
#
#
# Indices 1 2 3 4 5 6 
#
# 1 51.0116 14.9660 16.2300 0.0000 -2.3372 0.0000
# 2 14.9660 69.7764 2.1516 0.0000 6.8018 0.0000
# 3 16.2300 2.1516 63.0244 0.0000 0.7811 0.0000
# 4 0.0000 0.0000 0.0000 32.2046 0.0000 -8.7342
# 5 -2.3372 6.8018 0.7811 0.0000 32.3464 0.0000
# 6 0.0000 0.0000 0.0000 -8.7342 0.0000 28.2910
#
#
#
# Elastic Compliance Matrix: (Units=1/GPa)
#
#
# Indices 1 2 3 4 5 6 
#
# 1 0.023061 -0.005047 -0.005802 0.000000 0.002868 0.000000
# 2 -0.005047 0.015749 0.000808 0.000000 -0.003696 0.000000
# 3 -0.005802 0.000808 0.017346 0.000000 -0.001008 0.000000
# 4 0.000000 0.000000 0.000000 0.033889 0.000000 0.010462
# 5 0.002868 -0.003696 -0.001008 0.000000 0.031924 0.000000
# 6 0.000000 0.000000 0.000000 0.010462 0.000000 0.038577
#
#
# Mechanical properties :
#
#
# Convention : Reuss Voigt Hill
#
# Bulk Modulus (GPa) = 27.72046 27.83417 27.77732
# Shear Modulus (GPa) = 25.95325 28.59937 27.27631
#
# Velocity S-wave (km/s) = 3.36425 3.53160 3.44894
# Velocity P-wave (km/s) = 5.21343 5.36358 5.28904
#
# Compressibility (1/GPa) = 0.03607443
#
# Stress axis : x y z
#
# Youngs Moduli (GPa) = 43.36233 63.49455 57.65042
#
# Poissons Ratio (x) = 0.32046 0.33449
# Poissons Ratio (y) = 0.21885 -0.04657
# Poissons Ratio (z) = 0.25159 -0.05129
#
# Static dielectric constant tensor:
#      x y z
#    x 1.852320 0.000000 -0.006860 
#    y 0.000000 1.902160 0.000000 
#    z -0.006860 0.000000 1.871600 
# 
# From -- ./inp_files/5675.got.cif
#   From: 2010.05.17/outbox.cif.g08.bks.cpg/sg4_3_cif.got.tgz:5675.got - 2010.06.03 18:43:04.
