data_PCOD9116896
_publ_section_title
;
Structure prediction by ZEFSAII (Michael W. Deem and Ramdas Pophale) SiO2 
 PCOD9116896
Probable space group: P 21
;
_chemical_formula_sum "Si O2"
_cell_formula_units_Z 12
_cell_length_a 16.035475
_cell_length_b 5.056452
_cell_length_c 7.252008
_cell_angle_alpha 90.000000
_cell_angle_beta 135.123328
_cell_angle_gamma 90.000000
_cell_volume 414.891149
_symmetry_space_group_name_H-M "P 21"
_symmetry_group_IT_number 4
_symmetry_cell_setting 'monoclinic'
loop_
_space_group_symop_operation_xyz
x,y,z
-x,1/2+y,-z
loop_
_atom_site_type_symbol
_atom_site_label
_atom_site_fract_x
_atom_site_fract_y
_atom_site_fract_z
Si Si1 0.631772 0.994940 0.969181
Si Si2 0.127723 0.649399 0.738594
Si Si3 0.610062 0.271737 0.293058
Si Si4 0.186283 0.011066 0.161471
Si Si5 0.514614 0.971955 0.457550
Si Si6 0.011922 0.869127 0.211376
O O1 0.766483 0.938827 0.121528
O O2 0.664089 0.224093 0.180407
O O3 0.524354 0.876979 0.930347
O O4 0.565711 0.197827 0.710653
O O5 0.011213 0.603364 0.681547
O O6 0.075694 0.676580 0.453300
O O7 0.187328 0.874683 0.962915
O O8 0.689395 0.471629 0.540520
O O9 0.599683 0.025876 0.419412
O O10 0.090697 0.883114 0.154276
O O11 0.123242 0.293471 0.049074
O O12 0.425721 0.244356 0.297348
#
# Coordination Sequence:
#
# PCOD9116896 Si02
#       6
#     2   2   2   2   2   2
#     4  11  24  45  69 104 148 191 244 309 378 456
#     4  12  25  47  75 105 146 189 250 313 373 455
#     4  11  24  45  69 104 148 191 244 309 378 456
#     4  12  25  47  75 105 146 189 250 313 373 455
#     4  10  22  41  68  98 142 193 246 302 370 456
#     4  12  26  47  76 108 140 195 250 314 378 446
#
# _framework density 28.923248999999998
#
# number of rings (size 3 to 8) (size 9 to 14) (size 15 to 20)
#    0.000    0.667    6.667    1.000    0.000    5.333 
#   12.000    0.000    0.000    0.000    0.000    0.000 
#    0.000    0.000    0.000    0.000    0.000    0.000 
#
# Total GULP energy -66863.237944 kJ/mol
# GULP energy per Si atom -5571.936495 kJ/mol
# Density = 2.885742 g / cm^3
# Si number density = 28.923249 Si / 1000 Ang^3
#
#
#
# Elastic Constant Matrix: (Units=GPa)
#
#
# Indices 1 2 3 4 5 6 
#
# 1 148.7903 41.9930 39.8057 0.0000 -10.7432 0.0000
# 2 41.9930 146.9509 19.6430 0.0000 20.8744 0.0000
# 3 39.8057 19.6430 102.7835 0.0000 -11.6540 0.0000
# 4 0.0000 0.0000 0.0000 24.1245 0.0000 5.9472
# 5 -10.7432 20.8744 -11.6540 0.0000 54.0465 0.0000
# 6 0.0000 0.0000 0.0000 5.9472 0.0000 54.5519
#
#
#
# Elastic Compliance Matrix: (Units=1/GPa)
#
#
# Indices 1 2 3 4 5 6 
#
# 1 0.008178 -0.002281 -0.002508 0.000000 0.001966 0.000000
# 2 -0.002281 0.008151 -0.001110 0.000000 -0.003841 0.000000
# 3 -0.002508 -0.001110 0.011178 0.000000 0.002340 0.000000
# 4 0.000000 0.000000 0.000000 0.042596 0.000000 -0.004644
# 5 0.001966 -0.003841 0.002340 0.000000 0.020881 0.000000
# 6 0.000000 0.000000 0.000000 -0.004644 0.000000 0.018837
#
#
# Mechanical properties :
#
#
# Convention : Reuss Voigt Hill
#
# Bulk Modulus (GPa) = 63.65969 66.82311 65.24140
# Shear Modulus (GPa) = 39.41499 46.35013 42.88256
#
# Velocity S-wave (km/s) = 3.69554 4.00749 3.85467
# Velocity P-wave (km/s) = 6.34563 6.67586 6.51284
#
# Compressibility (1/GPa) = 0.01570853
#
# Stress axis : x y z
#
# Youngs Moduli (GPa) = 122.28667 122.68917 89.46119
#
# Poissons Ratio (x) = 0.27982 0.22439
# Poissons Ratio (y) = 0.27891 0.09929
# Poissons Ratio (z) = 0.30672 0.13617
#
# Static dielectric constant tensor:
#      x y z
#    x 2.107440 0.000000 -0.080770 
#    y 0.000000 2.592400 0.000000 
#    z -0.080770 0.000000 2.461080 
# 
# From -- ./inp_files/9788.got.cif
#   From: 2010.05.17/outbox.cif.g08.bks.cpg/sg4_5_cif.got.tgz:9788.got - 2010.06.03 18:43:04.
