data_PCOD9116724
_publ_section_title
;
Structure prediction by ZEFSAII (Michael W. Deem and Ramdas Pophale) SiO2 
 PCOD9116724
Probable space group: P 21
;
_chemical_formula_sum "Si O2"
_cell_formula_units_Z 14
_cell_length_a 15.595947
_cell_length_b 5.483475
_cell_length_c 17.040353
_cell_angle_alpha 90.000000
_cell_angle_beta 154.313666
_cell_angle_gamma 90.000000
_cell_volume 631.654147
_symmetry_space_group_name_H-M "P 21"
_symmetry_group_IT_number 4
_symmetry_cell_setting 'monoclinic'
loop_
_space_group_symop_operation_xyz
x,y,z
-x,1/2+y,-z
loop_
_atom_site_type_symbol
_atom_site_label
_atom_site_fract_x
_atom_site_fract_y
_atom_site_fract_z
Si Si1 0.578679 0.445460 0.526158
Si Si2 0.631201 0.971599 0.941573
Si Si3 0.343428 0.592117 0.645878
Si Si4 0.891482 0.479757 0.894984
Si Si5 0.033269 0.390206 0.657316
Si Si6 0.565384 0.233194 0.733391
Si Si7 0.769477 0.708560 0.328454
O O1 0.489159 0.677604 0.501615
O O2 0.808953 0.463905 0.738245
O O3 0.510502 0.510415 0.382715
O O4 0.550211 0.723558 0.835427
O O5 0.667567 0.143469 0.897030
O O6 0.434979 0.063147 0.826629
O O7 0.816909 0.962967 0.151291
O O8 0.380194 0.388154 0.611159
O O9 0.277075 0.471386 0.673125
O O10 0.164311 0.763751 0.473236
O O11 0.712442 0.396198 0.803700
O O12 0.956069 0.755909 0.966673
O O13 0.157613 0.220048 0.700057
O O14 0.941772 0.597584 0.525329
#
# Coordination Sequence:
#
# PCOD9116724 Si02
#       7
#     2   2   2   2   2   2   2
#     4  10  22  43  75  97 135 189 225 283 355 420
#     4  10  25  41  66  99 134 181 227 282 361 405
#     4  10  23  44  64  96 133 179 221 287 350 402
#     4  11  24  45  72 110 135 180 242 289 353 432
#     4  11  22  42  67  94 136 177 239 279 345 417
#     4  10  24  47  65  95 145 169 228 290 349 431
#     4  10  22  40  63  97 130 175 232 288 329 417
#
# _framework density 22.164026
#
# number of rings (size 3 to 8) (size 9 to 14) (size 15 to 20)
#    0.000    1.714    1.429    1.714    8.000    2.286 
#   10.286    0.000    0.000    0.000    0.000    0.000 
#    0.000    0.000    0.000    0.000    0.000    0.000 
#
# Total GULP energy -78175.880148 kJ/mol
# GULP energy per Si atom -5583.991439 kJ/mol
# Density = 2.211358 g / cm^3
# Si number density = 22.164026 Si / 1000 Ang^3
#
#
#
# Elastic Constant Matrix: (Units=GPa)
#
#
# Indices 1 2 3 4 5 6 
#
# 1 80.3072 6.2370 27.0652 0.0000 -17.5228 0.0000
# 2 6.2370 60.2552 22.2271 0.0000 -9.7107 0.0000
# 3 27.0652 22.2271 157.8720 0.0000 -27.1737 0.0000
# 4 0.0000 0.0000 0.0000 26.7006 0.0000 -5.1300
# 5 -17.5228 -9.7107 -27.1737 0.0000 23.1686 0.0000
# 6 0.0000 0.0000 0.0000 -5.1300 0.0000 25.0407
#
#
#
# Elastic Compliance Matrix: (Units=1/GPa)
#
#
# Indices 1 2 3 4 5 6 
#
# 1 0.015000 0.000453 -0.000814 0.000000 0.010579 0.000000
# 2 0.000453 0.018112 -0.001581 0.000000 0.006079 0.000000
# 3 -0.000814 -0.001581 0.008115 0.000000 0.008239 0.000000
# 4 0.000000 0.000000 0.000000 0.038987 0.000000 0.007987
# 5 0.010579 0.006079 0.008239 0.000000 0.063374 0.000000
# 6 0.000000 0.000000 0.000000 0.007987 0.000000 0.041571
#
#
# Mechanical properties :
#
#
# Convention : Reuss Voigt Hill
#
# Bulk Modulus (GPa) = 26.78031 45.49921 36.13976
# Shear Modulus (GPa) = 24.81490 31.17564 27.99527
#
# Velocity S-wave (km/s) = 3.34968 3.75452 3.55786
# Velocity P-wave (km/s) = 5.20283 6.27441 5.76358
#
# Compressibility (1/GPa) = 0.03734087
#
# Stress axis : x y z
#
# Youngs Moduli (GPa) = 66.66744 55.21131 123.23516
#
# Poissons Ratio (x) = -0.02499 0.10035
# Poissons Ratio (y) = -0.03018 0.19487
# Poissons Ratio (z) = 0.05429 0.08730
#
# Static dielectric constant tensor:
#      x y z
#    x 1.825020 0.000000 0.014110 
#    y 0.000000 1.896800 0.000000 
#    z 0.014110 0.000000 1.803490 
# 
# From -- ./inp_files/14095.got.cif
#   From: 2010.05.17/outbox.cif.g08.bks.cpg/sg4_8_cif.got.tgz:14095.got - 2010.06.03 18:43:04.
