data_PCOD9116277
_publ_section_title
;
Structure prediction by ZEFSAII (Michael W. Deem and Ramdas Pophale) SiO2 
 PCOD9116277
Probable space group: P 21
;
_chemical_formula_sum "Si O2"
_cell_formula_units_Z 14
_cell_length_a 5.846289
_cell_length_b 14.237703
_cell_length_c 7.871448
_cell_angle_alpha 90.000000
_cell_angle_beta 58.359151
_cell_angle_gamma 90.000000
_cell_volume 557.807801
_symmetry_space_group_name_H-M "P 21"
_symmetry_group_IT_number 4
_symmetry_cell_setting 'monoclinic'
loop_
_space_group_symop_operation_xyz
x,y,z
-x,1/2+y,-z
loop_
_atom_site_type_symbol
_atom_site_label
_atom_site_fract_x
_atom_site_fract_y
_atom_site_fract_z
Si Si1 0.160509 0.677690 0.729351
Si Si2 0.595910 0.710574 0.979062
Si Si3 0.184267 0.588834 0.345306
Si Si4 0.085061 0.405426 0.560367
Si Si5 0.581452 0.419601 0.953853
Si Si6 0.893199 0.975712 0.089646
Si Si7 0.733317 0.701648 0.558344
O O1 0.149964 0.637369 0.542489
O O2 0.152969 0.583702 0.844783
O O3 0.439485 0.731446 0.610152
O O4 0.905902 0.733638 0.903102
O O5 0.429347 0.638999 0.157027
O O6 0.442319 0.807617 0.015025
O O7 0.645930 0.663656 0.777191
O O8 0.206664 0.479713 0.381832
O O9 0.897464 0.626148 0.382290
O O10 0.204311 0.416957 0.704942
O O11 0.107156 0.299247 0.491417
O O12 0.776976 0.434765 0.714219
O O13 0.289319 0.454566 0.002972
O O14 0.782617 0.457059 0.025211
#
# Coordination Sequence:
#
# PCOD9116277 Si02
#       7
#     2   2   2   2   2   2   2
#     4  10  24  40  66  94 136 179 228 287 347 410
#     4  11  25  39  66  99 138 178 230 286 354 408
#     4  10  21  45  64  92 135 181 228 287 346 415
#     4   9  21  39  69  96 133 181 235 276 349 410
#     4  10  21  41  69  96 131 182 226 285 345 407
#     4   9  21  40  68  95 132 182 229 282 343 406
#     4  11  23  42  66 102 135 183 230 293 342 420
#
# _framework density 25.098248999999999
#
# number of rings (size 3 to 8) (size 9 to 14) (size 15 to 20)
#    0.857    1.143    1.429    0.857    6.000    2.286 
#    0.000    0.000    0.000    0.000    0.000    0.000 
#    0.000    0.000    0.000    0.000    0.000    0.000 
#
# Total GULP energy -78008.761947 kJ/mol
# GULP energy per Si atom -5572.054425 kJ/mol
# Density = 2.504112 g / cm^3
# Si number density = 25.098249 Si / 1000 Ang^3
#
#
#
# Elastic Constant Matrix: (Units=GPa)
#
#
# Indices 1 2 3 4 5 6 
#
# 1 109.4833 8.0616 33.6737 0.0000 -17.9033 0.0000
# 2 8.0616 65.6463 -9.4236 0.0000 -7.6465 0.0000
# 3 33.6737 -9.4236 79.6301 0.0000 -4.4782 0.0000
# 4 0.0000 0.0000 0.0000 30.7170 0.0000 -10.7395
# 5 -17.9033 -7.6465 -4.4782 0.0000 36.1046 0.0000
# 6 0.0000 0.0000 0.0000 -10.7395 0.0000 23.3910
#
#
#
# Elastic Compliance Matrix: (Units=1/GPa)
#
#
# Indices 1 2 3 4 5 6 
#
# 1 0.011498 -0.001540 -0.004776 0.000000 0.004783 0.000000
# 2 -0.001540 0.016164 0.002733 0.000000 0.002998 0.000000
# 3 -0.004776 0.002733 0.014904 0.000000 0.000059 0.000000
# 4 0.000000 0.000000 0.000000 0.038780 0.000000 0.017805
# 5 0.004783 0.002998 0.000059 0.000000 0.030711 0.000000
# 6 0.000000 0.000000 0.000000 0.017805 0.000000 0.050926
#
#
# Mechanical properties :
#
#
# Convention : Reuss Voigt Hill
#
# Bulk Modulus (GPa) = 28.24850 35.48701 31.86775
# Shear Modulus (GPa) = 27.47993 32.87240 30.17617
#
# Velocity S-wave (km/s) = 3.31251 3.62297 3.47121
# Velocity P-wave (km/s) = 5.09018 5.62771 5.36568
#
# Compressibility (1/GPa) = 0.03540011
#
# Stress axis : x y z
#
# Youngs Moduli (GPa) = 86.96985 61.86633 67.09461
#
# Poissons Ratio (x) = 0.09530 0.32042
# Poissons Ratio (y) = 0.13397 -0.18336
# Poissons Ratio (z) = 0.41534 -0.16908
#
# Static dielectric constant tensor:
#      x y z
#    x 2.694580 0.000000 -0.060870 
#    y 0.000000 1.971080 0.000000 
#    z -0.060870 0.000000 1.949240 
# 
# From -- ./inp_files/4817.got.cif
#   From: 2010.05.17/outbox.cif.g08.bks.cpg/sg4_3_cif.got.tgz:4817.got - 2010.06.03 18:43:04.
