data_PCOD9116599
_publ_section_title
;
Structure prediction by ZEFSAII (Michael W. Deem and Ramdas Pophale) SiO2 
 PCOD9116599
Probable space group: P 21
;
_chemical_formula_sum "Si O2"
_cell_formula_units_Z 16
_cell_length_a 16.450991
_cell_length_b 8.983250
_cell_length_c 13.951279
_cell_angle_alpha 90.000000
_cell_angle_beta 19.139715
_cell_angle_gamma 90.000000
_cell_volume 675.997343
_symmetry_space_group_name_H-M "P 21"
_symmetry_group_IT_number 4
_symmetry_cell_setting 'monoclinic'
loop_
_space_group_symop_operation_xyz
x,y,z
-x,1/2+y,-z
loop_
_atom_site_type_symbol
_atom_site_label
_atom_site_fract_x
_atom_site_fract_y
_atom_site_fract_z
Si Si1 0.350243 0.283570 0.433416
Si Si2 0.588456 0.247290 0.860990
Si Si3 0.727118 0.740966 0.090705
Si Si4 0.187582 0.834999 0.687796
Si Si5 0.913816 0.017580 0.394793
Si Si6 0.849334 0.258823 0.773675
Si Si7 0.242926 0.067690 0.378019
Si Si8 0.184255 0.135268 0.808058
O O1 0.181206 0.422861 0.590122
O O2 0.285256 0.147298 0.433001
O O3 0.300040 0.240238 0.597541
O O4 0.635135 0.304878 0.087497
O O5 0.754169 0.257718 0.772537
O O6 0.616937 0.412021 0.786261
O O7 0.700568 0.129518 0.663111
O O8 0.346513 0.169868 0.174784
O O9 0.472267 0.813051 0.339692
O O10 0.670123 0.657241 0.254909
O O11 0.966492 0.844798 0.853817
O O12 0.846745 0.619129 0.888441
O O13 0.179516 0.974204 0.767446
O O14 0.087870 0.693295 0.859004
O O15 0.959444 0.893738 0.424015
O O16 0.950920 0.094554 0.686625
#
# Coordination Sequence:
#
# PCOD9116599 Si02
#       8
#     2   2   2   2   2   2   2   2
#     4  10  23  42  64  96 128 178 218 285 338 412
#     4  11  22  41  63  91 133 166 224 279 346 412
#     4  10  26  42  70 105 137 183 231 282 350 404
#     4  10  25  44  68 100 139 181 235 284 349 402
#     4  11  24  42  67  95 133 180 225 288 343 418
#     4  10  22  40  63  95 125 172 227 270 355 401
#     4  10  22  38  61  91 125 168 217 275 340 413
#     4  10  24  43  70  95 142 178 235 285 345 412
#
# _framework density 23.668731000000001
#
# number of rings (size 3 to 8) (size 9 to 14) (size 15 to 20)
#    0.750    1.000    0.000    3.750    5.250    5.000 
#    0.000    0.000    0.000    0.000    0.000    0.000 
#    0.000    0.000    0.000    0.000    0.000    0.000 
#
# Total GULP energy -89304.364009 kJ/mol
# GULP energy per Si atom -5581.522751 kJ/mol
# Density = 2.361486 g / cm^3
# Si number density = 23.668731 Si / 1000 Ang^3
#
#
#
# Elastic Constant Matrix: (Units=GPa)
#
#
# Indices 1 2 3 4 5 6 
#
# 1 108.1873 89.3541 -143.8372 0.0000 1.3952 0.0000
# 2 89.3541 189.7548 -193.2599 0.0000 -18.8498 0.0000
# 3 -143.8372 -193.2599 457.7565 0.0000 -4.0087 0.0000
# 4 0.0000 0.0000 0.0000 27.8125 0.0000 -0.6273
# 5 1.3952 -18.8498 -4.0087 0.0000 30.9599 0.0000
# 6 0.0000 0.0000 0.0000 -0.6273 0.0000 3.9462
#
#
#
# Elastic Compliance Matrix: (Units=1/GPa)
#
#
# Indices 1 2 3 4 5 6 
#
# 1 0.018428 -0.005599 0.003393 0.000000 -0.003800 0.000000
# 2 -0.005599 0.012281 0.003497 0.000000 0.008183 0.000000
# 3 0.003393 0.003497 0.004750 0.000000 0.002591 0.000000
# 4 0.000000 0.000000 0.000000 0.036084 0.000000 0.005736
# 5 -0.003800 0.008183 0.002591 0.000000 0.037789 0.000000
# 6 0.000000 0.000000 0.000000 0.005736 0.000000 0.254321
#
#
# Mechanical properties :
#
#
# Convention : Reuss Voigt Hill
#
# Bulk Modulus (GPa) = 26.28622 28.91250 27.59936
# Shear Modulus (GPa) = 13.37786 79.43982 46.40884
#
# Velocity S-wave (km/s) = 2.38000 5.79966 4.43286
# Velocity P-wave (km/s) = 4.32233 7.55580 6.15518
#
# Compressibility (1/GPa) = 0.03804275
#
# Stress axis : x y z
#
# Youngs Moduli (GPa) = 54.26449 81.42440 210.52321
#
# Poissons Ratio (x) = 0.45591 -0.71439
# Poissons Ratio (y) = 0.30384 -0.73627
# Poissons Ratio (z) = -0.18414 -0.28477
#
# Static dielectric constant tensor:
#      x y z
#    x 1.927210 0.000000 -0.079060 
#    y 0.000000 1.897050 0.000000 
#    z -0.079060 0.000000 1.997640 
# 
# From -- ./inp_files/14324.got.cif
#   From: 2010.05.17/outbox.cif.g08.bks.cpg/sg4_8_cif.got.tgz:14324.got - 2010.06.03 18:43:04.
