data_PCOD9116365
_publ_section_title
;
Structure prediction by ZEFSAII (Michael W. Deem and Ramdas Pophale) SiO2 
 PCOD9116365
Probable space group: P 21
;
_chemical_formula_sum "Si O2"
_cell_formula_units_Z 16
_cell_length_a 5.115081
_cell_length_b 12.973730
_cell_length_c 9.221952
_cell_angle_alpha 90.000000
_cell_angle_beta 104.865307
_cell_angle_gamma 90.000000
_cell_volume 591.502092
_symmetry_space_group_name_H-M "P 21"
_symmetry_group_IT_number 4
_symmetry_cell_setting 'monoclinic'
loop_
_space_group_symop_operation_xyz
x,y,z
-x,1/2+y,-z
loop_
_atom_site_type_symbol
_atom_site_label
_atom_site_fract_x
_atom_site_fract_y
_atom_site_fract_z
Si Si1 0.484825 0.594050 0.093570
Si Si2 0.406128 0.901843 0.382467
Si Si3 0.677495 0.763168 0.910103
Si Si4 0.482999 0.167927 0.580953
Si Si5 0.209212 0.721229 0.651162
Si Si6 0.984040 0.466926 0.089422
Si Si7 0.880644 0.583292 0.735477
Si Si8 0.967448 0.916525 0.574802
O O1 0.529612 0.603395 0.273602
O O2 0.675012 0.506763 0.046647
O O3 0.179159 0.551469 0.043114
O O4 0.561932 0.706061 0.036761
O O5 0.492715 0.786222 0.355146
O O6 0.697945 0.950570 0.455141
O O7 0.220907 0.907467 0.501636
O O8 0.219058 0.968532 0.248462
O O9 0.425130 0.791969 0.769421
O O10 0.792469 0.667382 0.837008
O O11 0.895669 0.855912 0.947015
O O12 0.727932 0.183062 0.500587
O O13 0.267922 0.114577 0.439632
O O14 0.183249 0.617534 0.741672
O O15 0.948243 0.795136 0.613691
O O16 0.030080 0.470605 0.270718
#
# Coordination Sequence:
#
# PCOD9116365 Si02
#       8
#     2   2   2   2   2   2   2   2
#     4  12  30  45  78 109 150 196 252 316 388 446
#     4  11  24  36  68 109 150 187 236 319 380 425
#     4  11  27  49  73 108 151 200 257 312 370 476
#     4  10  23  44  65 114 151 188 250 323 371 442
#     4  10  21  42  79 103 152 198 255 308 377 449
#     4  12  25  47  74 107 142 204 254 305 374 462
#     4  11  22  41  75 104 146 201 256 300 378 452
#     4  11  20  42  66 106 140 190 244 299 366 442
#
# _framework density 27.049779999999998
#
# number of rings (size 3 to 8) (size 9 to 14) (size 15 to 20)
#    0.000    1.000    2.500    4.500    8.750    1.000 
#    0.000    1.250    0.000    1.500    0.000    0.000 
#    0.000    0.000    0.000    0.000    0.000    0.000 
#
# Total GULP energy -89220.931978 kJ/mol
# GULP energy per Si atom -5576.308249 kJ/mol
# Density = 2.698821 g / cm^3
# Si number density = 27.049780 Si / 1000 Ang^3
#
#
#
# Elastic Constant Matrix: (Units=GPa)
#
#
# Indices 1 2 3 4 5 6 
#
# 1 99.2453 26.8122 20.7691 0.0000 -1.8728 0.0000
# 2 26.8122 124.0242 26.2935 0.0000 2.4434 0.0000
# 3 20.7691 26.2935 107.0607 0.0000 -37.3497 0.0000
# 4 0.0000 0.0000 0.0000 51.6173 0.0000 -5.3767
# 5 -1.8728 2.4434 -37.3497 0.0000 34.0342 0.0000
# 6 0.0000 0.0000 0.0000 -5.3767 0.0000 51.0401
#
#
#
# Elastic Compliance Matrix: (Units=1/GPa)
#
#
# Indices 1 2 3 4 5 6 
#
# 1 0.011028 -0.001859 -0.002308 0.000000 -0.001792 0.000000
# 2 -0.001859 0.009311 -0.003557 0.000000 -0.004674 0.000000
# 3 -0.002308 -0.003557 0.017348 0.000000 0.019167 0.000000
# 4 0.000000 0.000000 0.000000 0.019588 0.000000 0.002063
# 5 -0.001792 -0.004674 0.019167 0.000000 0.050653 0.000000
# 6 0.000000 0.000000 0.000000 0.002063 0.000000 0.019810
#
#
# Mechanical properties :
#
#
# Convention : Reuss Voigt Hill
#
# Bulk Modulus (GPa) = 44.96603 53.11998 49.04301
# Shear Modulus (GPa) = 33.20092 44.43538 38.81815
#
# Velocity S-wave (km/s) = 3.50723 4.05745 3.79233
# Velocity P-wave (km/s) = 5.74982 6.45221 6.11111
#
# Compressibility (1/GPa) = 0.02223901
#
# Stress axis : x y z
#
# Youngs Moduli (GPa) = 90.68208 107.40002 57.64284
#
# Poissons Ratio (x) = 0.19970 0.13304
# Poissons Ratio (y) = 0.16861 0.20501
# Poissons Ratio (z) = 0.20929 0.38197
#
# Static dielectric constant tensor:
#      x y z
#    x 2.210940 0.000000 0.033920 
#    y 0.000000 2.260870 0.000000 
#    z 0.033920 0.000000 2.211800 
# 
# From -- ./inp_files/4761.got.cif
#   From: 2010.05.17/outbox.cif.g08.bks.cpg/sg4_3_cif.got.tgz:4761.got - 2010.06.03 18:43:04.
