data_PCOD9116672
_publ_section_title
;
Structure prediction by ZEFSAII (Michael W. Deem and Ramdas Pophale) SiO2 
 PCOD9116672
Probable space group: P 21
;
_chemical_formula_sum "Si O2"
_cell_formula_units_Z 16
_cell_length_a 16.114728
_cell_length_b 5.568413
_cell_length_c 18.609657
_cell_angle_alpha 90.000000
_cell_angle_beta 22.280963
_cell_angle_gamma 90.000000
_cell_volume 633.143849
_symmetry_space_group_name_H-M "P 21"
_symmetry_group_IT_number 4
_symmetry_cell_setting 'monoclinic'
loop_
_space_group_symop_operation_xyz
x,y,z
-x,1/2+y,-z
loop_
_atom_site_type_symbol
_atom_site_label
_atom_site_fract_x
_atom_site_fract_y
_atom_site_fract_z
Si Si1 0.347956 0.652230 0.667362
Si Si2 0.205588 0.150069 0.764926
Si Si3 0.589259 0.718034 0.928232
Si Si4 0.810382 0.241536 0.981696
Si Si5 0.141383 0.650717 0.674662
Si Si6 0.117298 0.397417 0.427055
Si Si7 0.404143 0.531086 0.325918
Si Si8 0.716442 0.847955 0.975466
O O1 0.257987 0.396256 0.765960
O O2 0.609843 0.653064 0.447599
O O3 0.262126 0.655967 0.653288
O O4 0.256984 0.906642 0.766766
O O5 0.966788 0.150257 0.921396
O O6 0.736748 0.740040 0.881031
O O7 0.679945 0.867230 0.788846
O O8 0.584522 0.434643 0.910716
O O9 0.974504 0.427500 0.811965
O O10 0.677130 0.126317 0.020016
O O11 0.596356 0.349088 0.193298
O O12 0.299914 0.645862 0.480192
O O13 0.960553 0.858215 0.813631
O O14 0.208258 0.421195 0.434820
O O15 0.990497 0.149322 0.511442
O O16 0.537680 0.714003 0.167009
#
# Coordination Sequence:
#
# PCOD9116672 Si02
#       8
#     2   2   2   2   2   2   2   2
#     4   9  17  34  61  95 127 167 214 258 307 375
#     4   9  17  34  63  93 127 168 214 257 308 376
#     4  12  25  44  67  90 125 164 211 263 322 383
#     4  10  22  39  67  93 126 169 215 257 322 379
#     4  10  22  40  64  95 125 169 214 257 321 381
#     4  12  27  45  65  94 126 167 215 266 328 385
#     4  11  25  43  63  93 131 165 210 276 318 378
#     4  11  23  41  66  91 123 169 211 264 320 385
#
# _framework density 25.270719
#
# number of rings (size 3 to 8) (size 9 to 14) (size 15 to 20)
#    0.000    1.500    2.500    2.250    5.250    1.000 
#    0.000    0.000    2.750    0.000    0.000    0.000 
#    0.000    0.000    0.000    0.000    0.000    0.000 
#
# Total GULP energy -89148.188106 kJ/mol
# GULP energy per Si atom -5571.761757 kJ/mol
# Density = 2.521320 g / cm^3
# Si number density = 25.270719 Si / 1000 Ang^3
#
#
#
# Elastic Constant Matrix: (Units=GPa)
#
#
# Indices 1 2 3 4 5 6 
#
# 1 86.4583 12.6337 24.3734 0.0000 -17.7514 0.0000
# 2 12.6337 124.8684 5.5685 0.0000 -29.9244 0.0000
# 3 24.3734 5.5685 73.5236 0.0000 -17.1206 0.0000
# 4 0.0000 0.0000 0.0000 4.3840 0.0000 -9.4653
# 5 -17.7514 -29.9244 -17.1206 0.0000 42.0128 0.0000
# 6 0.0000 0.0000 0.0000 -9.4653 0.0000 19.9283
#
#
#
# Elastic Compliance Matrix: (Units=1/GPa)
#
#
# Indices 1 2 3 4 5 6 
#
# 1 0.013420 -0.000221 -0.003478 0.000000 0.004095 0.000000
# 2 -0.000221 0.009722 0.001025 0.000000 0.007249 0.000000
# 3 -0.003478 0.001025 0.016025 0.000000 0.005791 0.000000
# 4 0.000000 0.000000 0.000000 -8.950241 0.000000 -4.251068
# 5 0.004095 0.007249 0.005791 0.000000 0.033056 0.000000
# 6 0.000000 0.000000 0.000000 -4.251068 0.000000 -1.968937
#
#
# Mechanical properties :
#
#
# Convention : Reuss Voigt Hill
#
# Bulk Modulus (GPa) = 29.57004 41.11128 35.34066
# Shear Modulus (GPa) = -0.46167 29.41665 14.47749
#
# Velocity S-wave (km/s) = -0.42788 3.41553 2.39612
# Velocity P-wave (km/s) = 3.38860 5.64430 4.65515
#
# Compressibility (1/GPa) = 0.03381801
#
# Stress axis : x y z
#
# Youngs Moduli (GPa) = 74.51558 102.85582 62.40260
#
# Poissons Ratio (x) = 0.02276 0.21706
# Poissons Ratio (y) = 0.01649 -0.06397
# Poissons Ratio (z) = 0.25920 -0.10543
#
# Static dielectric constant tensor:
#      x y z
#    x 2.013170 0.000000 -0.071010 
#    y 0.000000 2.238450 0.000000 
#    z -0.071010 0.000000 2.067900 
# 
# From -- ./inp_files/15314.got.cif
#   From: 2010.05.17/outbox.cif.g08.bks.cpg/sg4_8_cif.got.tgz:15314.got - 2010.06.03 18:43:04.
