data_PCOD9116357
_publ_section_title
;
Structure prediction by ZEFSAII (Michael W. Deem and Ramdas Pophale) SiO2 
 PCOD9116357
Probable space group: P 21
;
_chemical_formula_sum "Si O2"
_cell_formula_units_Z 14
_cell_length_a 8.272214
_cell_length_b 8.642041
_cell_length_c 8.221649
_cell_angle_alpha 90.000000
_cell_angle_beta 70.462773
_cell_angle_gamma 90.000000
_cell_volume 553.915528
_symmetry_space_group_name_H-M "P 21"
_symmetry_group_IT_number 4
_symmetry_cell_setting 'monoclinic'
loop_
_space_group_symop_operation_xyz
x,y,z
-x,1/2+y,-z
loop_
_atom_site_type_symbol
_atom_site_label
_atom_site_fract_x
_atom_site_fract_y
_atom_site_fract_z
Si Si1 0.157585 0.324170 0.610470
Si Si2 0.134718 0.778820 0.821592
Si Si3 0.579301 0.082681 0.452955
Si Si4 0.406146 0.670068 0.193564
Si Si5 0.602662 0.537359 0.816468
Si Si6 0.965392 0.019818 0.653419
Si Si7 0.087039 0.998804 0.086976
O O1 0.341406 0.408118 0.566288
O O2 0.066091 0.418935 0.496351
O O3 0.119398 0.143910 0.598992
O O4 0.051984 0.377642 0.802896
O O5 0.265370 0.700515 0.649986
O O6 0.028825 0.638857 0.937227
O O7 0.209693 0.897846 0.928935
O O8 0.004563 0.892802 0.775151
O O9 0.518320 0.115925 0.656759
O O10 0.455167 0.097691 0.339960
O O11 0.418193 0.853637 0.185206
O O12 0.208991 0.614926 0.262291
O O13 0.489838 0.604500 0.001707
O O14 0.796703 0.567211 0.808187
#
# Coordination Sequence:
#
# PCOD9116357 Si02
#       7
#     2   2   2   2   2   2   2
#     4  10  21  42  72 103 135 188 242 310 365 423
#     4  11  25  44  75 105 143 188 250 315 367 435
#     4  10  26  50  72 110 148 193 254 302 374 442
#     4  11  27  48  72 109 149 201 245 307 362 454
#     4  12  27  47  73 105 156 196 246 297 378 445
#     4  11  22  45  73 101 143 185 252 309 365 434
#     4  11  24  42  71 107 140 191 245 306 371 437
#
# _framework density 25.274609999999999
#
# number of rings (size 3 to 8) (size 9 to 14) (size 15 to 20)
#    0.000    1.143    1.429    4.286    6.000    3.429 
#    5.143    0.000    0.000    0.000    0.000    0.000 
#    0.000    0.000    0.000    0.000    0.000    0.000 
#
# Total GULP energy -78365.954631 kJ/mol
# GULP energy per Si atom -5597.568188 kJ/mol
# Density = 2.521708 g / cm^3
# Si number density = 25.274610 Si / 1000 Ang^3
#
#
#
# Elastic Constant Matrix: (Units=GPa)
#
#
# Indices 1 2 3 4 5 6 
#
# 1 49.6443 14.0287 36.5657 0.0000 16.3834 0.0000
# 2 14.0287 128.9602 46.4091 0.0000 -0.9939 0.0000
# 3 36.5657 46.4091 120.2813 0.0000 13.0767 0.0000
# 4 0.0000 0.0000 0.0000 47.8632 0.0000 12.9563
# 5 16.3834 -0.9939 13.0767 0.0000 43.3993 0.0000
# 6 0.0000 0.0000 0.0000 12.9563 0.0000 24.7808
#
#
#
# Elastic Compliance Matrix: (Units=1/GPa)
#
#
# Indices 1 2 3 4 5 6 
#
# 1 0.028707 -0.000444 -0.007626 0.000000 -0.008549 0.000000
# 2 -0.000444 0.009083 -0.003526 0.000000 0.001438 0.000000
# 3 -0.007626 -0.003526 0.012084 0.000000 -0.000843 0.000000
# 4 0.000000 0.000000 0.000000 0.024337 0.000000 -0.012724
# 5 -0.008549 0.001438 -0.000843 0.000000 0.026556 0.000000
# 6 0.000000 0.000000 0.000000 -0.012724 0.000000 0.047007
#
#
# Mechanical properties :
#
#
# Convention : Reuss Voigt Hill
#
# Bulk Modulus (GPa) = 37.47875 54.76588 46.12232
# Shear Modulus (GPa) = 27.79932 36.66748 32.23340
#
# Velocity S-wave (km/s) = 3.32006 3.81302 3.57505
# Velocity P-wave (km/s) = 5.43671 6.41100 5.94385
#
# Compressibility (1/GPa) = 0.02668178
#
# Stress axis : x y z
#
# Youngs Moduli (GPa) = 34.83424 110.10142 82.75279
#
# Poissons Ratio (x) = 0.04892 0.63109
# Poissons Ratio (y) = 0.01548 0.29176
# Poissons Ratio (z) = 0.26565 0.38818
#
# Static dielectric constant tensor:
#      x y z
#    x 2.016930 0.000000 0.028120 
#    y 0.000000 1.912300 0.000000 
#    z 0.028120 0.000000 2.075090 
# 
# From -- ./inp_files/5299.got.cif
#   From: 2010.05.17/outbox.cif.g08.bks.cpg/sg4_3_cif.got.tgz:5299.got - 2010.06.03 18:43:04.
