data_PCOD9116875
_publ_section_title
;
Structure prediction by ZEFSAII (Michael W. Deem and Ramdas Pophale) SiO2 
 PCOD9116875
Probable space group: P 21
;
_chemical_formula_sum "Si O2"
_cell_formula_units_Z 16
_cell_length_a 8.404627
_cell_length_b 8.747367
_cell_length_c 9.024275
_cell_angle_alpha 90.000000
_cell_angle_beta 93.051592
_cell_angle_gamma 90.000000
_cell_volume 662.509101
_symmetry_space_group_name_H-M "P 21"
_symmetry_group_IT_number 4
_symmetry_cell_setting 'monoclinic'
loop_
_space_group_symop_operation_xyz
x,y,z
-x,1/2+y,-z
loop_
_atom_site_type_symbol
_atom_site_label
_atom_site_fract_x
_atom_site_fract_y
_atom_site_fract_z
Si Si1 0.869792 0.990920 0.525442
Si Si2 0.727190 0.125364 0.256987
Si Si3 0.735398 0.798457 0.120122
Si Si4 0.616532 0.760988 0.789070
Si Si5 0.944025 0.117604 0.849913
Si Si6 0.412533 0.040233 0.756159
Si Si7 0.199445 0.132763 0.470025
Si Si8 0.836116 0.359972 0.064535
O O1 0.837700 0.812047 0.499224
O O2 0.740161 0.090263 0.430371
O O3 0.882987 0.044491 0.695358
O O4 0.037719 0.036939 0.458744
O O5 0.554700 0.183151 0.201421
O O6 0.854281 0.252186 0.210775
O O7 0.750630 0.969592 0.172344
O O8 0.583166 0.715051 0.189435
O O9 0.895626 0.712625 0.177508
O O10 0.710906 0.780838 0.944708
O O11 0.563249 0.932391 0.735711
O O12 0.711231 0.654199 0.680800
O O13 0.831727 0.236243 0.932228
O O14 0.017737 0.976247 0.947870
O O15 0.315703 0.961132 0.890776
O O16 0.309564 0.053053 0.600536
#
# Coordination Sequence:
#
# PCOD9116875 Si02
#       8
#     2   2   2   2   2   2   2   2
#     4  12  25  47  74 111 150 195 250 318 383 446
#     4  11  24  45  74 107 149 197 250 310 385 448
#     4  11  22  46  72 107 148 199 250 313 379 449
#     4  11  28  45  73 107 146 202 253 311 377 462
#     4  11  23  42  71 108 148 194 252 310 379 450
#     4  10  23  50  67 101 155 192 254 309 371 454
#     4  12  27  48  74 108 152 201 250 312 384 454
#     4  10  22  41  67 103 146 190 241 307 372 443
#
# _framework density 24.150614000000001
#
# number of rings (size 3 to 8) (size 9 to 14) (size 15 to 20)
#    0.000    1.000    3.750    2.250    8.750    0.000 
#    2.250    1.250    0.000    0.000    0.000    0.000 
#    0.000    0.000    0.000    0.000    0.000    0.000 
#
# Total GULP energy -89441.950937 kJ/mol
# GULP energy per Si atom -5590.121934 kJ/mol
# Density = 2.409565 g / cm^3
# Si number density = 24.150614 Si / 1000 Ang^3
#
#
#
# Elastic Constant Matrix: (Units=GPa)
#
#
# Indices 1 2 3 4 5 6 
#
# 1 60.7897 23.7982 15.4240 0.0000 8.1652 0.0000
# 2 23.7982 111.3893 11.8384 0.0000 0.7687 0.0000
# 3 15.4240 11.8384 92.3000 0.0000 11.5853 0.0000
# 4 0.0000 0.0000 0.0000 43.4049 0.0000 -9.4530
# 5 8.1652 0.7687 11.5853 0.0000 23.8164 0.0000
# 6 0.0000 0.0000 0.0000 -9.4530 0.0000 36.8377
#
#
#
# Elastic Compliance Matrix: (Units=1/GPa)
#
#
# Indices 1 2 3 4 5 6 
#
# 1 0.019207 -0.003850 -0.002029 0.000000 -0.005474 0.000000
# 2 -0.003850 0.009875 -0.000798 0.000000 0.001389 0.000000
# 3 -0.002029 -0.000798 0.011912 0.000000 -0.005073 0.000000
# 4 0.000000 0.000000 0.000000 0.024403 0.000000 0.006262
# 5 -0.005474 0.001389 -0.005073 0.000000 0.046288 0.000000
# 6 0.000000 0.000000 0.000000 0.006262 0.000000 0.028753
#
#
# Mechanical properties :
#
#
# Convention : Reuss Voigt Hill
#
# Bulk Modulus (GPa) = 36.17698 40.73334 38.45516
# Shear Modulus (GPa) = 30.67378 35.03969 32.85674
#
# Velocity S-wave (km/s) = 3.56772 3.81318 3.69249
# Velocity P-wave (km/s) = 5.65542 6.02413 5.84268
#
# Compressibility (1/GPa) = 0.02764188
#
# Stress axis : x y z
#
# Youngs Moduli (GPa) = 52.06305 101.26267 83.94640
#
# Poissons Ratio (x) = 0.38989 0.17031
# Poissons Ratio (y) = 0.20046 0.06695
# Poissons Ratio (z) = 0.10563 0.08076
#
# Static dielectric constant tensor:
#      x y z
#    x 1.965680 0.000000 -0.043960 
#    y 0.000000 1.949400 0.000000 
#    z -0.043960 0.000000 1.943390 
# 
# From -- ./inp_files/5731.got.cif
#   From: 2010.05.17/outbox.cif.g08.bks.cpg/sg4_3_cif.got.tgz:5731.got - 2010.06.03 18:43:04.
