data_PCOD9116519
_publ_section_title
;
Structure prediction by ZEFSAII (Michael W. Deem and Ramdas Pophale) SiO2 
 PCOD9116519
Probable space group: P 21
;
_chemical_formula_sum "Si O2"
_cell_formula_units_Z 16
_cell_length_a 6.301664
_cell_length_b 12.157511
_cell_length_c 9.449942
_cell_angle_alpha 90.000000
_cell_angle_beta 115.450181
_cell_angle_gamma 90.000000
_cell_volume 653.728202
_symmetry_space_group_name_H-M "P 21"
_symmetry_group_IT_number 4
_symmetry_cell_setting 'monoclinic'
loop_
_space_group_symop_operation_xyz
x,y,z
-x,1/2+y,-z
loop_
_atom_site_type_symbol
_atom_site_label
_atom_site_fract_x
_atom_site_fract_y
_atom_site_fract_z
Si Si1 0.140131 0.428070 0.371958
Si Si2 0.878003 0.281272 0.086060
Si Si3 0.925268 0.453440 0.581140
Si Si4 0.008274 0.781144 0.194745
Si Si5 0.468254 0.015359 0.702801
Si Si6 0.296010 0.105966 0.244507
Si Si7 0.521675 0.727822 0.457858
Si Si8 0.573311 0.624200 0.025144
O O1 0.280923 0.495714 0.295538
O O2 0.304881 0.330528 0.479370
O O3 0.932233 0.368983 0.224164
O O4 0.076454 0.498623 0.492674
O O5 0.076257 0.187208 0.159148
O O6 0.938295 0.327935 0.947186
O O7 0.628501 0.218750 0.024794
O O8 0.077573 0.364719 0.709220
O O9 0.697230 0.423867 0.418206
O O10 0.806796 0.516435 0.677881
O O11 0.265835 0.751672 0.325774
O O12 0.822325 0.683073 0.128076
O O13 0.376624 0.132515 0.615805
O O14 0.479925 0.032309 0.872570
O O15 0.484979 0.173523 0.389300
O O16 0.403259 0.074502 0.125005
#
# Coordination Sequence:
#
# PCOD9116519 Si02
#       8
#     2   2   2   2   2   2   2   2
#     4  11  25  45  73 106 144 188 242 296 355 427
#     4  10  24  45  68 100 146 190 230 293 363 423
#     4  11  25  41  69 109 138 182 239 297 351 420
#     4  11  23  43  72 100 145 181 239 291 356 430
#     4  11  24  43  71 107 140 188 240 292 359 426
#     4   9  24  45  68 104 138 183 237 292 354 421
#     4  10  21  46  69 100 146 180 238 295 349 420
#     4  11  24  44  74 102 141 198 227 294 371 421
#
# _framework density 24.475003000000001
#
# number of rings (size 3 to 8) (size 9 to 14) (size 15 to 20)
#    0.000    1.500    2.500    0.750    3.500    5.000 
#    0.000    0.000    0.000    0.000    0.000    0.000 
#    0.000    0.000    0.000    0.000    0.000    0.000 
#
# Total GULP energy -89328.224865 kJ/mol
# GULP energy per Si atom -5583.014054 kJ/mol
# Density = 2.441930 g / cm^3
# Si number density = 24.475003 Si / 1000 Ang^3
#
#
#
# Elastic Constant Matrix: (Units=GPa)
#
#
# Indices 1 2 3 4 5 6 
#
# 1 116.2335 34.7828 82.7604 0.0000 -42.0571 0.0000
# 2 34.7828 50.1485 35.2774 0.0000 -16.1857 0.0000
# 3 82.7604 35.2774 171.0238 0.0000 -38.3743 0.0000
# 4 0.0000 0.0000 0.0000 30.8530 0.0000 0.3081
# 5 -42.0571 -16.1857 -38.3743 0.0000 72.8559 0.0000
# 6 0.0000 0.0000 0.0000 0.3081 0.0000 36.5646
#
#
#
# Elastic Compliance Matrix: (Units=1/GPa)
#
#
# Indices 1 2 3 4 5 6 
#
# 1 0.016016 -0.005627 -0.005438 0.000000 0.005131 0.000000
# 2 -0.005627 0.025896 -0.002332 0.000000 0.001276 0.000000
# 3 -0.005438 -0.002332 0.009230 0.000000 0.001204 0.000000
# 4 0.000000 0.000000 0.000000 0.032414 0.000000 -0.000273
# 5 0.005131 0.001276 0.001204 0.000000 0.017605 0.000000
# 6 0.000000 0.000000 0.000000 -0.000273 0.000000 0.027351
#
#
# Mechanical properties :
#
#
# Convention : Reuss Voigt Hill
#
# Bulk Modulus (GPa) = 41.07265 71.44968 56.26116
# Shear Modulus (GPa) = 30.59521 40.36040 35.47780
#
# Velocity S-wave (km/s) = 3.53945 4.06525 3.81143
# Velocity P-wave (km/s) = 5.78978 7.16179 6.51202
#
# Compressibility (1/GPa) = 0.02434710
#
# Stress axis : x y z
#
# Youngs Moduli (GPa) = 62.43770 38.61559 108.34125
#
# Poissons Ratio (x) = 0.21729 0.58920
# Poissons Ratio (y) = 0.35133 0.25269
# Poissons Ratio (z) = 0.33956 0.09006
#
# Static dielectric constant tensor:
#      x y z
#    x 2.021900 0.000000 0.000380 
#    y 0.000000 2.072200 0.000000 
#    z 0.000380 0.000000 1.937580 
# 
# From -- ./inp_files/1548.got.cif
#   From: 2010.05.17/outbox.cif.g08.bks.cpg/sg4_1_cif.got.tgz:1548.got - 2010.06.03 18:43:04.
