data_PCOD9116611
_publ_section_title
;
Structure prediction by ZEFSAII (Michael W. Deem and Ramdas Pophale) SiO2 
 PCOD9116611
Probable space group: P 21
;
_chemical_formula_sum "Si O2"
_cell_formula_units_Z 16
_cell_length_a 9.011682
_cell_length_b 13.017154
_cell_length_c 6.242825
_cell_angle_alpha 90.000000
_cell_angle_beta 78.619471
_cell_angle_gamma 90.000000
_cell_volume 717.924917
_symmetry_space_group_name_H-M "P 21"
_symmetry_group_IT_number 4
_symmetry_cell_setting 'monoclinic'
loop_
_space_group_symop_operation_xyz
x,y,z
-x,1/2+y,-z
loop_
_atom_site_type_symbol
_atom_site_label
_atom_site_fract_x
_atom_site_fract_y
_atom_site_fract_z
Si Si1 0.945296 0.202740 0.799073
Si Si2 0.323920 0.435802 0.746631
Si Si3 0.572098 0.511597 0.414090
Si Si4 0.950551 0.866071 0.972749
Si Si5 0.864271 0.855135 0.544065
Si Si6 0.657245 0.671191 0.762289
Si Si7 0.623598 0.110458 0.910013
Si Si8 0.155449 0.040599 0.942665
O O1 0.777929 0.165604 0.801271
O O2 0.015125 0.285100 0.615901
O O3 0.952683 0.264591 0.021790
O O4 0.064988 0.112997 0.804456
O O5 0.487871 0.427913 0.589047
O O6 0.214226 0.443613 0.572080
O O7 0.222834 0.349237 0.895343
O O8 0.335092 0.525848 0.918219
O O9 0.620572 0.600843 0.566079
O O10 0.456348 0.557637 0.270598
O O11 0.715321 0.481795 0.229462
O O12 0.939496 0.898572 0.732736
O O13 0.036180 0.958733 0.065182
O O14 0.734482 0.775062 0.658183
O O15 0.767505 0.607531 0.891584
O O16 0.501599 0.683156 0.940810
#
# Coordination Sequence:
#
# PCOD9116611 Si02
#       8
#     2   2   2   2   2   2   2   2
#     4  11  23  41  65  98 129 172 217 271 329 389
#     4  10  22  38  63  94 129 170 216 266 324 384
#     4  10  22  41  64  95 124 178 216 262 333 390
#     4  11  24  41  64  99 131 172 215 277 331 389
#     4  11  23  41  65 100 131 172 225 269 329 399
#     4  10  22  41  66  93 131 175 216 270 331 390
#     4  10  22  41  65  97 132 174 217 268 331 389
#     4  11  22  42  68  92 135 169 218 273 326 392
#
# _framework density 22.286453999999999
#
# number of rings (size 3 to 8) (size 9 to 14) (size 15 to 20)
#    0.000    1.500    3.750    0.750    0.000    6.000 
#    0.000    5.000    0.000    0.000    0.000    0.000 
#    0.000    0.000    0.000    0.000    0.000    0.000 
#
# Total GULP energy -89208.648223 kJ/mol
# GULP energy per Si atom -5575.540514 kJ/mol
# Density = 2.223573 g / cm^3
# Si number density = 22.286454 Si / 1000 Ang^3
#
#
#
# Elastic Constant Matrix: (Units=GPa)
#
#
# Indices 1 2 3 4 5 6 
#
# 1 126.2434 34.9696 47.7832 0.0000 -8.4099 0.0000
# 2 34.9696 41.5769 13.9617 0.0000 -6.4418 0.0000
# 3 47.7832 13.9617 92.3137 0.0000 -9.0158 0.0000
# 4 0.0000 0.0000 0.0000 33.3270 0.0000 -6.5674
# 5 -8.4099 -6.4418 -9.0158 0.0000 38.9555 0.0000
# 6 0.0000 0.0000 0.0000 -6.5674 0.0000 39.2562
#
#
#
# Elastic Compliance Matrix: (Units=1/GPa)
#
#
# Indices 1 2 3 4 5 6 
#
# 1 0.012194 -0.008565 -0.005011 0.000000 0.000056 0.000000
# 2 -0.008565 0.031797 -0.000044 0.000000 0.003399 0.000000
# 3 -0.005011 -0.000044 0.013635 0.000000 0.002067 0.000000
# 4 0.000000 0.000000 0.000000 0.031029 0.000000 0.005191
# 5 0.000056 0.003399 0.002067 0.000000 0.026723 0.000000
# 6 0.000000 0.000000 0.000000 0.005191 0.000000 0.026342
#
#
# Mechanical properties :
#
#
# Convention : Reuss Voigt Hill
#
# Bulk Modulus (GPa) = 32.90919 50.39589 41.65254
# Shear Modulus (GPa) = 27.91934 33.20238 30.56086
#
# Velocity S-wave (km/s) = 3.54326 3.86398 3.70709
# Velocity P-wave (km/s) = 5.61588 6.52449 6.08716
#
# Compressibility (1/GPa) = 0.03038664
#
# Stress axis : x y z
#
# Youngs Moduli (GPa) = 82.00702 31.44971 73.34139
#
# Poissons Ratio (x) = 0.26936 0.36751
# Poissons Ratio (y) = 0.70237 0.00321
# Poissons Ratio (z) = 0.41094 0.00138
#
# Static dielectric constant tensor:
#      x y z
#    x 1.815410 0.000000 0.002670 
#    y 0.000000 1.796690 0.000000 
#    z 0.002670 0.000000 1.905400 
# 
# From -- ./inp_files/1576.got.cif
#   From: 2010.05.17/outbox.cif.g08.bks.cpg/sg4_1_cif.got.tgz:1576.got - 2010.06.03 18:43:04.
