data_PCOD9116484
_publ_section_title
;
Structure prediction by ZEFSAII (Michael W. Deem and Ramdas Pophale) SiO2 
 PCOD9116484
Probable space group: P 21
;
_chemical_formula_sum "Si O2"
_cell_formula_units_Z 12
_cell_length_a 6.736060
_cell_length_b 8.243111
_cell_length_c 11.784965
_cell_angle_alpha 90.000000
_cell_angle_beta 58.254916
_cell_angle_gamma 90.000000
_cell_volume 556.477105
_symmetry_space_group_name_H-M "P 21"
_symmetry_group_IT_number 4
_symmetry_cell_setting 'monoclinic'
loop_
_space_group_symop_operation_xyz
x,y,z
-x,1/2+y,-z
loop_
_atom_site_type_symbol
_atom_site_label
_atom_site_fract_x
_atom_site_fract_y
_atom_site_fract_z
Si Si1 0.445076 0.875000 0.806360
Si Si2 0.884939 0.080157 0.660924
Si Si3 0.715359 0.329880 0.523614
Si Si4 0.892671 0.614289 0.178416
Si Si5 0.664980 0.098274 0.320320
Si Si6 0.976438 0.934107 0.061631
O O1 0.465586 0.703029 0.738556
O O2 0.684897 0.958309 0.764786
O O3 0.324130 0.993290 0.747864
O O4 0.249034 0.884920 0.964155
O O5 0.778698 0.212454 0.608925
O O6 0.005272 0.162556 0.732952
O O7 0.079929 0.963707 0.547841
O O8 0.698894 0.211932 0.419161
O O9 0.481078 0.437144 0.606705
O O10 0.832560 0.770890 0.123005
O O11 0.073326 0.517159 0.043920
O O12 0.907823 0.049721 0.185725
#
# Coordination Sequence:
#
# PCOD9116484 Si02
#       6
#     2   2   2   2   2   2
#     4  10  21  47  69 102 138 177 232 302 356 413
#     4  12  26  46  68 108 141 181 246 286 354 427
#     4  12  28  43  73 103 148 196 235 292 348 436
#     4  10  22  45  69 103 136 181 233 298 359 417
#     4  12  24  47  73  98 146 194 235 289 361 429
#     4  10  21  44  72 100 135 181 235 295 364 412
#
# _framework density 21.564228
#
# number of rings (size 3 to 8) (size 9 to 14) (size 15 to 20)
#    1.000    0.000    3.333    3.000    4.667    0.000 
#    9.000    0.000    0.000    0.000    0.000    0.000 
#    0.000    0.000    0.000    0.000    0.000    0.000 
#
# Total GULP energy -66917.944276 kJ/mol
# GULP energy per Si atom -5576.495356 kJ/mol
# Density = 2.151515 g / cm^3
# Si number density = 21.564228 Si / 1000 Ang^3
#
#
#
# Elastic Constant Matrix: (Units=GPa)
#
#
# Indices 1 2 3 4 5 6 
#
# 1 36.6744 13.4880 26.4498 0.0000 -4.1828 0.0000
# 2 13.4880 93.2044 43.2441 0.0000 12.6154 0.0000
# 3 26.4498 43.2441 96.6778 0.0000 -6.4110 0.0000
# 4 0.0000 0.0000 0.0000 53.2572 0.0000 2.3935
# 5 -4.1828 12.6154 -6.4110 0.0000 22.0385 0.0000
# 6 0.0000 0.0000 0.0000 2.3935 0.0000 28.9569
#
#
#
# Elastic Compliance Matrix: (Units=1/GPa)
#
#
# Indices 1 2 3 4 5 6 
#
# 1 0.034505 -0.001867 -0.008259 0.000000 0.005215 0.000000
# 2 -0.001867 0.016032 -0.007436 0.000000 -0.011695 0.000000
# 3 -0.008259 -0.007436 0.016424 0.000000 0.007467 0.000000
# 4 0.000000 0.000000 0.000000 0.018847 0.000000 -0.001558
# 5 0.005215 -0.011695 0.007467 0.000000 0.055231 0.000000
# 6 0.000000 0.000000 0.000000 -0.001558 0.000000 0.034663
#
#
# Mechanical properties :
#
#
# Convention : Reuss Voigt Hill
#
# Bulk Modulus (GPa) = 31.40978 43.65782 37.53380
# Shear Modulus (GPa) = 22.57952 30.40883 26.49417
#
# Velocity S-wave (km/s) = 3.23938 3.75927 3.50897
# Velocity P-wave (km/s) = 5.34684 6.25558 5.81898
#
# Compressibility (1/GPa) = 0.03183721
#
# Stress axis : x y z
#
# Youngs Moduli (GPa) = 28.98134 62.37413 60.88487
#
# Poissons Ratio (x) = 0.11647 0.50285
# Poissons Ratio (y) = 0.05412 0.45273
# Poissons Ratio (z) = 0.23936 0.46381
#
# Static dielectric constant tensor:
#      x y z
#    x 1.750420 0.000000 -0.035870 
#    y 0.000000 1.812580 0.000000 
#    z -0.035870 0.000000 1.820810 
# 
# From -- ./inp_files/2358.got.cif
#   From: 2010.05.17/outbox.cif.g08.bks.cpg/sg4_2_cif.got.tgz:2358.got - 2010.06.03 18:43:04.
