data_PCOD9116403
_publ_section_title
;
Structure prediction by ZEFSAII (Michael W. Deem and Ramdas Pophale) SiO2 
 PCOD9116403
Probable space group: P 21
;
_chemical_formula_sum "Si O2"
_cell_formula_units_Z 14
_cell_length_a 9.750791
_cell_length_b 7.391479
_cell_length_c 8.058101
_cell_angle_alpha 90.000000
_cell_angle_beta 64.057048
_cell_angle_gamma 90.000000
_cell_volume 522.245523
_symmetry_space_group_name_H-M "P 21"
_symmetry_group_IT_number 4
_symmetry_cell_setting 'monoclinic'
loop_
_space_group_symop_operation_xyz
x,y,z
-x,1/2+y,-z
loop_
_atom_site_type_symbol
_atom_site_label
_atom_site_fract_x
_atom_site_fract_y
_atom_site_fract_z
Si Si1 0.037734 0.771630 0.765509
Si Si2 0.531144 0.790242 0.473836
Si Si3 0.144004 0.145785 0.614226
Si Si4 0.598861 0.146083 0.801623
Si Si5 0.122707 0.857442 0.362145
Si Si6 0.308553 0.319866 0.080212
Si Si7 0.683057 0.111107 0.215420
O O1 0.098786 0.740508 0.545113
O O2 0.145480 0.664829 0.832113
O O3 0.857904 0.741231 0.869186
O O4 0.064616 0.988637 0.764747
O O5 0.687103 0.679300 0.414343
O O6 0.441058 0.735108 0.354397
O O7 0.420816 0.786564 0.692748
O O8 0.600618 0.985967 0.396864
O O9 0.030742 0.316755 0.659096
O O10 0.156319 0.050347 0.426383
O O11 0.731716 0.275686 0.804579
O O12 0.668970 0.943266 0.767359
O O13 0.441715 0.175064 0.985377
O O14 0.328570 0.483717 0.936554
#
# Coordination Sequence:
#
# PCOD9116403 Si02
#       7
#     2   2   2   2   2   2   2
#     4  10  23  44  65 101 144 187 237 292 357 427
#     4  11  23  43  75 105 136 189 248 292 348 429
#     4  10  22  37  70 103 135 181 240 296 342 416
#     4  11  23  47  66 102 141 184 236 292 358 432
#     4  10  21  43  66  94 140 179 243 277 348 428
#     4  11  26  44  67 107 146 185 232 300 371 416
#     4  11  24  44  73 104 148 185 242 297 358 426
#
# _framework density 26.807316
#
# number of rings (size 3 to 8) (size 9 to 14) (size 15 to 20)
#    0.857    0.571    2.857    2.571    2.000    8.000 
#    0.000    0.000    0.000    0.000    0.000    0.000 
#    0.000    0.000    0.000    0.000    0.000    0.000 
#
# Total GULP energy -78263.245139 kJ/mol
# GULP energy per Si atom -5590.231796 kJ/mol
# Density = 2.674630 g / cm^3
# Si number density = 26.807316 Si / 1000 Ang^3
#
#
#
# Elastic Constant Matrix: (Units=GPa)
#
#
# Indices 1 2 3 4 5 6 
#
# 1 193.6312 27.8700 18.1707 0.0000 -47.1438 0.0000
# 2 27.8700 17.5986 -18.0253 0.0000 7.0904 0.0000
# 3 18.1707 -18.0253 54.5197 0.0000 -20.6691 0.0000
# 4 0.0000 0.0000 0.0000 37.6219 0.0000 -9.6207
# 5 -47.1438 7.0904 -20.6691 0.0000 49.7290 0.0000
# 6 0.0000 0.0000 0.0000 -9.6207 0.0000 53.3831
#
#
#
# Elastic Compliance Matrix: (Units=1/GPa)
#
#
# Indices 1 2 3 4 5 6 
#
# 1 0.020478 -0.060047 -0.019078 0.000000 0.020045 0.000000
# 2 -0.060047 0.262001 0.084152 0.000000 -0.059305 0.000000
# 3 -0.019078 0.084152 0.048808 0.000000 -0.009799 0.000000
# 4 0.000000 0.000000 0.000000 0.027864 0.000000 0.005022
# 5 0.020045 -0.059305 -0.009799 0.000000 0.043496 0.000000
# 6 0.000000 0.000000 0.000000 0.005022 0.000000 0.019638
#
#
# Mechanical properties :
#
#
# Convention : Reuss Voigt Hill
#
# Bulk Modulus (GPa) = 2.92962 35.75339 19.34150
# Shear Modulus (GPa) = 9.50549 43.99572 26.75061
#
# Velocity S-wave (km/s) = 1.88509 4.05555 3.16236
# Velocity P-wave (km/s) = 2.41522 5.94105 4.53483
#
# Compressibility (1/GPa) = 0.34134148
#
# Stress axis : x y z
#
# Youngs Moduli (GPa) = 48.83272 3.81677 20.48844
#
# Poissons Ratio (x) = 0.22919 0.39088
# Poissons Ratio (y) = 2.93225 -1.72415
# Poissons Ratio (z) = 0.93164 -0.32119
#
# Static dielectric constant tensor:
#      x y z
#    x 2.068810 0.000000 0.008430 
#    y 0.000000 2.419100 0.000000 
#    z 0.008430 0.000000 2.207950 
# 
# From -- ./inp_files/5769.got.cif
#   From: 2010.05.17/outbox.cif.g08.bks.cpg/sg4_3_cif.got.tgz:5769.got - 2010.06.03 18:43:04.
