data_PCOD9116532
_publ_section_title
;
Structure prediction by ZEFSAII (Michael W. Deem and Ramdas Pophale) SiO2 
 PCOD9116532
Probable space group: P 21
;
_chemical_formula_sum "Si O2"
_cell_formula_units_Z 14
_cell_length_a 8.118075
_cell_length_b 13.477657
_cell_length_c 5.570403
_cell_angle_alpha 90.000000
_cell_angle_beta 119.797219
_cell_angle_gamma 90.000000
_cell_volume 528.893833
_symmetry_space_group_name_H-M "P 21"
_symmetry_group_IT_number 4
_symmetry_cell_setting 'monoclinic'
loop_
_space_group_symop_operation_xyz
x,y,z
-x,1/2+y,-z
loop_
_atom_site_type_symbol
_atom_site_label
_atom_site_fract_x
_atom_site_fract_y
_atom_site_fract_z
Si Si1 0.574527 0.785830 0.278928
Si Si2 0.623996 0.691061 0.824407
Si Si3 0.188467 0.936902 0.484062
Si Si4 0.493956 0.494025 0.950386
Si Si5 0.143640 0.523196 0.024415
Si Si6 0.078591 0.730811 0.162262
Si Si7 0.048055 0.360836 0.300482
O O1 0.547555 0.729055 0.510902
O O2 0.496769 0.896211 0.205182
O O3 0.802186 0.801247 0.436659
O O4 0.524980 0.738633 0.987988
O O5 0.582493 0.577680 0.849501
O O6 0.849690 0.714418 0.005687
O O7 0.158657 0.820839 0.384976
O O8 0.065800 0.942035 0.638584
O O9 0.391059 0.972822 0.719113
O O10 0.073744 0.008957 0.223700
O O11 0.285461 0.521126 0.900803
O O12 0.164939 0.621170 0.201968
O O13 0.168451 0.421038 0.189215
O O14 0.098134 0.783454 0.917264
#
# Coordination Sequence:
#
# PCOD9116532 Si02
#       7
#     2   2   2   2   2   2   2
#     4  11  24  52  77 115 165 209 272 342 397 481
#     4  11  26  49  87 115 161 224 271 331 414 491
#     4  11  24  49  79 111 154 217 274 338 410 491
#     4  12  27  50  82 121 161 214 278 342 418 491
#     4  11  25  49  75 116 164 211 268 345 412 492
#     4  10  23  47  77 112 158 213 272 337 408 494
#     4  10  21  46  77 100 153 212 263 329 407 470
#
# _framework density 26.470343
#
# number of rings (size 3 to 8) (size 9 to 14) (size 15 to 20)
#    0.000    1.143    2.857    2.571    4.000    4.571 
#   18.000    0.000    3.143    0.000    0.000    0.000 
#    0.000    0.000    0.000    0.000    0.000    0.000 
#
# Total GULP energy -78308.577949 kJ/mol
# GULP energy per Si atom -5593.469853 kJ/mol
# Density = 2.641009 g / cm^3
# Si number density = 26.470343 Si / 1000 Ang^3
#
#
#
# Elastic Constant Matrix: (Units=GPa)
#
#
# Indices 1 2 3 4 5 6 
#
# 1 102.1937 49.8867 27.2020 0.0000 -8.9319 0.0000
# 2 49.8867 175.5985 58.0938 0.0000 -15.3672 0.0000
# 3 27.2020 58.0938 120.2933 0.0000 -3.2946 0.0000
# 4 0.0000 0.0000 0.0000 35.8396 0.0000 -9.6048
# 5 -8.9319 -15.3672 -3.2946 0.0000 35.9769 0.0000
# 6 0.0000 0.0000 0.0000 -9.6048 0.0000 41.2821
#
#
#
# Elastic Compliance Matrix: (Units=1/GPa)
#
#
# Indices 1 2 3 4 5 6 
#
# 1 0.011596 -0.002740 -0.001256 0.000000 0.001594 0.000000
# 2 -0.002740 0.007677 -0.003024 0.000000 0.002322 0.000000
# 3 -0.001256 -0.003024 0.010039 0.000000 -0.000684 0.000000
# 4 0.000000 0.000000 0.000000 0.029758 0.000000 0.006923
# 5 0.001594 0.002322 -0.000684 0.000000 0.029120 0.000000
# 6 0.000000 0.000000 0.000000 0.006923 0.000000 0.025834
#
#
# Mechanical properties :
#
#
# Convention : Reuss Voigt Hill
#
# Bulk Modulus (GPa) = 65.47552 74.27228 69.87390
# Shear Modulus (GPa) = 37.55047 40.14658 38.84853
#
# Velocity S-wave (km/s) = 3.77050 3.89866 3.83511
# Velocity P-wave (km/s) = 6.61398 6.95598 6.78713
#
# Compressibility (1/GPa) = 0.01527288
#
# Stress axis : x y z
#
# Youngs Moduli (GPa) = 86.23522 130.26162 99.61396
#
# Poissons Ratio (x) = 0.35686 0.12507
# Poissons Ratio (y) = 0.23625 0.30127
# Poissons Ratio (z) = 0.10827 0.39395
#
# Static dielectric constant tensor:
#      x y z
#    x 2.073950 0.000000 0.017700 
#    y 0.000000 2.100500 0.000000 
#    z 0.017700 0.000000 2.119320 
# 
# From -- ./inp_files/1866.got.cif
#   From: 2010.05.17/outbox.cif.g08.bks.cpg/sg4_1_cif.got.tgz:1866.got - 2010.06.03 18:43:04.
