data_PCOD9116813
_publ_section_title
;
Structure prediction by ZEFSAII (Michael W. Deem and Ramdas Pophale) SiO2 
 PCOD9116813
Probable space group: P 21
;
_chemical_formula_sum "Si O2"
_cell_formula_units_Z 16
_cell_length_a 5.223456
_cell_length_b 24.680795
_cell_length_c 6.916801
_cell_angle_alpha 90.000000
_cell_angle_beta 131.473514
_cell_angle_gamma 90.000000
_cell_volume 668.122418
_symmetry_space_group_name_H-M "P 21"
_symmetry_group_IT_number 4
_symmetry_cell_setting 'monoclinic'
loop_
_space_group_symop_operation_xyz
x,y,z
-x,1/2+y,-z
loop_
_atom_site_type_symbol
_atom_site_label
_atom_site_fract_x
_atom_site_fract_y
_atom_site_fract_z
Si Si1 0.741721 0.976400 0.987814
Si Si2 0.391890 0.017408 0.159157
Si Si3 0.392407 0.332328 0.733200
Si Si4 0.908139 0.617011 0.235781
Si Si5 0.440978 0.075943 0.593665
Si Si6 0.558886 0.773862 0.652521
Si Si7 0.092134 0.232738 0.827851
Si Si8 0.742126 0.373399 0.254342
O O1 0.499624 0.924923 0.836654
O O2 0.589712 0.028198 0.800778
O O3 0.709499 0.992505 0.199396
O O4 0.111175 0.971418 0.072491
O O5 0.414782 0.047086 0.374769
O O6 0.253216 0.065377 0.952896
O O7 0.415101 0.302673 0.540342
O O8 0.253878 0.284338 0.800764
O O9 0.111605 0.378319 0.539219
O O10 0.709989 0.357254 0.010601
O O11 0.271761 0.620517 0.309327
O O12 0.730618 0.674862 0.115198
O O13 0.874729 0.601774 0.446655
O O14 0.271466 0.729291 0.462352
O O15 0.410347 0.821646 0.710849
O O16 0.874572 0.748010 0.927939
#
# Coordination Sequence:
#
# PCOD9116813 Si02
#       8
#     2   2   2   2   2   2   2   2
#     4  10  23  39  62  94 123 167 216 262 323 387
#     4  10  22  41  61  91 127 164 211 270 317 389
#     4  10  22  41  61  91 127 164 211 270 317 389
#     4  10  23  39  62  94 121 166 214 261 323 387
#     4  10  22  42  62  90 131 160 216 266 321 381
#     4  10  22  42  62  90 131 160 216 266 321 381
#     4  10  23  39  62  94 121 166 214 261 323 387
#     4  10  23  39  62  94 123 167 216 262 323 387
#
# _framework density 23.947707000000001
#
# number of rings (size 3 to 8) (size 9 to 14) (size 15 to 20)
#    0.000    2.000    0.000    1.500    7.000    1.000 
#    0.000    0.000    0.000    0.000    0.000    0.000 
#    0.000    0.000    0.000    0.000    0.000    0.000 
#
# Total GULP energy -89127.391527 kJ/mol
# GULP energy per Si atom -5570.461970 kJ/mol
# Density = 2.389320 g / cm^3
# Si number density = 23.947707 Si / 1000 Ang^3
#
#
#
# Elastic Constant Matrix: (Units=GPa)
#
#
# Indices 1 2 3 4 5 6 
#
# 1 185.0785 19.7122 -78.7715 0.0000 -98.5150 0.0000
# 2 19.7122 92.6773 31.4711 0.0000 -9.7360 0.0000
# 3 -78.7715 31.4711 257.7948 0.0000 36.9772 0.0000
# 4 0.0000 0.0000 0.0000 22.7564 0.0000 -10.4327
# 5 -98.5150 -9.7360 36.9772 0.0000 71.3598 0.0000
# 6 0.0000 0.0000 0.0000 -10.4327 0.0000 10.6361
#
#
#
# Elastic Compliance Matrix: (Units=1/GPa)
#
#
# Indices 1 2 3 4 5 6 
#
# 1 0.022439 -0.002751 0.003028 0.000000 0.029034 0.000000
# 2 -0.002751 0.011998 -0.002155 0.000000 -0.001044 0.000000
# 3 0.003028 -0.002155 0.004872 0.000000 0.001361 0.000000
# 4 0.000000 0.000000 0.000000 0.079851 0.000000 0.078324
# 5 0.029034 -0.001044 0.001361 0.000000 0.053248 0.000000
# 6 0.000000 0.000000 0.000000 0.078324 0.000000 0.170845
#
#
# Mechanical properties :
#
#
# Convention : Reuss Voigt Hill
#
# Bulk Modulus (GPa) = 28.12808 53.37492 40.75150
# Shear Modulus (GPa) = 13.93300 58.49304 36.21302
#
# Velocity S-wave (km/s) = 2.41469 4.94756 3.89288
# Velocity P-wave (km/s) = 4.42102 7.41447 6.10409
#
# Compressibility (1/GPa) = 0.03555167
#
# Stress axis : x y z
#
# Youngs Moduli (GPa) = 44.56518 83.35067 205.25050
#
# Poissons Ratio (x) = 0.22928 -0.62145
# Poissons Ratio (y) = 0.12259 0.44241
# Poissons Ratio (z) = -0.13493 0.17966
#
# Static dielectric constant tensor:
#      x y z
#    x 2.101710 0.000000 0.061160 
#    y 0.000000 1.936690 0.000000 
#    z 0.061160 0.000000 2.031110 
# 
# From -- ./inp_files/572.got.cif
#   From: 2010.05.17/outbox.cif.g08.bks.cpg/sg4_1_cif.got.tgz:572.got - 2010.06.03 18:43:04.
