data_PCOD9116499
_publ_section_title
;
Structure prediction by ZEFSAII (Michael W. Deem and Ramdas Pophale) SiO2 
 PCOD9116499
Probable space group: P 21
;
_chemical_formula_sum "Si O2"
_cell_formula_units_Z 14
_cell_length_a 14.289347
_cell_length_b 8.033673
_cell_length_c 12.795472
_cell_angle_alpha 90.000000
_cell_angle_beta 24.210720
_cell_angle_gamma 90.000000
_cell_volume 602.373592
_symmetry_space_group_name_H-M "P 21"
_symmetry_group_IT_number 4
_symmetry_cell_setting 'monoclinic'
loop_
_space_group_symop_operation_xyz
x,y,z
-x,1/2+y,-z
loop_
_atom_site_type_symbol
_atom_site_label
_atom_site_fract_x
_atom_site_fract_y
_atom_site_fract_z
Si Si1 0.042740 0.100640 0.639681
Si Si2 0.436185 0.224676 0.141861
Si Si3 0.025887 0.988111 0.869496
Si Si4 0.660300 0.245404 0.324618
Si Si5 0.328403 0.214750 0.851201
Si Si6 0.621682 0.357117 0.741948
Si Si7 0.660862 0.355911 0.098785
O O1 0.163147 0.207981 0.426074
O O2 0.110296 0.912364 0.534219
O O3 0.150105 0.085449 0.648160
O O4 0.827913 0.209497 0.890651
O O5 0.491781 0.361311 0.173086
O O6 0.495612 0.038228 0.120930
O O7 0.554673 0.255909 0.912446
O O8 0.205244 0.898504 0.760153
O O9 0.864133 0.850587 0.977931
O O10 0.852806 0.105813 0.108349
O O11 0.468780 0.191435 0.600944
O O12 0.566617 0.297936 0.306868
O O13 0.510923 0.278654 0.751748
O O14 0.234655 0.037613 0.986779
#
# Coordination Sequence:
#
# PCOD9116499 Si02
#       7
#     2   2   2   2   2   2   2
#     4   9  23  44  63  94 131 169 217 283 319 395
#     4  10  22  44  67  93 126 176 218 277 332 398
#     4  11  23  41  65  95 136 171 226 267 343 390
#     4  11  23  41  64  98 134 176 218 282 321 408
#     4  12  24  41  66 101 132 181 219 272 334 408
#     4  10  21  45  68  93 137 166 226 274 341 386
#     4  11  24  42  67  98 132 175 228 263 344 393
#
# _framework density 23.241389999999999
#
# number of rings (size 3 to 8) (size 9 to 14) (size 15 to 20)
#    0.857    0.571    1.429    4.286    0.000    6.857 
#    7.714    0.000    0.000    0.000    0.000    0.000 
#    0.000    0.000    0.000    0.000    0.000    0.000 
#
# Total GULP energy -77970.362880 kJ/mol
# GULP energy per Si atom -5569.311634 kJ/mol
# Density = 2.318849 g / cm^3
# Si number density = 23.241390 Si / 1000 Ang^3
#
#
#
# Elastic Constant Matrix: (Units=GPa)
#
#
# Indices 1 2 3 4 5 6 
#
# 1 30.6267 21.1657 16.2478 0.0000 6.9425 0.0000
# 2 21.1657 81.3562 20.7723 0.0000 4.4780 0.0000
# 3 16.2478 20.7723 100.0518 0.0000 39.7057 0.0000
# 4 0.0000 0.0000 0.0000 43.8969 0.0000 6.9621
# 5 6.9425 4.4780 39.7057 0.0000 23.5628 0.0000
# 6 0.0000 0.0000 0.0000 6.9621 0.0000 38.4751
#
#
#
# Elastic Compliance Matrix: (Units=1/GPa)
#
#
# Indices 1 2 3 4 5 6 
#
# 1 0.042310 -0.010141 -0.001760 0.000000 -0.007573 0.000000
# 2 -0.010141 0.015724 -0.004883 0.000000 0.008228 0.000000
# 3 -0.001760 -0.004883 0.032361 0.000000 -0.053086 0.000000
# 4 0.000000 0.000000 0.000000 0.023454 0.000000 -0.004244
# 5 -0.007573 0.008228 -0.053086 0.000000 0.132562 0.000000
# 6 0.000000 0.000000 0.000000 -0.004244 0.000000 0.026759
#
#
# Mechanical properties :
#
#
# Convention : Reuss Voigt Hill
#
# Bulk Modulus (GPa) = 17.59719 36.48958 27.04338
# Shear Modulus (GPa) = 15.35247 31.44357 23.39802
#
# Velocity S-wave (km/s) = 2.57294 3.68219 3.17636
# Velocity P-wave (km/s) = 4.05149 5.81484 5.01133
#
# Compressibility (1/GPa) = 0.05682725
#
# Stress axis : x y z
#
# Youngs Moduli (GPa) = 23.63496 63.59774 30.90093
#
# Poissons Ratio (x) = 0.64496 0.05439
# Poissons Ratio (y) = 0.23969 0.15088
# Poissons Ratio (z) = 0.04160 0.31054
#
# Static dielectric constant tensor:
#      x y z
#    x 1.918800 0.000000 -0.042020 
#    y 0.000000 1.904450 0.000000 
#    z -0.042020 0.000000 1.961040 
# 
# From -- ./inp_files/12607.got.cif
#   From: 2010.05.17/outbox.cif.g08.bks.cpg/sg4_7_cif.got.tgz:12607.got - 2010.06.03 18:43:04.
