data_PCOD9116487
_publ_section_title
;
Structure prediction by ZEFSAII (Michael W. Deem and Ramdas Pophale) SiO2 
 PCOD9116487
Probable space group: P 21
;
_chemical_formula_sum "Si O2"
_cell_formula_units_Z 16
_cell_length_a 9.887715
_cell_length_b 12.249886
_cell_length_c 7.341158
_cell_angle_alpha 90.000000
_cell_angle_beta 46.552766
_cell_angle_gamma 90.000000
_cell_volume 645.556061
_symmetry_space_group_name_H-M "P 21"
_symmetry_group_IT_number 4
_symmetry_cell_setting 'monoclinic'
loop_
_space_group_symop_operation_xyz
x,y,z
-x,1/2+y,-z
loop_
_atom_site_type_symbol
_atom_site_label
_atom_site_fract_x
_atom_site_fract_y
_atom_site_fract_z
Si Si1 0.101927 0.401740 0.987221
Si Si2 0.640578 0.266074 0.554455
Si Si3 0.985659 0.675259 0.754766
Si Si4 0.907277 0.105424 0.755519
Si Si5 0.689386 0.516104 0.572834
Si Si6 0.476282 0.685837 0.956496
Si Si7 0.273150 0.995228 0.838866
Si Si8 0.413910 0.348264 0.420590
O O1 0.231340 0.394298 0.687949
O O2 0.100405 0.293090 0.113468
O O3 0.162850 0.496567 0.072009
O O4 0.895264 0.421794 0.091545
O O5 0.708490 0.384830 0.575223
O O6 0.514439 0.290353 0.499066
O O7 0.812768 0.189566 0.337315
O O8 0.537890 0.211641 0.819157
O O9 0.046382 0.631968 0.499708
O O10 0.839179 0.589138 0.962066
O O11 0.121528 0.087898 0.619691
O O12 0.732182 0.187685 0.939172
O O13 0.560486 0.567093 0.843590
O O14 0.607444 0.532915 0.447398
O O15 0.612488 0.765999 0.720756
O O16 0.429016 0.930272 0.801601
#
# Coordination Sequence:
#
# PCOD9116487 Si02
#       8
#     2   2   2   2   2   2   2   2
#     4  11  23  44  64  98 134 170 226 277 329 408
#     4  10  23  46  63  95 140 163 221 286 319 402
#     4  11  22  42  68  99 126 185 219 270 354 389
#     4  10  23  40  68  91 133 172 217 275 335 395
#     4  10  21  45  63  92 133 170 210 286 324 387
#     4  11  25  42  67 100 125 176 227 261 344 402
#     4  10  23  42  66  93 136 167 224 274 326 399
#     4  11  24  43  69  96 135 175 214 283 333 390
#
# _framework density 24.784835000000001
#
# number of rings (size 3 to 8) (size 9 to 14) (size 15 to 20)
#    0.000    1.500    3.750    2.250    7.000    1.000 
#    6.750    0.000    0.000    0.000    0.000    0.000 
#    0.000    0.000    0.000    0.000    0.000    0.000 
#
# Total GULP energy -89130.423661 kJ/mol
# GULP energy per Si atom -5570.651479 kJ/mol
# Density = 2.472842 g / cm^3
# Si number density = 24.784835 Si / 1000 Ang^3
#
#
#
# Elastic Constant Matrix: (Units=GPa)
#
#
# Indices 1 2 3 4 5 6 
#
# 1 23.3113 -5.3683 4.2310 0.0000 -7.9221 0.0000
# 2 -5.3683 85.6556 62.1326 0.0000 2.5751 0.0000
# 3 4.2310 62.1326 156.4562 0.0000 0.3303 0.0000
# 4 0.0000 0.0000 0.0000 48.6100 0.0000 9.8451
# 5 -7.9221 2.5751 0.3303 0.0000 30.0598 0.0000
# 6 0.0000 0.0000 0.0000 9.8451 0.0000 20.8147
#
#
#
# Elastic Compliance Matrix: (Units=1/GPa)
#
#
# Indices 1 2 3 4 5 6 
#
# 1 0.048949 0.005157 -0.003398 0.000000 0.012496 0.000000
# 2 0.005157 0.016995 -0.006889 0.000000 -0.000021 0.000000
# 3 -0.003398 -0.006889 0.009220 0.000000 -0.000407 0.000000
# 4 0.000000 0.000000 0.000000 0.022751 0.000000 -0.010761
# 5 0.012496 -0.000021 -0.000407 0.000000 0.036567 0.000000
# 6 0.000000 0.000000 0.000000 -0.010761 0.000000 0.053133
#
#
# Mechanical properties :
#
#
# Convention : Reuss Voigt Hill
#
# Bulk Modulus (GPa) = 15.40728 43.04595 29.22661
# Shear Modulus (GPa) = 22.77810 33.52540 28.15175
#
# Velocity S-wave (km/s) = 3.03485 3.68184 3.37389
# Velocity P-wave (km/s) = 4.30236 5.95652 5.19569
#
# Compressibility (1/GPa) = 0.06490437
#
# Stress axis : x y z
#
# Youngs Moduli (GPa) = 20.42961 58.83944 108.46000
#
# Poissons Ratio (x) = -0.30343 0.36855
# Poissons Ratio (y) = -0.10535 0.74715
# Poissons Ratio (z) = 0.06942 0.40533
#
# Static dielectric constant tensor:
#      x y z
#    x 2.012170 0.000000 -0.049380 
#    y 0.000000 2.127140 0.000000 
#    z -0.049380 0.000000 1.979600 
# 
# From -- ./inp_files/8163.got.cif
#   From: 2010.05.17/outbox.cif.g08.bks.cpg/sg4_5_cif.got.tgz:8163.got - 2010.06.03 18:43:04.
