data_PCOD9116895
_publ_section_title
;
Structure prediction by ZEFSAII (Michael W. Deem and Ramdas Pophale) SiO2 
 PCOD9116895
Probable space group: P 21
;
_chemical_formula_sum "Si O2"
_cell_formula_units_Z 14
_cell_length_a 9.940572
_cell_length_b 10.780535
_cell_length_c 9.188805
_cell_angle_alpha 90.000000
_cell_angle_beta 34.575628
_cell_angle_gamma 90.000000
_cell_volume 558.819636
_symmetry_space_group_name_H-M "P 21"
_symmetry_group_IT_number 4
_symmetry_cell_setting 'monoclinic'
loop_
_space_group_symop_operation_xyz
x,y,z
-x,1/2+y,-z
loop_
_atom_site_type_symbol
_atom_site_label
_atom_site_fract_x
_atom_site_fract_y
_atom_site_fract_z
Si Si1 0.076793 0.387830 0.879109
Si Si2 0.492947 0.006465 0.407788
Si Si3 0.392671 0.331527 0.321621
Si Si4 0.730782 0.811809 0.886023
Si Si5 0.777872 0.451404 0.609517
Si Si6 0.680623 0.247382 0.301738
Si Si7 0.742855 0.538885 0.965951
O O1 0.233813 0.462262 0.856629
O O2 0.222083 0.340085 0.610556
O O3 0.897645 0.483333 0.959681
O O4 0.959056 0.267192 0.055212
O O5 0.314215 0.041349 0.437993
O O6 0.395160 0.876031 0.555700
O O7 0.544340 0.123611 0.467846
O O8 0.292844 0.277891 0.264111
O O9 0.617416 0.257614 0.185787
O O10 0.489107 0.470141 0.202987
O O11 0.733873 0.685306 0.971717
O O12 0.984657 0.882953 0.659294
O O13 0.474228 0.875837 0.149128
O O14 0.834705 0.498878 0.721869
#
# Coordination Sequence:
#
# PCOD9116895 Si02
#       7
#     2   2   2   2   2   2   2
#     4  10  22  42  68  96 136 186 239 285 358 427
#     4  11  26  43  69 104 140 188 238 303 357 426
#     4   9  20  43  64 101 135 184 229 289 355 429
#     4  11  24  41  72 100 141 182 239 294 353 421
#     4  11  26  43  65 107 141 178 238 295 353 422
#     4  10  24  45  70  99 144 188 241 294 362 431
#     4  10  22  41  68  97 137 184 232 294 358 422
#
# _framework density 25.052807999999999
#
# number of rings (size 3 to 8) (size 9 to 14) (size 15 to 20)
#    0.000    1.714    1.429    0.857    6.000    4.571 
#    2.571    0.000    0.000    0.000    0.000    0.000 
#    0.000    0.000    0.000    0.000    0.000    0.000 
#
# Total GULP energy -78013.869605 kJ/mol
# GULP energy per Si atom -5572.419257 kJ/mol
# Density = 2.499579 g / cm^3
# Si number density = 25.052808 Si / 1000 Ang^3
#
#
#
# Elastic Constant Matrix: (Units=GPa)
#
#
# Indices 1 2 3 4 5 6 
#
# 1 141.6216 9.5398 8.3599 0.0000 -16.6220 0.0000
# 2 9.5398 79.2203 33.1438 0.0000 -5.5671 0.0000
# 3 8.3599 33.1438 107.7937 0.0000 -3.3296 0.0000
# 4 0.0000 0.0000 0.0000 31.1543 0.0000 -2.4558
# 5 -16.6220 -5.5671 -3.3296 0.0000 36.4992 0.0000
# 6 0.0000 0.0000 0.0000 -2.4558 0.0000 35.9663
#
#
#
# Elastic Compliance Matrix: (Units=1/GPa)
#
#
# Indices 1 2 3 4 5 6 
#
# 1 0.007504 -0.000540 -0.000314 0.000000 0.003306 0.000000
# 2 -0.000540 0.014645 -0.004412 0.000000 0.001585 0.000000
# 3 -0.000314 -0.004412 0.010663 0.000000 0.000157 0.000000
# 4 0.000000 0.000000 0.000000 0.032272 0.000000 0.002204
# 5 0.003306 0.001585 0.000157 0.000000 0.029160 0.000000
# 6 0.000000 0.000000 0.000000 0.002204 0.000000 0.027954
#
#
# Mechanical properties :
#
#
# Convention : Reuss Voigt Hill
#
# Bulk Modulus (GPa) = 44.88293 47.85807 46.37050
# Shear Modulus (GPa) = 35.67423 39.23009 37.45216
#
# Velocity S-wave (km/s) = 3.77764 3.96143 3.87063
# Velocity P-wave (km/s) = 6.08125 6.32995 6.20685
#
# Compressibility (1/GPa) = 0.02228018
#
# Stress axis : x y z
#
# Youngs Moduli (GPa) = 133.26156 68.28060 93.78381
#
# Poissons Ratio (x) = 0.03687 0.02943
# Poissons Ratio (y) = 0.07196 0.41380
# Poissons Ratio (z) = 0.04182 0.30127
#
# Static dielectric constant tensor:
#      x y z
#    x 2.053800 0.000000 -0.055060 
#    y 0.000000 2.066400 0.000000 
#    z -0.055060 0.000000 2.146090 
# 
# From -- ./inp_files/2696.got.cif
#   From: 2010.05.17/outbox.cif.g08.bks.cpg/sg4_2_cif.got.tgz:2696.got - 2010.06.03 18:43:04.
