data_PCOD9116730
_publ_section_title
;
Structure prediction by ZEFSAII (Michael W. Deem and Ramdas Pophale) SiO2 
 PCOD9116730
Probable space group: P 21
;
_chemical_formula_sum "Si O2"
_cell_formula_units_Z 16
_cell_length_a 9.270190
_cell_length_b 8.421021
_cell_length_c 11.842724
_cell_angle_alpha 90.000000
_cell_angle_beta 50.889903
_cell_angle_gamma 90.000000
_cell_volume 717.348968
_symmetry_space_group_name_H-M "P 21"
_symmetry_group_IT_number 4
_symmetry_cell_setting 'monoclinic'
loop_
_space_group_symop_operation_xyz
x,y,z
-x,1/2+y,-z
loop_
_atom_site_type_symbol
_atom_site_label
_atom_site_fract_x
_atom_site_fract_y
_atom_site_fract_z
Si Si1 0.605328 0.211150 0.728137
Si Si2 0.076111 0.791233 0.723527
Si Si3 0.638879 0.180958 0.244399
Si Si4 0.751278 0.508889 0.071933
Si Si5 0.951269 0.049592 0.457152
Si Si6 0.857566 0.328302 0.801205
Si Si7 0.110384 0.532788 0.049705
Si Si8 0.717632 0.506884 0.529770
O O1 0.402882 0.142213 0.842608
O O2 0.751739 0.076317 0.612783
O O3 0.688874 0.280565 0.802683
O O4 0.618380 0.350886 0.630470
O O5 0.210205 0.679193 0.729762
O O6 0.017529 0.701937 0.639319
O O7 0.199935 0.945290 0.628391
O O8 0.910106 0.864491 0.878170
O O9 0.663463 0.351398 0.173380
O O10 0.436616 0.142297 0.391584
O O11 0.704701 0.058722 0.114790
O O12 0.938053 0.545628 0.048551
O O13 0.801849 0.462999 0.918753
O O14 0.984105 0.897532 0.360331
O O15 0.109358 0.045535 0.474355
O O16 0.904384 0.174912 0.852630
#
# Coordination Sequence:
#
# PCOD9116730 Si02
#       8
#     2   2   2   2   2   2   2   2
#     4  10  23  41  61  89 123 159 201 248 298 355
#     4  10  22  40  64  90 120 162 200 244 304 354
#     4  10  23  41  61  89 123 159 201 248 298 355
#     4  10  23  41  61  89 123 159 201 248 298 355
#     4  10  22  42  62  90 124 156 200 248 300 358
#     4  10  22  40  64  90 120 162 200 244 304 354
#     4  10  22  42  62  90 124 156 200 248 300 358
#     4  10  23  41  61  89 123 159 201 248 298 355
#
# _framework density 22.304345000000001
#
# number of rings (size 3 to 8) (size 9 to 14) (size 15 to 20)
#    0.000    2.000    0.000    1.500    0.000   18.000 
#    0.000    5.000    0.000    0.000    0.000    0.000 
#    0.000    0.000    0.000    0.000    0.000    0.000 
#
# Total GULP energy -89487.166586 kJ/mol
# GULP energy per Si atom -5592.947912 kJ/mol
# Density = 2.225358 g / cm^3
# Si number density = 22.304345 Si / 1000 Ang^3
#
#
#
# Elastic Constant Matrix: (Units=GPa)
#
#
# Indices 1 2 3 4 5 6 
#
# 1 13.4332 3.0268 14.1952 0.0000 6.7122 0.0000
# 2 3.0268 18.9191 5.7248 0.0000 -7.2058 0.0000
# 3 14.1952 5.7248 55.8465 0.0000 0.1619 0.0000
# 4 0.0000 0.0000 0.0000 61.4934 0.0000 0.4628
# 5 6.7122 -7.2058 0.1619 0.0000 30.6465 0.0000
# 6 0.0000 0.0000 0.0000 0.4628 0.0000 39.4436
#
#
#
# Elastic Compliance Matrix: (Units=1/GPa)
#
#
# Indices 1 2 3 4 5 6 
#
# 1 0.128559 -0.024303 -0.030088 0.000000 -0.033712 0.000000
# 2 -0.024303 0.064726 -0.000517 0.000000 0.020545 0.000000
# 3 -0.030088 -0.000517 0.025589 0.000000 0.006333 0.000000
# 4 0.000000 0.000000 0.000000 0.016263 0.000000 -0.000191
# 5 -0.033712 0.020545 0.006333 0.000000 0.044811 0.000000
# 6 0.000000 0.000000 0.000000 -0.000191 0.000000 0.025355
#
#
# Mechanical properties :
#
#
# Convention : Reuss Voigt Hill
#
# Bulk Modulus (GPa) = 9.16958 14.89915 12.03436
# Shear Modulus (GPa) = 11.07486 30.66684 20.87085
#
# Velocity S-wave (km/s) = 2.23072 3.71202 3.06229
# Velocity P-wave (km/s) = 3.27946 5.00665 4.23211
#
# Compressibility (1/GPa) = 0.10905629
#
# Stress axis : x y z
#
# Youngs Moduli (GPa) = 7.77854 15.44966 39.07965
#
# Poissons Ratio (x) = 0.37548 1.17584
# Poissons Ratio (y) = 0.18905 0.02021
# Poissons Ratio (z) = 0.23404 0.00799
#
# Static dielectric constant tensor:
#      x y z
#    x 1.755740 0.000000 0.015350 
#    y 0.000000 1.868640 0.000000 
#    z 0.015350 0.000000 1.823960 
# 
# From -- ./inp_files/2579.got.cif
#   From: 2010.05.17/outbox.cif.g08.bks.cpg/sg4_2_cif.got.tgz:2579.got - 2010.06.03 18:43:04.
