data_PCOD9116569
_publ_section_title
;
Structure prediction by ZEFSAII (Michael W. Deem and Ramdas Pophale) SiO2 
 PCOD9116569
Probable space group: P 21
;
_chemical_formula_sum "Si O2"
_cell_formula_units_Z 16
_cell_length_a 10.323294
_cell_length_b 7.084546
_cell_length_c 10.618191
_cell_angle_alpha 90.000000
_cell_angle_beta 119.085000
_cell_angle_gamma 90.000000
_cell_volume 678.644529
_symmetry_space_group_name_H-M "P 21"
_symmetry_group_IT_number 4
_symmetry_cell_setting 'monoclinic'
loop_
_space_group_symop_operation_xyz
x,y,z
-x,1/2+y,-z
loop_
_atom_site_type_symbol
_atom_site_label
_atom_site_fract_x
_atom_site_fract_y
_atom_site_fract_z
Si Si1 0.558671 0.557570 0.167279
Si Si2 0.951024 0.149786 0.293207
Si Si3 0.603611 0.633194 0.586040
Si Si4 0.391389 0.627903 0.832720
Si Si5 0.686921 0.842735 0.373840
Si Si6 0.017572 0.552279 0.413960
Si Si7 0.657814 0.035688 0.706792
Si Si8 0.138950 0.842737 0.277897
O O1 0.602782 0.342737 0.205560
O O2 0.695619 0.694927 0.262224
O O3 0.431168 0.596813 0.210325
O O4 0.496886 0.592737 1.000000
O O5 0.779160 0.088662 0.210322
O O6 0.948740 0.379838 0.300346
O O7 0.032209 0.100740 0.466357
O O8 0.036015 0.034181 0.223571
O O9 0.655554 0.715114 0.476820
O O10 0.648392 0.805636 0.699654
O O11 0.434148 0.584735 0.466358
O O12 0.700417 0.445500 0.647626
O O13 0.433391 0.490546 0.737774
O O14 0.821267 0.970356 0.476819
O O15 0.052795 0.739973 0.352375
O O16 0.812441 0.151292 0.776429
#
# Coordination Sequence:
#
# PCOD9116569 Si02
#       8
#     2   2   2   2   2   2   2   2
#     4  11  25  44  67  93 128 172 226 277 327 395
#     4  11  24  36  64  94 135 174 217 273 340 398
#     4  11  22  35  60  99 129 170 210 268 345 390
#     4  11  25  44  67  93 128 172 226 277 327 395
#     4  10  22  36  61  95 132 164 204 266 334 386
#     4  11  22  35  60  99 129 170 210 268 345 390
#     4  11  24  36  64  94 135 174 217 273 340 398
#     4  12  22  40  59  95 144 168 224 262 328 420
#
# _framework density 23.576405999999999
#
# number of rings (size 3 to 8) (size 9 to 14) (size 15 to 20)
#    0.000    1.000    6.250    0.000   10.500    0.000 
#    0.000    0.000    5.500    0.000    0.000    0.000 
#    0.000    0.000    0.000    0.000    0.000    0.000 
#
# Total GULP energy -89077.596593 kJ/mol
# GULP energy per Si atom -5567.349787 kJ/mol
# Density = 2.352275 g / cm^3
# Si number density = 23.576406 Si / 1000 Ang^3
#
#
#
# Elastic Constant Matrix: (Units=GPa)
#
#
# Indices 1 2 3 4 5 6 
#
# 1 73.6398 0.8545 -12.7553 0.0000 0.0001 0.0000
# 2 0.8545 149.8199 -15.1849 0.0000 0.0001 0.0000
# 3 -12.7553 -15.1849 37.3956 0.0000 -0.0001 0.0000
# 4 0.0000 0.0000 0.0000 18.2013 0.0000 0.0005
# 5 0.0001 0.0001 -0.0001 0.0000 20.5856 0.0000
# 6 0.0000 0.0000 0.0000 0.0005 0.0000 59.4153
#
#
#
# Elastic Compliance Matrix: (Units=1/GPa)
#
#
# Indices 1 2 3 4 5 6 
#
# 1 0.014459 0.000435 0.005109 0.000000 0.000000 0.000000
# 2 0.000435 0.006974 0.002980 0.000000 0.000000 0.000000
# 3 0.005109 0.002980 0.029694 0.000000 0.000000 0.000000
# 4 0.000000 0.000000 0.000000 0.054941 0.000000 0.000000
# 5 0.000000 0.000000 0.000000 0.000000 0.048578 0.000000
# 6 0.000000 0.000000 0.000000 0.000000 0.000000 0.016831
#
#
# Mechanical properties :
#
#
# Convention : Reuss Voigt Hill
#
# Bulk Modulus (GPa) = 14.66777 22.96488 18.81632
# Shear Modulus (GPa) = 28.22409 38.83650 33.53030
#
# Velocity S-wave (km/s) = 3.46371 4.06305 3.77529
# Velocity P-wave (km/s) = 4.71501 5.63675 5.19636
#
# Compressibility (1/GPa) = 0.06817671
#
# Stress axis : x y z
#
# Youngs Moduli (GPa) = 69.15889 143.38394 33.67695
#
# Poissons Ratio (x) = -0.06242 -0.17205
# Poissons Ratio (y) = -0.03011 -0.10037
# Poissons Ratio (z) = -0.35332 -0.42735
#
# Static dielectric constant tensor:
#      x y z
#    x 2.027130 0.000000 0.000010 
#    y 0.000000 2.016090 0.000000 
#    z 0.000010 0.000000 1.858560 
# 
# From -- ./inp_files/11781.got.cif
#   From: 2010.05.17/outbox.cif.g08.bks.cpg/sg4_6_cif.got.tgz:11781.got - 2010.06.03 18:43:04.
