data_PCOD9116600
_publ_section_title
;
Structure prediction by ZEFSAII (Michael W. Deem and Ramdas Pophale) SiO2 
 PCOD9116600
Probable space group: P 21
;
_chemical_formula_sum "Si O2"
_cell_formula_units_Z 16
_cell_length_a 7.013959
_cell_length_b 6.254736
_cell_length_c 15.539620
_cell_angle_alpha 90.000000
_cell_angle_beta 78.608653
_cell_angle_gamma 90.000000
_cell_volume 668.300911
_symmetry_space_group_name_H-M "P 21"
_symmetry_group_IT_number 4
_symmetry_cell_setting 'monoclinic'
loop_
_space_group_symop_operation_xyz
x,y,z
-x,1/2+y,-z
loop_
_atom_site_type_symbol
_atom_site_label
_atom_site_fract_x
_atom_site_fract_y
_atom_site_fract_z
Si Si1 0.838529 0.570380 0.211389
Si Si2 0.724777 0.655860 0.956236
Si Si3 0.422374 0.857255 0.878796
Si Si4 0.528672 0.407705 0.632763
Si Si5 0.868180 0.958546 0.077062
Si Si6 0.066358 0.809133 0.344322
Si Si7 0.740769 0.583755 0.451326
Si Si8 0.172488 0.696902 0.682713
O O1 0.617847 0.484184 0.206503
O O2 0.844436 0.744761 0.135853
O O3 0.915706 0.334628 0.231375
O O4 0.955404 0.697968 0.274615
O O5 0.613673 0.720910 0.880200
O O6 0.908644 0.508333 0.929065
O O7 0.595589 0.525182 0.038812
O O8 0.811355 0.873562 0.988281
O O9 0.256997 0.672861 0.899888
O O10 0.701612 0.304756 0.673171
O O11 0.647195 0.543947 0.551655
O O12 0.404686 0.233445 0.590732
O O13 0.360142 0.551570 0.691309
O O14 0.953660 0.694830 0.433718
O O15 0.991230 0.049923 0.343782
O O16 0.757916 0.365390 0.395510
#
# Coordination Sequence:
#
# PCOD9116600 Si02
#       8
#     2   2   2   2   2   2   2   2
#     4  10  24  44  62  93 137 178 210 261 319 397
#     4  11  22  38  66  98 127 164 210 279 319 375
#     4  11  22  40  66  95 132 165 215 264 331 377
#     4  11  22  39  66  95 127 168 217 273 329 380
#     4  11  22  40  65  96 132 162 217 265 324 380
#     4  10  24  41  64  92 129 172 216 264 325 389
#     4  10  22  38  61  97 128 160 214 278 325 378
#     4  10  22  44  62  90 132 167 215 266 318 390
#
# _framework density 23.941310000000001
#
# number of rings (size 3 to 8) (size 9 to 14) (size 15 to 20)
#    0.000    1.500    3.750    0.750    1.750    3.000 
#    0.000    5.000    0.000    0.000    0.000    0.000 
#    0.000    0.000    0.000    0.000    0.000    0.000 
#
# Total GULP energy -89090.969186 kJ/mol
# GULP energy per Si atom -5568.185574 kJ/mol
# Density = 2.388682 g / cm^3
# Si number density = 23.941310 Si / 1000 Ang^3
#
#
#
# Elastic Constant Matrix: (Units=GPa)
#
#
# Indices 1 2 3 4 5 6 
#
# 1 132.7293 39.1946 20.9117 0.0000 8.6969 0.0000
# 2 39.1946 87.3779 18.1740 0.0000 1.2220 0.0000
# 3 20.9117 18.1740 29.5672 0.0000 16.6412 0.0000
# 4 0.0000 0.0000 0.0000 31.5246 0.0000 -3.7015
# 5 8.6969 1.2220 16.6412 0.0000 25.0053 0.0000
# 6 0.0000 0.0000 0.0000 -3.7015 0.0000 28.3779
#
#
#
# Elastic Compliance Matrix: (Units=1/GPa)
#
#
# Indices 1 2 3 4 5 6 
#
# 1 0.009188 -0.003179 -0.004530 0.000000 -0.000025 0.000000
# 2 -0.003179 0.015180 -0.011652 0.000000 0.008118 0.000000
# 3 -0.004530 -0.011652 0.068720 0.000000 -0.043589 0.000000
# 4 0.000000 0.000000 0.000000 0.032215 0.000000 0.004202
# 5 -0.000025 0.008118 -0.043589 0.000000 0.068612 0.000000
# 6 0.000000 0.000000 0.000000 0.004202 0.000000 0.035787
#
#
# Mechanical properties :
#
#
# Convention : Reuss Voigt Hill
#
# Bulk Modulus (GPa) = 18.39341 45.13720 31.76530
# Shear Modulus (GPa) = 17.44919 28.40784 22.92852
#
# Velocity S-wave (km/s) = 2.70262 3.44839 3.09803
# Velocity P-wave (km/s) = 4.17591 5.89486 5.10821
#
# Compressibility (1/GPa) = 0.05436731
#
# Stress axis : x y z
#
# Youngs Moduli (GPa) = 108.83452 65.87442 14.55181
#
# Poissons Ratio (x) = 0.20941 0.06592
# Poissons Ratio (y) = 0.34598 0.16955
# Poissons Ratio (z) = 0.49304 0.76754
#
# Static dielectric constant tensor:
#      x y z
#    x 1.893750 0.000000 -0.031640 
#    y 0.000000 1.932530 0.000000 
#    z -0.031640 0.000000 2.099670 
# 
# From -- ./inp_files/3944.got.cif
#   From: 2010.05.17/outbox.cif.g08.bks.cpg/sg4_2_cif.got.tgz:3944.got - 2010.06.03 18:43:04.
