data_PCOD9116005
_publ_section_title
;
Structure prediction by ZEFSAII (Michael W. Deem and Ramdas Pophale) SiO2 
 PCOD9116005
Probable space group: P 21
;
_chemical_formula_sum "Si O2"
_cell_formula_units_Z 14
_cell_length_a 9.027835
_cell_length_b 9.056492
_cell_length_c 11.670570
_cell_angle_alpha 90.000000
_cell_angle_beta 141.685254
_cell_angle_gamma 90.000000
_cell_volume 591.580785
_symmetry_space_group_name_H-M "P 21"
_symmetry_group_IT_number 4
_symmetry_cell_setting 'monoclinic'
loop_
_space_group_symop_operation_xyz
x,y,z
-x,1/2+y,-z
loop_
_atom_site_type_symbol
_atom_site_label
_atom_site_fract_x
_atom_site_fract_y
_atom_site_fract_z
Si Si1 0.525829 0.208580 0.917899
Si Si2 0.550491 0.805845 0.792283
Si Si3 0.387835 0.534074 0.802909
Si Si4 0.717963 0.969041 0.677932
Si Si5 0.904801 0.039742 0.015706
Si Si6 0.286124 0.171314 0.417959
Si Si7 0.851482 0.530309 0.420936
O O1 0.511994 0.382640 0.912137
O O2 0.260134 0.142967 0.738810
O O3 0.634197 0.133077 0.095878
O O4 0.688721 0.154528 0.910414
O O5 0.536550 0.635306 0.806891
O O6 0.569956 0.859640 0.673947
O O7 0.308777 0.883443 0.690086
O O8 0.785331 0.886018 0.987752
O O9 0.131207 0.504397 0.591070
O O10 0.763380 0.848238 0.608208
O O11 0.553510 0.109934 0.556224
O O12 0.927554 0.017578 0.892788
O O13 0.123507 0.098259 0.220158
O O14 0.208566 0.102373 0.492066
#
# Coordination Sequence:
#
# PCOD9116005 Si02
#       7
#     2   2   2   2   2   2   2
#     4  11  22  37  62  91 122 160 201 247 294 367
#     4   8  20  42  54  90 123 152 203 247 290 359
#     4  12  22  37  64  90 125 164 196 245 305 354
#     4   9  23  40  62  89 117 156 207 245 300 364
#     4   9  20  43  58  85 126 154 197 252 294 354
#     4  11  20  42  66  81 123 161 192 260 305 342
#     4  10  21  39  62  86 124 159 200 248 300 352
#
# _framework density 23.665407999999999
#
# number of rings (size 3 to 8) (size 9 to 14) (size 15 to 20)
#    0.857    1.143    2.857    2.571    0.000    2.286 
#    2.571    0.000    0.000    0.000    0.000    0.000 
#    0.000    0.000    0.000    0.000    0.000    0.000 
#
# Total GULP energy -78127.587593 kJ/mol
# GULP energy per Si atom -5580.541971 kJ/mol
# Density = 2.361154 g / cm^3
# Si number density = 23.665408 Si / 1000 Ang^3
#
#
#
# Elastic Constant Matrix: (Units=GPa)
#
#
# Indices 1 2 3 4 5 6 
#
# 1 28.3171 18.8102 5.8978 0.0000 -3.1354 0.0000
# 2 18.8102 84.8480 11.4811 0.0000 -7.8082 0.0000
# 3 5.8978 11.4811 114.6261 0.0000 -1.4628 0.0000
# 4 0.0000 0.0000 0.0000 22.1330 0.0000 -12.8522
# 5 -3.1354 -7.8082 -1.4628 0.0000 23.8966 0.0000
# 6 0.0000 0.0000 0.0000 -12.8522 0.0000 21.1729
#
#
#
# Elastic Compliance Matrix: (Units=1/GPa)
#
#
# Indices 1 2 3 4 5 6 
#
# 1 0.041729 -0.008854 -0.001228 0.000000 0.002507 0.000000
# 2 -0.008854 0.014188 -0.000922 0.000000 0.003418 0.000000
# 3 -0.001228 -0.000922 0.008881 0.000000 0.000081 0.000000
# 4 0.000000 0.000000 0.000000 0.069776 0.000000 0.042355
# 5 0.002507 0.003418 0.000081 0.000000 0.043298 0.000000
# 6 0.000000 0.000000 0.000000 0.042355 0.000000 0.072940
#
#
# Mechanical properties :
#
#
# Convention : Reuss Voigt Hill
#
# Bulk Modulus (GPa) = 23.37039 33.35215 28.36127
# Shear Modulus (GPa) = 17.41657 26.21397 21.81527
#
# Velocity S-wave (km/s) = 2.71578 3.33181 3.03944
# Velocity P-wave (km/s) = 4.44193 5.37820 4.93233
#
# Compressibility (1/GPa) = 0.04278919
#
# Stress axis : x y z
#
# Youngs Moduli (GPa) = 23.96398 70.48233 112.60516
#
# Poissons Ratio (x) = 0.62406 0.13831
# Poissons Ratio (y) = 0.21218 0.10381
# Poissons Ratio (z) = 0.02943 0.06498
#
# Static dielectric constant tensor:
#      x y z
#    x 2.008530 0.000000 -0.025400 
#    y 0.000000 1.931900 0.000000 
#    z -0.025400 0.000000 1.883060 
# 
# From -- ./inp_files/13882.got.cif
#   From: 2010.05.17/outbox.cif.g08.bks.cpg/sg4_7_cif.got.tgz:13882.got - 2010.06.03 18:43:04.
