data_PCOD9116056
_publ_section_title
;
Structure prediction by ZEFSAII (Michael W. Deem and Ramdas Pophale) SiO2 
 PCOD9116056
Probable space group: P 21
;
_chemical_formula_sum "Si O2"
_cell_formula_units_Z 16
_cell_length_a 5.158393
_cell_length_b 12.128810
_cell_length_c 9.980282
_cell_angle_alpha 90.000000
_cell_angle_beta 92.082079
_cell_angle_gamma 90.000000
_cell_volume 624.005789
_symmetry_space_group_name_H-M "P 21"
_symmetry_group_IT_number 4
_symmetry_cell_setting 'monoclinic'
loop_
_space_group_symop_operation_xyz
x,y,z
-x,1/2+y,-z
loop_
_atom_site_type_symbol
_atom_site_label
_atom_site_fract_x
_atom_site_fract_y
_atom_site_fract_z
Si Si1 0.358647 0.391050 0.175682
Si Si2 0.588069 0.634532 0.850875
Si Si3 0.761895 0.159193 0.511289
Si Si4 0.509345 0.871460 0.539816
Si Si5 0.105940 0.561767 0.006391
Si Si6 0.148856 0.297670 0.697461
Si Si7 0.871948 0.503327 0.634279
Si Si8 0.502553 0.120407 0.782323
O O1 0.432834 0.267106 0.142245
O O2 0.295302 0.391897 0.333896
O O3 0.567218 0.493559 0.180124
O O4 0.142846 0.440162 0.071719
O O5 0.318974 0.579991 0.892920
O O6 0.688910 0.585998 0.712022
O O7 0.825968 0.596357 0.951370
O O8 0.633158 0.257429 0.426646
O O9 0.570289 0.122352 0.626252
O O10 0.991825 0.214150 0.600643
O O11 0.883488 0.068387 0.419282
O O12 0.647809 0.852308 0.401229
O O13 0.280058 0.953868 0.495534
O O14 0.232903 0.636359 0.127923
O O15 0.309952 0.221851 0.801579
O O16 0.959845 0.399351 0.728436
#
# Coordination Sequence:
#
# PCOD9116056 Si02
#       8
#     2   2   2   2   2   2   2   2
#     4  10  24  48  78 103 150 201 258 330 377 479
#     4  12  28  53  74 114 155 206 262 324 382 466
#     4  10  21  39  67 107 148 188 248 314 393 467
#     4  10  22  43  70 111 146 199 246 318 403 460
#     4  10  29  51  74 107 147 210 263 312 380 456
#     4  10  21  40  66 109 150 194 240 324 391 468
#     4  11  25  39  74 109 160 195 251 328 394 473
#     4   9  22  45  71 104 142 197 256 312 380 467
#
# _framework density 25.640789999999999
#
# number of rings (size 3 to 8) (size 9 to 14) (size 15 to 20)
#    0.750    1.000    0.000    2.250    5.250    5.000 
#   13.500    0.000    0.000    0.000    0.000    0.000 
#    0.000    0.000    0.000    0.000    0.000    0.000 
#
# Total GULP energy -89392.515905 kJ/mol
# GULP energy per Si atom -5587.032244 kJ/mol
# Density = 2.558243 g / cm^3
# Si number density = 25.640790 Si / 1000 Ang^3
#
#
#
# Elastic Constant Matrix: (Units=GPa)
#
#
# Indices 1 2 3 4 5 6 
#
# 1 84.9211 45.9836 19.7973 0.0000 -5.8712 0.0000
# 2 45.9836 162.6398 46.4567 0.0000 4.6485 0.0000
# 3 19.7973 46.4567 100.8622 0.0000 2.2486 0.0000
# 4 0.0000 0.0000 0.0000 42.2918 0.0000 13.8480
# 5 -5.8712 4.6485 2.2486 0.0000 38.0635 0.0000
# 6 0.0000 0.0000 0.0000 13.8480 0.0000 42.0197
#
#
#
# Elastic Compliance Matrix: (Units=1/GPa)
#
#
# Indices 1 2 3 4 5 6 
#
# 1 0.014281 -0.003797 -0.001115 0.000000 0.002732 0.000000
# 2 -0.003797 0.008107 -0.002957 0.000000 -0.001401 0.000000
# 3 -0.001115 -0.002957 0.011507 0.000000 -0.000491 0.000000
# 4 0.000000 0.000000 0.000000 0.026505 0.000000 -0.008735
# 5 0.002732 -0.001401 -0.000491 0.000000 0.026893 0.000000
# 6 0.000000 0.000000 0.000000 -0.008735 0.000000 0.026677
#
#
# Mechanical properties :
#
#
# Convention : Reuss Voigt Hill
#
# Bulk Modulus (GPa) = 55.08183 63.65536 59.36859
# Shear Modulus (GPa) = 36.82941 40.22069 38.52505
#
# Velocity S-wave (km/s) = 3.79405 3.96488 3.88040
# Velocity P-wave (km/s) = 6.38136 6.77053 6.57882
#
# Compressibility (1/GPa) = 0.01815481
#
# Stress axis : x y z
#
# Youngs Moduli (GPa) = 70.02500 123.35038 86.90736
#
# Poissons Ratio (x) = 0.46839 0.09690
# Poissons Ratio (y) = 0.26590 0.25703
# Poissons Ratio (z) = 0.07807 0.36481
#
# Static dielectric constant tensor:
#      x y z
#    x 1.995260 0.000000 -0.004890 
#    y 0.000000 2.083040 0.000000 
#    z -0.004890 0.000000 2.096390 
# 
# From -- ./inp_files/10531.got.cif
#   From: 2010.05.17/outbox.cif.g08.bks.cpg/sg4_6_cif.got.tgz:10531.got - 2010.06.03 18:43:04.
