data_PCOD9116394
_publ_section_title
;
Structure prediction by ZEFSAII (Michael W. Deem and Ramdas Pophale) SiO2 
 PCOD9116394
Probable space group: P 21
;
_chemical_formula_sum "Si O2"
_cell_formula_units_Z 16
_cell_length_a 7.707463
_cell_length_b 8.707648
_cell_length_c 13.057416
_cell_angle_alpha 90.000000
_cell_angle_beta 46.072288
_cell_angle_gamma 90.000000
_cell_volume 631.149307
_symmetry_space_group_name_H-M "P 21"
_symmetry_group_IT_number 4
_symmetry_cell_setting 'monoclinic'
loop_
_space_group_symop_operation_xyz
x,y,z
-x,1/2+y,-z
loop_
_atom_site_type_symbol
_atom_site_label
_atom_site_fract_x
_atom_site_fract_y
_atom_site_fract_z
Si Si1 0.247750 0.977140 0.578062
Si Si2 0.607899 0.783517 0.554461
Si Si3 0.093819 0.164517 0.105676
Si Si4 0.997707 0.668860 0.148582
Si Si5 0.606617 0.273355 0.855858
Si Si6 0.999774 0.907704 0.996372
Si Si7 0.035446 0.003449 0.339112
Si Si8 0.213747 0.503401 0.358953
O O1 0.413454 0.843437 0.552667
O O2 0.994386 0.935306 0.629206
O O3 0.382241 0.100092 0.449718
O O4 0.183161 0.078852 0.704487
O O5 0.615933 0.874393 0.659731
O O6 0.862162 0.852315 0.405858
O O7 0.911022 0.279746 0.122077
O O8 0.011126 0.105972 0.248949
O O9 0.338824 0.261183 0.007696
O O10 0.148469 0.015439 0.013024
O O11 0.110961 0.540160 0.027942
O O12 0.213505 0.741153 0.123882
O O13 0.866706 0.796279 0.131785
O O14 0.696912 0.432924 0.769984
O O15 0.652943 0.137095 0.755867
O O16 0.935035 0.076500 0.484241
#
# Coordination Sequence:
#
# PCOD9116394 Si02
#       8
#     2   2   2   2   2   2   2   2
#     4  11  22  44  68 102 135 182 223 287 346 406
#     4  10  23  40  71  98 136 180 223 277 346 404
#     4  11  24  44  69 101 136 186 223 281 343 405
#     4  10  21  43  65  94 137 175 228 279 336 406
#     4  11  22  44  72  92 139 183 225 278 350 402
#     4  10  23  39  64  95 137 174 225 277 329 405
#     4  10  22  47  64 100 136 176 231 286 332 414
#     4   9  21  45  67  98 136 178 230 279 338 406
#
# _framework density 25.350577000000001
#
# number of rings (size 3 to 8) (size 9 to 14) (size 15 to 20)
#    0.750    1.000    3.750    0.000    5.250    3.000 
#   11.250    1.250    0.000    0.000    0.000    0.000 
#    0.000    0.000    0.000    0.000    0.000    0.000 
#
# Total GULP energy -89301.641387 kJ/mol
# GULP energy per Si atom -5581.352587 kJ/mol
# Density = 2.529288 g / cm^3
# Si number density = 25.350577 Si / 1000 Ang^3
#
#
#
# Elastic Constant Matrix: (Units=GPa)
#
#
# Indices 1 2 3 4 5 6 
#
# 1 71.1567 28.4632 21.2755 0.0000 9.0293 0.0000
# 2 28.4632 90.6858 15.9645 0.0000 7.1719 0.0000
# 3 21.2755 15.9645 53.6132 0.0000 17.0364 0.0000
# 4 0.0000 0.0000 0.0000 24.9568 0.0000 3.8306
# 5 9.0293 7.1719 17.0364 0.0000 32.9417 0.0000
# 6 0.0000 0.0000 0.0000 3.8306 0.0000 39.9270
#
#
#
# Elastic Compliance Matrix: (Units=1/GPa)
#
#
# Indices 1 2 3 4 5 6 
#
# 1 0.017572 -0.004498 -0.005283 0.000000 -0.001105 0.000000
# 2 -0.004498 0.012810 -0.001837 0.000000 -0.000606 0.000000
# 3 -0.005283 -0.001837 0.024781 0.000000 -0.010968 0.000000
# 4 0.000000 0.000000 0.000000 0.040668 0.000000 -0.003902
# 5 -0.001105 -0.000606 -0.010968 0.000000 0.036464 0.000000
# 6 0.000000 0.000000 0.000000 -0.003902 0.000000 0.025420
#
#
# Mechanical properties :
#
#
# Convention : Reuss Voigt Hill
#
# Bulk Modulus (GPa) = 31.32056 38.54022 34.93039
# Shear Modulus (GPa) = 26.09693 29.54860 27.82277
#
# Velocity S-wave (km/s) = 3.21197 3.41779 3.31648
# Velocity P-wave (km/s) = 5.11248 5.55076 5.33612
#
# Compressibility (1/GPa) = 0.03192791
#
# Stress axis : x y z
#
# Youngs Moduli (GPa) = 56.90715 78.06301 40.35396
#
# Poissons Ratio (x) = 0.35113 0.21318
# Poissons Ratio (y) = 0.25597 0.07413
# Poissons Ratio (z) = 0.30063 0.14340
#
# Static dielectric constant tensor:
#      x y z
#    x 2.029010 0.000000 0.009980 
#    y 0.000000 1.990350 0.000000 
#    z 0.009980 0.000000 2.061380 
# 
# From -- ./inp_files/13665.got.cif
#   From: 2010.05.17/outbox.cif.g08.bks.cpg/sg4_7_cif.got.tgz:13665.got - 2010.06.03 18:43:04.
