data_PCOD9116857
_publ_section_title
;
Structure prediction by ZEFSAII (Michael W. Deem and Ramdas Pophale) SiO2 
 PCOD9116857
Probable space group: P 21
;
_chemical_formula_sum "Si O2"
_cell_formula_units_Z 14
_cell_length_a 13.455676
_cell_length_b 8.353224
_cell_length_c 4.925613
_cell_angle_alpha 90.000000
_cell_angle_beta 112.826794
_cell_angle_gamma 90.000000
_cell_volume 510.271088
_symmetry_space_group_name_H-M "P 21"
_symmetry_group_IT_number 4
_symmetry_cell_setting 'monoclinic'
loop_
_space_group_symop_operation_xyz
x,y,z
-x,1/2+y,-z
loop_
_atom_site_type_symbol
_atom_site_label
_atom_site_fract_x
_atom_site_fract_y
_atom_site_fract_z
Si Si1 0.878262 0.986990 0.993803
Si Si2 0.561287 0.279936 0.931066
Si Si3 0.909828 0.285608 0.336994
Si Si4 0.481845 0.980866 0.578414
Si Si5 0.164728 0.256328 0.639394
Si Si6 0.877074 0.482866 0.809079
Si Si7 0.686238 0.020519 0.398782
O O1 0.854627 0.802044 0.059228
O O2 0.997167 0.026489 0.015957
O O3 0.876767 0.103962 0.251055
O O4 0.785292 0.047047 0.704132
O O5 0.598360 0.401062 0.729305
O O6 0.350564 0.660183 0.844862
O O7 0.476468 0.160175 0.692185
O O8 0.517587 0.373435 0.149213
O O9 0.887353 0.333752 0.617114
O O10 0.039681 0.298508 0.425558
O O11 0.849207 0.411497 0.073479
O O12 0.587272 0.989174 0.498919
O O13 0.270357 0.363847 0.707603
O O14 0.182512 0.106107 0.456607
#
# Coordination Sequence:
#
# PCOD9116857 Si02
#       7
#     2   2   2   2   2   2   2
#     4  10  23  39  70 101 139 191 237 280 339 421
#     4  12  25  49  80 108 141 185 238 300 373 444
#     4  10  22  41  65  99 144 189 236 283 337 391
#     4  12  25  49  80 108 141 185 238 300 373 444
#     4  10  23  39  70 101 139 191 237 280 339 421
#     4  10  22  41  65  99 144 189 236 283 337 391
#     4  12  24  44  80 106 140 180 246 280 374 426
#
# _framework density 27.436396999999999
#
# number of rings (size 3 to 8) (size 9 to 14) (size 15 to 20)
#    0.000    1.143    4.286    0.857    4.000    2.286 
#    0.000    1.429    9.429    0.000    0.000    0.000 
#    0.000    0.000    0.000    0.000    0.000    0.000 
#
# Total GULP energy -78099.450484 kJ/mol
# GULP energy per Si atom -5578.532177 kJ/mol
# Density = 2.737395 g / cm^3
# Si number density = 27.436397 Si / 1000 Ang^3
#
#
#
# Elastic Constant Matrix: (Units=GPa)
#
#
# Indices 1 2 3 4 5 6 
#
# 1 63.3432 -6.7256 13.2842 0.0000 -8.5549 0.0000
# 2 -6.7256 51.4502 23.5150 0.0000 -3.5727 0.0000
# 3 13.2842 23.5150 157.7878 0.0000 -20.5265 0.0000
# 4 0.0000 0.0000 0.0000 68.1219 0.0000 -19.4429
# 5 -8.5549 -3.5727 -20.5265 0.0000 46.9325 0.0000
# 6 0.0000 0.0000 0.0000 -19.4429 0.0000 25.5049
#
#
#
# Elastic Compliance Matrix: (Units=1/GPa)
#
#
# Indices 1 2 3 4 5 6 
#
# 1 0.016789 0.003076 -0.001530 0.000000 0.002625 0.000000
# 2 0.003076 0.021423 -0.003358 0.000000 0.000723 0.000000
# 3 -0.001530 -0.003358 0.007313 0.000000 0.002664 0.000000
# 4 0.000000 0.000000 0.000000 0.018762 0.000000 0.014302
# 5 0.002625 0.000723 0.002664 0.000000 0.023006 0.000000
# 6 0.000000 0.000000 0.000000 0.014302 0.000000 0.050111
#
#
# Mechanical properties :
#
#
# Convention : Reuss Voigt Hill
#
# Bulk Modulus (GPa) = 23.86491 36.96985 30.41738
# Shear Modulus (GPa) = 32.25903 44.27902 38.26903
#
# Velocity S-wave (km/s) = 3.43268 4.02167 3.73879
# Velocity P-wave (km/s) = 4.94249 5.92192 5.45423
#
# Compressibility (1/GPa) = 0.04190253
#
# Stress axis : x y z
#
# Youngs Moduli (GPa) = 59.56220 46.67835 136.73483
#
# Poissons Ratio (x) = -0.14360 0.20927
# Poissons Ratio (y) = -0.18324 0.45910
# Poissons Ratio (z) = 0.09116 0.15673
#
# Static dielectric constant tensor:
#      x y z
#    x 2.363850 0.000000 -0.004730 
#    y 0.000000 2.274920 0.000000 
#    z -0.004730 0.000000 2.162490 
# 
# From -- ./inp_files/3614.got.cif
#   From: 2010.05.17/outbox.cif.g08.bks.cpg/sg4_2_cif.got.tgz:3614.got - 2010.06.03 18:43:04.
