data_PCOD9116037
_publ_section_title
;
Structure prediction by ZEFSAII (Michael W. Deem and Ramdas Pophale) SiO2 
 PCOD9116037
Probable space group: P 21
;
_chemical_formula_sum "Si O2"
_cell_formula_units_Z 14
_cell_length_a 16.129933
_cell_length_b 5.341810
_cell_length_c 25.341397
_cell_angle_alpha 90.000000
_cell_angle_beta 162.154703
_cell_angle_gamma 90.000000
_cell_volume 669.126557
_symmetry_space_group_name_H-M "P 21"
_symmetry_group_IT_number 4
_symmetry_cell_setting 'monoclinic'
loop_
_space_group_symop_operation_xyz
x,y,z
-x,1/2+y,-z
loop_
_atom_site_type_symbol
_atom_site_label
_atom_site_fract_x
_atom_site_fract_y
_atom_site_fract_z
Si Si1 0.418975 0.001570 0.419222
Si Si2 0.759124 0.622523 0.111517
Si Si3 0.324540 0.930014 0.729184
Si Si4 0.828534 0.127806 0.086623
Si Si5 0.824007 0.059909 0.265221
Si Si6 0.186635 0.677643 0.549415
Si Si7 0.208079 0.447631 0.455238
O O1 0.543099 0.246153 0.523988
O O2 0.568920 0.960798 0.454596
O O3 0.102623 0.064503 0.221879
O O4 0.858624 0.395465 0.133447
O O5 0.953213 0.612287 0.279753
O O6 0.793640 0.892984 0.105581
O O7 0.450046 0.534099 0.934706
O O8 0.290490 0.747962 0.758733
O O9 0.391201 0.807419 0.713328
O O10 0.015796 0.021188 0.536270
O O11 0.557939 0.123224 0.887131
O O12 0.061046 0.183292 0.374497
O O13 0.971309 0.852647 0.388926
O O14 0.308347 0.526435 0.574027
#
# Coordination Sequence:
#
# PCOD9116037 Si02
#       7
#     2   2   2   2   2   2   2
#     4  12  24  45  68  93 133 178 225 275 335 409
#     4  11  23  40  63  99 133 163 216 269 344 397
#     4  10  21  39  65  91 126 172 224 262 336 402
#     4  11  22  42  69  94 123 179 223 271 319 408
#     4  10  23  36  61  92 129 163 208 274 329 401
#     4  11  21  39  61  93 129 174 213 276 331 407
#     4  11  26  37  63  96 131 171 217 277 340 404
#
# _framework density 20.922799000000001
#
# number of rings (size 3 to 8) (size 9 to 14) (size 15 to 20)
#    0.000    1.143    5.714    0.000    6.000    0.000 
#    0.000    0.000    3.143    0.000    0.000    0.000 
#    0.000    0.000    0.000    0.000    0.000    0.000 
#
# Total GULP energy -78121.510863 kJ/mol
# GULP energy per Si atom -5580.107919 kJ/mol
# Density = 2.087518 g / cm^3
# Si number density = 20.922799 Si / 1000 Ang^3
#
#
#
# Elastic Constant Matrix: (Units=GPa)
#
#
# Indices 1 2 3 4 5 6 
#
# 1 107.9481 36.2696 45.7234 0.0000 13.6801 0.0000
# 2 36.2696 64.3600 -1.1090 0.0000 0.1102 0.0000
# 3 45.7234 -1.1090 51.6801 0.0000 3.8926 0.0000
# 4 0.0000 0.0000 0.0000 27.9599 0.0000 -4.4559
# 5 13.6801 0.1102 3.8926 0.0000 41.7951 0.0000
# 6 0.0000 0.0000 0.0000 -4.4559 0.0000 32.7675
#
#
#
# Elastic Compliance Matrix: (Units=1/GPa)
#
#
# Indices 1 2 3 4 5 6 
#
# 1 0.023011 -0.013307 -0.020222 0.000000 -0.005613 0.000000
# 2 -0.013307 0.023238 0.012033 0.000000 0.003174 0.000000
# 3 -0.020222 0.012033 0.037264 0.000000 0.003117 0.000000
# 4 0.000000 0.000000 0.000000 0.036558 0.000000 0.004971
# 5 -0.005613 0.003174 0.003117 0.000000 0.025465 0.000000
# 6 0.000000 0.000000 0.000000 0.004971 0.000000 0.031194
#
#
# Mechanical properties :
#
#
# Convention : Reuss Voigt Hill
#
# Bulk Modulus (GPa) = 24.67782 42.86179 33.76981
# Shear Modulus (GPa) = 21.43809 30.04478 25.74144
#
# Velocity S-wave (km/s) = 3.20445 3.79355 3.51138
# Velocity P-wave (km/s) = 5.05091 6.30223 5.71095
#
# Compressibility (1/GPa) = 0.04052221
#
# Stress axis : x y z
#
# Youngs Moduli (GPa) = 43.45696 43.03227 26.83541
#
# Poissons Ratio (x) = 0.57262 0.54266
# Poissons Ratio (y) = 0.57827 -0.32290
# Poissons Ratio (z) = 0.87877 -0.51779
#
# Static dielectric constant tensor:
#      x y z
#    x 1.783570 0.000000 -0.041140 
#    y 0.000000 1.933630 0.000000 
#    z -0.041140 0.000000 1.773860 
# 
# From -- ./inp_files/10750.got.cif
#   From: 2010.05.17/outbox.cif.g08.bks.cpg/sg4_6_cif.got.tgz:10750.got - 2010.06.03 18:43:04.
