data_PCOD9116829
_publ_section_title
;
Structure prediction by ZEFSAII (Michael W. Deem and Ramdas Pophale) SiO2 
 PCOD9116829
Probable space group: P 21
;
_chemical_formula_sum "Si O2"
_cell_formula_units_Z 12
_cell_length_a 9.017598
_cell_length_b 7.896178
_cell_length_c 6.824803
_cell_angle_alpha 90.000000
_cell_angle_beta 106.776285
_cell_angle_gamma 90.000000
_cell_volume 465.274291
_symmetry_space_group_name_H-M "P 21"
_symmetry_group_IT_number 4
_symmetry_cell_setting 'monoclinic'
loop_
_space_group_symop_operation_xyz
x,y,z
-x,1/2+y,-z
loop_
_atom_site_type_symbol
_atom_site_label
_atom_site_fract_x
_atom_site_fract_y
_atom_site_fract_z
Si Si1 0.563033 0.760840 0.550456
Si Si2 0.304690 0.721501 0.887581
Si Si3 0.267696 0.613369 0.321925
Si Si4 0.811655 0.642298 0.881872
Si Si5 0.979232 0.416159 0.221544
Si Si6 0.364751 0.336373 0.857594
O O1 0.379361 0.738578 0.482482
O O2 0.649366 0.616353 0.709912
O O3 0.615156 0.750160 0.344862
O O4 0.629182 0.940342 0.650310
O O5 0.253191 0.680198 0.094261
O O6 0.469839 0.814467 0.970626
O O7 0.175922 0.842932 0.742404
O O8 0.324684 0.532708 0.812549
O O9 0.099602 0.559315 0.340587
O O10 0.912608 0.756338 0.777397
O O11 0.914262 0.488785 0.991568
O O12 0.764009 0.744158 0.060349
#
# Coordination Sequence:
#
# PCOD9116829 Si02
#       6
#     2   2   2   2   2   2
#     4  10  24  39  67  98 131 174 226 277 330 404
#     4  11  22  40  68  98 133 184 222 277 342 401
#     4  10  22  41  63  99 131 172 226 265 343 393
#     4  11  22  43  68  96 137 180 227 278 337 407
#     4  11  21  42  71  95 136 185 218 280 349 393
#     4  11  23  41  65 102 134 175 235 273 337 406
#
# _framework density 25.791238
#
# number of rings (size 3 to 8) (size 9 to 14) (size 15 to 20)
#    0.000    1.333    5.000    1.000    7.000    0.000 
#    0.000   10.000    0.000    0.000    0.000    0.000 
#    0.000    0.000    0.000    0.000    0.000    0.000 
#
# Total GULP energy -67147.487004 kJ/mol
# GULP energy per Si atom -5595.623917 kJ/mol
# Density = 2.573254 g / cm^3
# Si number density = 25.791238 Si / 1000 Ang^3
#
#
#
# Elastic Constant Matrix: (Units=GPa)
#
#
# Indices 1 2 3 4 5 6 
#
# 1 90.5068 0.8182 24.0077 0.0000 42.5012 0.0000
# 2 0.8182 50.5043 7.0734 0.0000 38.5659 0.0000
# 3 24.0077 7.0734 77.0690 0.0000 26.4433 0.0000
# 4 0.0000 0.0000 0.0000 44.4550 0.0000 13.7871
# 5 42.5012 38.5659 26.4433 0.0000 37.5713 0.0000
# 6 0.0000 0.0000 0.0000 13.7871 0.0000 45.7363
#
#
#
# Elastic Compliance Matrix: (Units=1/GPa)
#
#
# Indices 1 2 3 4 5 6 
#
# 1 -0.002186 -0.024344 -0.008579 0.000000 0.033499 0.000000
# 2 -0.024344 -0.022713 -0.010257 0.000000 0.058071 0.000000
# 3 -0.008579 -0.010257 0.012718 0.000000 0.011282 0.000000
# 4 0.000000 0.000000 0.000000 0.024815 0.000000 -0.007480
# 5 0.033499 0.058071 0.011282 0.000000 -0.078828 0.000000
# 6 0.000000 0.000000 0.000000 -0.007480 0.000000 0.024119
#
#
# Mechanical properties :
#
#
# Convention : Reuss Voigt Hill
#
# Bulk Modulus (GPa) = -10.14813 31.31986 10.58586
# Shear Modulus (GPa) = 437.17137 37.96457 237.56797
#
# Velocity S-wave (km/s) = 13.03349 3.84082 9.60791
# Velocity P-wave (km/s) = 14.91819 5.64262 11.27811
#
# Compressibility (1/GPa) = -0.09854030
#
# Stress axis : x y z
#
# Youngs Moduli (GPa) = -457.36464 -44.02752 78.62719
#
# Poissons Ratio (x) = -1.07179 0.67452
# Poissons Ratio (y) = -11.13396 0.80649
# Poissons Ratio (z) = -3.92358 -0.45160
#
# Static dielectric constant tensor:
#      x y z
#    x 2.037720 0.000000 0.002610 
#    y 0.000000 2.064570 0.000000 
#    z 0.002610 0.000000 2.057710 
# 
# From -- ./inp_files/5456.got.cif
#   From: 2010.05.17/outbox.cif.g08.bks.cpg/sg4_3_cif.got.tgz:5456.got - 2010.06.03 18:43:04.
