data_PCOD9116006
_publ_section_title
;
Structure prediction by ZEFSAII (Michael W. Deem and Ramdas Pophale) SiO2 
 PCOD9116006
Probable space group: P 21
;
_chemical_formula_sum "Si O2"
_cell_formula_units_Z 14
_cell_length_a 17.122857
_cell_length_b 4.866039
_cell_length_c 27.079814
_cell_angle_alpha 90.000000
_cell_angle_beta 17.853416
_cell_angle_gamma 90.000000
_cell_volume 691.743868
_symmetry_space_group_name_H-M "P 21"
_symmetry_group_IT_number 4
_symmetry_cell_setting 'monoclinic'
loop_
_space_group_symop_operation_xyz
x,y,z
-x,1/2+y,-z
loop_
_atom_site_type_symbol
_atom_site_label
_atom_site_fract_x
_atom_site_fract_y
_atom_site_fract_z
Si Si1 0.324174 0.532830 0.929186
Si Si2 0.292470 0.219725 0.444192
Si Si3 0.137944 0.127230 0.431851
Si Si4 0.646417 0.718562 0.239933
Si Si5 0.523437 0.979077 0.053152
Si Si6 0.086638 0.034713 0.020205
Si Si7 0.214441 0.481100 0.209529
O O1 0.611735 0.472545 0.738785
O O2 0.332571 0.541172 0.983043
O O3 0.120170 0.318342 0.029594
O O4 0.271269 0.826126 0.936767
O O5 0.177077 0.284564 0.460082
O O6 0.451906 0.473311 0.370510
O O7 0.484125 0.970986 0.316981
O O8 0.068109 0.092012 0.611970
O O9 0.058335 0.375672 0.443761
O O10 0.821649 0.595538 0.090861
O O11 0.821554 0.869615 0.175129
O O12 0.409622 0.674562 0.121925
O O13 0.281458 0.177255 0.188093
O O14 0.704683 0.005662 0.896373
#
# Coordination Sequence:
#
# PCOD9116006 Si02
#       7
#     2   2   2   2   2   2   2
#     4  12  22  38  59  88 122 157 200 246 302 355
#     4  12  22  38  59  88 122 157 200 246 302 355
#     4  12  22  34  52  84 126 156 184 234 300 360
#     4  12  23  40  59  86 118 158 206 252 297 360
#     4  10  21  39  62  89 121 162 204 241 289 362
#     4  12  23  40  59  86 118 158 206 252 297 360
#     4  10  21  39  62  89 121 162 204 241 289 362
#
# _framework density 20.238703999999998
#
# number of rings (size 3 to 8) (size 9 to 14) (size 15 to 20)
#    0.000    0.571    2.857    7.714    0.000    0.000 
#    0.000    0.000    0.000    3.429    0.000    2.000 
#    0.000    0.000    0.000    0.000    0.000    0.000 
#
# Total GULP energy -78211.577587 kJ/mol
# GULP energy per Si atom -5586.541256 kJ/mol
# Density = 2.019264 g / cm^3
# Si number density = 20.238704 Si / 1000 Ang^3
#
#
#
# Elastic Constant Matrix: (Units=GPa)
#
#
# Indices 1 2 3 4 5 6 
#
# 1 70.3450 8.6345 21.4858 0.0000 1.0348 0.0000
# 2 8.6345 85.7704 4.8878 0.0000 -4.7830 0.0000
# 3 21.4858 4.8878 49.8557 0.0000 -5.4375 0.0000
# 4 0.0000 0.0000 0.0000 28.2386 0.0000 -11.2505
# 5 1.0348 -4.7830 -5.4375 0.0000 17.0117 0.0000
# 6 0.0000 0.0000 0.0000 -11.2505 0.0000 28.6523
#
#
#
# Elastic Compliance Matrix: (Units=1/GPa)
#
#
# Indices 1 2 3 4 5 6 
#
# 1 0.016739 -0.001472 -0.007487 0.000000 -0.003825 0.000000
# 2 -0.001472 0.012007 -0.000171 0.000000 0.003411 0.000000
# 3 -0.007487 -0.000171 0.024189 0.000000 0.008139 0.000000
# 4 0.000000 0.000000 0.000000 0.041980 0.000000 0.016484
# 5 -0.003825 0.003411 0.008139 0.000000 0.062576 0.000000
# 6 0.000000 0.000000 0.000000 0.016484 0.000000 0.041374
#
#
# Mechanical properties :
#
#
# Convention : Reuss Voigt Hill
#
# Bulk Modulus (GPa) = 28.83816 30.66524 29.75170
# Shear Modulus (GPa) = 21.86434 26.17805 24.02119
#
# Velocity S-wave (km/s) = 3.29039 3.60038 3.44887
# Velocity P-wave (km/s) = 5.35869 5.69810 5.53100
#
# Compressibility (1/GPa) = 0.03467627
#
# Stress axis : x y z
#
# Youngs Moduli (GPa) = 59.73957 83.28368 41.34136
#
# Poissons Ratio (x) = 0.12258 0.30952
# Poissons Ratio (y) = 0.08792 0.00706
# Poissons Ratio (z) = 0.44726 0.01423
#
# Static dielectric constant tensor:
#      x y z
#    x 1.738070 0.000000 -0.056800 
#    y 0.000000 1.749450 0.000000 
#    z -0.056800 0.000000 1.766530 
# 
# From -- ./inp_files/16124.got.cif
#   From: 2010.05.17/outbox.cif.g08.bks.cpg/sg4_9_cif.got.tgz:16124.got - 2010.06.03 18:43:04.
