data_PCOD9116194
_publ_section_title
;
Structure prediction by ZEFSAII (Michael W. Deem and Ramdas Pophale) SiO2 
 PCOD9116194
Probable space group: P 21
;
_chemical_formula_sum "Si O2"
_cell_formula_units_Z 16
_cell_length_a 11.900127
_cell_length_b 7.326791
_cell_length_c 9.607016
_cell_angle_alpha 90.000000
_cell_angle_beta 51.258406
_cell_angle_gamma 90.000000
_cell_volume 653.334095
_symmetry_space_group_name_H-M "P 21"
_symmetry_group_IT_number 4
_symmetry_cell_setting 'monoclinic'
loop_
_space_group_symop_operation_xyz
x,y,z
-x,1/2+y,-z
loop_
_atom_site_type_symbol
_atom_site_label
_atom_site_fract_x
_atom_site_fract_y
_atom_site_fract_z
Si Si1 0.650863 0.455220 0.250430
Si Si2 0.411126 0.552051 0.234057
Si Si3 0.576888 0.631399 0.846524
Si Si4 0.874621 0.457662 0.663218
Si Si5 0.876907 0.217873 0.417307
Si Si6 0.915963 0.270146 0.904183
Si Si7 0.516348 0.050731 0.369132
Si Si8 0.170626 0.499705 0.812179
O O1 0.547961 0.571369 0.229639
O O2 0.576395 0.256234 0.317279
O O3 0.623192 0.528459 0.426500
O O4 0.804626 0.417087 0.061664
O O5 0.387393 0.335899 0.229125
O O6 0.271607 0.637130 0.409178
O O7 0.450478 0.638448 0.056263
O O8 0.716914 0.540557 0.802894
O O9 0.525994 0.510806 0.755535
O O10 0.893128 0.408035 0.486070
O O11 0.894291 0.289169 0.755654
O O12 0.991283 0.599586 0.627286
O O13 0.863101 0.173120 0.264412
O O14 0.073572 0.336322 0.829696
O O15 0.876038 0.074621 0.000346
O O16 0.660103 0.951932 0.315258
#
# Coordination Sequence:
#
# PCOD9116194 Si02
#       8
#     2   2   2   2   2   2   2   2
#     4  10  21  41  61  91 124 159 204 255 305 366
#     4  11  22  41  64  93 127 164 207 257 310 370
#     4  11  24  41  64  95 126 166 207 253 318 368
#     4  11  24  44  64  93 128 165 209 261 311 372
#     4  11  24  42  67  91 128 165 209 261 310 374
#     4  10  23  43  63  89 126 162 206 257 307 370
#     4  10  23  39  63  92 123 160 206 250 308 368
#     4  10  23  43  62  92 122 165 206 254 313 364
#
# _framework density 24.489768000000002
#
# number of rings (size 3 to 8) (size 9 to 14) (size 15 to 20)
#    0.000    1.500    2.500    1.500    7.000    3.000 
#    6.750    0.000    0.000    0.000    0.000    0.000 
#    0.000    0.000    0.000    0.000    0.000    0.000 
#
# Total GULP energy -89537.080948 kJ/mol
# GULP energy per Si atom -5596.067559 kJ/mol
# Density = 2.443403 g / cm^3
# Si number density = 24.489768 Si / 1000 Ang^3
#
#
#
# Elastic Constant Matrix: (Units=GPa)
#
#
# Indices 1 2 3 4 5 6 
#
# 1 96.6255 2.8530 13.3316 0.0000 -8.2086 0.0000
# 2 2.8530 34.7457 -11.1221 0.0000 -8.2802 0.0000
# 3 13.3316 -11.1221 67.7020 0.0000 8.3319 0.0000
# 4 0.0000 0.0000 0.0000 36.0002 0.0000 -0.7847
# 5 -8.2086 -8.2802 8.3319 0.0000 37.0996 0.0000
# 6 0.0000 0.0000 0.0000 -0.7847 0.0000 23.1902
#
#
#
# Elastic Compliance Matrix: (Units=1/GPa)
#
#
# Indices 1 2 3 4 5 6 
#
# 1 0.010990 -0.001098 -0.002688 0.000000 0.002790 0.000000
# 2 -0.001098 0.031761 0.004722 0.000000 0.005785 0.000000
# 3 -0.002688 0.004722 0.016474 0.000000 -0.003241 0.000000
# 4 0.000000 0.000000 0.000000 0.027798 0.000000 0.000941
# 5 0.002790 0.005785 -0.003241 0.000000 0.029591 0.000000
# 6 0.000000 0.000000 0.000000 0.000941 0.000000 0.043153
#
#
# Mechanical properties :
#
#
# Convention : Reuss Voigt Hill
#
# Bulk Modulus (GPa) = 16.36730 23.24425 19.80577
# Shear Modulus (GPa) = 28.04887 32.19205 30.12046
#
# Velocity S-wave (km/s) = 3.38794 3.62955 3.51083
# Velocity P-wave (km/s) = 4.69063 5.20354 4.95373
#
# Compressibility (1/GPa) = 0.06109745
#
# Stress axis : x y z
#
# Youngs Moduli (GPa) = 90.99588 31.48533 60.70020
#
# Poissons Ratio (x) = 0.03456 0.16315
# Poissons Ratio (y) = 0.09989 -0.28662
# Poissons Ratio (z) = 0.24457 -0.14867
#
# Static dielectric constant tensor:
#      x y z
#    x 1.930770 0.000000 0.031320 
#    y 0.000000 2.057820 0.000000 
#    z 0.031320 0.000000 1.936530 
# 
# From -- ./inp_files/5407.got.cif
#   From: 2010.05.17/outbox.cif.g08.bks.cpg/sg4_3_cif.got.tgz:5407.got - 2010.06.03 18:43:04.
