data_PCOD9116739
_publ_section_title
;
Structure prediction by ZEFSAII (Michael W. Deem and Ramdas Pophale) SiO2 
 PCOD9116739
Probable space group: P 21
;
_chemical_formula_sum "Si O2"
_cell_formula_units_Z 16
_cell_length_a 5.754839
_cell_length_b 18.213107
_cell_length_c 6.861913
_cell_angle_alpha 90.000000
_cell_angle_beta 66.325034
_cell_angle_gamma 90.000000
_cell_volume 658.690112
_symmetry_space_group_name_H-M "P 21"
_symmetry_group_IT_number 4
_symmetry_cell_setting 'monoclinic'
loop_
_space_group_symop_operation_xyz
x,y,z
-x,1/2+y,-z
loop_
_atom_site_type_symbol
_atom_site_label
_atom_site_fract_x
_atom_site_fract_y
_atom_site_fract_z
Si Si1 0.895837 0.924430 0.585402
Si Si2 0.842793 0.562431 0.659909
Si Si3 0.911196 0.831614 0.905234
Si Si4 0.347638 0.626885 0.885980
Si Si5 0.359446 0.908257 0.643854
Si Si6 0.157181 0.061530 0.873795
Si Si7 0.428972 0.211517 0.824173
Si Si8 0.895672 0.208746 0.399370
O O1 0.804143 0.905482 0.839044
O O2 0.658979 0.897323 0.537428
O O3 0.191436 0.897039 0.504036
O O4 0.960622 0.006267 0.498842
O O5 0.543729 0.570282 0.719170
O O6 0.944837 0.642333 0.570758
O O7 0.843273 0.549435 0.892478
O O8 0.203580 0.855143 0.847030
O O9 0.928902 0.776265 0.715319
O O10 0.754436 0.782346 0.105170
O O11 0.214255 0.676215 0.766639
O O12 0.482754 0.681431 0.993349
O O13 0.136621 0.579211 0.069062
O O14 0.292519 0.991734 0.732145
O O15 0.297033 0.138316 0.784169
O O16 0.670607 0.229674 0.615248
#
# Coordination Sequence:
#
# PCOD9116739 Si02
#       8
#     2   2   2   2   2   2   2   2
#     4  10  25  43  68  93 142 181 224 285 351 404
#     4  10  22  40  65 101 134 179 236 289 340 414
#     4  10  24  46  60 104 144 174 228 292 340 424
#     4  10  22  40  70 100 144 168 244 294 334 418
#     4  10  25  43  68  93 142 181 224 285 351 404
#     4  10  22  40  65 101 134 179 236 289 340 414
#     4  11  23  42  70  99 136 182 235 284 355 406
#     4  11  23  42  70  99 136 182 235 284 355 406
#
# _framework density 24.290635000000002
#
# number of rings (size 3 to 8) (size 9 to 14) (size 15 to 20)
#    0.750    1.000    3.750    0.750   12.250    0.000 
#    6.750    0.000    0.000    0.000    0.000    0.000 
#    0.000    0.000    0.000    0.000    0.000    0.000 
#
# Total GULP energy -89122.250332 kJ/mol
# GULP energy per Si atom -5570.140646 kJ/mol
# Density = 2.423535 g / cm^3
# Si number density = 24.290635 Si / 1000 Ang^3
#
#
#
# Elastic Constant Matrix: (Units=GPa)
#
#
# Indices 1 2 3 4 5 6 
#
# 1 105.3781 12.9238 8.1022 0.0000 -16.6417 0.0000
# 2 12.9238 79.9291 30.0217 0.0000 -5.3118 0.0000
# 3 8.1022 30.0217 93.4487 0.0000 -11.2233 0.0000
# 4 0.0000 0.0000 0.0000 39.0108 0.0000 -8.6485
# 5 -16.6417 -5.3118 -11.2233 0.0000 33.4713 0.0000
# 6 0.0000 0.0000 0.0000 -8.6485 0.0000 25.8960
#
#
#
# Elastic Compliance Matrix: (Units=1/GPa)
#
#
# Indices 1 2 3 4 5 6 
#
# 1 0.010444 -0.001412 0.000151 0.000000 0.005019 0.000000
# 2 -0.001412 0.014437 -0.004506 0.000000 0.000078 0.000000
# 3 0.000151 -0.004506 0.012565 0.000000 0.003573 0.000000
# 4 0.000000 0.000000 0.000000 0.027684 0.000000 0.009246
# 5 0.005019 0.000078 0.003573 0.000000 0.033582 0.000000
# 6 0.000000 0.000000 0.000000 0.009246 0.000000 0.041704
#
#
# Mechanical properties :
#
#
# Convention : Reuss Voigt Hill
#
# Bulk Modulus (GPa) = 38.59327 42.31684 40.45506
# Shear Modulus (GPa) = 31.13576 34.85617 32.99597
#
# Velocity S-wave (km/s) = 3.58411 3.79220 3.68962
# Velocity P-wave (km/s) = 5.74895 6.05254 5.90270
#
# Compressibility (1/GPa) = 0.02591125
#
# Stress axis : x y z
#
# Youngs Moduli (GPa) = 95.75040 69.26573 79.58722
#
# Poissons Ratio (x) = 0.09779 -0.01201
# Poissons Ratio (y) = 0.13518 0.35865
# Poissons Ratio (z) = -0.01444 0.31214
#
# Static dielectric constant tensor:
#      x y z
#    x 2.024070 0.000000 0.019020 
#    y 0.000000 2.028790 0.000000 
#    z 0.019020 0.000000 1.964170 
# 
# From -- ./inp_files/5019.got.cif
#   From: 2010.05.17/outbox.cif.g08.bks.cpg/sg4_3_cif.got.tgz:5019.got - 2010.06.03 18:43:04.
