data_PCOD9116951
_publ_section_title
;
Structure prediction by ZEFSAII (Michael W. Deem and Ramdas Pophale) SiO2 
 PCOD9116951
Probable space group: P 21
;
_chemical_formula_sum "Si O2"
_cell_formula_units_Z 16
_cell_length_a 5.182624
_cell_length_b 21.706981
_cell_length_c 6.578423
_cell_angle_alpha 90.000000
_cell_angle_beta 130.289549
_cell_angle_gamma 90.000000
_cell_volume 564.512814
_symmetry_space_group_name_H-M "P 21"
_symmetry_group_IT_number 4
_symmetry_cell_setting 'monoclinic'
loop_
_space_group_symop_operation_xyz
x,y,z
-x,1/2+y,-z
loop_
_atom_site_type_symbol
_atom_site_label
_atom_site_fract_x
_atom_site_fract_y
_atom_site_fract_z
Si Si1 0.446235 0.460610 0.508390
Si Si2 0.488216 0.212822 0.708347
Si Si3 0.771579 0.338965 0.784040
Si Si4 0.464326 0.811940 0.762920
Si Si5 0.645000 0.589037 0.483427
Si Si6 0.336500 0.934438 0.846724
Si Si7 0.748084 0.685501 0.980576
Si Si8 0.581329 0.062729 0.089156
O O1 0.672746 0.410623 0.743035
O O2 0.513759 0.533447 0.556609
O O3 0.521240 0.445338 0.309138
O O4 0.058544 0.447549 0.353849
O O5 0.489529 0.285931 0.677483
O O6 0.400409 0.161673 0.492199
O O7 0.243213 0.196956 0.769196
O O8 0.891624 0.200148 0.936691
O O9 0.790471 0.328099 0.547589
O O10 0.135379 0.325865 0.067764
O O11 0.386983 0.860861 0.903696
O O12 0.468427 0.738678 0.795041
O O13 0.038522 0.576463 0.654659
O O14 0.458544 0.578724 0.172393
O O15 0.509160 0.989859 0.059832
O O16 0.658906 0.613491 0.928989
#
# Coordination Sequence:
#
# PCOD9116951 Si02
#       8
#     2   2   2   2   2   2   2   2
#     4  10  22  42  66  94 128 167 213 263 318 378
#     4  10  23  43  67  96 131 170 214 264 319 380
#     4  10  23  43  67  96 131 170 214 264 319 380
#     4  10  23  43  67  96 131 170 214 264 319 380
#     4  10  22  42  66  94 128 167 213 263 318 378
#     4  10  22  42  66  94 128 167 213 263 318 378
#     4  10  23  43  67  96 131 170 214 264 319 380
#     4  10  22  42  66  94 128 167 213 263 318 378
#
# _framework density 28.343028
#
# number of rings (size 3 to 8) (size 9 to 14) (size 15 to 20)
#    0.000    2.000    0.000    1.500    0.000   17.000 
#    0.000   25.000    0.000    0.000    0.000    0.000 
#    0.000    0.000    0.000    0.000    0.000    0.000 
#
# Total GULP energy -89600.132228 kJ/mol
# GULP energy per Si atom -5600.008264 kJ/mol
# Density = 2.827852 g / cm^3
# Si number density = 28.343028 Si / 1000 Ang^3
#
#
#
# Elastic Constant Matrix: (Units=GPa)
#
#
# Indices 1 2 3 4 5 6 
#
# 1 73.8780 47.9327 45.2396 0.0000 21.7221 0.0000
# 2 47.9327 243.8176 38.6610 0.0000 -5.8078 0.0000
# 3 45.2396 38.6610 54.9235 0.0000 21.5845 0.0000
# 4 0.0000 0.0000 0.0000 60.3549 0.0000 -11.3524
# 5 21.7221 -5.8078 21.5845 0.0000 42.3623 0.0000
# 6 0.0000 0.0000 0.0000 -11.3524 0.0000 64.5659
#
#
#
# Elastic Compliance Matrix: (Units=1/GPa)
#
#
# Indices 1 2 3 4 5 6 
#
# 1 0.029012 -0.002641 -0.020067 0.000000 -0.005014 0.000000
# 2 -0.002641 0.005152 -0.002827 0.000000 0.003501 0.000000
# 3 -0.020067 -0.002827 0.041056 0.000000 -0.011017 0.000000
# 4 0.000000 0.000000 0.000000 0.017135 0.000000 0.003013
# 5 -0.005014 0.003501 -0.011017 0.000000 0.032270 0.000000
# 6 0.000000 0.000000 0.000000 0.003013 0.000000 0.016018
#
#
# Mechanical properties :
#
#
# Convention : Reuss Voigt Hill
#
# Bulk Modulus (GPa) = 41.40980 70.69841 56.05411
# Shear Modulus (GPa) = 25.02958 49.50901 37.26929
#
# Velocity S-wave (km/s) = 2.97491 4.18398 3.63014
# Velocity P-wave (km/s) = 5.14219 6.95262 6.11478
#
# Compressibility (1/GPa) = 0.02414887
#
# Stress axis : x y z
#
# Youngs Moduli (GPa) = 34.46888 194.08632 24.35706
#
# Poissons Ratio (x) = 0.51257 0.48878
# Poissons Ratio (y) = 0.09103 0.06887
# Poissons Ratio (z) = 0.69169 0.54876
#
# Static dielectric constant tensor:
#      x y z
#    x 2.293950 0.000000 -0.258930 
#    y 0.000000 2.335610 0.000000 
#    z -0.258930 0.000000 2.192940 
# 
# From -- ./inp_files/5032.got.cif
#   From: 2010.05.17/outbox.cif.g08.bks.cpg/sg4_3_cif.got.tgz:5032.got - 2010.06.03 18:43:04.
