data_PCOD9116130
_publ_section_title
;
Structure prediction by ZEFSAII (Michael W. Deem and Ramdas Pophale) SiO2 
 PCOD9116130
Probable space group: P 21
;
_chemical_formula_sum "Si O2"
_cell_formula_units_Z 14
_cell_length_a 4.917610
_cell_length_b 14.334775
_cell_length_c 9.872239
_cell_angle_alpha 90.000000
_cell_angle_beta 110.693164
_cell_angle_gamma 90.000000
_cell_volume 651.025514
_symmetry_space_group_name_H-M "P 21"
_symmetry_group_IT_number 4
_symmetry_cell_setting 'monoclinic'
loop_
_space_group_symop_operation_xyz
x,y,z
-x,1/2+y,-z
loop_
_atom_site_type_symbol
_atom_site_label
_atom_site_fract_x
_atom_site_fract_y
_atom_site_fract_z
Si Si1 0.950379 0.841900 0.107270
Si Si2 0.880450 0.708678 0.687898
Si Si3 0.789188 0.030319 0.213816
Si Si4 0.275264 0.646998 0.549129
Si Si5 0.691344 0.353652 0.095877
Si Si6 0.750274 0.150446 0.769473
Si Si7 0.663292 0.557356 0.103486
O O1 0.125307 0.754746 0.197016
O O2 0.894444 0.926602 0.200559
O O3 0.630380 0.814088 0.992817
O O4 0.148113 0.876410 0.017571
O O5 0.537669 0.716194 0.636827
O O6 0.967467 0.609362 0.769391
O O7 0.979791 0.695125 0.549131
O O8 0.087766 0.784895 0.790615
O O9 0.703353 0.054607 0.353220
O O10 0.532572 0.054129 0.064695
O O11 0.473502 0.129675 0.813686
O O12 0.294347 0.627296 0.395354
O O13 0.650254 0.452794 0.161645
O O14 0.008520 0.084903 0.869368
#
# Coordination Sequence:
#
# PCOD9116130 Si02
#       7
#     2   2   2   2   2   2   2
#     4  11  23  38  69  97 135 167 228 278 336 389
#     4  10  21  40  65  89 129 172 217 267 321 403
#     4   9  23  40  67  93 128 172 221 268 332 395
#     4  10  24  40  65  90 135 173 221 255 343 398
#     4  11  23  40  67 105 125 172 229 281 327 394
#     4  12  24  44  62 102 133 181 212 284 332 392
#     4  11  24  40  69  94 135 167 228 279 331 383
#
# _framework density 21.504532000000001
#
# number of rings (size 3 to 8) (size 9 to 14) (size 15 to 20)
#    0.857    0.571    0.000    6.000    8.000    0.000 
#    2.571    1.429    0.000    0.000    0.000    0.000 
#    0.000    0.000    0.000    0.000    0.000    0.000 
#
# Total GULP energy -78163.353367 kJ/mol
# GULP energy per Si atom -5583.096669 kJ/mol
# Density = 2.145559 g / cm^3
# Si number density = 21.504532 Si / 1000 Ang^3
#
#
#
# Elastic Constant Matrix: (Units=GPa)
#
#
# Indices 1 2 3 4 5 6 
#
# 1 89.3603 -0.8665 10.7886 0.0000 1.9985 0.0000
# 2 -0.8665 79.3679 32.3741 0.0000 -2.7428 0.0000
# 3 10.7886 32.3741 62.7405 0.0000 -13.2617 0.0000
# 4 0.0000 0.0000 0.0000 -3.8598 0.0000 -12.1224
# 5 1.9985 -2.7428 -13.2617 0.0000 22.5648 0.0000
# 6 0.0000 0.0000 0.0000 -12.1224 0.0000 25.8531
#
#
#
# Elastic Compliance Matrix: (Units=1/GPa)
#
#
# Indices 1 2 3 4 5 6 
#
# 1 0.011667 0.001382 -0.003314 0.000000 -0.002813 0.000000
# 2 0.001382 0.016342 -0.009450 0.000000 -0.003690 0.000000
# 3 -0.003314 -0.009450 0.024212 0.000000 0.013374 0.000000
# 4 0.000000 0.000000 0.000000 -0.104778 0.000000 -0.049130
# 5 -0.002813 -0.003690 0.013374 0.000000 0.051978 0.000000
# 6 0.000000 0.000000 0.000000 -0.049130 0.000000 0.015643
#
#
# Mechanical properties :
#
#
# Convention : Reuss Voigt Hill
#
# Bulk Modulus (GPa) = 33.94815 35.11790 34.53302
# Shear Modulus (GPa) = 104.94104 21.52312 63.23208
#
# Velocity S-wave (km/s) = 6.99324 3.16708 5.42843
# Velocity P-wave (km/s) = 9.00156 5.45342 7.44204
#
# Compressibility (1/GPa) = 0.02945669
#
# Stress axis : x y z
#
# Youngs Moduli (GPa) = 85.71146 61.19299 41.30242
#
# Poissons Ratio (x) = -0.08456 0.13687
# Poissons Ratio (y) = -0.11844 0.39030
# Poissons Ratio (z) = 0.28404 0.57827
#
# Static dielectric constant tensor:
#      x y z
#    x 1.772200 0.000000 -0.003250 
#    y 0.000000 1.800730 0.000000 
#    z -0.003250 0.000000 1.772500 
# 
# From -- ./inp_files/4978.got.cif
#   From: 2010.05.17/outbox.cif.g08.bks.cpg/sg4_3_cif.got.tgz:4978.got - 2010.06.03 18:43:04.
