data_PCOD9116030
_publ_section_title
;
Structure prediction by ZEFSAII (Michael W. Deem and Ramdas Pophale) SiO2 
 PCOD9116030
Probable space group: P 21
;
_chemical_formula_sum "Si O2"
_cell_formula_units_Z 16
_cell_length_a 9.885787
_cell_length_b 12.332974
_cell_length_c 7.621507
_cell_angle_alpha 90.000000
_cell_angle_beta 46.409401
_cell_angle_gamma 90.000000
_cell_volume 673.022232
_symmetry_space_group_name_H-M "P 21"
_symmetry_group_IT_number 4
_symmetry_cell_setting 'monoclinic'
loop_
_space_group_symop_operation_xyz
x,y,z
-x,1/2+y,-z
loop_
_atom_site_type_symbol
_atom_site_label
_atom_site_fract_x
_atom_site_fract_y
_atom_site_fract_z
Si Si1 0.744218 0.287940 0.822574
Si Si2 0.979970 0.639713 0.885093
Si Si3 0.614972 0.173897 0.605390
Si Si4 0.299423 0.230532 0.611360
Si Si5 0.572835 0.098192 0.158565
Si Si6 0.451454 0.450120 0.142873
Si Si7 0.882618 0.818084 0.731319
Si Si8 0.170942 0.446455 0.854089
O O1 0.616093 0.252502 0.771672
O O2 0.939646 0.318421 0.558644
O O3 0.736450 0.177518 0.941733
O O4 0.634123 0.380506 0.026066
O O5 0.184643 0.687976 0.665351
O O6 0.015021 0.512669 0.885851
O O7 0.865737 0.694669 0.825360
O O8 0.888226 0.677636 0.147942
O O9 0.451883 0.208896 0.625264
O O10 0.597895 0.049541 0.684567
O O11 0.396268 0.172136 0.364207
O O12 0.258760 0.356778 0.648754
O O13 0.666376 0.028276 0.228691
O O14 0.504846 0.014665 0.075090
O O15 0.282759 0.371840 0.232644
O O16 0.897327 0.888506 0.901890
#
# Coordination Sequence:
#
# PCOD9116030 Si02
#       8
#     2   2   2   2   2   2   2   2
#     4  10  21  39  64  90 124 174 211 263 333 389
#     4  10  21  39  64  94 130 171 220 266 327 395
#     4  10  21  41  63  92 130 167 218 273 320 397
#     4  11  23  41  66  93 133 170 216 279 330 386
#     4  10  22  40  64  97 129 167 223 274 323 399
#     4  10  22  41  64  92 128 169 215 269 328 387
#     4   9  21  41  61  88 130 173 210 275 319 389
#     4  10  21  42  64  94 134 171 219 273 328 394
#
# _framework density 23.773358999999999
#
# number of rings (size 3 to 8) (size 9 to 14) (size 15 to 20)
#    0.000    2.000    1.250    2.250    3.500    1.000 
#    4.500    6.250    0.000    0.000    0.000    0.000 
#    0.000    0.000    0.000    0.000    0.000    0.000 
#
# Total GULP energy -89374.716143 kJ/mol
# GULP energy per Si atom -5585.919759 kJ/mol
# Density = 2.371925 g / cm^3
# Si number density = 23.773359 Si / 1000 Ang^3
#
#
#
# Elastic Constant Matrix: (Units=GPa)
#
#
# Indices 1 2 3 4 5 6 
#
# 1 50.9308 35.9202 -1.7152 0.0000 11.8085 0.0000
# 2 35.9202 145.2906 44.7962 0.0000 -7.0381 0.0000
# 3 -1.7152 44.7962 94.6888 0.0000 -12.5685 0.0000
# 4 0.0000 0.0000 0.0000 41.4277 0.0000 -1.5348
# 5 11.8085 -7.0381 -12.5685 0.0000 21.7879 0.0000
# 6 0.0000 0.0000 0.0000 -1.5348 0.0000 40.0836
#
#
#
# Elastic Compliance Matrix: (Units=1/GPa)
#
#
# Indices 1 2 3 4 5 6 
#
# 1 0.030321 -0.009132 0.002487 0.000000 -0.017948 0.000000
# 2 -0.009132 0.010813 -0.004505 0.000000 0.005844 0.000000
# 3 0.002487 -0.004505 0.013390 0.000000 0.004921 0.000000
# 4 0.000000 0.000000 0.000000 0.024173 0.000000 0.000926
# 5 -0.017948 0.005844 0.004921 0.000000 0.060351 0.000000
# 6 0.000000 0.000000 0.000000 0.000926 0.000000 0.024983
#
#
# Mechanical properties :
#
#
# Convention : Reuss Voigt Hill
#
# Bulk Modulus (GPa) = 31.03362 49.87918 40.45640
# Shear Modulus (GPa) = 25.37141 34.78710 30.07925
#
# Velocity S-wave (km/s) = 3.27038 3.82944 3.56089
# Velocity P-wave (km/s) = 5.22903 6.37020 5.82762
#
# Compressibility (1/GPa) = 0.03222312
#
# Stress axis : x y z
#
# Youngs Moduli (GPa) = 32.98097 92.48401 74.67984
#
# Poissons Ratio (x) = 0.84461 -0.18575
# Poissons Ratio (y) = 0.30120 0.33644
# Poissons Ratio (z) = -0.08203 0.41665
#
# Static dielectric constant tensor:
#      x y z
#    x 1.961330 0.000000 0.064930 
#    y 0.000000 1.937090 0.000000 
#    z 0.064930 0.000000 1.966600 
# 
# From -- ./inp_files/8311.got.cif
#   From: 2010.05.17/outbox.cif.g08.bks.cpg/sg4_5_cif.got.tgz:8311.got - 2010.06.03 18:43:04.
