data_PCOD9116510
_publ_section_title
;
Structure prediction by ZEFSAII (Michael W. Deem and Ramdas Pophale) SiO2 
 PCOD9116510
Probable space group: P 21
;
_chemical_formula_sum "Si O2"
_cell_formula_units_Z 14
_cell_length_a 13.972987
_cell_length_b 9.887054
_cell_length_c 6.796901
_cell_angle_alpha 90.000000
_cell_angle_beta 40.047856
_cell_angle_gamma 90.000000
_cell_volume 604.180265
_symmetry_space_group_name_H-M "P 21"
_symmetry_group_IT_number 4
_symmetry_cell_setting 'monoclinic'
loop_
_space_group_symop_operation_xyz
x,y,z
-x,1/2+y,-z
loop_
_atom_site_type_symbol
_atom_site_label
_atom_site_fract_x
_atom_site_fract_y
_atom_site_fract_z
Si Si1 0.147151 0.706070 0.323485
Si Si2 0.335110 0.419075 0.351702
Si Si3 0.541282 0.460733 0.659563
Si Si4 0.880555 0.434303 0.102115
Si Si5 0.472209 0.750250 0.656775
Si Si6 0.066525 0.425867 0.472965
Si Si7 0.133306 0.626460 0.803962
O O1 0.129898 0.555170 0.257565
O O2 0.155870 0.674416 0.540845
O O3 0.002883 0.800074 0.528377
O O4 0.302335 0.767276 0.002356
O O5 0.413026 0.305709 0.359761
O O6 0.189019 0.383916 0.446756
O O7 0.280741 0.535675 0.587805
O O8 0.450528 0.466040 0.004118
O O9 0.715692 0.460430 0.429356
O O10 0.503457 0.592265 0.593032
O O11 0.508558 0.330105 0.576974
O O12 0.895389 0.271288 0.054568
O O13 0.923442 0.484527 0.816834
O O14 0.997429 0.521333 0.044217
#
# Coordination Sequence:
#
# PCOD9116510 Si02
#       7
#     2   2   2   2   2   2   2
#     4  10  21  46  64  98 138 176 225 289 346 417
#     4  10  25  47  71 100 145 182 237 292 356 413
#     4  12  26  44  74 104 140 189 240 288 362 422
#     4  10  23  41  66 102 132 177 236 280 347 422
#     4  12  26  46  71 106 145 186 237 299 350 423
#     4  10  22  45  68  97 139 177 230 285 351 416
#     4  10  23  45  68  99 141 179 229 295 350 421
#
# _framework density 23.171893000000001
#
# number of rings (size 3 to 8) (size 9 to 14) (size 15 to 20)
#    0.000    1.714    4.286    0.857    6.000    3.429 
#    2.571    0.000    0.000    0.000    0.000    0.000 
#    0.000    0.000    0.000    0.000    0.000    0.000 
#
# Total GULP energy -78117.446759 kJ/mol
# GULP energy per Si atom -5579.817626 kJ/mol
# Density = 2.311915 g / cm^3
# Si number density = 23.171893 Si / 1000 Ang^3
#
#
#
# Elastic Constant Matrix: (Units=GPa)
#
#
# Indices 1 2 3 4 5 6 
#
# 1 45.6803 12.5779 2.2381 0.0000 -23.9810 0.0000
# 2 12.5779 91.3730 31.5128 0.0000 -13.4435 0.0000
# 3 2.2381 31.5128 104.4609 0.0000 -26.9173 0.0000
# 4 0.0000 0.0000 0.0000 38.6016 0.0000 -3.1596
# 5 -23.9810 -13.4435 -26.9173 0.0000 32.9221 0.0000
# 6 0.0000 0.0000 0.0000 -3.1596 0.0000 41.5033
#
#
#
# Elastic Compliance Matrix: (Units=1/GPa)
#
#
# Indices 1 2 3 4 5 6 
#
# 1 0.041792 -0.003678 0.009719 0.000000 0.036887 0.000000
# 2 -0.003678 0.012704 -0.003936 0.000000 -0.000710 0.000000
# 3 0.009719 -0.003936 0.015155 0.000000 0.017863 0.000000
# 4 0.000000 0.000000 0.000000 0.026068 0.000000 0.001985
# 5 0.036887 -0.000710 0.017863 0.000000 0.071559 0.000000
# 6 0.000000 0.000000 0.000000 0.001985 0.000000 0.024246
#
#
# Mechanical properties :
#
#
# Convention : Reuss Voigt Hill
#
# Bulk Modulus (GPa) = 13.53896 37.13020 25.33458
# Shear Modulus (GPa) = 23.59221 35.61776 29.60499
#
# Velocity S-wave (km/s) = 3.19429 3.92485 3.57827
# Velocity P-wave (km/s) = 4.41137 6.04962 5.29425
#
# Compressibility (1/GPa) = 0.07386091
#
# Stress axis : x y z
#
# Youngs Moduli (GPa) = 23.92775 78.71813 65.98406
#
# Poissons Ratio (x) = 0.28950 -0.64130
# Poissons Ratio (y) = 0.08800 0.25974
# Poissons Ratio (z) = -0.23255 0.30987
#
# Static dielectric constant tensor:
#      x y z
#    x 1.960750 0.000000 0.020300 
#    y 0.000000 1.976740 0.000000 
#    z 0.020300 0.000000 1.862660 
# 
# From -- ./inp_files/9620.got.cif
#   From: 2010.05.17/outbox.cif.g08.bks.cpg/sg4_5_cif.got.tgz:9620.got - 2010.06.03 18:43:04.
