data_PCOD9116246
_publ_section_title
;
Structure prediction by ZEFSAII (Michael W. Deem and Ramdas Pophale) SiO2 
 PCOD9116246
Probable space group: P 21
;
_chemical_formula_sum "Si O2"
_cell_formula_units_Z 14
_cell_length_a 7.319648
_cell_length_b 16.093398
_cell_length_c 7.379981
_cell_angle_alpha 90.000000
_cell_angle_beta 37.861554
_cell_angle_gamma 90.000000
_cell_volume 533.566611
_symmetry_space_group_name_H-M "P 21"
_symmetry_group_IT_number 4
_symmetry_cell_setting 'monoclinic'
loop_
_space_group_symop_operation_xyz
x,y,z
-x,1/2+y,-z
loop_
_atom_site_type_symbol
_atom_site_label
_atom_site_fract_x
_atom_site_fract_y
_atom_site_fract_z
Si Si1 0.727857 0.353300 0.472916
Si Si2 0.010439 0.688614 0.604115
Si Si3 0.914560 0.967309 0.350066
Si Si4 0.072307 0.639490 0.137042
Si Si5 0.507936 0.578300 0.165092
Si Si6 0.925952 0.817081 0.133684
Si Si7 0.455882 0.024116 0.397336
O O1 0.932781 0.284925 0.405692
O O2 0.408504 0.313794 0.677645
O O3 0.672964 0.443222 0.603819
O O4 0.884927 0.369797 0.157636
O O5 0.037786 0.666663 0.371325
O O6 0.293702 0.636991 0.462429
O O7 0.698592 0.653812 0.921362
O O8 0.941773 0.868045 0.308994
O O9 0.761058 0.008394 0.646719
O O10 0.672026 0.987784 0.381487
O O11 0.216913 0.013237 0.059247
O O12 0.057159 0.724710 0.038769
O O13 0.799676 0.578387 0.309055
O O14 0.364622 0.585801 0.872447
#
# Coordination Sequence:
#
# PCOD9116246 Si02
#       7
#     2   2   2   2   2   2   2
#     4  11  24  44  70 100 134 181 233 274 341 410
#     4  11  25  44  64 101 137 180 230 264 341 422
#     4  10  21  41  67 106 125 168 232 285 337 395
#     4  12  26  44  67 103 141 178 222 285 340 402
#     4  10  22  38  69  92 131 172 219 281 326 402
#     4  11  24  42  71 103 132 174 231 289 337 391
#     4  11  24  41  70  99 138 175 223 288 346 388
#
# _framework density 26.238524000000002
#
# number of rings (size 3 to 8) (size 9 to 14) (size 15 to 20)
#    0.000    1.143    0.000    6.857   12.000    0.000 
#    7.714    0.000    0.000    0.000    0.000    0.000 
#    0.000    0.000    0.000    0.000    0.000    0.000 
#
# Total GULP energy -78182.173094 kJ/mol
# GULP energy per Si atom -5584.440935 kJ/mol
# Density = 2.617880 g / cm^3
# Si number density = 26.238524 Si / 1000 Ang^3
#
#
#
# Elastic Constant Matrix: (Units=GPa)
#
#
# Indices 1 2 3 4 5 6 
#
# 1 48.3328 32.5219 20.4892 0.0000 -7.1099 0.0000
# 2 32.5219 179.5816 54.4105 0.0000 -9.0146 0.0000
# 3 20.4892 54.4105 183.8195 0.0000 -20.2206 0.0000
# 4 0.0000 0.0000 0.0000 50.4223 0.0000 2.2041
# 5 -7.1099 -9.0146 -20.2206 0.0000 36.2785 0.0000
# 6 0.0000 0.0000 0.0000 2.2041 0.0000 24.5640
#
#
#
# Elastic Compliance Matrix: (Units=1/GPa)
#
#
# Indices 1 2 3 4 5 6 
#
# 1 0.024268 -0.003870 -0.001217 0.000000 0.003116 0.000000
# 2 -0.003870 0.006744 -0.001560 0.000000 0.000048 0.000000
# 3 -0.001217 -0.001560 0.006358 0.000000 0.002918 0.000000
# 4 0.000000 0.000000 0.000000 0.019911 0.000000 -0.001787
# 5 0.003116 0.000048 0.002918 0.000000 0.029814 0.000000
# 6 0.000000 0.000000 0.000000 -0.001787 0.000000 0.040870
#
#
# Mechanical properties :
#
#
# Convention : Reuss Voigt Hill
#
# Bulk Modulus (GPa) = 41.53128 69.61968 55.57548
# Shear Modulus (GPa) = 33.49327 42.54044 38.01685
#
# Velocity S-wave (km/s) = 3.57668 4.03090 3.81056
# Velocity P-wave (km/s) = 5.73756 6.94660 6.37082
#
# Compressibility (1/GPa) = 0.02407823
#
# Stress axis : x y z
#
# Youngs Moduli (GPa) = 41.20656 148.27366 157.27247
#
# Poissons Ratio (x) = 0.57379 0.19136
# Poissons Ratio (y) = 0.15946 0.24529
# Poissons Ratio (z) = 0.05014 0.23126
#
# Static dielectric constant tensor:
#      x y z
#    x 2.381550 0.000000 0.109760 
#    y 0.000000 2.113040 0.000000 
#    z 0.109760 0.000000 2.054470 
# 
# From -- ./inp_files/6513.got.cif
#   From: 2010.05.17/outbox.cif.g08.bks.cpg/sg4_4_cif.got.tgz:6513.got - 2010.06.03 18:43:04.
