data_PCOD9116571
_publ_section_title
;
Structure prediction by ZEFSAII (Michael W. Deem and Ramdas Pophale) SiO2 
 PCOD9116571
Probable space group: P 21
;
_chemical_formula_sum "Si O2"
_cell_formula_units_Z 16
_cell_length_a 13.871055
_cell_length_b 8.502538
_cell_length_c 11.410059
_cell_angle_alpha 90.000000
_cell_angle_beta 150.036521
_cell_angle_gamma 90.000000
_cell_volume 672.103478
_symmetry_space_group_name_H-M "P 21"
_symmetry_group_IT_number 4
_symmetry_cell_setting 'monoclinic'
loop_
_space_group_symop_operation_xyz
x,y,z
-x,1/2+y,-z
loop_
_atom_site_type_symbol
_atom_site_label
_atom_site_fract_x
_atom_site_fract_y
_atom_site_fract_z
Si Si1 0.482876 0.081950 0.568490
Si Si2 0.492238 0.549381 0.145617
Si Si3 0.938971 0.632988 0.604976
Si Si4 0.247475 0.777793 0.307390
Si Si5 0.430491 0.903365 0.006923
Si Si6 0.982971 0.962049 0.522864
Si Si7 0.754945 0.079777 0.486028
Si Si8 0.887580 0.793146 0.779246
O O1 0.570058 0.030390 0.785921
O O2 0.644207 0.140719 0.649730
O O3 0.322106 0.218880 0.417761
O O4 0.359605 0.935757 0.392703
O O5 0.724599 0.568952 0.397888
O O6 0.421781 0.720720 0.029033
O O7 0.470106 0.427481 0.015691
O O8 0.058866 0.508589 0.655373
O O9 0.997520 0.689297 0.795361
O O10 0.924166 0.790948 0.509378
O O11 0.269121 0.738406 0.467380
O O12 0.026000 0.795770 0.036256
O O13 0.558409 0.998123 0.235467
O O14 0.214148 0.968340 0.778061
O O15 0.884523 0.086901 0.506401
O O16 0.858219 0.960171 0.685276
#
# Coordination Sequence:
#
# PCOD9116571 Si02
#       8
#     2   2   2   2   2   2   2   2
#     4  11  25  45  67  99 134 170 231 271 327 396
#     4  10  23  42  65  97 131 167 214 274 325 396
#     4   9  20  39  59  95 123 162 212 260 325 390
#     4  12  27  42  69  95 129 181 223 273 329 384
#     4  11  23  40  68  96 133 169 212 270 339 392
#     4  10  22  36  64  92 127 169 204 265 330 390
#     4  11  24  43  63  94 133 169 222 274 322 396
#     4  10  22  45  67  90 130 173 218 281 327 380
#
# _framework density 23.805855999999999
#
# number of rings (size 3 to 8) (size 9 to 14) (size 15 to 20)
#    0.000    1.500    3.750    1.500    7.000    3.000 
#    0.000    0.000    0.000    0.000    0.000    0.000 
#    0.000    0.000    0.000    0.000    0.000    0.000 
#
# Total GULP energy -89525.069560 kJ/mol
# GULP energy per Si atom -5595.316848 kJ/mol
# Density = 2.375167 g / cm^3
# Si number density = 23.805856 Si / 1000 Ang^3
#
#
#
# Elastic Constant Matrix: (Units=GPa)
#
#
# Indices 1 2 3 4 5 6 
#
# 1 91.7505 3.2447 4.3113 0.0000 4.7108 0.0000
# 2 3.2447 32.9018 9.0180 0.0000 -2.5348 0.0000
# 3 4.3113 9.0180 81.4757 0.0000 -5.0235 0.0000
# 4 0.0000 0.0000 0.0000 23.5134 0.0000 -6.1335
# 5 4.7108 -2.5348 -5.0235 0.0000 27.7518 0.0000
# 6 0.0000 0.0000 0.0000 -6.1335 0.0000 41.5728
#
#
#
# Elastic Compliance Matrix: (Units=1/GPa)
#
#
# Indices 1 2 3 4 5 6 
#
# 1 0.011073 -0.001090 -0.000594 0.000000 -0.002087 0.000000
# 2 -0.001090 0.031592 -0.003286 0.000000 0.002476 0.000000
# 3 -0.000594 -0.003286 0.012799 0.000000 0.002117 0.000000
# 4 0.000000 0.000000 0.000000 0.044231 0.000000 0.006526
# 5 -0.002087 0.002476 0.002117 0.000000 0.036997 0.000000
# 6 0.000000 0.000000 0.000000 0.006526 0.000000 0.025017
#
#
# Mechanical properties :
#
#
# Convention : Reuss Voigt Hill
#
# Bulk Modulus (GPa) = 21.96647 26.58621 24.27634
# Shear Modulus (GPa) = 26.76297 31.20452 28.98375
#
# Velocity S-wave (km/s) = 3.35657 3.62441 3.49306
# Velocity P-wave (km/s) = 4.92641 5.35792 5.14669
#
# Compressibility (1/GPa) = 0.04552392
#
# Stress axis : x y z
#
# Youngs Moduli (GPa) = 90.31211 31.65310 78.12904
#
# Poissons Ratio (x) = 0.03450 0.04640
# Poissons Ratio (y) = 0.09843 0.25677
# Poissons Ratio (z) = 0.05364 0.10403
#
# Static dielectric constant tensor:
#      x y z
#    x 1.915020 0.000000 -0.007390 
#    y 0.000000 1.916050 0.000000 
#    z -0.007390 0.000000 1.908420 
# 
# From -- ./inp_files/12687.got.cif
#   From: 2010.05.17/outbox.cif.g08.bks.cpg/sg4_7_cif.got.tgz:12687.got - 2010.06.03 18:43:04.
