data_PCOD9116830
_publ_section_title
;
Structure prediction by ZEFSAII (Michael W. Deem and Ramdas Pophale) SiO2 
 PCOD9116830
Probable space group: P 21
;
_chemical_formula_sum "Si O2"
_cell_formula_units_Z 12
_cell_length_a 9.045101
_cell_length_b 5.263727
_cell_length_c 16.876924
_cell_angle_alpha 90.000000
_cell_angle_beta 139.817378
_cell_angle_gamma 90.000000
_cell_volume 518.456029
_symmetry_space_group_name_H-M "P 21"
_symmetry_group_IT_number 4
_symmetry_cell_setting 'monoclinic'
loop_
_space_group_symop_operation_xyz
x,y,z
-x,1/2+y,-z
loop_
_atom_site_type_symbol
_atom_site_label
_atom_site_fract_x
_atom_site_fract_y
_atom_site_fract_z
Si Si1 0.372370 0.915770 0.448345
Si Si2 0.332614 0.030600 0.710702
Si Si3 0.989714 0.651334 0.942012
Si Si4 0.405715 0.870696 0.298469
Si Si5 0.821044 0.194478 0.480716
Si Si6 0.450144 0.584113 0.030858
O O1 0.575670 0.710320 0.547208
O O2 0.275626 0.796252 0.326538
O O3 0.232347 0.894717 0.471780
O O4 0.534332 0.165606 0.743442
O O5 0.395386 0.030184 0.827931
O O6 0.090158 0.164272 0.594287
O O7 0.274488 0.766011 0.644828
O O8 0.196476 0.630499 0.963517
O O9 0.748508 0.591220 0.801498
O O10 0.988347 0.920064 0.985886
O O11 0.656153 0.958558 0.431781
O O12 0.467727 0.337378 0.981554
#
# Coordination Sequence:
#
# PCOD9116830 Si02
#       6
#     2   2   2   2   2   2
#     4  10  22  41  63  99 139 172 227 284 355 431
#     4  12  24  46  75 102 153 191 249 304 379 454
#     4  12  26  49  79 106 143 200 259 310 369 447
#     4  11  24  44  71 103 144 187 242 305 368 453
#     4  11  24  43  71 109 143 191 234 307 385 439
#     4  12  30  53  75 111 156 205 261 314 378 448
#
# _framework density 23.145644999999998
#
# number of rings (size 3 to 8) (size 9 to 14) (size 15 to 20)
#    0.000    0.667    5.000    2.000    4.667    0.000 
#   12.000    0.000    0.000    0.000    0.000    0.000 
#    0.000    0.000    0.000    0.000    0.000    0.000 
#
# Total GULP energy -66949.471492 kJ/mol
# GULP energy per Si atom -5579.122624 kJ/mol
# Density = 2.309296 g / cm^3
# Si number density = 23.145645 Si / 1000 Ang^3
#
#
#
# Elastic Constant Matrix: (Units=GPa)
#
#
# Indices 1 2 3 4 5 6 
#
# 1 118.4642 52.0316 54.8787 0.0000 -3.6237 0.0000
# 2 52.0316 98.4237 17.6553 0.0000 -5.6552 0.0000
# 3 54.8787 17.6553 111.1021 0.0000 -10.4654 0.0000
# 4 0.0000 0.0000 0.0000 40.8215 0.0000 -8.3778
# 5 -3.6237 -5.6552 -10.4654 0.0000 50.8560 0.0000
# 6 0.0000 0.0000 0.0000 -8.3778 0.0000 36.6334
#
#
#
# Elastic Compliance Matrix: (Units=1/GPa)
#
#
# Indices 1 2 3 4 5 6 
#
# 1 0.013984 -0.006373 -0.005983 0.000000 -0.000944 0.000000
# 2 -0.006373 0.013398 0.001139 0.000000 0.001270 0.000000
# 3 -0.005983 0.001139 0.011979 0.000000 0.002165 0.000000
# 4 0.000000 0.000000 0.000000 0.025703 0.000000 0.005878
# 5 -0.000944 0.001270 0.002165 0.000000 0.020183 0.000000
# 6 0.000000 0.000000 0.000000 0.005878 0.000000 0.028642
#
#
# Mechanical properties :
#
#
# Convention : Reuss Voigt Hill
#
# Bulk Modulus (GPa) = 59.08432 64.12458 61.60445
# Shear Modulus (GPa) = 35.21961 39.22380 37.22170
#
# Velocity S-wave (km/s) = 3.90507 4.12108 4.01453
# Velocity P-wave (km/s) = 6.77609 7.09996 6.93991
#
# Compressibility (1/GPa) = 0.01692497
#
# Stress axis : x y z
#
# Youngs Moduli (GPa) = 71.51276 74.63729 83.47830
#
# Poissons Ratio (x) = 0.47569 0.49947
# Poissons Ratio (y) = 0.45577 -0.09505
# Poissons Ratio (z) = 0.42788 -0.08498
#
# Static dielectric constant tensor:
#      x y z
#    x 1.945930 0.000000 -0.028680 
#    y 0.000000 1.951240 0.000000 
#    z -0.028680 0.000000 1.889070 
# 
# From -- ./inp_files/7110.got.cif
#   From: 2010.05.17/outbox.cif.g08.bks.cpg/sg4_4_cif.got.tgz:7110.got - 2010.06.03 18:43:04.
