data_PCOD9116358
_publ_section_title
;
Structure prediction by ZEFSAII (Michael W. Deem and Ramdas Pophale) SiO2 
 PCOD9116358
Probable space group: P 21
;
_chemical_formula_sum "Si O2"
_cell_formula_units_Z 14
_cell_length_a 14.493447
_cell_length_b 8.804226
_cell_length_c 8.611466
_cell_angle_alpha 90.000000
_cell_angle_beta 26.914751
_cell_angle_gamma 90.000000
_cell_volume 497.411928
_symmetry_space_group_name_H-M "P 21"
_symmetry_group_IT_number 4
_symmetry_cell_setting 'monoclinic'
loop_
_space_group_symop_operation_xyz
x,y,z
-x,1/2+y,-z
loop_
_atom_site_type_symbol
_atom_site_label
_atom_site_fract_x
_atom_site_fract_y
_atom_site_fract_z
Si Si1 0.305096 0.177500 0.821777
Si Si2 0.344795 0.481955 0.560143
Si Si3 0.956078 0.464177 0.627776
Si Si4 0.265492 0.659241 0.106782
Si Si5 0.740524 0.547415 0.416187
Si Si6 0.736180 0.223435 0.531155
Si Si7 0.305906 0.308969 0.302502
O O1 0.314993 0.339324 0.720705
O O2 0.518963 0.103382 0.549051
O O3 0.199579 0.073415 0.849241
O O4 0.167891 0.123818 0.170186
O O5 0.195817 0.601849 0.698788
O O6 0.406081 0.403583 0.298491
O O7 0.789166 0.327867 0.874906
O O8 0.117101 0.530005 0.257684
O O9 0.128618 0.397496 0.483396
O O10 0.212245 0.687591 0.369460
O O11 0.492353 0.585514 0.773719
O O12 0.812537 0.385720 0.364043
O O13 0.796488 0.667736 0.460653
O O14 0.489663 0.253753 0.915404
#
# Coordination Sequence:
#
# PCOD9116358 Si02
#       7
#     2   2   2   2   2   2   2
#     4  11  25  43  69 105 145 193 241 299 363 438
#     4  11  23  45  72 101 146 196 248 290 357 456
#     4  12  25  45  67 111 151 184 241 310 378 416
#     4  11  26  43  72 107 145 193 241 312 364 429
#     4  10  22  44  68 102 138 201 245 281 357 455
#     4  11  20  42  72 103 137 194 246 294 350 448
#     4  10  21  42  72 103 142 183 244 302 357 430
#
# _framework density 28.145683999999999
#
# number of rings (size 3 to 8) (size 9 to 14) (size 15 to 20)
#    0.000    1.143    2.857    4.286    4.000    1.143 
#    5.143    2.857    0.000    0.000    0.000    0.000 
#    0.000    0.000    0.000    0.000    0.000    0.000 
#
# Total GULP energy -78020.128053 kJ/mol
# GULP energy per Si atom -5572.866289 kJ/mol
# Density = 2.808162 g / cm^3
# Si number density = 28.145684 Si / 1000 Ang^3
#
#
#
# Elastic Constant Matrix: (Units=GPa)
#
#
# Indices 1 2 3 4 5 6 
#
# 1 127.1372 44.8836 5.1000 0.0000 -15.8874 0.0000
# 2 44.8836 146.5864 9.9808 0.0000 10.5403 0.0000
# 3 5.1000 9.9808 67.9702 0.0000 -8.5468 0.0000
# 4 0.0000 0.0000 0.0000 45.5337 0.0000 9.6625
# 5 -15.8874 10.5403 -8.5468 0.0000 41.7312 0.0000
# 6 0.0000 0.0000 0.0000 9.6625 0.0000 56.5728
#
#
#
# Elastic Compliance Matrix: (Units=1/GPa)
#
#
# Indices 1 2 3 4 5 6 
#
# 1 0.009579 -0.003283 0.000335 0.000000 0.004544 0.000000
# 2 -0.003283 0.008182 -0.001408 0.000000 -0.003605 0.000000
# 3 0.000335 -0.001408 0.015350 0.000000 0.003627 0.000000
# 4 0.000000 0.000000 0.000000 0.022788 0.000000 -0.003892
# 5 0.004544 -0.003605 0.003627 0.000000 0.027346 0.000000
# 6 0.000000 0.000000 0.000000 -0.003892 0.000000 0.018341
#
#
# Mechanical properties :
#
#
# Convention : Reuss Voigt Hill
#
# Bulk Modulus (GPa) = 40.98614 51.29140 46.13877
# Shear Modulus (GPa) = 42.21857 47.54950 44.88404
#
# Velocity S-wave (km/s) = 3.87719 4.11470 3.99771
# Velocity P-wave (km/s) = 5.88534 6.39042 6.14307
#
# Compressibility (1/GPa) = 0.02439849
#
# Stress axis : x y z
#
# Youngs Moduli (GPa) = 104.39724 122.21820 65.14622
#
# Poissons Ratio (x) = 0.40118 -0.02180
# Poissons Ratio (y) = 0.34268 0.09175
# Poissons Ratio (z) = -0.03494 0.17214
#
# Static dielectric constant tensor:
#      x y z
#    x 2.343470 0.000000 0.027750 
#    y 0.000000 2.303290 0.000000 
#    z 0.027750 0.000000 2.465040 
# 
# From -- ./inp_files/9106.got.cif
#   From: 2010.05.17/outbox.cif.g08.bks.cpg/sg4_5_cif.got.tgz:9106.got - 2010.06.03 18:43:04.
