data_PCOD9116668
_publ_section_title
;
Structure prediction by ZEFSAII (Michael W. Deem and Ramdas Pophale) SiO2 
 PCOD9116668
Probable space group: P 21
;
_chemical_formula_sum "Si O2"
_cell_formula_units_Z 14
_cell_length_a 18.504530
_cell_length_b 4.842262
_cell_length_c 12.439073
_cell_angle_alpha 90.000000
_cell_angle_beta 31.837003
_cell_angle_gamma 90.000000
_cell_volume 587.950255
_symmetry_space_group_name_H-M "P 21"
_symmetry_group_IT_number 4
_symmetry_cell_setting 'monoclinic'
loop_
_space_group_symop_operation_xyz
x,y,z
-x,1/2+y,-z
loop_
_atom_site_type_symbol
_atom_site_label
_atom_site_fract_x
_atom_site_fract_y
_atom_site_fract_z
Si Si1 0.356416 0.383250 0.036623
Si Si2 0.915065 0.189732 0.574724
Si Si3 0.080449 0.403921 0.869553
Si Si4 0.371069 0.207648 0.253275
Si Si5 0.643895 0.613161 0.406983
Si Si6 0.523786 0.610827 0.322923
Si Si7 0.797331 0.209087 0.486637
O O1 0.218113 0.559356 0.200420
O O2 0.344472 0.194029 0.158828
O O3 0.481229 0.589813 0.907319
O O4 0.394071 0.212673 0.883524
O O5 0.880392 0.194298 0.492450
O O6 0.957778 0.488270 0.562285
O O7 0.210057 0.242065 0.753527
O O8 0.118282 0.572623 0.714870
O O9 0.026274 0.653051 0.013638
O O10 0.338732 0.520442 0.326301
O O11 0.258447 0.017821 0.454962
O O12 0.611090 0.637158 0.321985
O O13 0.610274 0.304689 0.488330
O O14 0.531580 0.800807 0.610397
#
# Coordination Sequence:
#
# PCOD9116668 Si02
#       7
#     2   2   2   2   2   2   2
#     4  11  23  40  65  95 120 163 209 252 307 373
#     4  11  25  41  59  87 127 166 201 243 304 376
#     4  12  25  41  66  93 123 167 214 250 301 379
#     4  11  23  39  65  95 125 157 209 264 311 360
#     4  10  22  42  60  95 126 159 204 258 317 355
#     4  10  22  39  67  89 124 160 202 263 312 359
#     4  11  24  44  64  90 129 164 201 266 316 348
#
# _framework density 23.811537000000001
#
# number of rings (size 3 to 8) (size 9 to 14) (size 15 to 20)
#    0.000    1.143    0.000    6.857    0.000    8.000 
#    0.000    0.000    0.000    0.000    0.000    0.000 
#    0.000    0.000    0.000    0.000    0.000    0.000 
#
# Total GULP energy -78514.240703 kJ/mol
# GULP energy per Si atom -5608.160050 kJ/mol
# Density = 2.375734 g / cm^3
# Si number density = 23.811537 Si / 1000 Ang^3
#
#
#
# Elastic Constant Matrix: (Units=GPa)
#
#
# Indices 1 2 3 4 5 6 
#
# 1 80.3567 15.4342 26.4705 0.0000 -3.3031 0.0000
# 2 15.4342 108.2035 12.4727 0.0000 0.8662 0.0000
# 3 26.4705 12.4727 80.2874 0.0000 4.3572 0.0000
# 4 0.0000 0.0000 0.0000 35.0415 0.0000 3.2353
# 5 -3.3031 0.8662 4.3572 0.0000 31.1642 0.0000
# 6 0.0000 0.0000 0.0000 3.2353 0.0000 35.3794
#
#
#
# Elastic Compliance Matrix: (Units=1/GPa)
#
#
# Indices 1 2 3 4 5 6 
#
# 1 0.014349 -0.001533 -0.004613 0.000000 0.002208 0.000000
# 2 -0.001533 0.009574 -0.000966 0.000000 -0.000293 0.000000
# 3 -0.004613 -0.000966 0.014259 0.000000 -0.002456 0.000000
# 4 0.000000 0.000000 0.000000 0.028781 0.000000 -0.002632
# 5 0.002208 -0.000293 -0.002456 0.000000 0.032674 0.000000
# 6 0.000000 0.000000 0.000000 -0.002632 0.000000 0.028506
#
#
# Mechanical properties :
#
#
# Convention : Reuss Voigt Hill
#
# Bulk Modulus (GPa) = 41.73651 41.95579 41.84615
# Shear Modulus (GPa) = 33.25528 34.61504 33.93516
#
# Velocity S-wave (km/s) = 3.74117 3.81689 3.77922
# Velocity P-wave (km/s) = 6.01895 6.08959 6.05437
#
# Compressibility (1/GPa) = 0.02395984
#
# Stress axis : x y z
#
# Youngs Moduli (GPa) = 69.69062 104.44748 70.12933
#
# Poissons Ratio (x) = 0.16009 0.32348
# Poissons Ratio (y) = 0.10682 0.06775
# Poissons Ratio (z) = 0.32145 0.10091
#
# Static dielectric constant tensor:
#      x y z
#    x 1.897540 0.000000 0.009440 
#    y 0.000000 1.875000 0.000000 
#    z 0.009440 0.000000 1.931290 
# 
# From -- ./inp_files/12726.got.cif
#   From: 2010.05.17/outbox.cif.g08.bks.cpg/sg4_7_cif.got.tgz:12726.got - 2010.06.03 18:43:04.
