data_PCOD9116342
_publ_section_title
;
Structure prediction by ZEFSAII (Michael W. Deem and Ramdas Pophale) SiO2 
 PCOD9116342
Probable space group: P 21
;
_chemical_formula_sum "Si O2"
_cell_formula_units_Z 16
_cell_length_a 13.036653
_cell_length_b 7.362426
_cell_length_c 6.929123
_cell_angle_alpha 90.000000
_cell_angle_beta 66.217473
_cell_angle_gamma 90.000000
_cell_volume 608.591188
_symmetry_space_group_name_H-M "P 21"
_symmetry_group_IT_number 4
_symmetry_cell_setting 'monoclinic'
loop_
_space_group_symop_operation_xyz
x,y,z
-x,1/2+y,-z
loop_
_atom_site_type_symbol
_atom_site_label
_atom_site_fract_x
_atom_site_fract_y
_atom_site_fract_z
Si Si1 0.192245 0.914010 0.712841
Si Si2 0.053276 0.375296 0.033848
Si Si3 0.009030 0.006854 0.310135
Si Si4 0.244166 0.065355 0.289009
Si Si5 0.805435 0.983270 0.756917
Si Si6 0.332343 0.628527 0.455329
Si Si7 0.537056 0.792880 0.468471
Si Si8 0.376773 0.955378 0.852747
O O1 0.064888 0.964376 0.822868
O O2 0.217280 0.711086 0.621273
O O3 0.248871 0.043095 0.513113
O O4 0.253043 0.913297 0.870274
O O5 0.040124 0.187937 0.163685
O O6 0.156699 0.484770 0.048893
O O7 0.045793 0.373248 0.808016
O O8 0.129297 0.958908 0.315419
O O9 0.918873 0.025115 0.549948
O O10 0.227243 0.275102 0.256882
O O11 0.354215 0.002816 0.089740
O O12 0.699767 0.086966 0.741795
O O13 0.424198 0.787482 0.419602
O O14 0.377654 0.458462 0.549118
O O15 0.593898 0.628458 0.307829
O O16 0.468415 0.802737 0.726850
#
# Coordination Sequence:
#
# PCOD9116342 Si02
#       8
#     2   2   2   2   2   2   2   2
#     4  11  21  40  65  96 141 181 223 285 336 409
#     4  11  24  39  63  97 141 191 230 272 333 415
#     4  11  24  40  63 100 141 195 232 270 336 411
#     4  11  24  39  67  99 141 189 229 278 342 423
#     4  11  24  41  64 103 149 178 228 284 335 417
#     4  10  21  42  69 100 126 182 224 285 358 393
#     4   9  21  43  72  91 131 163 230 299 337 409
#     4  10  21  44  69 100 128 185 230 285 363 399
#
# _framework density 26.290225
#
# number of rings (size 3 to 8) (size 9 to 14) (size 15 to 20)
#    0.000    1.500    3.750    0.750    1.750    3.000 
#    0.000   13.750    0.000    0.000    0.000    0.000 
#    0.000    0.000    0.000    0.000    0.000    0.000 
#
# Total GULP energy -89146.271958 kJ/mol
# GULP energy per Si atom -5571.641997 kJ/mol
# Density = 2.623039 g / cm^3
# Si number density = 26.290225 Si / 1000 Ang^3
#
#
#
# Elastic Constant Matrix: (Units=GPa)
#
#
# Indices 1 2 3 4 5 6 
#
# 1 75.3508 10.3970 2.6954 0.0000 11.5151 0.0000
# 2 10.3970 66.2204 1.8926 0.0000 -2.9119 0.0000
# 3 2.6954 1.8926 67.2758 0.0000 -8.4265 0.0000
# 4 0.0000 0.0000 0.0000 31.6671 0.0000 3.5285
# 5 11.5151 -2.9119 -8.4265 0.0000 31.2068 0.0000
# 6 0.0000 0.0000 0.0000 3.5285 0.0000 41.5496
#
#
#
# Elastic Compliance Matrix: (Units=1/GPa)
#
#
# Indices 1 2 3 4 5 6 
#
# 1 0.014573 -0.002514 -0.001259 0.000000 -0.005952 0.000000
# 2 -0.002514 0.015601 -0.000041 0.000000 0.002372 0.000000
# 3 -0.001259 -0.000041 0.015498 0.000000 0.004645 0.000000
# 4 0.000000 0.000000 0.000000 0.031880 0.000000 -0.002707
# 5 -0.005952 0.002372 0.004645 0.000000 0.035716 0.000000
# 6 0.000000 0.000000 0.000000 -0.002707 0.000000 0.024298
#
#
# Mechanical properties :
#
#
# Convention : Reuss Voigt Hill
#
# Bulk Modulus (GPa) = 26.28484 26.53522 26.41003
# Shear Modulus (GPa) = 31.67090 33.80884 32.73987
#
# Velocity S-wave (km/s) = 3.47459 3.58995 3.53274
# Velocity P-wave (km/s) = 5.11045 5.22482 5.16795
#
# Compressibility (1/GPa) = 0.03804474
#
# Stress axis : x y z
#
# Youngs Moduli (GPa) = 68.62162 64.09748 64.52610
#
# Poissons Ratio (x) = 0.16112 0.08121
# Poissons Ratio (y) = 0.17250 0.00265
# Poissons Ratio (z) = 0.08637 0.00263
#
# Static dielectric constant tensor:
#      x y z
#    x 2.107620 0.000000 -0.011960 
#    y 0.000000 2.189490 0.000000 
#    z -0.011960 0.000000 2.061930 
# 
# From -- ./inp_files/3708.got.cif
#   From: 2010.05.17/outbox.cif.g08.bks.cpg/sg4_2_cif.got.tgz:3708.got - 2010.06.03 18:43:04.
