data_PCOD9116903
_publ_section_title
;
Structure prediction by ZEFSAII (Michael W. Deem and Ramdas Pophale) SiO2 
 PCOD9116903
Probable space group: P 21
;
_chemical_formula_sum "Si O2"
_cell_formula_units_Z 16
_cell_length_a 12.903995
_cell_length_b 5.503995
_cell_length_c 12.001761
_cell_angle_alpha 90.000000
_cell_angle_beta 130.129292
_cell_angle_gamma 90.000000
_cell_volume 651.743846
_symmetry_space_group_name_H-M "P 21"
_symmetry_group_IT_number 4
_symmetry_cell_setting 'monoclinic'
loop_
_space_group_symop_operation_xyz
x,y,z
-x,1/2+y,-z
loop_
_atom_site_type_symbol
_atom_site_label
_atom_site_fract_x
_atom_site_fract_y
_atom_site_fract_z
Si Si1 0.081716 0.229810 0.065545
Si Si2 0.944033 0.861634 0.593780
Si Si3 0.847536 0.475668 0.666912
Si Si4 0.665035 0.879219 0.126922
Si Si5 0.459817 0.943507 0.533333
Si Si6 0.533507 0.553019 0.205499
Si Si7 0.192545 0.754494 0.629141
Si Si8 0.883933 0.638281 0.141551
O O1 0.150675 0.162125 0.228063
O O2 0.173234 0.169271 0.021327
O O3 0.031960 0.510798 0.027729
O O4 0.859347 0.624519 0.560532
O O5 0.048529 0.865675 0.564854
O O6 0.841016 0.077929 0.497317
O O7 0.039407 0.896821 0.767878
O O8 0.698841 0.366158 0.572058
O O9 0.986864 0.322537 0.769399
O O10 0.576030 0.806495 0.173564
O O11 0.767656 0.676786 0.151211
O O12 0.767582 0.083317 0.238890
O O13 0.574001 0.950797 0.958536
O O14 0.473132 0.195505 0.470149
O O15 0.505870 0.025505 0.691560
O O16 0.671932 0.403261 0.291893
#
# Coordination Sequence:
#
# PCOD9116903 Si02
#       8
#     2   2   2   2   2   2   2   2
#     4  10  22  41  69 106 149 193 244 309 380 454
#     4  12  24  42  72 110 153 188 248 319 397 474
#     4  11  25  48  73 106 151 201 253 328 386 465
#     4  12  25  48  76 114 155 202 261 326 408 482
#     4  12  33  56  77 112 155 219 276 320 393 482
#     4  12  28  51  78 110 161 213 261 330 400 485
#     4  12  26  43  73 114 152 196 251 319 407 474
#     4  11  23  43  72 114 146 194 250 321 399 462
#
# _framework density 24.549523000000001
#
# number of rings (size 3 to 8) (size 9 to 14) (size 15 to 20)
#    0.000    0.500    5.000    2.250    8.750    0.000 
#    6.750    0.000    0.000    0.000    0.000    0.000 
#    0.000    0.000    0.000    0.000    0.000    0.000 
#
# Total GULP energy -89278.012546 kJ/mol
# GULP energy per Si atom -5579.875784 kJ/mol
# Density = 2.449365 g / cm^3
# Si number density = 24.549523 Si / 1000 Ang^3
#
#
#
# Elastic Constant Matrix: (Units=GPa)
#
#
# Indices 1 2 3 4 5 6 
#
# 1 109.9877 30.5142 36.1446 0.0000 -17.5057 0.0000
# 2 30.5142 65.6272 6.4393 0.0000 -2.0370 0.0000
# 3 36.1446 6.4393 107.6082 0.0000 -7.3410 0.0000
# 4 0.0000 0.0000 0.0000 37.4670 0.0000 0.0221
# 5 -17.5057 -2.0370 -7.3410 0.0000 48.7651 0.0000
# 6 0.0000 0.0000 0.0000 0.0221 0.0000 48.3419
#
#
#
# Elastic Compliance Matrix: (Units=1/GPa)
#
#
# Indices 1 2 3 4 5 6 
#
# 1 0.012306 -0.005258 -0.003569 0.000000 0.003661 0.000000
# 2 -0.005258 0.017587 0.000642 0.000000 -0.001056 0.000000
# 3 -0.003569 0.000642 0.010475 0.000000 0.000322 0.000000
# 4 0.000000 0.000000 0.000000 0.026690 0.000000 -0.000012
# 5 0.003661 -0.001056 0.000322 0.000000 0.021825 0.000000
# 6 0.000000 0.000000 0.000000 -0.000012 0.000000 0.020686
#
#
# Mechanical properties :
#
#
# Convention : Reuss Voigt Hill
#
# Bulk Modulus (GPa) = 41.67162 47.71327 44.69244
# Shear Modulus (GPa) = 37.33020 40.92313 39.12667
#
# Velocity S-wave (km/s) = 3.90373 4.08727 3.99655
# Velocity P-wave (km/s) = 6.10984 6.46159 6.28817
#
# Compressibility (1/GPa) = 0.02399715
#
# Stress axis : x y z
#
# Youngs Moduli (GPa) = 81.25936 56.86129 95.46156
#
# Poissons Ratio (x) = 0.29898 0.34072
# Poissons Ratio (y) = 0.42727 -0.06126
# Poissons Ratio (z) = 0.29003 -0.03649
#
# Static dielectric constant tensor:
#      x y z
#    x 1.960930 0.000000 -0.097750 
#    y 0.000000 2.063570 0.000000 
#    z -0.097750 0.000000 1.982330 
# 
# From -- ./inp_files/11668.got.cif
#   From: 2010.05.17/outbox.cif.g08.bks.cpg/sg4_6_cif.got.tgz:11668.got - 2010.06.03 18:43:04.
