data_PCOD9116406
_publ_section_title
;
Structure prediction by ZEFSAII (Michael W. Deem and Ramdas Pophale) SiO2 
 PCOD9116406
Probable space group: P 21
;
_chemical_formula_sum "Si O2"
_cell_formula_units_Z 12
_cell_length_a 15.791377
_cell_length_b 5.218684
_cell_length_c 12.183292
_cell_angle_alpha 90.000000
_cell_angle_beta 150.819014
_cell_angle_gamma 90.000000
_cell_volume 489.533688
_symmetry_space_group_name_H-M "P 21"
_symmetry_group_IT_number 4
_symmetry_cell_setting 'monoclinic'
loop_
_space_group_symop_operation_xyz
x,y,z
-x,1/2+y,-z
loop_
_atom_site_type_symbol
_atom_site_label
_atom_site_fract_x
_atom_site_fract_y
_atom_site_fract_z
Si Si1 0.516195 0.063520 0.945730
Si Si2 0.362362 0.096366 0.250226
Si Si3 0.247033 0.428787 0.301159
Si Si4 0.831725 0.086181 0.012887
Si Si5 0.891785 0.094031 0.398432
Si Si6 0.180448 0.290304 0.466708
O O1 0.712858 0.096613 0.127477
O O2 0.499535 0.278168 0.023537
O O3 0.358944 0.135894 0.687473
O O4 0.568542 0.075703 0.485894
O O5 0.279091 0.843709 0.106461
O O6 0.298276 0.156996 0.302169
O O7 0.978749 0.369645 0.491897
O O8 0.127938 0.554000 0.072902
O O9 0.176764 0.414093 0.342804
O O10 0.010450 0.112841 0.278496
O O11 0.286705 0.339292 0.099437
O O12 0.837807 0.002213 0.459399
#
# Coordination Sequence:
#
# PCOD9116406 Si02
#       6
#     2   2   2   2   2   2
#     4  10  23  49  74 105 139 180 243 309 357 424
#     4  10  21  43  66  98 152 187 223 301 327 411
#     4  10  22  45  71 102 149 186 238 282 350 427
#     4  10  23  42  67 106 147 184 236 282 348 430
#     4  11  25  51  75 104 143 182 245 317 353 422
#     4  11  26  46  77 107 140 203 231 293 377 422
#
# _framework density 24.513126
#
# number of rings (size 3 to 8) (size 9 to 14) (size 15 to 20)
#    1.000    0.667    1.667    2.000    2.333    5.333 
#    9.000    6.667    0.000    0.000    0.000    0.000 
#    0.000    0.000    0.000    0.000    0.000    0.000 
#
# Total GULP energy -67154.793539 kJ/mol
# GULP energy per Si atom -5596.232795 kJ/mol
# Density = 2.445733 g / cm^3
# Si number density = 24.513126 Si / 1000 Ang^3
#
#
#
# Elastic Constant Matrix: (Units=GPa)
#
#
# Indices 1 2 3 4 5 6 
#
# 1 71.1493 8.4496 4.6010 0.0000 -16.8638 0.0000
# 2 8.4496 101.0140 31.1800 0.0000 -15.6930 0.0000
# 3 4.6010 31.1800 150.3432 0.0000 4.3470 0.0000
# 4 0.0000 0.0000 0.0000 23.7979 0.0000 6.8935
# 5 -16.8638 -15.6930 4.3470 0.0000 29.1239 0.0000
# 6 0.0000 0.0000 0.0000 6.8935 0.0000 32.1694
#
#
#
# Elastic Compliance Matrix: (Units=1/GPa)
#
#
# Indices 1 2 3 4 5 6 
#
# 1 0.016397 0.000430 -0.000876 0.000000 0.009857 0.000000
# 2 0.000430 0.011769 -0.002656 0.000000 0.006987 0.000000
# 3 -0.000876 -0.002656 0.007317 0.000000 -0.003030 0.000000
# 4 0.000000 0.000000 0.000000 0.044801 0.000000 -0.009600
# 5 0.009857 0.006987 -0.003030 0.000000 0.044261 0.000000
# 6 0.000000 0.000000 0.000000 -0.009600 0.000000 0.033143
#
#
# Mechanical properties :
#
#
# Convention : Reuss Voigt Hill
#
# Bulk Modulus (GPa) = 34.15439 45.66308 39.90873
# Shear Modulus (GPa) = 28.79345 35.56995 32.18170
#
# Velocity S-wave (km/s) = 3.43098 3.81341 3.62724
# Velocity P-wave (km/s) = 5.44600 6.16911 5.81879
#
# Compressibility (1/GPa) = 0.02927881
#
# Stress axis : x y z
#
# Youngs Moduli (GPa) = 60.98747 84.96947 136.67352
#
# Poissons Ratio (x) = -0.03655 0.11973
# Poissons Ratio (y) = -0.02623 0.36300
# Poissons Ratio (z) = 0.05343 0.22568
#
# Static dielectric constant tensor:
#      x y z
#    x 2.027950 0.000000 -0.014920 
#    y 0.000000 1.895070 0.000000 
#    z -0.014920 0.000000 1.915840 
# 
# From -- ./inp_files/14440.got.cif
#   From: 2010.05.17/outbox.cif.g08.bks.cpg/sg4_8_cif.got.tgz:14440.got - 2010.06.03 18:43:04.
