data_PCOD9116330
_publ_section_title
;
Structure prediction by ZEFSAII (Michael W. Deem and Ramdas Pophale) SiO2 
 PCOD9116330
Probable space group: P 21
;
_chemical_formula_sum "Si O2"
_cell_formula_units_Z 16
_cell_length_a 16.981542
_cell_length_b 5.501751
_cell_length_c 15.953893
_cell_angle_alpha 90.000000
_cell_angle_beta 156.053323
_cell_angle_gamma 90.000000
_cell_volume 604.991238
_symmetry_space_group_name_H-M "P 21"
_symmetry_group_IT_number 4
_symmetry_cell_setting 'monoclinic'
loop_
_space_group_symop_operation_xyz
x,y,z
-x,1/2+y,-z
loop_
_atom_site_type_symbol
_atom_site_label
_atom_site_fract_x
_atom_site_fract_y
_atom_site_fract_z
Si Si1 0.234082 0.062010 0.549935
Si Si2 0.651577 0.631544 0.520016
Si Si3 0.056391 0.758142 0.143194
Si Si4 0.392477 0.670229 0.921121
Si Si5 0.869364 0.563656 0.115442
Si Si6 0.837707 0.061577 0.449767
Si Si7 0.684725 0.940092 0.704917
Si Si8 0.227091 0.568223 0.940696
O O1 0.350066 0.141292 0.580583
O O2 0.247616 0.290410 0.625184
O O3 0.003978 0.051401 0.305017
O O4 0.279781 0.787480 0.622531
O O5 0.860118 0.512846 0.744049
O O6 0.620787 0.859796 0.549997
O O7 0.488990 0.458053 0.400410
O O8 0.191402 0.676113 0.198254
O O9 0.038227 0.596571 0.210125
O O10 0.842269 0.763681 0.898179
O O11 0.186067 0.635748 0.670221
O O12 0.346799 0.615522 0.973178
O O13 0.472151 0.944158 0.980285
O O14 0.761648 0.312020 0.993728
O O15 0.965060 0.552168 0.302749
O O16 0.738274 0.804064 0.986719
#
# Coordination Sequence:
#
# PCOD9116330 Si02
#       8
#     2   2   2   2   2   2   2   2
#     4  10  22  41  72  97 134 175 238 295 341 436
#     4  12  24  45  68 106 146 188 247 306 367 435
#     4  12  24  45  68 106 146 188 247 306 367 435
#     4  12  26  44  66  98 148 180 226 298 356 432
#     4  10  22  41  72  97 134 175 238 295 341 436
#     4  10  21  42  67  98 125 183 222 284 354 417
#     4  12  26  42  74 102 144 198 248 306 376 438
#     4  10  21  42  67  98 125 183 222 284 354 417
#
# _framework density 26.446663000000001
#
# number of rings (size 3 to 8) (size 9 to 14) (size 15 to 20)
#    0.000    1.000    5.000    3.000    0.000    4.000 
#    6.750    0.000    0.000    0.000    0.000    0.000 
#    0.000    0.000    0.000    0.000    0.000    0.000 
#
# Total GULP energy -89439.009888 kJ/mol
# GULP energy per Si atom -5589.938118 kJ/mol
# Density = 2.638647 g / cm^3
# Si number density = 26.446663 Si / 1000 Ang^3
#
#
#
# Elastic Constant Matrix: (Units=GPa)
#
#
# Indices 1 2 3 4 5 6 
#
# 1 97.8775 7.7722 -0.2342 0.0000 9.2258 0.0000
# 2 7.7722 149.6116 6.9902 0.0000 9.1292 0.0000
# 3 -0.2342 6.9902 53.4825 0.0000 10.7895 0.0000
# 4 0.0000 0.0000 0.0000 20.3834 0.0000 2.7019
# 5 9.2258 9.1292 10.7895 0.0000 37.9552 0.0000
# 6 0.0000 0.0000 0.0000 2.7019 0.0000 40.3309
#
#
#
# Elastic Compliance Matrix: (Units=1/GPa)
#
#
# Indices 1 2 3 4 5 6 
#
# 1 0.010499 -0.000414 0.000631 0.000000 -0.002632 0.000000
# 2 -0.000414 0.006818 -0.000618 0.000000 -0.001363 0.000000
# 3 0.000631 -0.000618 0.019925 0.000000 -0.005669 0.000000
# 4 0.000000 0.000000 0.000000 0.049499 0.000000 -0.003316
# 5 -0.002632 -0.001363 -0.005669 0.000000 0.028926 0.000000
# 6 0.000000 0.000000 0.000000 -0.003316 0.000000 0.025017
#
#
# Mechanical properties :
#
#
# Convention : Reuss Voigt Hill
#
# Bulk Modulus (GPa) = 27.44268 36.66978 32.05623
# Shear Modulus (GPa) = 32.54518 38.83012 35.68765
#
# Velocity S-wave (km/s) = 3.51179 3.83592 3.67743
# Velocity P-wave (km/s) = 5.18100 5.78919 5.49352
#
# Compressibility (1/GPa) = 0.03643959
#
# Stress axis : x y z
#
# Youngs Moduli (GPa) = 95.24416 146.68002 50.18860
#
# Poissons Ratio (x) = 0.06077 -0.03167
# Poissons Ratio (y) = 0.03946 0.03101
# Poissons Ratio (z) = -0.06010 0.09062
#
# Static dielectric constant tensor:
#      x y z
#    x 2.024320 0.000000 -0.022290 
#    y 0.000000 2.172080 0.000000 
#    z -0.022290 0.000000 2.164150 
# 
# From -- ./inp_files/14116.got.cif
#   From: 2010.05.17/outbox.cif.g08.bks.cpg/sg4_8_cif.got.tgz:14116.got - 2010.06.03 18:43:04.
