data_PCOD9116201
_publ_section_title
;
Structure prediction by ZEFSAII (Michael W. Deem and Ramdas Pophale) SiO2 
 PCOD9116201
Probable space group: P 21
;
_chemical_formula_sum "Si O2"
_cell_formula_units_Z 14
_cell_length_a 6.549914
_cell_length_b 9.239389
_cell_length_c 9.564909
_cell_angle_alpha 90.000000
_cell_angle_beta 73.292543
_cell_angle_gamma 90.000000
_cell_volume 554.405798
_symmetry_space_group_name_H-M "P 21"
_symmetry_group_IT_number 4
_symmetry_cell_setting 'monoclinic'
loop_
_space_group_symop_operation_xyz
x,y,z
-x,1/2+y,-z
loop_
_atom_site_type_symbol
_atom_site_label
_atom_site_fract_x
_atom_site_fract_y
_atom_site_fract_z
Si Si1 0.105178 0.810790 0.288042
Si Si2 0.817425 0.572773 0.317437
Si Si3 0.916139 0.078862 0.206027
Si Si4 0.606948 0.308803 0.234562
Si Si5 0.533769 0.438593 0.954635
Si Si6 0.268582 0.198805 0.951631
Si Si7 0.156827 0.234961 0.414265
O O1 0.056802 0.642107 0.262628
O O2 0.019190 0.824381 0.462912
O O3 0.946092 0.909898 0.226580
O O4 0.330899 0.875709 0.202037
O O5 0.762463 0.408047 0.298142
O O6 0.694447 0.653629 0.215039
O O7 0.751978 0.627920 0.483040
O O8 0.682523 0.144531 0.242266
O O9 0.043866 0.149288 0.312300
O O10 0.042594 0.138206 0.046900
O O11 0.637724 0.366373 0.072225
O O12 0.359100 0.324806 0.321739
O O13 0.568537 0.605978 0.981434
O O14 0.304899 0.365989 0.981371
#
# Coordination Sequence:
#
# PCOD9116201 Si02
#       7
#     2   2   2   2   2   2   2
#     4   9  23  41  60  93 129 158 214 253 314 375
#     4   9  23  41  60  93 129 158 214 253 314 375
#     4  11  23  41  69  90 129 169 207 262 316 372
#     4  11  23  41  69  90 129 169 207 262 316 372
#     4  10  21  41  63  93 124 165 213 259 310 375
#     4  10  21  41  63  93 124 165 213 259 310 375
#     4  10  24  42  62  98 130 156 220 252 316 388
#
# _framework density 25.252261000000001
#
# number of rings (size 3 to 8) (size 9 to 14) (size 15 to 20)
#    0.857    1.143    1.429    0.857    4.000    3.429 
#    5.143    0.000    0.000    0.000    0.000    0.000 
#    0.000    0.000    0.000    0.000    0.000    0.000 
#
# Total GULP energy -78162.478504 kJ/mol
# GULP energy per Si atom -5583.034179 kJ/mol
# Density = 2.519479 g / cm^3
# Si number density = 25.252261 Si / 1000 Ang^3
#
#
#
# Elastic Constant Matrix: (Units=GPa)
#
#
# Indices 1 2 3 4 5 6 
#
# 1 65.5478 15.5683 28.9912 0.0000 17.0206 0.0000
# 2 15.5683 64.4744 7.1392 0.0000 -13.9314 0.0000
# 3 28.9912 7.1392 112.6325 0.0000 -1.6018 0.0000
# 4 0.0000 0.0000 0.0000 26.3392 0.0000 2.1267
# 5 17.0206 -13.9314 -1.6018 0.0000 22.8407 0.0000
# 6 0.0000 0.0000 0.0000 2.1267 0.0000 45.4093
#
#
#
# Elastic Compliance Matrix: (Units=1/GPa)
#
#
# Indices 1 2 3 4 5 6 
#
# 1 0.029277 -0.012785 -0.007154 0.000000 -0.030116 0.000000
# 2 -0.012785 0.023556 0.002140 0.000000 0.024044 0.000000
# 3 -0.007154 0.002140 0.010689 0.000000 0.007385 0.000000
# 4 0.000000 0.000000 0.000000 0.038110 0.000000 -0.001785
# 5 -0.030116 0.024044 0.007385 0.000000 0.081407 0.000000
# 6 0.000000 0.000000 0.000000 -0.001785 0.000000 0.022106
#
#
# Mechanical properties :
#
#
# Convention : Reuss Voigt Hill
#
# Bulk Modulus (GPa) = 35.81131 38.45024 37.13078
# Shear Modulus (GPa) = 19.99604 31.64823 25.82214
#
# Velocity S-wave (km/s) = 2.81704 3.54401 3.20123
# Velocity P-wave (km/s) = 4.97927 5.65740 5.32914
#
# Compressibility (1/GPa) = 0.02792414
#
# Stress axis : x y z
#
# Youngs Moduli (GPa) = 34.15692 42.45279 93.55258
#
# Poissons Ratio (x) = 0.54274 0.66924
# Poissons Ratio (y) = 0.43668 -0.20016
# Poissons Ratio (z) = 0.24435 -0.09083
#
# Static dielectric constant tensor:
#      x y z
#    x 1.977440 0.000000 0.006700 
#    y 0.000000 2.025740 0.000000 
#    z 0.006700 0.000000 1.961920 
# 
# From -- ./inp_files/6498.got.cif
#   From: 2010.05.17/outbox.cif.g08.bks.cpg/sg4_4_cif.got.tgz:6498.got - 2010.06.03 18:43:04.
