data_PCOD9116410
_publ_section_title
;
Structure prediction by ZEFSAII (Michael W. Deem and Ramdas Pophale) SiO2 
 PCOD9116410
Probable space group: P 21
;
_chemical_formula_sum "Si O2"
_cell_formula_units_Z 16
_cell_length_a 7.267649
_cell_length_b 5.283484
_cell_length_c 22.650865
_cell_angle_alpha 90.000000
_cell_angle_beta 52.695170
_cell_angle_gamma 90.000000
_cell_volume 691.826106
_symmetry_space_group_name_H-M "P 21"
_symmetry_group_IT_number 4
_symmetry_cell_setting 'monoclinic'
loop_
_space_group_symop_operation_xyz
x,y,z
-x,1/2+y,-z
loop_
_atom_site_type_symbol
_atom_site_label
_atom_site_fract_x
_atom_site_fract_y
_atom_site_fract_z
Si Si1 0.895741 0.062740 0.357434
Si Si2 0.433917 0.805052 0.072184
Si Si3 0.258999 0.088009 0.766411
Si Si4 0.072789 0.570644 0.520152
Si Si5 0.821892 0.127770 0.993427
Si Si6 0.398245 0.062514 0.607538
Si Si7 0.339923 0.993490 0.879527
Si Si8 0.037239 0.094567 0.199438
O O1 0.719661 0.298413 0.386778
O O2 0.043836 0.079776 0.269099
O O3 0.024556 0.079975 0.394568
O O4 0.759687 0.797179 0.381665
O O5 0.452776 0.600751 0.120689
O O6 0.704500 0.855260 0.008742
O O7 0.289615 0.037852 0.126061
O O8 0.310025 0.761658 0.034594
O O9 0.406792 0.073608 0.677483
O O10 0.396284 0.021484 0.799563
O O11 0.129077 0.361053 0.790020
O O12 0.069422 0.862264 0.798728
O O13 0.350182 0.585271 0.469027
O O14 0.988493 0.808722 0.499189
O O15 0.744506 0.236302 0.071885
O O16 0.092894 0.142328 0.930812
#
# Coordination Sequence:
#
# PCOD9116410 Si02
#       8
#     2   2   2   2   2   2   2   2
#     4  10  21  43  67  93 127 176 216 256 319 389
#     4  12  26  42  64  92 127 173 218 276 335 390
#     4  10  24  43  68  94 128 169 218 272 324 391
#     4  12  24  38  64 102 136 168 212 272 314 370
#     4  12  26  42  62  92 126 168 224 270 334 396
#     4  10  21  43  67  93 127 176 216 256 319 389
#     4  12  26  42  64  92 127 173 218 276 335 390
#     4  10  24  43  68  94 128 169 218 272 324 391
#
# _framework density 23.127198
#
# number of rings (size 3 to 8) (size 9 to 14) (size 15 to 20)
#    0.000    1.000    3.750    2.250    7.000    1.000 
#    2.250    0.000    0.000    0.000    0.000    0.000 
#    0.000    0.000    0.000    0.000    0.000    0.000 
#
# Total GULP energy -89415.413232 kJ/mol
# GULP energy per Si atom -5588.463327 kJ/mol
# Density = 2.307456 g / cm^3
# Si number density = 23.127198 Si / 1000 Ang^3
#
#
#
# Elastic Constant Matrix: (Units=GPa)
#
#
# Indices 1 2 3 4 5 6 
#
# 1 77.4662 19.8154 29.5603 0.0000 31.3289 0.0000
# 2 19.8154 68.0637 7.5995 0.0000 12.3899 0.0000
# 3 29.5603 7.5995 59.8330 0.0000 28.3035 0.0000
# 4 0.0000 0.0000 0.0000 18.3938 0.0000 -0.5777
# 5 31.3289 12.3899 28.3035 0.0000 42.1209 0.0000
# 6 0.0000 0.0000 0.0000 -0.5777 0.0000 31.2080
#
#
#
# Elastic Compliance Matrix: (Units=1/GPa)
#
#
# Indices 1 2 3 4 5 6 
#
# 1 0.019765 -0.003299 -0.004179 0.000000 -0.010922 0.000000
# 2 -0.003299 0.016077 0.000974 0.000000 -0.002929 0.000000
# 3 -0.004179 0.000974 0.025390 0.000000 -0.014239 0.000000
# 4 0.000000 0.000000 0.000000 0.054398 0.000000 0.001007
# 5 -0.010922 -0.002929 -0.014239 0.000000 0.042294 0.000000
# 6 0.000000 0.000000 0.000000 0.001007 0.000000 0.032062
#
#
# Mechanical properties :
#
#
# Convention : Reuss Voigt Hill
#
# Bulk Modulus (GPa) = 20.73725 35.47925 28.10825
# Shear Modulus (GPa) = 22.82388 28.23704 25.53046
#
# Velocity S-wave (km/s) = 3.14488 3.49799 3.32613
# Velocity P-wave (km/s) = 4.70883 5.62928 5.18951
#
# Compressibility (1/GPa) = 0.04822240
#
# Stress axis : x y z
#
# Youngs Moduli (GPa) = 50.59568 62.19996 39.38591
#
# Poissons Ratio (x) = 0.20521 0.16460
# Poissons Ratio (y) = 0.16693 -0.03835
# Poissons Ratio (z) = 0.21144 -0.06057
#
# Static dielectric constant tensor:
#      x y z
#    x 1.865320 0.000000 0.045000 
#    y 0.000000 1.942710 0.000000 
#    z 0.045000 0.000000 1.872450 
# 
# From -- ./inp_files/4385.got.cif
#   From: 2010.05.17/outbox.cif.g08.bks.cpg/sg4_3_cif.got.tgz:4385.got - 2010.06.03 18:43:04.
