data_PCOD9116747
_publ_section_title
;
Structure prediction by ZEFSAII (Michael W. Deem and Ramdas Pophale) SiO2 
 PCOD9116747
Probable space group: P 21
;
_chemical_formula_sum "Si O2"
_cell_formula_units_Z 14
_cell_length_a 12.901803
_cell_length_b 8.991039
_cell_length_c 9.107771
_cell_angle_alpha 90.000000
_cell_angle_beta 32.741303
_cell_angle_gamma 90.000000
_cell_volume 571.408448
_symmetry_space_group_name_H-M "P 21"
_symmetry_group_IT_number 4
_symmetry_cell_setting 'monoclinic'
loop_
_space_group_symop_operation_xyz
x,y,z
-x,1/2+y,-z
loop_
_atom_site_type_symbol
_atom_site_label
_atom_site_fract_x
_atom_site_fract_y
_atom_site_fract_z
Si Si1 0.001694 0.266150 0.890533
Si Si2 0.351193 0.090324 0.339523
Si Si3 0.492304 0.369458 0.036459
Si Si4 0.671397 0.056809 0.195684
Si Si5 0.486964 0.045238 0.706020
Si Si6 0.840782 0.049063 0.466510
Si Si7 0.136016 0.264969 0.070212
O O1 0.154130 0.155803 0.631364
O O2 0.038676 0.427930 0.773320
O O3 0.053887 0.267291 0.000826
O O4 0.795542 0.197080 0.100681
O O5 0.434056 0.199152 0.114163
O O6 0.501634 0.098704 0.290987
O O7 0.362483 0.927594 0.257345
O O8 0.568847 0.422410 0.105688
O O9 0.287692 0.455948 0.266389
O O10 0.569796 0.979182 0.456963
O O11 0.808085 0.932871 0.961739
O O12 0.677009 0.113226 0.554579
O O13 0.325541 0.163666 0.860808
O O14 0.979158 0.178183 0.354215
#
# Coordination Sequence:
#
# PCOD9116747 Si02
#       7
#     2   2   2   2   2   2   2
#     4  11  21  41  63  96 131 164 204 273 314 368
#     4  11  24  45  64  93 132 165 221 256 322 377
#     4   9  23  46  63  90 128 173 203 269 315 373
#     4  12  25  39  66 102 124 169 215 262 316 387
#     4  10  22  40  65  92 128 164 210 261 324 362
#     4   9  22  41  60  88 132 161 207 258 317 370
#     4  12  21  38  67  97 127 166 212 259 320 381
#
# _framework density 24.500864
#
# number of rings (size 3 to 8) (size 9 to 14) (size 15 to 20)
#    0.857    0.571    4.286    0.000    4.000    2.286 
#    2.571    0.000    0.000    0.000    0.000    0.000 
#    0.000    0.000    0.000    0.000    0.000    0.000 
#
# Total GULP energy -78260.666031 kJ/mol
# GULP energy per Si atom -5590.047574 kJ/mol
# Density = 2.444510 g / cm^3
# Si number density = 24.500864 Si / 1000 Ang^3
#
#
#
# Elastic Constant Matrix: (Units=GPa)
#
#
# Indices 1 2 3 4 5 6 
#
# 1 71.5063 7.1500 27.7645 0.0000 -5.4435 0.0000
# 2 7.1500 69.3962 20.0928 0.0000 -7.6757 0.0000
# 3 27.7645 20.0928 34.5653 0.0000 -11.9480 0.0000
# 4 0.0000 0.0000 0.0000 43.0467 0.0000 2.6241
# 5 -5.4435 -7.6757 -11.9480 0.0000 34.0843 0.0000
# 6 0.0000 0.0000 0.0000 2.6241 0.0000 18.5472
#
#
#
# Elastic Compliance Matrix: (Units=1/GPa)
#
#
# Indices 1 2 3 4 5 6 
#
# 1 0.021160 0.003260 -0.019878 0.000000 -0.002855 0.000000
# 2 0.003260 0.017834 -0.012991 0.000000 -0.000017 0.000000
# 3 -0.019878 -0.012991 0.057282 0.000000 0.013979 0.000000
# 4 0.000000 0.000000 0.000000 0.023433 0.000000 -0.003315
# 5 -0.002855 -0.000017 0.013979 0.000000 0.033780 0.000000
# 6 0.000000 0.000000 0.000000 -0.003315 0.000000 0.054386
#
#
# Mechanical properties :
#
#
# Convention : Reuss Voigt Hill
#
# Bulk Modulus (GPa) = 26.98606 31.72026 29.35316
# Shear Modulus (GPa) = 17.89265 27.16635 22.52950
#
# Velocity S-wave (km/s) = 2.70531 3.33346 3.03568
# Velocity P-wave (km/s) = 4.56032 5.27169 4.92885
#
# Compressibility (1/GPa) = 0.03705617
#
# Stress axis : x y z
#
# Youngs Moduli (GPa) = 47.25923 56.07382 17.45756
#
# Poissons Ratio (x) = -0.18278 0.34703
# Poissons Ratio (y) = -0.15405 0.22679
# Poissons Ratio (z) = 0.93943 0.72845
#
# Static dielectric constant tensor:
#      x y z
#    x 1.936540 0.000000 0.040180 
#    y 0.000000 1.935410 0.000000 
#    z 0.040180 0.000000 1.964230 
# 
# From -- ./inp_files/12539.got.cif
#   From: 2010.05.17/outbox.cif.g08.bks.cpg/sg4_7_cif.got.tgz:12539.got - 2010.06.03 18:43:04.
