data_PCOD9116881
_publ_section_title
;
Structure prediction by ZEFSAII (Michael W. Deem and Ramdas Pophale) SiO2 
 PCOD9116881
Probable space group: P 21
;
_chemical_formula_sum "Si O2"
_cell_formula_units_Z 16
_cell_length_a 7.087980
_cell_length_b 18.416367
_cell_length_c 8.615375
_cell_angle_alpha 90.000000
_cell_angle_beta 142.761937
_cell_angle_gamma 90.000000
_cell_volume 680.531099
_symmetry_space_group_name_H-M "P 21"
_symmetry_group_IT_number 4
_symmetry_cell_setting 'monoclinic'
loop_
_space_group_symop_operation_xyz
x,y,z
-x,1/2+y,-z
loop_
_atom_site_type_symbol
_atom_site_label
_atom_site_fract_x
_atom_site_fract_y
_atom_site_fract_z
Si Si1 0.702964 0.544270 0.368263
Si Si2 0.754435 0.228027 0.205644
Si Si3 0.569491 0.072855 0.153399
Si Si4 0.293492 0.419097 0.188906
Si Si5 0.514898 0.698212 0.306026
Si Si6 0.338034 0.814258 0.427268
Si Si7 0.300382 0.357434 0.880380
Si Si8 0.632281 0.437738 0.821385
O O1 0.582990 0.473243 0.377715
O O2 0.531709 0.612372 0.334728
O O3 0.067713 0.554098 0.630884
O O4 0.619817 0.551203 0.128603
O O5 0.578251 0.160638 0.175447
O O6 0.584382 0.304807 0.114096
O O7 0.124538 0.224817 0.480104
O O8 0.689011 0.213416 0.980014
O O9 0.463856 0.022120 0.228093
O O10 0.367883 0.335638 0.276226
O O11 0.237647 0.418178 0.968470
O O12 0.001548 0.440831 0.100743
O O13 0.375889 0.741412 0.358147
O O14 0.363399 0.882345 0.321613
O O15 0.025888 0.814952 0.324587
O O16 0.408748 0.396435 0.795676
#
# Coordination Sequence:
#
# PCOD9116881 Si02
#       8
#     2   2   2   2   2   2   2   2
#     4  10  22  42  66  93 129 168 212 265 320 381
#     4  10  22  41  67  94 125 171 215 262 322 380
#     4  10  22  41  67  94 125 171 215 262 322 380
#     4  11  25  39  64  98 127 171 216 263 324 380
#     4  10  22  42  66  93 129 168 212 265 320 381
#     4  11  25  39  64  98 127 171 216 263 324 380
#     4  11  23  41  64  93 129 168 214 266 317 380
#     4  11  23  41  64  93 129 168 214 266 317 380
#
# _framework density 23.511047999999999
#
# number of rings (size 3 to 8) (size 9 to 14) (size 15 to 20)
#    0.000    1.500    2.500    1.500    7.000    3.000 
#    0.000    1.250    0.000    0.000    0.000    0.000 
#    0.000    0.000    0.000    0.000    0.000    0.000 
#
# Total GULP energy -89258.822257 kJ/mol
# GULP energy per Si atom -5578.676391 kJ/mol
# Density = 2.345754 g / cm^3
# Si number density = 23.511048 Si / 1000 Ang^3
#
#
#
# Elastic Constant Matrix: (Units=GPa)
#
#
# Indices 1 2 3 4 5 6 
#
# 1 75.2482 -2.2115 3.6688 0.0000 2.2306 0.0000
# 2 -2.2115 25.3280 -5.2419 0.0000 -6.3990 0.0000
# 3 3.6688 -5.2419 52.8599 0.0000 -4.4589 0.0000
# 4 0.0000 0.0000 0.0000 30.0210 0.0000 4.1295
# 5 2.2306 -6.3990 -4.4589 0.0000 25.5954 0.0000
# 6 0.0000 0.0000 0.0000 4.1295 0.0000 35.8265
#
#
#
# Elastic Compliance Matrix: (Units=1/GPa)
#
#
# Indices 1 2 3 4 5 6 
#
# 1 0.013391 0.000676 -0.000961 0.000000 -0.001165 0.000000
# 2 0.000676 0.043603 0.005269 0.000000 0.011760 0.000000
# 3 -0.000961 0.005269 0.019918 0.000000 0.004871 0.000000
# 4 0.000000 0.000000 0.000000 0.033847 0.000000 -0.003901
# 5 -0.001165 0.011760 0.004871 0.000000 0.042960 0.000000
# 6 0.000000 0.000000 0.000000 -0.003901 0.000000 0.028362
#
#
# Mechanical properties :
#
#
# Convention : Reuss Voigt Hill
#
# Bulk Modulus (GPa) = 11.51016 16.20743 13.85880
# Shear Modulus (GPa) = 24.86687 28.76998 26.81842
#
# Velocity S-wave (km/s) = 3.25571 3.50191 3.38105
# Velocity P-wave (km/s) = 4.36338 4.82283 4.59885
#
# Compressibility (1/GPa) = 0.08687973
#
# Stress axis : x y z
#
# Youngs Moduli (GPa) = 74.67921 22.93441 50.20593
#
# Poissons Ratio (x) = -0.01550 0.04823
# Poissons Ratio (y) = -0.05048 -0.26453
# Poissons Ratio (z) = 0.07174 -0.12084
#
# Static dielectric constant tensor:
#      x y z
#    x 1.860440 0.000000 -0.079050 
#    y 0.000000 1.905010 0.000000 
#    z -0.079050 0.000000 2.067620 
# 
# From -- ./inp_files/486.got.cif
#   From: 2010.05.17/outbox.cif.g08.bks.cpg/sg4_1_cif.got.tgz:486.got - 2010.06.03 18:43:04.
