data_PCOD9116189
_publ_section_title
;
Structure prediction by ZEFSAII (Michael W. Deem and Ramdas Pophale) SiO2 
 PCOD9116189
Probable space group: P 21
;
_chemical_formula_sum "Si O2"
_cell_formula_units_Z 14
_cell_length_a 12.545488
_cell_length_b 7.185436
_cell_length_c 7.663684
_cell_angle_alpha 90.000000
_cell_angle_beta 115.024742
_cell_angle_gamma 90.000000
_cell_volume 625.988686
_symmetry_space_group_name_H-M "P 21"
_symmetry_group_IT_number 4
_symmetry_cell_setting 'monoclinic'
loop_
_space_group_symop_operation_xyz
x,y,z
-x,1/2+y,-z
loop_
_atom_site_type_symbol
_atom_site_label
_atom_site_fract_x
_atom_site_fract_y
_atom_site_fract_z
Si Si1 0.627381 0.803200 0.654531
Si Si2 0.140769 0.516552 0.221300
Si Si3 0.947461 0.735748 0.540295
Si Si4 0.735572 0.523575 0.960040
Si Si5 0.808163 0.367840 0.370923
Si Si6 0.054910 0.282262 0.856616
Si Si7 0.356084 0.903954 0.445159
O O1 0.721106 0.966856 0.691242
O O2 0.652110 0.700910 0.857949
O O3 0.493471 0.860101 0.542306
O O4 0.654734 0.630016 0.543332
O O5 0.078592 0.711993 0.219333
O O6 0.089714 0.375577 0.333768
O O7 0.088734 0.453866 0.998688
O O8 0.089652 0.731605 0.627896
O O9 0.910787 0.801703 0.320982
O O10 0.884082 0.537430 0.508255
O O11 0.698401 0.377404 0.785703
O O12 0.737817 0.442421 0.153822
O O13 0.864817 0.609928 0.018840
O O14 0.713850 0.306024 0.448158
#
# Coordination Sequence:
#
# PCOD9116189 Si02
#       7
#     2   2   2   2   2   2   2
#     4   9  21  40  61  80 121 158 202 242 299 349
#     4  11  21  40  58  90 124 158 197 257 305 366
#     4  11  21  36  61  92 121 159 192 246 315 367
#     4   8  19  40  54  82 116 150 199 242 295 348
#     4  11  21  39  63  86 126 157 193 252 310 357
#     4  10  22  34  62  88 124 158 195 248 316 363
#     4  10  21  41  59  82 120 164 196 249 292 354
#
# _framework density 22.364619999999999
#
# number of rings (size 3 to 8) (size 9 to 14) (size 15 to 20)
#    0.857    1.143    4.286    0.000    4.000    1.143 
#    2.571    0.000    0.000    0.000    0.000    0.000 
#    0.000    0.000    0.000    0.000    0.000    0.000 
#
# Total GULP energy -78132.378430 kJ/mol
# GULP energy per Si atom -5580.884174 kJ/mol
# Density = 2.231372 g / cm^3
# Si number density = 22.364620 Si / 1000 Ang^3
#
#
#
# Elastic Constant Matrix: (Units=GPa)
#
#
# Indices 1 2 3 4 5 6 
#
# 1 94.9230 15.1760 35.8169 0.0000 17.2596 0.0000
# 2 15.1760 59.9953 26.0517 0.0000 -2.4338 0.0000
# 3 35.8169 26.0517 99.6660 0.0000 7.8907 0.0000
# 4 0.0000 0.0000 0.0000 35.2361 0.0000 4.7693
# 5 17.2596 -2.4338 7.8907 0.0000 36.9593 0.0000
# 6 0.0000 0.0000 0.0000 4.7693 0.0000 33.1489
#
#
#
# Elastic Compliance Matrix: (Units=1/GPa)
#
#
# Indices 1 2 3 4 5 6 
#
# 1 0.013293 -0.001919 -0.003839 0.000000 -0.005514 0.000000
# 2 -0.001919 0.019278 -0.004599 0.000000 0.003148 0.000000
# 3 -0.003839 -0.004599 0.012712 0.000000 -0.001224 0.000000
# 4 0.000000 0.000000 0.000000 0.028944 0.000000 -0.004164
# 5 -0.005514 0.003148 -0.001224 0.000000 0.030101 0.000000
# 6 0.000000 0.000000 0.000000 -0.004164 0.000000 0.030766
#
#
# Mechanical properties :
#
#
# Convention : Reuss Voigt Hill
#
# Bulk Modulus (GPa) = 40.70068 45.40818 43.05443
# Shear Modulus (GPa) = 30.48854 32.90485 31.69670
#
# Velocity S-wave (km/s) = 3.69623 3.83990 3.76875
# Velocity P-wave (km/s) = 6.03774 6.32514 6.18311
#
# Compressibility (1/GPa) = 0.02456961
#
# Stress axis : x y z
#
# Youngs Moduli (GPa) = 75.22845 51.87272 78.66597
#
# Poissons Ratio (x) = 0.09956 0.30198
# Poissons Ratio (y) = 0.14438 0.36175
# Poissons Ratio (z) = 0.28878 0.23854
#
# Static dielectric constant tensor:
#      x y z
#    x 1.792490 0.000000 0.013710 
#    y 0.000000 1.951230 0.000000 
#    z 0.013710 0.000000 1.854370 
# 
# From -- ./inp_files/7875.got.cif
#   From: 2010.05.17/outbox.cif.g08.bks.cpg/sg4_4_cif.got.tgz:7875.got - 2010.06.03 18:43:04.
