data_PCOD9116994
_publ_section_title
;
Structure prediction by ZEFSAII (Michael W. Deem and Ramdas Pophale) SiO2 
 PCOD9116994
Probable space group: P 21
;
_chemical_formula_sum "Si O2"
_cell_formula_units_Z 16
_cell_length_a 13.275438
_cell_length_b 8.543477
_cell_length_c 10.382012
_cell_angle_alpha 90.000000
_cell_angle_beta 148.155250
_cell_angle_gamma 90.000000
_cell_volume 621.277779
_symmetry_space_group_name_H-M "P 21"
_symmetry_group_IT_number 4
_symmetry_cell_setting 'monoclinic'
loop_
_space_group_symop_operation_xyz
x,y,z
-x,1/2+y,-z
loop_
_atom_site_type_symbol
_atom_site_label
_atom_site_fract_x
_atom_site_fract_y
_atom_site_fract_z
Si Si1 0.461078 0.662300 0.662038
Si Si2 0.887997 0.023887 0.840454
Si Si3 0.344475 0.995777 0.646847
Si Si4 0.370784 0.228096 0.435883
Si Si5 0.730174 0.049298 0.163801
Si Si6 0.214047 0.722102 0.026755
Si Si7 0.023186 0.810300 0.427010
Si Si8 0.830771 0.541952 0.060816
O O1 0.257200 0.582787 0.428261
O O2 0.428955 0.835136 0.678350
O O3 0.558511 0.663635 0.625524
O O4 0.626119 0.564811 0.908627
O O5 0.789989 0.858242 0.765922
O O6 0.871433 0.144134 0.939501
O O7 0.100099 0.026034 0.014849
O O8 0.146979 0.950109 0.499370
O O9 0.319143 0.114771 0.499464
O O10 0.501571 0.046181 0.923533
O O11 0.578566 0.293738 0.709648
O O12 0.829213 0.193198 0.343188
O O13 0.752872 0.083543 0.036238
O O14 0.850645 0.891728 0.318346
O O15 0.105910 0.863783 0.839074
O O16 0.932058 0.697978 0.220464
#
# Coordination Sequence:
#
# PCOD9116994 Si02
#       8
#     2   2   2   2   2   2   2   2
#     4  11  21  43  65 100 146 181 224 287 346 421
#     4  11  24  40  66 106 144 180 233 274 354 437
#     4  11  25  47  73 101 142 187 242 288 353 425
#     4  10  22  42  68  99 144 189 225 285 348 421
#     4  11  26  50  71  99 139 180 242 301 352 412
#     4  10  24  44  68 103 141 190 230 290 356 415
#     4  12  27  48  74 102 135 188 240 300 356 416
#     4  12  25  40  69 102 143 183 230 287 355 417
#
# _framework density 25.753374000000001
#
# number of rings (size 3 to 8) (size 9 to 14) (size 15 to 20)
#    0.000    1.000    3.750    3.000    5.250    1.000 
#    6.750    0.000    0.000    0.000    0.000    0.000 
#    0.000    0.000    0.000    0.000    0.000    0.000 
#
# Total GULP energy -89343.050750 kJ/mol
# GULP energy per Si atom -5583.940672 kJ/mol
# Density = 2.569476 g / cm^3
# Si number density = 25.753374 Si / 1000 Ang^3
#
#
#
# Elastic Constant Matrix: (Units=GPa)
#
#
# Indices 1 2 3 4 5 6 
#
# 1 47.4586 4.4811 24.5401 0.0000 9.8795 0.0000
# 2 4.4811 96.7660 12.5431 0.0000 5.3558 0.0000
# 3 24.5401 12.5431 43.0982 0.0000 25.8111 0.0000
# 4 0.0000 0.0000 0.0000 44.4963 0.0000 4.2557
# 5 9.8795 5.3558 25.8111 0.0000 27.2444 0.0000
# 6 0.0000 0.0000 0.0000 4.2557 0.0000 41.9279
#
#
#
# Elastic Compliance Matrix: (Units=1/GPa)
#
#
# Indices 1 2 3 4 5 6 
#
# 1 0.031866 0.001217 -0.026432 0.000000 0.013247 0.000000
# 2 0.001217 0.010832 -0.005330 0.000000 0.002479 0.000000
# 3 -0.026432 -0.005330 0.077289 0.000000 -0.062591 0.000000
# 4 0.000000 0.000000 0.000000 0.022694 0.000000 -0.002303
# 5 0.013247 0.002479 -0.062591 0.000000 0.090712 0.000000
# 6 0.000000 0.000000 0.000000 -0.002303 0.000000 0.024084
#
#
# Mechanical properties :
#
#
# Convention : Reuss Voigt Hill
#
# Bulk Modulus (GPa) = 16.97884 30.05017 23.51450
# Shear Modulus (GPa) = 14.78416 32.45094 23.61755
#
# Velocity S-wave (km/s) = 2.39857 3.55359 3.03160
# Velocity P-wave (km/s) = 3.77863 5.34145 4.62651
#
# Compressibility (1/GPa) = 0.05889683
#
# Stress axis : x y z
#
# Youngs Moduli (GPa) = 31.38130 92.32297 12.93837
#
# Poissons Ratio (x) = -0.11239 0.34199
# Poissons Ratio (y) = -0.03820 0.06896
# Poissons Ratio (z) = 0.82948 0.49210
#
# Static dielectric constant tensor:
#      x y z
#    x 2.009010 0.000000 -0.018700 
#    y 0.000000 2.062760 0.000000 
#    z -0.018700 0.000000 2.405410 
# 
# From -- ./inp_files/11843.got.cif
#   From: 2010.05.17/outbox.cif.g08.bks.cpg/sg4_6_cif.got.tgz:11843.got - 2010.06.03 18:43:04.
