data_PCOD9116384
_publ_section_title
;
Structure prediction by ZEFSAII (Michael W. Deem and Ramdas Pophale) SiO2 
 PCOD9116384
Probable space group: P 21
;
_chemical_formula_sum "Si O2"
_cell_formula_units_Z 14
_cell_length_a 7.255411
_cell_length_b 13.766816
_cell_length_c 7.217580
_cell_angle_alpha 90.000000
_cell_angle_beta 118.008795
_cell_angle_gamma 90.000000
_cell_volume 636.482705
_symmetry_space_group_name_H-M "P 21"
_symmetry_group_IT_number 4
_symmetry_cell_setting 'monoclinic'
loop_
_space_group_symop_operation_xyz
x,y,z
-x,1/2+y,-z
loop_
_atom_site_type_symbol
_atom_site_label
_atom_site_fract_x
_atom_site_fract_y
_atom_site_fract_z
Si Si1 0.804624 0.382810 0.513959
Si Si2 0.450272 0.244240 0.504152
Si Si3 0.999331 0.266199 0.269392
Si Si4 0.530154 0.099318 0.245282
Si Si5 0.553079 0.270648 0.957909
Si Si6 0.509953 0.474241 0.080740
Si Si7 0.101545 0.542744 0.777711
O O1 0.643626 0.313423 0.544116
O O2 0.948315 0.452687 0.703453
O O3 0.938288 0.314377 0.437797
O O4 0.667613 0.454980 0.319446
O O5 0.235368 0.293782 0.334492
O O6 0.472547 0.140496 0.414666
O O7 0.448620 0.232504 0.723650
O O8 0.001117 0.148355 0.264738
O O9 0.800611 0.292747 0.048487
O O10 0.755723 0.046979 0.343001
O O11 0.390574 0.028998 0.051849
O O12 0.546060 0.195437 0.123840
O O13 0.446961 0.368697 0.975350
O O14 0.292487 0.530533 0.014843
#
# Coordination Sequence:
#
# PCOD9116384 Si02
#       7
#     2   2   2   2   2   2   2
#     4  11  21  42  66  91 129 171 206 265 324 366
#     4  12  23  41  71  89 128 175 205 262 332 369
#     4  10  23  43  60  97 133 158 223 261 306 400
#     4   9  21  45  60  92 131 161 212 264 311 374
#     4  10  21  43  64  93 130 165 215 264 311 383
#     4   9  19  41  66  87 130 166 208 268 310 373
#     4   9  20  39  65  91 127 166 211 264 310 379
#
# _framework density 21.995884
#
# number of rings (size 3 to 8) (size 9 to 14) (size 15 to 20)
#    0.857    1.143    4.286    0.857    2.000    2.286 
#    5.143    1.429    0.000    0.000    0.000    0.000 
#    0.000    0.000    0.000    0.000    0.000    0.000 
#
# Total GULP energy -77970.069450 kJ/mol
# GULP energy per Si atom -5569.290675 kJ/mol
# Density = 2.194582 g / cm^3
# Si number density = 21.995884 Si / 1000 Ang^3
#
#
#
# Elastic Constant Matrix: (Units=GPa)
#
#
# Indices 1 2 3 4 5 6 
#
# 1 61.4056 9.0465 1.2904 0.0000 19.0772 0.0000
# 2 9.0465 77.1543 -5.6459 0.0000 8.4709 0.0000
# 3 1.2904 -5.6459 52.0493 0.0000 3.5803 0.0000
# 4 0.0000 0.0000 0.0000 33.7293 0.0000 11.3244
# 5 19.0772 8.4709 3.5803 0.0000 22.3233 0.0000
# 6 0.0000 0.0000 0.0000 11.3244 0.0000 19.2698
#
#
#
# Elastic Compliance Matrix: (Units=1/GPa)
#
#
# Indices 1 2 3 4 5 6 
#
# 1 0.022218 -0.000477 0.000699 0.000000 -0.018918 0.000000
# 2 -0.000477 0.013711 0.001849 0.000000 -0.005092 0.000000
# 3 0.000699 0.001849 0.019703 0.000000 -0.004459 0.000000
# 4 0.000000 0.000000 0.000000 0.036936 0.000000 -0.021706
# 5 -0.018918 -0.005092 -0.004459 0.000000 0.063611 0.000000
# 6 0.000000 0.000000 0.000000 -0.021706 0.000000 0.064651
#
#
# Mechanical properties :
#
#
# Convention : Reuss Voigt Hill
#
# Bulk Modulus (GPa) = 16.72953 22.22127 19.47540
# Shear Modulus (GPa) = 21.13165 27.45903 24.29534
#
# Velocity S-wave (km/s) = 3.10289 3.53706 3.32707
# Velocity P-wave (km/s) = 4.52322 5.17740 4.86133
#
# Compressibility (1/GPa) = 0.05977455
#
# Stress axis : x y z
#
# Youngs Moduli (GPa) = 45.00808 72.93231 50.75491
#
# Poissons Ratio (x) = 0.03478 -0.03547
# Poissons Ratio (y) = 0.02146 -0.09386
# Poissons Ratio (z) = -0.03145 -0.13488
#
# Static dielectric constant tensor:
#      x y z
#    x 1.868470 0.000000 -0.002480 
#    y 0.000000 1.840280 0.000000 
#    z -0.002480 0.000000 1.794300 
# 
# From -- ./inp_files/6659.got.cif
#   From: 2010.05.17/outbox.cif.g08.bks.cpg/sg4_4_cif.got.tgz:6659.got - 2010.06.03 18:43:04.
