data_PCOD9116354
_publ_section_title
;
Structure prediction by ZEFSAII (Michael W. Deem and Ramdas Pophale) SiO2 
 PCOD9116354
Probable space group: P 21
;
_chemical_formula_sum "Si O2"
_cell_formula_units_Z 14
_cell_length_a 8.565937
_cell_length_b 7.957727
_cell_length_c 11.986034
_cell_angle_alpha 90.000000
_cell_angle_beta 42.846014
_cell_angle_gamma 90.000000
_cell_volume 555.606998
_symmetry_space_group_name_H-M "P 21"
_symmetry_group_IT_number 4
_symmetry_cell_setting 'monoclinic'
loop_
_space_group_symop_operation_xyz
x,y,z
-x,1/2+y,-z
loop_
_atom_site_type_symbol
_atom_site_label
_atom_site_fract_x
_atom_site_fract_y
_atom_site_fract_z
Si Si1 0.621659 0.120270 0.379642
Si Si2 0.655846 0.663566 0.804827
Si Si3 0.863896 0.255372 0.464459
Si Si4 0.097187 0.106338 0.690849
Si Si5 0.072701 0.879072 0.912754
Si Si6 0.246218 0.891232 0.070275
Si Si7 0.574089 0.877428 0.214723
O O1 0.758903 0.134771 0.423251
O O2 0.355862 0.167033 0.533585
O O3 0.748815 0.248730 0.231606
O O4 0.617768 0.943169 0.317829
O O5 0.737159 0.561404 0.870029
O O6 0.493551 0.540880 0.820448
O O7 0.891817 0.699604 0.616110
O O8 0.503968 0.821283 0.918783
O O9 0.919271 0.436719 0.376671
O O10 0.656050 0.269108 0.660461
O O11 0.905591 0.250689 0.784894
O O12 0.082528 0.038521 0.825840
O O13 0.138091 0.915006 0.005250
O O14 0.812642 0.811613 0.044492
#
# Coordination Sequence:
#
# PCOD9116354 Si02
#       7
#     2   2   2   2   2   2   2
#     4  10  21  42  70  99 140 177 242 290 353 412
#     4  12  26  45  70 106 149 192 234 298 366 435
#     4  10  24  43  70 103 146 190 237 293 369 420
#     4  10  22  44  73 106 139 187 244 303 349 425
#     4  11  21  42  72  99 137 183 245 296 342 417
#     4  12  25  46  73 102 147 188 245 289 366 423
#     4  11  23  44  70 105 140 183 245 295 347 430
#
# _framework density 25.197668
#
# number of rings (size 3 to 8) (size 9 to 14) (size 15 to 20)
#    0.000    1.143    2.857    2.571    2.000    5.714 
#    5.143    0.000    0.000    0.000    0.000    0.000 
#    0.000    0.000    0.000    0.000    0.000    0.000 
#
# Total GULP energy -78468.945461 kJ/mol
# GULP energy per Si atom -5604.924676 kJ/mol
# Density = 2.514032 g / cm^3
# Si number density = 25.197668 Si / 1000 Ang^3
#
#
#
# Elastic Constant Matrix: (Units=GPa)
#
#
# Indices 1 2 3 4 5 6 
#
# 1 72.0301 25.5922 40.8997 0.0000 -21.7556 0.0000
# 2 25.5922 41.2720 16.6733 0.0000 -2.9460 0.0000
# 3 40.8997 16.6733 153.4539 0.0000 -42.0919 0.0000
# 4 0.0000 0.0000 0.0000 45.4156 0.0000 -8.7456
# 5 -21.7556 -2.9460 -42.0919 0.0000 49.2813 0.0000
# 6 0.0000 0.0000 0.0000 -8.7456 0.0000 39.9767
#
#
#
# Elastic Compliance Matrix: (Units=1/GPa)
#
#
# Indices 1 2 3 4 5 6 
#
# 1 0.021580 -0.011835 -0.002673 0.000000 0.006536 0.000000
# 2 -0.011835 0.031878 -0.001593 0.000000 -0.004679 0.000000
# 3 -0.002673 -0.001593 0.009210 0.000000 0.006591 0.000000
# 4 0.000000 0.000000 0.000000 0.022987 0.000000 0.005029
# 5 0.006536 -0.004679 0.006591 0.000000 0.028527 0.000000
# 6 0.000000 0.000000 0.000000 0.005029 0.000000 0.026115
#
#
# Mechanical properties :
#
#
# Convention : Reuss Voigt Hill
#
# Bulk Modulus (GPa) = 32.82331 48.12072 40.47201
# Shear Modulus (GPa) = 27.37422 39.17410 33.27416
#
# Velocity S-wave (km/s) = 3.29960 3.94721 3.63785
# Velocity P-wave (km/s) = 5.25082 6.31765 5.80878
#
# Compressibility (1/GPa) = 0.03046616
#
# Stress axis : x y z
#
# Youngs Moduli (GPa) = 46.33936 31.36991 108.57720
#
# Poissons Ratio (x) = 0.37126 0.29021
# Poissons Ratio (y) = 0.54843 0.17294
# Poissons Ratio (z) = 0.12386 0.04997
#
# Static dielectric constant tensor:
#      x y z
#    x 1.977030 0.000000 0.000810 
#    y 0.000000 2.018610 0.000000 
#    z 0.000810 0.000000 2.017110 
# 
# From -- ./inp_files/5361.got.cif
#   From: 2010.05.17/outbox.cif.g08.bks.cpg/sg4_3_cif.got.tgz:5361.got - 2010.06.03 18:43:04.
