data_PCOD9116985
_publ_section_title
;
Structure prediction by ZEFSAII (Michael W. Deem and Ramdas Pophale) SiO2 
 PCOD9116985
Probable space group: P 21
;
_chemical_formula_sum "Si O2"
_cell_formula_units_Z 16
_cell_length_a 11.525341
_cell_length_b 7.171213
_cell_length_c 16.766389
_cell_angle_alpha 90.000000
_cell_angle_beta 152.342696
_cell_angle_gamma 90.000000
_cell_volume 643.241957
_symmetry_space_group_name_H-M "P 21"
_symmetry_group_IT_number 4
_symmetry_cell_setting 'monoclinic'
loop_
_space_group_symop_operation_xyz
x,y,z
-x,1/2+y,-z
loop_
_atom_site_type_symbol
_atom_site_label
_atom_site_fract_x
_atom_site_fract_y
_atom_site_fract_z
Si Si1 0.278972 0.873800 0.508000
Si Si2 0.823643 0.939719 0.796539
Si Si3 0.099004 0.450710 0.856980
Si Si4 0.893822 0.362756 0.191908
Si Si5 0.835064 0.366933 0.848687
Si Si6 0.693118 0.813468 0.426993
Si Si7 0.352973 0.875655 0.806213
Si Si8 0.001445 0.189119 0.514975
O O1 0.549438 0.844502 0.630814
O O2 0.071729 0.853575 0.312992
O O3 0.171946 0.756564 0.517311
O O4 0.305653 0.088215 0.557227
O O5 0.005590 0.928254 0.831518
O O6 0.792215 0.160612 0.788776
O O7 0.961439 0.864849 0.958671
O O8 0.168088 0.647925 0.861894
O O9 0.933640 0.485450 0.834884
O O10 0.357375 0.353465 0.037990
O O11 0.672079 0.426096 0.115175
O O12 0.130167 0.384508 0.395000
O O13 0.569805 0.413778 0.724849
O O14 0.805997 0.842313 0.407874
O O15 0.192613 0.695104 0.679406
O O16 0.209405 0.042601 0.672771
#
# Coordination Sequence:
#
# PCOD9116985 Si02
#       8
#     2   2   2   2   2   2   2   2
#     4  10  22  42  68  94 135 179 223 287 337 405
#     4  11  24  43  67  99 139 178 236 283 351 407
#     4  11  25  45  69  98 137 180 231 286 348 409
#     4  10  24  45  65 102 137 175 231 290 340 410
#     4  11  24  42  68  98 138 183 230 285 343 414
#     4   9  21  43  65  96 133 179 223 280 344 399
#     4  11  26  44  72 102 139 185 231 282 350 410
#     4  11  22  44  68  99 140 181 231 281 341 412
#
# _framework density 24.873999000000001
#
# number of rings (size 3 to 8) (size 9 to 14) (size 15 to 20)
#    0.000    1.500    1.250    2.250    7.000    0.000 
#   13.500    1.250    0.000    0.000    0.000    0.000 
#    0.000    0.000    0.000    0.000    0.000    0.000 
#
# Total GULP energy -89319.257017 kJ/mol
# GULP energy per Si atom -5582.453564 kJ/mol
# Density = 2.481738 g / cm^3
# Si number density = 24.873999 Si / 1000 Ang^3
#
#
#
# Elastic Constant Matrix: (Units=GPa)
#
#
# Indices 1 2 3 4 5 6 
#
# 1 156.8119 1.3898 38.1614 0.0000 -4.4584 0.0000
# 2 1.3898 24.4345 19.2149 0.0000 -4.0684 0.0000
# 3 38.1614 19.2149 95.7349 0.0000 18.9363 0.0000
# 4 0.0000 0.0000 0.0000 26.5146 0.0000 -11.2966
# 5 -4.4584 -4.0684 18.9363 0.0000 44.0390 0.0000
# 6 0.0000 0.0000 0.0000 -11.2966 0.0000 51.0888
#
#
#
# Elastic Compliance Matrix: (Units=1/GPa)
#
#
# Indices 1 2 3 4 5 6 
#
# 1 0.007456 0.003373 -0.004219 0.000000 0.002880 0.000000
# 2 0.003373 0.054044 -0.014478 0.000000 0.011560 0.000000
# 3 -0.004219 -0.014478 0.016812 0.000000 -0.008994 0.000000
# 4 0.000000 0.000000 0.000000 0.041638 0.000000 0.009207
# 5 0.002880 0.011560 -0.008994 0.000000 0.027934 0.000000
# 6 0.000000 0.000000 0.000000 0.009207 0.000000 0.021610
#
#
# Mechanical properties :
#
#
# Convention : Reuss Voigt Hill
#
# Bulk Modulus (GPa) = 20.98014 43.83483 32.40749
# Shear Modulus (GPa) = 23.14506 38.87615 31.01061
#
# Velocity S-wave (km/s) = 3.05371 3.95767 3.53471
# Velocity P-wave (km/s) = 4.57016 6.20848 5.45122
#
# Compressibility (1/GPa) = 0.04766413
#
# Stress axis : x y z
#
# Youngs Moduli (GPa) = 134.12500 18.50339 59.48124
#
# Poissons Ratio (x) = -0.06241 0.25094
# Poissons Ratio (y) = -0.45242 0.86118
# Poissons Ratio (z) = 0.56584 0.26790
#
# Static dielectric constant tensor:
#      x y z
#    x 1.964480 0.000000 0.058560 
#    y 0.000000 2.185640 0.000000 
#    z 0.058560 0.000000 1.929660 
# 
# From -- ./inp_files/15187.got.cif
#   From: 2010.05.17/outbox.cif.g08.bks.cpg/sg4_8_cif.got.tgz:15187.got - 2010.06.03 18:43:04.
