data_PCOD9116934
_publ_section_title
;
Structure prediction by ZEFSAII (Michael W. Deem and Ramdas Pophale) SiO2 
 PCOD9116934
Probable space group: P 21
;
_chemical_formula_sum "Si O2"
_cell_formula_units_Z 14
_cell_length_a 5.407142
_cell_length_b 9.535899
_cell_length_c 14.805226
_cell_angle_alpha 90.000000
_cell_angle_beta 46.538597
_cell_angle_gamma 90.000000
_cell_volume 554.094843
_symmetry_space_group_name_H-M "P 21"
_symmetry_group_IT_number 4
_symmetry_cell_setting 'monoclinic'
loop_
_space_group_symop_operation_xyz
x,y,z
-x,1/2+y,-z
loop_
_atom_site_type_symbol
_atom_site_label
_atom_site_fract_x
_atom_site_fract_y
_atom_site_fract_z
Si Si1 0.246593 0.360560 0.372908
Si Si2 0.926452 0.063274 0.805558
Si Si3 0.375381 0.451428 0.693076
Si Si4 0.304879 0.056751 0.070535
Si Si5 0.591744 0.163967 0.717099
Si Si6 0.390482 0.882261 0.553701
Si Si7 0.656346 0.181255 0.157487
O O1 0.220753 0.531636 0.379832
O O2 0.343101 0.309399 0.447926
O O3 0.537333 0.329902 0.225339
O O4 0.903253 0.293653 0.420472
O O5 0.755442 0.167076 0.775127
O O6 0.187989 0.126651 0.812017
O O7 0.165581 0.968248 0.682465
O O8 0.609390 0.992682 0.935612
O O9 0.576977 0.314834 0.674777
O O10 0.431059 0.464132 0.572341
O O11 0.495021 0.578444 0.726319
O O12 0.971820 0.450417 0.818105
O O13 0.487136 0.141192 0.105708
O O14 0.058900 0.153943 0.069513
#
# Coordination Sequence:
#
# PCOD9116934 Si02
#       7
#     2   2   2   2   2   2   2
#     4  10  22  42  63  99 131 181 222 269 331 412
#     4  10  22  46  63 102 129 187 214 280 337 417
#     4  10  26  42  69 103 136 172 225 291 343 400
#     4  10  23  44  68  96 137 174 229 282 338 406
#     4  10  23  42  65  95 137 173 221 273 340 399
#     4  10  23  40  71  96 138 174 225 276 343 407
#     4  10  23  42  67  99 132 179 226 283 332 405
#
# _framework density 25.266434
#
# number of rings (size 3 to 8) (size 9 to 14) (size 15 to 20)
#    0.857    1.143    0.000    1.714    4.000    4.571 
#   15.429    0.000    0.000    0.000    0.000    0.000 
#    0.000    0.000    0.000    0.000    0.000    0.000 
#
# Total GULP energy -78091.262744 kJ/mol
# GULP energy per Si atom -5577.947339 kJ/mol
# Density = 2.520893 g / cm^3
# Si number density = 25.266434 Si / 1000 Ang^3
#
#
#
# Elastic Constant Matrix: (Units=GPa)
#
#
# Indices 1 2 3 4 5 6 
#
# 1 201.2251 18.0301 14.0944 0.0000 17.8925 0.0000
# 2 18.0301 72.4057 15.4504 0.0000 12.8623 0.0000
# 3 14.0944 15.4504 121.3412 0.0000 -1.9337 0.0000
# 4 0.0000 0.0000 0.0000 17.7364 0.0000 7.1650
# 5 17.8925 12.8623 -1.9337 0.0000 41.1864 0.0000
# 6 0.0000 0.0000 0.0000 7.1650 0.0000 28.2300
#
#
#
# Elastic Compliance Matrix: (Units=1/GPa)
#
#
# Indices 1 2 3 4 5 6 
#
# 1 0.005264 -0.000831 -0.000538 0.000000 -0.002053 0.000000
# 2 -0.000831 0.015223 -0.001913 0.000000 -0.004483 0.000000
# 3 -0.000538 -0.001913 0.008567 0.000000 0.001234 0.000000
# 4 0.000000 0.000000 0.000000 0.062822 0.000000 -0.015945
# 5 -0.002053 -0.004483 0.001234 0.000000 0.026629 0.000000
# 6 0.000000 0.000000 0.000000 -0.015945 0.000000 0.039470
#
#
# Mechanical properties :
#
#
# Convention : Reuss Voigt Hill
#
# Bulk Modulus (GPa) = 44.46785 54.45800 49.46292
# Shear Modulus (GPa) = 29.06339 40.59038 34.82688
#
# Velocity S-wave (km/s) = 3.39525 4.01246 3.71669
# Velocity P-wave (km/s) = 5.74527 6.56252 6.16745
#
# Compressibility (1/GPa) = 0.02248816
#
# Stress axis : x y z
#
# Youngs Moduli (GPa) = 189.95995 65.69167 116.72677
#
# Poissons Ratio (x) = 0.05462 0.06284
# Poissons Ratio (y) = 0.15793 0.22332
# Poissons Ratio (z) = 0.10226 0.12568
#
# Static dielectric constant tensor:
#      x y z
#    x 2.032990 0.000000 -0.140430 
#    y 0.000000 1.988770 0.000000 
#    z -0.140430 0.000000 1.753400 
# 
# From -- ./inp_files/13380.got.cif
#   From: 2010.05.17/outbox.cif.g08.bks.cpg/sg4_7_cif.got.tgz:13380.got - 2010.06.03 18:43:04.
