data_PCOD9116114
_publ_section_title
;
Structure prediction by ZEFSAII (Michael W. Deem and Ramdas Pophale) SiO2 
 PCOD9116114
Probable space group: P 21
;
_chemical_formula_sum "Si O2"
_cell_formula_units_Z 12
_cell_length_a 20.246734
_cell_length_b 4.854245
_cell_length_c 5.411895
_cell_angle_alpha 90.000000
_cell_angle_beta 125.136663
_cell_angle_gamma 90.000000
_cell_volume 434.974073
_symmetry_space_group_name_H-M "P 21"
_symmetry_group_IT_number 4
_symmetry_cell_setting 'monoclinic'
loop_
_space_group_symop_operation_xyz
x,y,z
-x,1/2+y,-z
loop_
_atom_site_type_symbol
_atom_site_label
_atom_site_fract_x
_atom_site_fract_y
_atom_site_fract_z
Si Si1 0.354939 0.001800 0.368198
Si Si2 0.021052 0.930501 0.890395
Si Si3 0.211260 0.736650 0.769804
Si Si4 0.516174 0.861736 0.863108
Si Si5 0.118563 0.237844 0.747246
Si Si6 0.679932 0.003414 0.365287
O O1 0.328097 0.291187 0.425264
O O2 0.450663 0.969593 0.524388
O O3 0.343405 0.797035 0.575240
O O4 0.294167 0.881386 0.037518
O O5 0.100834 0.080512 0.963575
O O6 0.970271 0.155131 0.934012
O O7 0.966169 0.843823 0.540928
O O8 0.174421 0.506371 0.872975
O O9 0.235397 0.556892 0.584347
O O10 0.151859 0.997400 0.639349
O O11 0.499883 0.558126 0.931155
O O12 0.611318 0.903474 0.020771
#
# Coordination Sequence:
#
# PCOD9116114 Si02
#       6
#     2   2   2   2   2   2
#     4  10  21  40  63  93 134 182 231 277 334 392
#     4  12  26  50  80 102 132 182 222 268 342 406
#     4  12  25  42  67 102 144 176 212 284 347 394
#     4   8  16  34  60  86 124 176 232 284 316 376
#     4  12  27  48  71 108 142 164 228 286 319 420
#     4  10  21  40  63  93 134 182 231 277 334 392
#
# _framework density 27.587848999999999
#
# number of rings (size 3 to 8) (size 9 to 14) (size 15 to 20)
#    0.000    1.333    0.000    6.000    0.000    5.333 
#    0.000   15.000    0.000    0.000    0.000    0.000 
#    0.000    0.000    0.000    0.000    0.000    0.000 
#
# Total GULP energy -67248.434678 kJ/mol
# GULP energy per Si atom -5604.036223 kJ/mol
# Density = 2.752506 g / cm^3
# Si number density = 27.587849 Si / 1000 Ang^3
#
#
#
# Elastic Constant Matrix: (Units=GPa)
#
#
# Indices 1 2 3 4 5 6 
#
# 1 102.9883 65.9647 8.1052 0.0000 -10.5964 0.0000
# 2 65.9647 183.2631 16.5424 0.0000 2.5148 0.0000
# 3 8.1052 16.5424 62.4627 0.0000 1.3066 0.0000
# 4 0.0000 0.0000 0.0000 44.6823 0.0000 5.5924
# 5 -10.5964 2.5148 1.3066 0.0000 26.9277 0.0000
# 6 0.0000 0.0000 0.0000 5.5924 0.0000 57.5637
#
#
#
# Elastic Compliance Matrix: (Units=1/GPa)
#
#
# Indices 1 2 3 4 5 6 
#
# 1 0.013475 -0.004877 -0.000578 0.000000 0.005786 0.000000
# 2 -0.004877 0.007361 -0.001263 0.000000 -0.002545 0.000000
# 3 -0.000578 -0.001263 0.016438 0.000000 -0.000907 0.000000
# 4 0.000000 0.000000 0.000000 0.022656 0.000000 -0.002201
# 5 0.005786 -0.002545 -0.000907 0.000000 0.039695 0.000000
# 6 0.000000 0.000000 0.000000 -0.002201 0.000000 0.017586
#
#
# Mechanical properties :
#
#
# Convention : Reuss Voigt Hill
#
# Bulk Modulus (GPa) = 41.95192 58.88209 50.41701
# Shear Modulus (GPa) = 36.07678 43.04152 39.55915
#
# Velocity S-wave (km/s) = 3.62014 3.95417 3.79084
# Velocity P-wave (km/s) = 5.71958 6.49901 6.12171
#
# Compressibility (1/GPa) = 0.02383681
#
# Stress axis : x y z
#
# Youngs Moduli (GPa) = 74.21358 135.84753 60.83433
#
# Poissons Ratio (x) = 0.66258 0.03515
# Poissons Ratio (y) = 0.36197 0.07686
# Poissons Ratio (z) = 0.04288 0.17163
#
# Static dielectric constant tensor:
#      x y z
#    x 2.192630 0.000000 0.080800 
#    y 0.000000 2.014390 0.000000 
#    z 0.080800 0.000000 2.164460 
# 
# From -- ./inp_files/4381.got.cif
#   From: 2010.05.17/outbox.cif.g08.bks.cpg/sg4_3_cif.got.tgz:4381.got - 2010.06.03 18:43:04.
