data_PCOD9116563
_publ_section_title
;
Structure prediction by ZEFSAII (Michael W. Deem and Ramdas Pophale) SiO2 
 PCOD9116563
Probable space group: P 21
;
_chemical_formula_sum "Si O2"
_cell_formula_units_Z 16
_cell_length_a 9.158473
_cell_length_b 7.863858
_cell_length_c 11.735610
_cell_angle_alpha 90.000000
_cell_angle_beta 118.434940
_cell_angle_gamma 90.000000
_cell_volume 743.242097
_symmetry_space_group_name_H-M "P 21"
_symmetry_group_IT_number 4
_symmetry_cell_setting 'monoclinic'
loop_
_space_group_symop_operation_xyz
x,y,z
-x,1/2+y,-z
loop_
_atom_site_type_symbol
_atom_site_label
_atom_site_fract_x
_atom_site_fract_y
_atom_site_fract_z
Si Si1 0.604058 0.130880 0.770181
Si Si2 0.547779 0.294919 0.194041
Si Si3 0.309142 0.674955 0.531573
Si Si4 0.736566 0.263201 0.039932
Si Si5 0.077385 0.551416 0.266867
Si Si6 0.925584 0.673746 0.815795
Si Si7 0.200361 0.134918 0.991092
Si Si8 0.618389 0.444611 0.619267
O O1 0.781966 0.100172 0.774822
O O2 0.550038 0.298287 0.679870
O O3 0.511836 0.950704 0.748148
O O4 0.612147 0.179918 0.905826
O O5 0.656470 0.182279 0.321786
O O6 0.659850 0.334879 0.127060
O O7 0.386542 0.203048 0.078798
O O8 0.142430 0.598171 0.416131
O O9 0.465349 0.568672 0.541103
O O10 0.322400 0.855503 0.473691
O O11 0.880715 0.125138 0.117974
O O12 0.799646 0.430069 0.996368
O O13 0.072730 0.347595 0.255579
O O14 0.910606 0.648460 0.164409
O O15 0.894470 0.713865 0.936923
O O16 0.777010 0.548522 0.726128
#
# Coordination Sequence:
#
# PCOD9116563 Si02
#       8
#     2   2   2   2   2   2   2   2
#     4  11  20  35  63  94 124 168 220 272 320 377
#     4  12  24  41  61  96 139 176 209 266 340 403
#     4  11  22  38  60  94 132 168 215 272 327 394
#     4  11  24  38  63  98 135 168 215 275 334 393
#     4  10  22  35  65  96 120 165 223 277 319 375
#     4  11  20  40  66  94 125 165 225 279 317 376
#     4  11  21  42  64  94 126 168 223 275 322 380
#     4  11  21  37  64  96 125 168 228 278 317 380
#
# _framework density 21.527304999999998
#
# number of rings (size 3 to 8) (size 9 to 14) (size 15 to 20)
#    0.000    1.000    5.000    3.000    0.000    2.000 
#    0.000    2.500    0.000    3.000    0.000    0.000 
#    0.000    0.000    0.000    0.000    0.000    0.000 
#
# Total GULP energy -89146.259308 kJ/mol
# GULP energy per Si atom -5571.641207 kJ/mol
# Density = 2.147831 g / cm^3
# Si number density = 21.527305 Si / 1000 Ang^3
#
#
#
# Elastic Constant Matrix: (Units=GPa)
#
#
# Indices 1 2 3 4 5 6 
#
# 1 31.9788 1.2957 34.3468 0.0000 5.4999 0.0000
# 2 1.2957 59.7058 40.4238 0.0000 13.3453 0.0000
# 3 34.3468 40.4238 154.4964 0.0000 22.2038 0.0000
# 4 0.0000 0.0000 0.0000 14.9554 0.0000 -4.1386
# 5 5.4999 13.3453 22.2038 0.0000 24.4984 0.0000
# 6 0.0000 0.0000 0.0000 -4.1386 0.0000 10.6905
#
#
#
# Elastic Compliance Matrix: (Units=1/GPa)
#
#
# Indices 1 2 3 4 5 6 
#
# 1 0.043501 0.007387 -0.011063 0.000000 -0.003763 0.000000
# 2 0.007387 0.022777 -0.006416 0.000000 -0.008251 0.000000
# 3 -0.011063 -0.006416 0.011212 0.000000 -0.004183 0.000000
# 4 0.000000 0.000000 0.000000 0.074888 0.000000 0.028991
# 5 -0.003763 -0.008251 -0.004183 0.000000 0.049950 0.000000
# 6 0.000000 0.000000 0.000000 0.028991 0.000000 0.104764
#
#
# Mechanical properties :
#
#
# Convention : Reuss Voigt Hill
#
# Bulk Modulus (GPa) = 17.45016 44.25708 30.85362
# Shear Modulus (GPa) = 14.43516 21.36984 17.90250
#
# Velocity S-wave (km/s) = 2.59231 3.15411 2.88691
# Velocity P-wave (km/s) = 4.13325 5.81960 5.04735
#
# Compressibility (1/GPa) = 0.05730607
#
# Stress axis : x y z
#
# Youngs Moduli (GPa) = 22.98820 43.90468 89.19023
#
# Poissons Ratio (x) = -0.32433 0.98669
# Poissons Ratio (y) = -0.16982 0.57224
# Poissons Ratio (z) = 0.25431 0.28169
#
# Static dielectric constant tensor:
#      x y z
#    x 1.781540 0.000000 0.059410 
#    y 0.000000 1.835200 0.000000 
#    z 0.059410 0.000000 1.852350 
# 
# From -- ./inp_files/10976.got.cif
#   From: 2010.05.17/outbox.cif.g08.bks.cpg/sg4_6_cif.got.tgz:10976.got - 2010.06.03 18:43:04.
