data_PCOD9116880
_publ_section_title
;
Structure prediction by ZEFSAII (Michael W. Deem and Ramdas Pophale) SiO2 
 PCOD9116880
Probable space group: P 21
;
_chemical_formula_sum "Si O2"
_cell_formula_units_Z 16
_cell_length_a 6.880439
_cell_length_b 13.219827
_cell_length_c 9.601667
_cell_angle_alpha 90.000000
_cell_angle_beta 55.657066
_cell_angle_gamma 90.000000
_cell_volume 721.104343
_symmetry_space_group_name_H-M "P 21"
_symmetry_group_IT_number 4
_symmetry_cell_setting 'monoclinic'
loop_
_space_group_symop_operation_xyz
x,y,z
-x,1/2+y,-z
loop_
_atom_site_type_symbol
_atom_site_label
_atom_site_fract_x
_atom_site_fract_y
_atom_site_fract_z
Si Si1 0.123565 0.611050 0.500239
Si Si2 0.762135 0.073031 0.237766
Si Si3 0.874709 0.176874 0.913553
Si Si4 0.624810 0.720152 0.305599
Si Si5 0.656613 0.722039 0.591770
Si Si6 0.195065 0.380138 0.975387
Si Si7 0.658469 0.006530 0.827508
Si Si8 0.306998 0.862012 0.898026
O O1 0.106778 0.576137 0.667422
O O2 0.374129 0.668895 0.389568
O O3 0.164847 0.519683 0.373880
O O4 0.911286 0.684565 0.540009
O O5 0.500520 0.119654 0.362187
O O6 0.769063 0.966554 0.156831
O O7 0.865407 0.148221 0.079598
O O8 0.141258 0.152310 0.763754
O O9 0.694580 0.108419 0.901243
O O10 0.803837 0.294713 0.931306
O O11 0.633378 0.777160 0.451150
O O12 0.686056 0.783967 0.144023
O O13 0.523353 0.796159 0.752008
O O14 0.293508 0.418271 0.080750
O O15 0.917078 0.367493 0.111367
O O16 0.398871 0.975201 0.884512
#
# Coordination Sequence:
#
# PCOD9116880 Si02
#       8
#     2   2   2   2   2   2   2   2
#     4  11  24  41  67  93 129 178 213 264 333 386
#     4   9  22  41  65  92 129 170 210 268 325 382
#     4   9  20  45  64  92 136 165 220 273 320 382
#     4  10  22  41  67  89 131 174 209 267 334 381
#     4  10  22  44  61  98 132 169 211 271 326 389
#     4  10  24  43  64  96 127 168 222 271 320 388
#     4  11  24  38  67 100 126 170 219 270 318 388
#     4  10  24  41  69  94 130 170 220 272 322 384
#
# _framework density 22.188191
#
# number of rings (size 3 to 8) (size 9 to 14) (size 15 to 20)
#    0.000    2.000    1.250    0.000    7.000    7.000 
#    2.250    0.000    0.000    0.000    0.000    0.000 
#    0.000    0.000    0.000    0.000    0.000    0.000 
#
# Total GULP energy -89170.284928 kJ/mol
# GULP energy per Si atom -5573.142808 kJ/mol
# Density = 2.213769 g / cm^3
# Si number density = 22.188191 Si / 1000 Ang^3
#
#
#
# Elastic Constant Matrix: (Units=GPa)
#
#
# Indices 1 2 3 4 5 6 
#
# 1 77.6419 10.0661 40.9084 0.0000 -4.0812 0.0000
# 2 10.0661 38.3118 9.5320 0.0000 -0.9103 0.0000
# 3 40.9084 9.5320 94.8280 0.0000 11.1878 0.0000
# 4 0.0000 0.0000 0.0000 37.5089 0.0000 -1.7008
# 5 -4.0812 -0.9103 11.1878 0.0000 48.0129 0.0000
# 6 0.0000 0.0000 0.0000 -1.7008 0.0000 29.4123
#
#
#
# Elastic Compliance Matrix: (Units=1/GPa)
#
#
# Indices 1 2 3 4 5 6 
#
# 1 0.017402 -0.002599 -0.007624 0.000000 0.003207 0.000000
# 2 -0.002599 0.027223 -0.001697 0.000000 0.000691 0.000000
# 3 -0.007624 -0.001697 0.014483 0.000000 -0.004055 0.000000
# 4 0.000000 0.000000 0.000000 0.026730 0.000000 0.001546
# 5 0.003207 0.000691 -0.004055 0.000000 0.022058 0.000000
# 6 0.000000 0.000000 0.000000 0.001546 0.000000 0.034089
#
#
# Mechanical properties :
#
#
# Convention : Reuss Voigt Hill
#
# Bulk Modulus (GPa) = 28.35387 36.86610 32.60999
# Shear Modulus (GPa) = 28.15589 33.00518 30.58053
#
# Velocity S-wave (km/s) = 3.56611 3.86101 3.71649
# Velocity P-wave (km/s) = 5.45552 6.04382 5.75719
#
# Compressibility (1/GPa) = 0.03526855
#
# Stress axis : x y z
#
# Youngs Moduli (GPa) = 57.46361 36.73361 69.04415
#
# Poissons Ratio (x) = 0.09548 0.52642
# Poissons Ratio (y) = 0.14936 0.11714
# Poissons Ratio (z) = 0.43812 0.06232
#
# Static dielectric constant tensor:
#      x y z
#    x 1.822560 0.000000 0.010810 
#    y 0.000000 1.873170 0.000000 
#    z 0.010810 0.000000 1.882600 
# 
# From -- ./inp_files/1796.got.cif
#   From: 2010.05.17/outbox.cif.g08.bks.cpg/sg4_1_cif.got.tgz:1796.got - 2010.06.03 18:43:04.
