data_PCOD9116199
_publ_section_title
;
Structure prediction by ZEFSAII (Michael W. Deem and Ramdas Pophale) SiO2 
 PCOD9116199
Probable space group: P 21
;
_chemical_formula_sum "Si O2"
_cell_formula_units_Z 16
_cell_length_a 18.274872
_cell_length_b 9.422327
_cell_length_c 8.343673
_cell_angle_alpha 90.000000
_cell_angle_beta 34.038695
_cell_angle_gamma 90.000000
_cell_volume 804.203512
_symmetry_space_group_name_H-M "P 21"
_symmetry_group_IT_number 4
_symmetry_cell_setting 'monoclinic'
loop_
_space_group_symop_operation_xyz
x,y,z
-x,1/2+y,-z
loop_
_atom_site_type_symbol
_atom_site_label
_atom_site_fract_x
_atom_site_fract_y
_atom_site_fract_z
Si Si1 0.785259 0.405090 0.680768
Si Si2 0.393899 0.575545 0.364935
Si Si3 0.930822 0.402612 0.737957
Si Si4 0.785024 0.334086 0.331850
Si Si5 0.481827 0.015940 0.198153
Si Si6 0.500001 0.817800 0.702520
Si Si7 0.852007 0.680118 0.724102
Si Si8 0.572698 0.779559 0.238271
O O1 0.845986 0.347442 0.737765
O O2 0.841444 0.353632 0.408921
O O3 0.810881 0.573947 0.653164
O O4 0.633000 0.362870 0.966984
O O5 0.266736 0.672924 0.591088
O O6 0.384150 0.413081 0.435720
O O7 0.492178 0.649480 0.312052
O O8 0.464726 0.575154 0.065615
O O9 0.928942 0.571754 0.702863
O O10 0.064096 0.314728 0.480572
O O11 0.869397 0.372918 0.023156
O O12 0.656033 0.435084 0.563620
O O13 0.474983 0.152142 0.323080
O O14 0.581390 0.898908 0.086251
O O15 0.489998 0.846531 0.532457
O O16 0.713793 0.732267 0.043059
#
# Coordination Sequence:
#
# PCOD9116199 Si02
#       8
#     2   2   2   2   2   2   2   2
#     4  10  21  41  63  86 127 158 202 269 308 371
#     4  11  20  37  57  94 131 156 201 253 321 384
#     4  10  24  44  67  87 121 172 220 270 309 361
#     4  11  21  42  66  91 129 169 204 258 320 384
#     4  11  21  34  61  94 129 159 198 252 324 386
#     4  12  20  36  61  95 128 159 203 256 317 391
#     4  10  23  46  62  88 128 164 222 271 306 368
#     4  11  22  36  63  91 123 169 206 251 325 381
#
# _framework density 19.895462999999999
#
# number of rings (size 3 to 8) (size 9 to 14) (size 15 to 20)
#    0.750    0.500    3.750    3.750    0.000    2.000 
#    2.250    0.000    0.000    0.000    0.000    0.000 
#    0.000    0.000    0.000    0.000    0.000    0.000 
#
# Total GULP energy -89167.146334 kJ/mol
# GULP energy per Si atom -5572.946646 kJ/mol
# Density = 1.985018 g / cm^3
# Si number density = 19.895463 Si / 1000 Ang^3
#
#
#
# Elastic Constant Matrix: (Units=GPa)
#
#
# Indices 1 2 3 4 5 6 
#
# 1 50.6796 5.1414 27.6667 0.0000 23.6850 0.0000
# 2 5.1414 74.5834 11.9264 0.0000 -6.2790 0.0000
# 3 27.6667 11.9264 76.7804 0.0000 23.6547 0.0000
# 4 0.0000 0.0000 0.0000 23.7289 0.0000 -0.1961
# 5 23.6850 -6.2790 23.6547 0.0000 29.5982 0.0000
# 6 0.0000 0.0000 0.0000 -0.1961 0.0000 38.9058
#
#
#
# Elastic Compliance Matrix: (Units=1/GPa)
#
#
# Indices 1 2 3 4 5 6 
#
# 1 0.033830 -0.003769 -0.004004 0.000000 -0.024671 0.000000
# 2 -0.003769 0.015063 -0.003841 0.000000 0.009281 0.000000
# 3 -0.004004 -0.003841 0.019008 0.000000 -0.012801 0.000000
# 4 0.000000 0.000000 0.000000 0.042144 0.000000 0.000212
# 5 -0.024671 0.009281 -0.012801 0.000000 0.065728 0.000000
# 6 0.000000 0.000000 0.000000 0.000212 0.000000 0.025704
#
#
# Mechanical properties :
#
#
# Convention : Reuss Voigt Hill
#
# Bulk Modulus (GPa) = 22.38504 32.39028 27.38766
# Shear Modulus (GPa) = 20.86847 28.93384 24.90116
#
# Velocity S-wave (km/s) = 3.24220 3.81766 3.54163
# Velocity P-wave (km/s) = 5.02907 5.97898 5.52448
#
# Compressibility (1/GPa) = 0.04467269
#
# Stress axis : x y z
#
# Youngs Moduli (GPa) = 29.55962 66.38697 52.61077
#
# Poissons Ratio (x) = 0.25020 0.21066
# Poissons Ratio (y) = 0.11140 0.20209
# Poissons Ratio (z) = 0.11836 0.25500
#
# Static dielectric constant tensor:
#      x y z
#    x 1.753160 0.000000 0.007320 
#    y 0.000000 1.714520 0.000000 
#    z 0.007320 0.000000 1.677820 
# 
# From -- ./inp_files/7846.got.cif
#   From: 2010.05.17/outbox.cif.g08.bks.cpg/sg4_4_cif.got.tgz:7846.got - 2010.06.03 18:43:04.
