data_PCOD9116092
_publ_section_title
;
Structure prediction by ZEFSAII (Michael W. Deem and Ramdas Pophale) SiO2 
 PCOD9116092
Probable space group: P 21
;
_chemical_formula_sum "Si O2"
_cell_formula_units_Z 16
_cell_length_a 5.329397
_cell_length_b 6.933841
_cell_length_c 16.557074
_cell_angle_alpha 90.000000
_cell_angle_beta 90.228012
_cell_angle_gamma 90.000000
_cell_volume 611.831880
_symmetry_space_group_name_H-M "P 21"
_symmetry_group_IT_number 4
_symmetry_cell_setting 'monoclinic'
loop_
_space_group_symop_operation_xyz
x,y,z
-x,1/2+y,-z
loop_
_atom_site_type_symbol
_atom_site_label
_atom_site_fract_x
_atom_site_fract_y
_atom_site_fract_z
Si Si1 0.712031 0.449880 0.065073
Si Si2 0.482489 0.383286 0.383850
Si Si3 0.190630 0.330553 0.826726
Si Si4 0.524598 0.440111 0.568791
Si Si5 0.972473 0.883016 0.345934
Si Si6 0.692439 0.386001 0.884811
Si Si7 0.982873 0.339632 0.300116
Si Si8 0.208702 0.422771 0.125550
O O1 0.758993 0.650100 0.113270
O O2 0.487700 0.342170 0.111914
O O3 0.992585 0.363727 0.062177
O O4 0.619363 0.457330 0.973271
O O5 0.545770 0.458322 0.472880
O O6 0.480058 0.153577 0.395699
O O7 0.201937 0.430754 0.355580
O O8 0.705964 0.418851 0.320647
O O9 0.084899 0.278631 0.738669
O O10 0.466447 0.424048 0.822377
O O11 0.967805 0.460786 0.862226
O O12 0.260213 0.349310 0.594549
O O13 0.765820 0.342353 0.609655
O O14 0.974912 0.110579 0.320526
O O15 0.740331 0.153465 0.883594
O O16 0.085483 0.373264 0.210596
#
# Coordination Sequence:
#
# PCOD9116092 Si02
#       8
#     2   2   2   2   2   2   2   2
#     4  10  21  40  61  85 126 160 203 271 320 379
#     4  10  21  40  63  94 127 167 210 258 321 381
#     4  10  21  40  61  90 120 165 213 257 320 382
#     4  10  21  40  63  94 127 167 210 258 321 381
#     4  10  21  40  63  88 129 166 209 263 317 379
#     4  10  21  40  61  85 126 160 203 271 320 379
#     4  10  21  40  63  88 129 166 209 263 317 379
#     4  10  21  40  61  90 120 165 213 257 320 382
#
# _framework density 26.150974000000001
#
# number of rings (size 3 to 8) (size 9 to 14) (size 15 to 20)
#    0.000    2.000    0.000    3.000    0.000    0.000 
#   27.000    0.000    0.000    0.000    0.000    0.000 
#    0.000    0.000    0.000    0.000    0.000    0.000 
#
# Total GULP energy -89518.791712 kJ/mol
# GULP energy per Si atom -5594.924482 kJ/mol
# Density = 2.609145 g / cm^3
# Si number density = 26.150974 Si / 1000 Ang^3
#
#
#
# Elastic Constant Matrix: (Units=GPa)
#
#
# Indices 1 2 3 4 5 6 
#
# 1 227.6744 3.1537 43.6381 0.0000 -0.8899 0.0000
# 2 3.1537 103.7604 11.5195 0.0000 -2.3555 0.0000
# 3 43.6381 11.5195 129.3559 0.0000 -0.0425 0.0000
# 4 0.0000 0.0000 0.0000 14.8771 0.0000 2.2392
# 5 -0.8899 -2.3555 -0.0425 0.0000 52.4801 0.0000
# 6 0.0000 0.0000 0.0000 2.2392 0.0000 -18.6277
#
#
#
# Elastic Compliance Matrix: (Units=1/GPa)
#
#
# Indices 1 2 3 4 5 6 
#
# 1 0.004696 0.000035 -0.001587 0.000000 0.000080 0.000000
# 2 0.000035 0.009744 -0.000880 0.000000 0.000437 0.000000
# 3 -0.001587 -0.000880 0.008344 0.000000 -0.000060 0.000000
# 4 0.000000 0.000000 0.000000 0.066023 0.000000 0.007936
# 5 0.000080 0.000437 -0.000060 0.000000 0.019076 0.000000
# 6 0.000000 0.000000 0.000000 0.007936 0.000000 -0.052729
#
#
# Mechanical properties :
#
#
# Convention : Reuss Voigt Hill
#
# Bulk Modulus (GPa) = 55.79861 64.15705 59.97783
# Shear Modulus (GPa) = 75.76785 36.57786 56.17286
#
# Velocity S-wave (km/s) = 5.38852 3.74400 4.63970
# Velocity P-wave (km/s) = 7.75231 6.57850 7.18940
#
# Compressibility (1/GPa) = 0.01792159
#
# Stress axis : x y z
#
# Youngs Moduli (GPa) = 212.93278 102.62641 119.84051
#
# Poissons Ratio (x) = -0.00362 0.19024
# Poissons Ratio (y) = -0.00752 0.10540
# Poissons Ratio (z) = 0.33801 0.09026
#
# Static dielectric constant tensor:
#      x y z
#    x 2.149340 0.000000 -0.013210 
#    y 0.000000 2.209140 0.000000 
#    z -0.013210 0.000000 2.093720 
# 
# From -- ./inp_files/13263.got.cif
#   From: 2010.05.17/outbox.cif.g08.bks.cpg/sg4_7_cif.got.tgz:13263.got - 2010.06.03 18:43:04.
