data_PCOD9116466
_publ_section_title
;
Structure prediction by ZEFSAII (Michael W. Deem and Ramdas Pophale) SiO2 
 PCOD9116466
Probable space group: P 21
;
_chemical_formula_sum "Si O2"
_cell_formula_units_Z 16
_cell_length_a 5.483349
_cell_length_b 7.808384
_cell_length_c 15.816185
_cell_angle_alpha 90.000000
_cell_angle_beta 63.290064
_cell_angle_gamma 90.000000
_cell_volume 604.926959
_symmetry_space_group_name_H-M "P 21"
_symmetry_group_IT_number 4
_symmetry_cell_setting 'monoclinic'
loop_
_space_group_symop_operation_xyz
x,y,z
-x,1/2+y,-z
loop_
_atom_site_type_symbol
_atom_site_label
_atom_site_fract_x
_atom_site_fract_y
_atom_site_fract_z
Si Si1 0.492275 0.119190 0.987398
Si Si2 0.708640 0.920802 0.694545
Si Si3 0.343763 0.269929 0.604621
Si Si4 0.394264 0.073087 0.326874
Si Si5 0.204995 0.146660 0.796791
Si Si6 0.421526 0.414260 0.873726
Si Si7 0.809002 0.848644 0.862619
Si Si8 0.154284 0.512579 0.498920
O O1 0.210511 0.183407 0.075276
O O2 0.650267 0.063253 0.048760
O O3 0.567624 0.270910 0.910331
O O4 0.522053 0.948600 0.926540
O O5 0.507859 0.769638 0.690823
O O6 0.832333 0.836738 0.758895
O O7 0.912966 0.972652 0.588207
O O8 0.519754 0.083184 0.744674
O O9 0.457405 0.440791 0.633988
O O10 0.146671 0.192354 0.707803
O O11 0.219693 0.336222 0.537226
O O12 0.584996 0.136858 0.547059
O O13 0.413993 0.993379 0.230116
O O14 0.088239 0.086578 0.408335
O O15 0.188627 0.305799 0.862529
O O16 0.029045 0.988284 0.854502
#
# Coordination Sequence:
#
# PCOD9116466 Si02
#       8
#     2   2   2   2   2   2   2   2
#     4  10  22  44  71  97 141 177 236 286 347 419
#     4  11  23  43  66 101 141 173 232 287 339 428
#     4  10  24  41  62 103 135 175 239 279 333 432
#     4  11  23  41  68  97 137 185 222 282 353 409
#     4  10  24  43  71 100 141 179 231 291 350 411
#     4  10  21  44  67 105 138 180 234 290 341 425
#     4  11  23  45  71 101 136 186 224 289 350 413
#     4  11  24  41  68  96 137 183 222 284 347 413
#
# _framework density 26.449472
#
# number of rings (size 3 to 8) (size 9 to 14) (size 15 to 20)
#    0.000    1.500    2.500    1.500    1.750    6.000 
#    4.500    1.250    0.000    0.000    0.000    0.000 
#    0.000    0.000    0.000    0.000    0.000    0.000 
#
# Total GULP energy -89414.411687 kJ/mol
# GULP energy per Si atom -5588.400730 kJ/mol
# Density = 2.638927 g / cm^3
# Si number density = 26.449472 Si / 1000 Ang^3
#
#
#
# Elastic Constant Matrix: (Units=GPa)
#
#
# Indices 1 2 3 4 5 6 
#
# 1 45.0718 15.6086 42.1640 0.0000 8.1387 0.0000
# 2 15.6086 88.9921 32.4123 0.0000 0.8588 0.0000
# 3 42.1640 32.4123 213.9841 0.0000 26.5293 0.0000
# 4 0.0000 0.0000 0.0000 62.8310 0.0000 5.2843
# 5 8.1387 0.8588 26.5293 0.0000 25.7315 0.0000
# 6 0.0000 0.0000 0.0000 5.2843 0.0000 40.4818
#
#
#
# Elastic Compliance Matrix: (Units=1/GPa)
#
#
# Indices 1 2 3 4 5 6 
#
# 1 0.028347 -0.003265 -0.004578 0.000000 -0.004137 0.000000
# 2 -0.003265 0.012332 -0.001492 0.000000 0.002160 0.000000
# 3 -0.004578 -0.001492 0.006439 0.000000 -0.005140 0.000000
# 4 0.000000 0.000000 0.000000 0.016092 0.000000 -0.002101
# 5 -0.004137 0.002160 -0.005140 0.000000 0.045399 0.000000
# 6 0.000000 0.000000 0.000000 -0.002101 0.000000 0.024977
#
#
# Mechanical properties :
#
#
# Convention : Reuss Voigt Hill
#
# Bulk Modulus (GPa) = 35.15219 58.71307 46.93263
# Shear Modulus (GPa) = 30.91391 42.99973 36.95682
#
# Velocity S-wave (km/s) = 3.42247 4.03641 3.74205
# Velocity P-wave (km/s) = 5.37930 6.63098 6.03766
#
# Compressibility (1/GPa) = 0.02844773
#
# Stress axis : x y z
#
# Youngs Moduli (GPa) = 35.27685 81.08813 155.31025
#
# Poissons Ratio (x) = 0.26471 0.71105
# Poissons Ratio (y) = 0.11516 0.23180
# Poissons Ratio (z) = 0.16151 0.12102
#
# Static dielectric constant tensor:
#      x y z
#    x 2.093740 0.000000 0.006870 
#    y 0.000000 2.142170 0.000000 
#    z 0.006870 0.000000 2.069690 
# 
# From -- ./inp_files/13332.got.cif
#   From: 2010.05.17/outbox.cif.g08.bks.cpg/sg4_7_cif.got.tgz:13332.got - 2010.06.03 18:43:04.
