data_PCOD9116556
_publ_section_title
;
Structure prediction by ZEFSAII (Michael W. Deem and Ramdas Pophale) SiO2 
 PCOD9116556
Probable space group: P 21
;
_chemical_formula_sum "Si O2"
_cell_formula_units_Z 16
_cell_length_a 18.247136
_cell_length_b 5.470656
_cell_length_c 12.724452
_cell_angle_alpha 90.000000
_cell_angle_beta 143.723954
_cell_angle_gamma 90.000000
_cell_volume 751.548989
_symmetry_space_group_name_H-M "P 21"
_symmetry_group_IT_number 4
_symmetry_cell_setting 'monoclinic'
loop_
_space_group_symop_operation_xyz
x,y,z
-x,1/2+y,-z
loop_
_atom_site_type_symbol
_atom_site_label
_atom_site_fract_x
_atom_site_fract_y
_atom_site_fract_z
Si Si1 0.376290 0.069020 0.098040
Si Si2 0.491107 0.970127 0.426254
Si Si3 0.289021 0.550187 0.484976
Si Si4 0.149858 0.898636 0.730717
Si Si5 0.487698 0.557853 0.135546
Si Si6 0.708403 0.034743 0.263188
Si Si7 0.228547 0.042765 0.463939
Si Si8 0.935226 0.654569 0.552075
O O1 0.370861 0.016006 0.215351
O O2 0.444314 0.326773 0.155869
O O3 0.435057 0.819783 0.114807
O O4 0.243023 0.087949 0.890250
O O5 0.505877 0.201087 0.520511
O O6 0.598519 0.990633 0.462124
O O7 0.315483 0.590483 0.641518
O O8 0.205535 0.308175 0.387065
O O9 0.239399 0.816858 0.398043
O O10 0.229783 0.736702 0.741531
O O11 0.068992 0.768048 0.726279
O O12 0.048211 0.017408 0.538247
O O13 0.636387 0.575120 0.321101
O O14 0.423744 0.492491 0.948797
O O15 0.816347 0.830797 0.394970
O O16 0.117685 0.989335 0.416242
#
# Coordination Sequence:
#
# PCOD9116556 Si02
#       8
#     2   2   2   2   2   2   2   2
#     4  11  23  39  61  90 124 170 208 260 316 380
#     4  12  24  42  64  87 120 161 207 272 339 391
#     4  11  22  37  56  88 120 155 209 247 315 380
#     4  11  21  37  56  88 134 176 215 248 295 377
#     4  11  20  36  58  89 129 163 206 247 307 384
#     4  10  22  33  56  84 126 173 205 246 299 373
#     4  11  21  35  56  85 124 164 209 248 301 372
#     4  11  21  35  55  87 133 180 213 242 294 367
#
# _framework density 21.289363000000002
#
# number of rings (size 3 to 8) (size 9 to 14) (size 15 to 20)
#    0.000    1.000    6.250    1.500    0.000    3.000 
#    0.000    0.000    0.000    0.000    0.000   10.500 
#    0.000    0.000    0.000    0.000    0.000    0.000 
#
# Total GULP energy -89131.799904 kJ/mol
# GULP energy per Si atom -5570.737494 kJ/mol
# Density = 2.124091 g / cm^3
# Si number density = 21.289363 Si / 1000 Ang^3
#
#
#
# Elastic Constant Matrix: (Units=GPa)
#
#
# Indices 1 2 3 4 5 6 
#
# 1 81.5431 7.5139 19.4019 0.0000 10.4401 0.0000
# 2 7.5139 97.4569 4.4755 0.0000 3.0296 0.0000
# 3 19.4019 4.4755 13.1777 0.0000 0.7417 0.0000
# 4 0.0000 0.0000 0.0000 22.8186 0.0000 -1.1143
# 5 10.4401 3.0296 0.7417 0.0000 24.9583 0.0000
# 6 0.0000 0.0000 0.0000 -1.1143 0.0000 45.3308
#
#
#
# Elastic Compliance Matrix: (Units=1/GPa)
#
#
# Indices 1 2 3 4 5 6 
#
# 1 0.020214 0.000025 -0.029344 0.000000 -0.007587 0.000000
# 2 0.000025 0.010457 -0.003522 0.000000 -0.001175 0.000000
# 3 -0.029344 -0.003522 0.119771 0.000000 0.009143 0.000000
# 4 0.000000 0.000000 0.000000 0.043877 0.000000 0.001079
# 5 -0.007587 -0.001175 0.009143 0.000000 0.043111 0.000000
# 6 0.000000 0.000000 0.000000 0.001079 0.000000 0.022087
#
#
# Mechanical properties :
#
#
# Convention : Reuss Voigt Hill
#
# Bulk Modulus (GPa) = 11.79790 28.32892 20.06341
# Shear Modulus (GPa) = 14.14619 29.34062 21.74341
#
# Velocity S-wave (km/s) = 2.58053 3.71642 3.19929
# Velocity P-wave (km/s) = 3.79902 5.63482 4.80540
#
# Compressibility (1/GPa) = 0.08476083
#
# Stress axis : x y z
#
# Youngs Moduli (GPa) = 49.46988 95.62693 8.34929
#
# Poissons Ratio (x) = -0.00238 0.24500
# Poissons Ratio (y) = -0.00123 0.02941
# Poissons Ratio (z) = 1.45162 0.33681
#
# Static dielectric constant tensor:
#      x y z
#    x 1.780910 0.000000 0.014220 
#    y 0.000000 1.921860 0.000000 
#    z 0.014220 0.000000 1.823200 
# 
# From -- ./inp_files/12821.got.cif
#   From: 2010.05.17/outbox.cif.g08.bks.cpg/sg4_7_cif.got.tgz:12821.got - 2010.06.03 18:43:04.
