data_PCOD9116398
_publ_section_title
;
Structure prediction by ZEFSAII (Michael W. Deem and Ramdas Pophale) SiO2 
 PCOD9116398
Probable space group: P 21
;
_chemical_formula_sum "Si O2"
_cell_formula_units_Z 12
_cell_length_a 12.167037
_cell_length_b 11.396390
_cell_length_c 7.971614
_cell_angle_alpha 90.000000
_cell_angle_beta 30.656259
_cell_angle_gamma 90.000000
_cell_volume 563.601016
_symmetry_space_group_name_H-M "P 21"
_symmetry_group_IT_number 4
_symmetry_cell_setting 'monoclinic'
loop_
_space_group_symop_operation_xyz
x,y,z
-x,1/2+y,-z
loop_
_atom_site_type_symbol
_atom_site_label
_atom_site_fract_x
_atom_site_fract_y
_atom_site_fract_z
Si Si1 0.713107 0.176610 0.491829
Si Si2 0.132683 0.293929 0.537501
Si Si3 0.477953 0.949548 0.838631
Si Si4 0.051990 0.849569 0.568833
Si Si5 0.306130 0.888993 0.710724
Si Si6 0.943535 0.550392 0.196144
O O1 0.850555 0.241549 0.454466
O O2 0.615609 0.278067 0.500940
O O3 0.542290 0.084078 0.784349
O O4 0.878940 0.101032 0.162930
O O5 0.339216 0.364798 0.328003
O O6 0.134944 0.158806 0.589198
O O7 0.099625 0.309600 0.382594
O O8 0.923100 0.348893 0.906800
O O9 0.452149 0.926747 0.673730
O O10 0.254961 0.915042 0.217695
O O11 0.959548 0.945040 0.819365
O O12 0.249832 0.993522 0.657303
#
# Coordination Sequence:
#
# PCOD9116398 Si02
#       6
#     2   2   2   2   2   2
#     4  10  22  44  65  90 127 165 208 260 309 371
#     4  10  22  40  64  90 125 171 202 254 320 358
#     4  11  23  40  65  91 128 163 209 255 319 358
#     4  10  25  43  61  97 127 158 217 257 303 385
#     4   9  21  42  61  96 123 159 216 255 295 384
#     4  10  21  43  66  86 130 166 206 259 310 364
#
# _framework density 21.291657000000001
#
# number of rings (size 3 to 8) (size 9 to 14) (size 15 to 20)
#    0.000    2.000    1.667    0.000    7.000    0.000 
#    6.000    0.000    0.000    0.000    0.000    0.000 
#    0.000    0.000    0.000    0.000    0.000    0.000 
#
# Total GULP energy -67122.694556 kJ/mol
# GULP energy per Si atom -5593.557880 kJ/mol
# Density = 2.124320 g / cm^3
# Si number density = 21.291657 Si / 1000 Ang^3
#
#
#
# Elastic Constant Matrix: (Units=GPa)
#
#
# Indices 1 2 3 4 5 6 
#
# 1 171.5501 84.2647 13.7058 0.0000 7.4864 0.0000
# 2 84.2647 144.1441 28.7155 0.0000 -0.7835 0.0000
# 3 13.7058 28.7155 51.6082 0.0000 6.4603 0.0000
# 4 0.0000 0.0000 0.0000 33.2921 0.0000 14.8056
# 5 7.4864 -0.7835 6.4603 0.0000 19.1340 0.0000
# 6 0.0000 0.0000 0.0000 14.8056 0.0000 27.4895
#
#
#
# Elastic Compliance Matrix: (Units=1/GPa)
#
#
# Indices 1 2 3 4 5 6 
#
# 1 0.008459 -0.005192 0.001131 0.000000 -0.003904 0.000000
# 2 -0.005192 0.011053 -0.005306 0.000000 0.004276 0.000000
# 3 0.001131 -0.005306 0.023087 0.000000 -0.008455 0.000000
# 4 0.000000 0.000000 0.000000 0.039498 0.000000 -0.021273
# 5 -0.003904 0.004276 -0.008455 0.000000 0.056820 0.000000
# 6 0.000000 0.000000 0.000000 -0.021273 0.000000 0.047835
#
#
# Mechanical properties :
#
#
# Convention : Reuss Voigt Hill
#
# Bulk Modulus (GPa) = 41.90217 68.96383 55.43300
# Shear Modulus (GPa) = 23.42555 32.02422 27.72489
#
# Velocity S-wave (km/s) = 3.32056 3.88245 3.61244
# Velocity P-wave (km/s) = 5.86722 7.24971 6.59479
#
# Compressibility (1/GPa) = 0.02386512
#
# Stress axis : x y z
#
# Youngs Moduli (GPa) = 118.21169 90.47417 43.31381
#
# Poissons Ratio (x) = 0.46972 -0.04898
# Poissons Ratio (y) = 0.61373 0.22984
# Poissons Ratio (z) = -0.13368 0.48009
#
# Static dielectric constant tensor:
#      x y z
#    x 1.745650 0.000000 0.028520 
#    y 0.000000 1.744600 0.000000 
#    z 0.028520 0.000000 1.799150 
# 
# From -- ./inp_files/1073.got.cif
#   From: 2010.05.17/outbox.cif.g08.bks.cpg/sg4_1_cif.got.tgz:1073.got - 2010.06.03 18:43:04.
