data_PCOD9116337
_publ_section_title
;
Structure prediction by ZEFSAII (Michael W. Deem and Ramdas Pophale) SiO2 
 PCOD9116337
Probable space group: P 21
;
_chemical_formula_sum "Si O2"
_cell_formula_units_Z 14
_cell_length_a 11.442011
_cell_length_b 10.287533
_cell_length_c 7.385313
_cell_angle_alpha 90.000000
_cell_angle_beta 35.992721
_cell_angle_gamma 90.000000
_cell_volume 510.887460
_symmetry_space_group_name_H-M "P 21"
_symmetry_group_IT_number 4
_symmetry_cell_setting 'monoclinic'
loop_
_space_group_symop_operation_xyz
x,y,z
-x,1/2+y,-z
loop_
_atom_site_type_symbol
_atom_site_label
_atom_site_fract_x
_atom_site_fract_y
_atom_site_fract_z
Si Si1 0.268236 0.557420 0.221571
Si Si2 0.657550 0.486975 0.415441
Si Si3 0.927247 0.424421 0.769368
Si Si4 0.099986 0.649341 0.093212
Si Si5 0.652832 0.761272 0.239605
Si Si6 0.704493 0.619092 0.790483
Si Si7 0.882028 0.265041 0.310997
O O1 0.499559 0.574685 0.957854
O O2 0.162523 0.434566 0.447216
O O3 0.205927 0.547504 0.090620
O O4 0.164929 0.677114 0.456950
O O5 0.593892 0.635810 0.440425
O O6 0.491075 0.384668 0.550406
O O7 0.859915 0.484657 0.041819
O O8 0.747348 0.394264 0.465759
O O9 0.841428 0.282907 0.882438
O O10 0.818771 0.506068 0.753522
O O11 0.158411 0.673941 0.814401
O O12 0.862358 0.650533 0.432482
O O13 0.651268 0.715561 0.027325
O O14 0.883565 0.794900 0.989793
#
# Coordination Sequence:
#
# PCOD9116337 Si02
#       7
#     2   2   2   2   2   2   2
#     4  11  21  44  68  91 137 177 225 285 343 409
#     4  10  22  39  68 105 132 187 233 280 350 410
#     4   9  21  42  66  94 137 181 222 287 351 405
#     4  10  23  41  63  98 129 174 228 275 342 411
#     4  11  22  42  69 102 139 179 237 282 348 415
#     4  10  21  42  68  91 132 182 222 281 352 398
#     4  11  22  42  70  93 140 180 227 286 346 404
#
# _framework density 27.403296000000001
#
# number of rings (size 3 to 8) (size 9 to 14) (size 15 to 20)
#    0.000    1.714    5.714    0.000    0.000    9.143 
#    5.143    7.143    0.000    0.000    0.000    0.000 
#    0.000    0.000    0.000    0.000    0.000    0.000 
#
# Total GULP energy -78239.622726 kJ/mol
# GULP energy per Si atom -5588.544480 kJ/mol
# Density = 2.734093 g / cm^3
# Si number density = 27.403296 Si / 1000 Ang^3
#
#
#
# Elastic Constant Matrix: (Units=GPa)
#
#
# Indices 1 2 3 4 5 6 
#
# 1 121.5823 24.6373 35.7728 0.0000 -2.3144 0.0000
# 2 24.6373 129.5648 23.5754 0.0000 0.6830 0.0000
# 3 35.7728 23.5754 131.9875 0.0000 -8.4532 0.0000
# 4 0.0000 0.0000 0.0000 53.5636 0.0000 6.9763
# 5 -2.3144 0.6830 -8.4532 0.0000 65.8688 0.0000
# 6 0.0000 0.0000 0.0000 6.9763 0.0000 16.4834
#
#
#
# Elastic Compliance Matrix: (Units=1/GPa)
#
#
# Indices 1 2 3 4 5 6 
#
# 1 0.009155 -0.001334 -0.002240 0.000000 0.000048 0.000000
# 2 -0.001334 0.008176 -0.001117 0.000000 -0.000275 0.000000
# 3 -0.002240 -0.001117 0.008448 0.000000 0.001017 0.000000
# 4 0.000000 0.000000 0.000000 0.019759 0.000000 -0.008362
# 5 0.000048 -0.000275 0.001017 0.000000 0.015317 0.000000
# 6 0.000000 0.000000 0.000000 -0.008362 0.000000 0.064206
#
#
# Mechanical properties :
#
#
# Convention : Reuss Voigt Hill
#
# Bulk Modulus (GPa) = 60.97853 61.23395 61.10624
# Shear Modulus (GPa) = 35.73777 47.12643 41.43210
#
# Velocity S-wave (km/s) = 3.61521 4.15147 3.89258
# Velocity P-wave (km/s) = 6.30293 6.73599 6.52305
#
# Compressibility (1/GPa) = 0.01639922
#
# Stress axis : x y z
#
# Youngs Moduli (GPa) = 109.22865 122.30392 118.36860
#
# Poissons Ratio (x) = 0.16310 0.26515
# Poissons Ratio (y) = 0.14566 0.13217
# Poissons Ratio (z) = 0.24468 0.13657
#
# Static dielectric constant tensor:
#      x y z
#    x 2.168720 0.000000 0.032790 
#    y 0.000000 2.284600 0.000000 
#    z 0.032790 0.000000 2.185430 
# 
# From -- ./inp_files/8133.got.cif
#   From: 2010.05.17/outbox.cif.g08.bks.cpg/sg4_5_cif.got.tgz:8133.got - 2010.06.03 18:43:04.
