data_PCOD9116475
_publ_section_title
;
Structure prediction by ZEFSAII (Michael W. Deem and Ramdas Pophale) SiO2 
 PCOD9116475
Probable space group: P 21
;
_chemical_formula_sum "Si O2"
_cell_formula_units_Z 14
_cell_length_a 8.678834
_cell_length_b 7.429452
_cell_length_c 17.698091
_cell_angle_alpha 90.000000
_cell_angle_beta 147.971038
_cell_angle_gamma 90.000000
_cell_volume 605.209053
_symmetry_space_group_name_H-M "P 21"
_symmetry_group_IT_number 4
_symmetry_cell_setting 'monoclinic'
loop_
_space_group_symop_operation_xyz
x,y,z
-x,1/2+y,-z
loop_
_atom_site_type_symbol
_atom_site_label
_atom_site_fract_x
_atom_site_fract_y
_atom_site_fract_z
Si Si1 0.985143 0.146350 0.581772
Si Si2 0.779545 0.504190 0.470233
Si Si3 0.695720 0.249452 0.021152
Si Si4 0.154724 0.009870 0.807750
Si Si5 0.337394 0.484541 0.767603
Si Si6 0.829278 0.171970 0.816070
Si Si7 0.110485 0.062841 0.084928
O O1 0.259331 0.286692 0.699723
O O2 0.727850 0.291810 0.464166
O O3 0.044444 0.021213 0.535560
O O4 0.976678 0.045450 0.657600
O O5 0.493231 0.619444 0.344029
O O6 0.015224 0.565853 0.631218
O O7 0.504435 0.419486 0.911462
O O8 0.477476 0.083967 0.927101
O O9 0.813028 0.306426 0.151078
O O10 0.962882 0.206152 0.078089
O O11 0.021842 0.121211 0.823044
O O12 0.565876 0.594244 0.812824
O O13 0.874498 0.376376 0.862553
O O14 0.914134 0.062296 0.927418
#
# Coordination Sequence:
#
# PCOD9116475 Si02
#       7
#     2   2   2   2   2   2   2
#     4   9  21  43  68  94 143 183 234 287 350 419
#     4  10  21  44  69  95 139 191 238 287 340 434
#     4  11  22  43  68 103 146 181 231 300 353 420
#     4  11  23  42  63 105 143 184 229 292 369 412
#     4   9  20  41  68  98 134 179 237 278 347 404
#     4  12  22  39  70 106 141 188 236 296 349 422
#     4  12  21  42  72 107 140 184 247 288 346 425
#
# _framework density 23.132503
#
# number of rings (size 3 to 8) (size 9 to 14) (size 15 to 20)
#    0.857    0.571    4.286    1.714    0.000    2.286 
#    2.571    2.857    0.000    0.000    0.000    0.000 
#    0.000    0.000    0.000    0.000    0.000    0.000 
#
# Total GULP energy -78080.822201 kJ/mol
# GULP energy per Si atom -5577.201586 kJ/mol
# Density = 2.307985 g / cm^3
# Si number density = 23.132503 Si / 1000 Ang^3
#
#
#
# Elastic Constant Matrix: (Units=GPa)
#
#
# Indices 1 2 3 4 5 6 
#
# 1 23.1411 4.0428 16.6204 0.0000 -4.9334 0.0000
# 2 4.0428 60.8963 40.5896 0.0000 -11.2045 0.0000
# 3 16.6204 40.5896 121.8002 0.0000 -2.1503 0.0000
# 4 0.0000 0.0000 0.0000 29.8846 0.0000 -14.1694
# 5 -4.9334 -11.2045 -2.1503 0.0000 41.0736 0.0000
# 6 0.0000 0.0000 0.0000 -14.1694 0.0000 37.9137
#
#
#
# Elastic Compliance Matrix: (Units=1/GPa)
#
#
# Indices 1 2 3 4 5 6 
#
# 1 0.049535 0.002973 -0.007638 0.000000 0.006361 0.000000
# 2 0.002973 0.022555 -0.007814 0.000000 0.006101 0.000000
# 3 -0.007638 -0.007814 0.011814 0.000000 -0.002431 0.000000
# 4 0.000000 0.000000 0.000000 0.040668 0.000000 0.015199
# 5 0.006361 0.006101 -0.002431 0.000000 0.026648 0.000000
# 6 0.000000 0.000000 0.000000 0.015199 0.000000 0.032056
#
#
# Mechanical properties :
#
#
# Convention : Reuss Voigt Hill
#
# Bulk Modulus (GPa) = 16.96493 36.48258 26.72375
# Shear Modulus (GPa) = 21.94108 31.41337 26.67722
#
# Velocity S-wave (km/s) = 3.08311 3.68907 3.39962
# Velocity P-wave (km/s) = 4.47479 5.82675 5.19494
#
# Compressibility (1/GPa) = 0.05894513
#
# Stress axis : x y z
#
# Youngs Moduli (GPa) = 20.18759 44.33600 84.64828
#
# Poissons Ratio (x) = -0.13180 0.64652
# Poissons Ratio (y) = -0.06001 0.66147
# Poissons Ratio (z) = 0.15419 0.34646
#
# Static dielectric constant tensor:
#      x y z
#    x 1.840150 0.000000 0.004220 
#    y 0.000000 1.926780 0.000000 
#    z 0.004220 0.000000 1.913290 
# 
# From -- ./inp_files/14899.got.cif
#   From: 2010.05.17/outbox.cif.g08.bks.cpg/sg4_8_cif.got.tgz:14899.got - 2010.06.03 18:43:04.
