data_PCOD9116635
_publ_section_title
;
Structure prediction by ZEFSAII (Michael W. Deem and Ramdas Pophale) SiO2 
 PCOD9116635
Probable space group: P 21
;
_chemical_formula_sum "Si O2"
_cell_formula_units_Z 16
_cell_length_a 6.944680
_cell_length_b 8.036879
_cell_length_c 14.482173
_cell_angle_alpha 90.000000
_cell_angle_beta 56.727316
_cell_angle_gamma 90.000000
_cell_volume 675.795863
_symmetry_space_group_name_H-M "P 21"
_symmetry_group_IT_number 4
_symmetry_cell_setting 'monoclinic'
loop_
_space_group_symop_operation_xyz
x,y,z
-x,1/2+y,-z
loop_
_atom_site_type_symbol
_atom_site_label
_atom_site_fract_x
_atom_site_fract_y
_atom_site_fract_z
Si Si1 0.744896 0.692800 0.125224
Si Si2 0.675315 0.551306 0.955695
Si Si3 0.961401 0.864958 0.566925
Si Si4 0.868213 0.941449 0.240997
Si Si5 0.113358 0.218985 0.603879
Si Si6 0.270640 0.696846 0.955821
Si Si7 0.563581 0.368285 0.263833
Si Si8 0.355560 0.703720 0.574537
O O1 0.753672 0.863905 0.179683
O O2 0.604377 0.555236 0.218944
O O3 0.658387 0.685100 0.043098
O O4 0.013343 0.638054 0.045387
O O5 0.463961 0.575367 0.943237
O O6 0.917178 0.559378 0.838718
O O7 0.687088 0.372838 0.002956
O O8 0.158905 0.744198 0.553325
O O9 0.953942 0.851562 0.458077
O O10 0.704563 0.818610 0.667032
O O11 0.011845 0.046283 0.594509
O O12 0.962662 0.785502 0.276662
O O13 0.695483 0.037081 0.354057
O O14 0.389664 0.199438 0.532889
O O15 0.303858 0.746213 0.840644
O O16 0.648939 0.345305 0.345247
#
# Coordination Sequence:
#
# PCOD9116635 Si02
#       8
#     2   2   2   2   2   2   2   2
#     4  10  23  42  61  92 129 166 216 267 321 385
#     4  10  23  40  62  91 126 167 213 268 325 382
#     4  11  24  43  66  94 133 168 214 270 318 386
#     4  11  23  41  67  95 127 173 217 264 328 385
#     4  11  25  43  65  96 130 172 216 265 324 382
#     4  10  22  39  60  89 124 164 212 267 322 382
#     4  10  23  40  63  91 123 170 212 259 325 378
#     4  11  23  42  66  94 130 168 212 266 321 384
#
# _framework density 23.675791
#
# number of rings (size 3 to 8) (size 9 to 14) (size 15 to 20)
#    0.000    1.500    0.000    3.750    0.000   16.000 
#    0.000    2.500    0.000    0.000    0.000    0.000 
#    0.000    0.000    0.000    0.000    0.000    0.000 
#
# Total GULP energy -89601.183825 kJ/mol
# GULP energy per Si atom -5600.073989 kJ/mol
# Density = 2.362190 g / cm^3
# Si number density = 23.675791 Si / 1000 Ang^3
#
#
#
# Elastic Constant Matrix: (Units=GPa)
#
#
# Indices 1 2 3 4 5 6 
#
# 1 117.1973 15.7265 28.8733 0.0000 3.0362 0.0000
# 2 15.7265 64.8171 3.2298 0.0000 9.5953 0.0000
# 3 28.8733 3.2298 69.6735 0.0000 12.1279 0.0000
# 4 0.0000 0.0000 0.0000 22.4462 0.0000 -2.5065
# 5 3.0362 9.5953 12.1279 0.0000 24.1603 0.0000
# 6 0.0000 0.0000 0.0000 -2.5065 0.0000 40.3683
#
#
#
# Elastic Compliance Matrix: (Units=1/GPa)
#
#
# Indices 1 2 3 4 5 6 
#
# 1 0.009875 -0.002463 -0.004309 0.000000 0.001900 0.000000
# 2 -0.002463 0.017016 0.001484 0.000000 -0.007194 0.000000
# 3 -0.004309 0.001484 0.017617 0.000000 -0.008891 0.000000
# 4 0.000000 0.000000 0.000000 0.044862 0.000000 0.002786
# 5 0.001900 -0.007194 -0.008891 0.000000 0.048472 0.000000
# 6 0.000000 0.000000 0.000000 0.002786 0.000000 0.024945
#
#
# Mechanical properties :
#
#
# Convention : Reuss Voigt Hill
#
# Bulk Modulus (GPa) = 29.46931 38.59411 34.03171
# Shear Modulus (GPa) = 27.07469 30.98553 29.03011
#
# Velocity S-wave (km/s) = 3.38532 3.62158 3.50544
# Velocity P-wave (km/s) = 5.26826 5.81586 5.54882
#
# Compressibility (1/GPa) = 0.03393361
#
# Stress axis : x y z
#
# Youngs Moduli (GPa) = 101.26127 58.76654 56.76255
#
# Poissons Ratio (x) = 0.14472 0.24459
# Poissons Ratio (y) = 0.24937 -0.08423
# Poissons Ratio (z) = 0.43634 -0.08720
#
# Static dielectric constant tensor:
#      x y z
#    x 1.846260 0.000000 0.023970 
#    y 0.000000 1.964240 0.000000 
#    z 0.023970 0.000000 1.868100 
# 
# From -- ./inp_files/2677.got.cif
#   From: 2010.05.17/outbox.cif.g08.bks.cpg/sg4_2_cif.got.tgz:2677.got - 2010.06.03 18:43:04.
