data_PCOD9116645
_publ_section_title
;
Structure prediction by ZEFSAII (Michael W. Deem and Ramdas Pophale) SiO2 
 PCOD9116645
Probable space group: P 21
;
_chemical_formula_sum "Si O2"
_cell_formula_units_Z 16
_cell_length_a 11.074295
_cell_length_b 5.292324
_cell_length_c 19.738532
_cell_angle_alpha 90.000000
_cell_angle_beta 147.744609
_cell_angle_gamma 90.000000
_cell_volume 617.404449
_symmetry_space_group_name_H-M "P 21"
_symmetry_group_IT_number 4
_symmetry_cell_setting 'monoclinic'
loop_
_space_group_symop_operation_xyz
x,y,z
-x,1/2+y,-z
loop_
_atom_site_type_symbol
_atom_site_label
_atom_site_fract_x
_atom_site_fract_y
_atom_site_fract_z
Si Si1 0.366590 0.756420 0.961043
Si Si2 0.289294 0.325494 0.197481
Si Si3 0.964674 0.518301 0.695960
Si Si4 0.643348 0.815092 0.452521
Si Si5 0.948300 0.681043 0.376695
Si Si6 0.171699 0.552933 0.005033
Si Si7 0.272497 0.913633 0.626093
Si Si8 0.149753 0.728614 0.231599
O O1 0.308117 0.711458 0.013101
O O2 0.122248 0.718916 0.808951
O O3 0.520474 0.521345 0.006911
O O4 0.535205 0.208410 0.301103
O O5 0.065668 0.168132 0.083012
O O6 0.241740 0.466782 0.245736
O O7 0.295591 0.509762 0.134526
O O8 0.106983 0.398422 0.701831
O O9 0.920712 0.288028 0.726181
O O10 0.733442 0.631917 0.556185
O O11 0.832710 0.030732 0.545011
O O12 0.381549 0.893882 0.334708
O O13 0.666418 0.640713 0.396547
O O14 0.758424 0.488960 0.310860
O O15 0.034028 0.811223 0.486249
O O16 0.069311 0.308337 0.916759
#
# Coordination Sequence:
#
# PCOD9116645 Si02
#       8
#     2   2   2   2   2   2   2   2
#     4  11  29  51  75 109 150 200 249 309 376 449
#     4  11  23  42  69 100 137 184 242 300 378 429
#     4  10  26  41  67 101 138 189 239 302 366 448
#     4  10  22  40  65  95 134 178 233 289 372 427
#     4  11  21  41  65  95 138 180 234 298 368 442
#     4  11  24  44  73 104 143 188 244 311 364 455
#     4  10  22  39  62  99 134 179 228 300 361 442
#     4  10  23  44  64 101 138 180 235 303 365 440
#
# _framework density 25.914940999999999
#
# number of rings (size 3 to 8) (size 9 to 14) (size 15 to 20)
#    0.000    1.500    2.500    0.750    8.750    1.000 
#    2.250    0.000    0.000    0.000    0.000    0.000 
#    0.000    0.000    0.000    0.000    0.000    0.000 
#
# Total GULP energy -89384.350639 kJ/mol
# GULP energy per Si atom -5586.521915 kJ/mol
# Density = 2.585596 g / cm^3
# Si number density = 25.914941 Si / 1000 Ang^3
#
#
#
# Elastic Constant Matrix: (Units=GPa)
#
#
# Indices 1 2 3 4 5 6 
#
# 1 85.9462 4.3800 24.4824 0.0000 7.1264 0.0000
# 2 4.3800 59.7494 -1.1491 0.0000 -0.6747 0.0000
# 3 24.4824 -1.1491 81.9423 0.0000 -4.4107 0.0000
# 4 0.0000 0.0000 0.0000 29.3146 0.0000 11.4307
# 5 7.1264 -0.6747 -4.4107 0.0000 41.5489 0.0000
# 6 0.0000 0.0000 0.0000 11.4307 0.0000 34.1363
#
#
#
# Elastic Compliance Matrix: (Units=1/GPa)
#
#
# Indices 1 2 3 4 5 6 
#
# 1 0.013071 -0.001067 -0.004065 0.000000 -0.002691 0.000000
# 2 -0.001067 0.016832 0.000583 0.000000 0.000518 0.000000
# 3 -0.004065 0.000583 0.013542 0.000000 0.002144 0.000000
# 4 0.000000 0.000000 0.000000 0.039236 0.000000 -0.013138
# 5 -0.002691 0.000518 0.002144 0.000000 0.024766 0.000000
# 6 0.000000 0.000000 0.000000 -0.013138 0.000000 0.033694
#
#
# Mechanical properties :
#
#
# Convention : Reuss Voigt Hill
#
# Bulk Modulus (GPa) = 29.11535 31.45161 30.28348
# Shear Modulus (GPa) = 30.92413 34.32826 32.62619
#
# Velocity S-wave (km/s) = 3.45816 3.64352 3.55205
# Velocity P-wave (km/s) = 5.21579 5.46472 5.34171
#
# Compressibility (1/GPa) = 0.03434614
#
# Stress axis : x y z
#
# Youngs Moduli (GPa) = 76.50771 59.41123 73.84537
#
# Poissons Ratio (x) = 0.06337 0.30018
# Poissons Ratio (y) = 0.08161 -0.04302
# Poissons Ratio (z) = 0.31100 -0.03461
#
# Static dielectric constant tensor:
#      x y z
#    x 1.992990 0.000000 -0.015320 
#    y 0.000000 2.140350 0.000000 
#    z -0.015320 0.000000 2.098740 
# 
# From -- ./inp_files/11581.got.cif
#   From: 2010.05.17/outbox.cif.g08.bks.cpg/sg4_6_cif.got.tgz:11581.got - 2010.06.03 18:43:04.
