data_PCOD9116911
_publ_section_title
;
Structure prediction by ZEFSAII (Michael W. Deem and Ramdas Pophale) SiO2 
 PCOD9116911
Probable space group: P 21
;
_chemical_formula_sum "Si O2"
_cell_formula_units_Z 16
_cell_length_a 6.280562
_cell_length_b 19.931738
_cell_length_c 5.380819
_cell_angle_alpha 90.000000
_cell_angle_beta 79.437037
_cell_angle_gamma 90.000000
_cell_volume 662.169936
_symmetry_space_group_name_H-M "P 21"
_symmetry_group_IT_number 4
_symmetry_cell_setting 'monoclinic'
loop_
_space_group_symop_operation_xyz
x,y,z
-x,1/2+y,-z
loop_
_atom_site_type_symbol
_atom_site_label
_atom_site_fract_x
_atom_site_fract_y
_atom_site_fract_z
Si Si1 0.475552 0.044010 0.826697
Si Si2 0.779207 0.332510 0.073709
Si Si3 0.212729 0.623505 0.900528
Si Si4 0.216740 0.495935 0.610313
Si Si5 0.137468 0.969742 0.688659
Si Si6 0.464275 0.230897 0.372284
Si Si7 0.164812 0.228171 0.932334
Si Si8 0.472466 0.919197 0.204032
O O1 0.573940 0.033947 0.535480
O O2 0.606391 0.101964 0.933401
O O3 0.227021 0.035778 0.804588
O O4 0.502478 0.976301 0.986185
O O5 0.622135 0.295955 0.306905
O O6 0.863139 0.405623 0.134838
O O7 0.610089 0.349952 0.889501
O O8 0.990454 0.289250 0.967508
O O9 0.127200 0.553447 0.804583
O O10 0.358273 0.670959 0.688737
O O11 0.006581 0.666359 0.031865
O O12 0.084461 0.484549 0.392976
O O13 0.298948 0.425962 0.704393
O O14 0.286295 0.944524 0.427980
O O15 0.321373 0.228245 0.655345
O O16 0.304144 0.228314 0.161883
#
# Coordination Sequence:
#
# PCOD9116911 Si02
#       8
#     2   2   2   2   2   2   2   2
#     4   9  21  41  63 100 140 181 224 292 360 429
#     4  10  25  46  72 102 149 184 245 309 358 444
#     4  10  25  46  72 102 149 184 245 309 358 444
#     4  10  22  41  70 105 143 184 238 288 376 443
#     4  10  22  41  70 105 143 184 238 288 376 443
#     4  11  28  49  74 107 143 195 251 305 369 425
#     4  11  28  47  78 109 137 201 255 297 377 425
#     4   9  21  41  63 100 140 181 224 292 360 429
#
# _framework density 24.162980999999998
#
# number of rings (size 3 to 8) (size 9 to 14) (size 15 to 20)
#    0.000    2.000    0.000    0.000    7.000   14.000 
#    0.000    0.000    0.000    0.000    0.000    0.000 
#    0.000    0.000    0.000    0.000    0.000    0.000 
#
# Total GULP energy -89217.591629 kJ/mol
# GULP energy per Si atom -5576.099477 kJ/mol
# Density = 2.410798 g / cm^3
# Si number density = 24.162981 Si / 1000 Ang^3
#
#
#
# Elastic Constant Matrix: (Units=GPa)
#
#
# Indices 1 2 3 4 5 6 
#
# 1 117.9160 48.9844 49.8177 0.0000 -10.1859 0.0000
# 2 48.9844 71.2712 9.8291 0.0000 -9.5445 0.0000
# 3 49.8177 9.8291 120.8504 0.0000 -34.9137 0.0000
# 4 0.0000 0.0000 0.0000 25.1300 0.0000 -3.3499
# 5 -10.1859 -9.5445 -34.9137 0.0000 63.3067 0.0000
# 6 0.0000 0.0000 0.0000 -3.3499 0.0000 38.8525
#
#
#
# Elastic Compliance Matrix: (Units=1/GPa)
#
#
# Indices 1 2 3 4 5 6 
#
# 1 0.014845 -0.009693 -0.006023 0.000000 -0.002394 0.000000
# 2 -0.009693 0.020691 0.003287 0.000000 0.003373 0.000000
# 3 -0.006023 0.003287 0.012316 0.000000 0.006319 0.000000
# 4 0.000000 0.000000 0.000000 0.040256 0.000000 0.003471
# 5 -0.002394 0.003373 0.006319 0.000000 0.019404 0.000000
# 6 0.000000 0.000000 0.000000 0.003471 0.000000 0.026038
#
#
# Mechanical properties :
#
#
# Convention : Reuss Voigt Hill
#
# Bulk Modulus (GPa) = 43.48863 58.58889 51.03876
# Shear Modulus (GPa) = 30.10756 38.88494 34.49625
#
# Velocity S-wave (km/s) = 3.53373 4.01593 3.78252
# Velocity P-wave (km/s) = 5.88955 6.76784 6.34391
#
# Compressibility (1/GPa) = 0.02299451
#
# Stress axis : x y z
#
# Youngs Moduli (GPa) = 67.36281 48.32977 81.19805
#
# Poissons Ratio (x) = 0.46846 0.48905
# Poissons Ratio (y) = 0.65294 -0.26692
# Poissons Ratio (z) = 0.40572 -0.15887
#
# Static dielectric constant tensor:
#      x y z
#    x 2.037440 0.000000 0.011400 
#    y 0.000000 2.009770 0.000000 
#    z 0.011400 0.000000 1.968100 
# 
# From -- ./inp_files/670.got.cif
#   From: 2010.05.17/outbox.cif.g08.bks.cpg/sg4_1_cif.got.tgz:670.got - 2010.06.03 18:43:04.
