data_PCOD9116965
_publ_section_title
;
Structure prediction by ZEFSAII (Michael W. Deem and Ramdas Pophale) SiO2 
 PCOD9116965
Probable space group: P 21
;
_chemical_formula_sum "Si O2"
_cell_formula_units_Z 16
_cell_length_a 11.911705
_cell_length_b 10.850319
_cell_length_c 5.140611
_cell_angle_alpha 90.000000
_cell_angle_beta 69.701597
_cell_angle_gamma 90.000000
_cell_volume 623.142062
_symmetry_space_group_name_H-M "P 21"
_symmetry_group_IT_number 4
_symmetry_cell_setting 'monoclinic'
loop_
_space_group_symop_operation_xyz
x,y,z
-x,1/2+y,-z
loop_
_atom_site_type_symbol
_atom_site_label
_atom_site_fract_x
_atom_site_fract_y
_atom_site_fract_z
Si Si1 0.882244 0.737930 0.047237
Si Si2 0.666895 0.824433 0.936637
Si Si3 0.221154 0.702613 0.768804
Si Si4 0.529294 0.213419 0.597348
Si Si5 0.841288 0.426984 0.559686
Si Si6 0.724838 0.097917 0.756825
Si Si7 0.662632 0.618246 0.540460
Si Si8 0.019856 0.983059 0.039176
O O1 0.778694 0.671038 0.296503
O O2 0.980046 0.631849 0.906679
O O3 0.803604 0.777891 0.864813
O O4 0.930987 0.865471 0.124844
O O5 0.621510 0.727934 0.760813
O O6 0.679082 0.966303 0.874446
O O7 0.573877 0.809090 0.248375
O O8 0.361647 0.743185 0.682401
O O9 0.171552 0.804245 0.606629
O O10 0.218729 0.584622 0.577409
O O11 0.193751 0.658850 0.083231
O O12 0.609094 0.179384 0.782321
O O13 0.449401 0.098756 0.559321
O O14 0.715652 0.499085 0.638143
O O15 0.944978 0.487138 0.296936
O O16 0.880533 0.435309 0.828370
#
# Coordination Sequence:
#
# PCOD9116965 Si02
#       8
#     2   2   2   2   2   2   2   2
#     4  10  25  44  70 101 138 177 235 290 358 418
#     4  11  22  43  69  99 139 183 224 289 339 425
#     4  10  23  43  61 103 135 185 220 283 333 409
#     4   9  23  37  65  96 138 177 225 267 338 402
#     4  11  24  44  73  93 142 171 239 278 348 414
#     4  10  24  41  62  99 142 173 234 270 348 399
#     4  10  22  42  67 101 131 184 225 283 344 412
#     4  11  25  46  69 106 129 186 228 294 354 417
#
# _framework density 25.676328999999999
#
# number of rings (size 3 to 8) (size 9 to 14) (size 15 to 20)
#    0.750    1.000    1.250    1.500    5.250    6.000 
#    0.000    0.000    0.000    0.000    0.000    0.000 
#    0.000    0.000    0.000    0.000    0.000    0.000 
#
# Total GULP energy -89069.287591 kJ/mol
# GULP energy per Si atom -5566.830474 kJ/mol
# Density = 2.561789 g / cm^3
# Si number density = 25.676329 Si / 1000 Ang^3
#
#
#
# Elastic Constant Matrix: (Units=GPa)
#
#
# Indices 1 2 3 4 5 6 
#
# 1 65.5767 33.0074 36.6936 0.0000 10.0830 0.0000
# 2 33.0074 101.9203 -13.4915 0.0000 6.7457 0.0000
# 3 36.6936 -13.4915 72.2966 0.0000 27.9327 0.0000
# 4 0.0000 0.0000 0.0000 29.0506 0.0000 0.2906
# 5 10.0830 6.7457 27.9327 0.0000 44.3689 0.0000
# 6 0.0000 0.0000 0.0000 0.2906 0.0000 19.6273
#
#
#
# Elastic Compliance Matrix: (Units=1/GPa)
#
#
# Indices 1 2 3 4 5 6 
#
# 1 0.035069 -0.015228 -0.024388 0.000000 0.009699 0.000000
# 2 -0.015228 0.017122 0.013997 0.000000 -0.007955 0.000000
# 3 -0.024388 0.013997 0.036343 0.000000 -0.019466 0.000000
# 4 0.000000 0.000000 0.000000 0.034428 0.000000 -0.000510
# 5 0.009699 -0.007955 -0.019466 0.000000 0.033798 0.000000
# 6 0.000000 0.000000 0.000000 -0.000510 0.000000 0.050957
#
#
# Mechanical properties :
#
#
# Convention : Reuss Voigt Hill
#
# Bulk Modulus (GPa) = 26.81129 39.13474 32.97301
# Shear Modulus (GPa) = 18.42390 30.84829 24.63610
#
# Velocity S-wave (km/s) = 2.68161 3.46992 3.10092
# Velocity P-wave (km/s) = 4.47803 5.59719 5.06859
#
# Compressibility (1/GPa) = 0.03729772
#
# Stress axis : x y z
#
# Youngs Moduli (GPa) = 28.51522 58.40280 27.51577
#
# Poissons Ratio (x) = 0.88933 0.67106
# Poissons Ratio (y) = 0.43422 -0.38515
# Poissons Ratio (z) = 0.69543 -0.81748
#
# Static dielectric constant tensor:
#      x y z
#    x 2.102020 0.000000 -0.119560 
#    y 0.000000 2.143580 0.000000 
#    z -0.119560 0.000000 2.184390 
# 
# From -- ./inp_files/2947.got.cif
#   From: 2010.05.17/outbox.cif.g08.bks.cpg/sg4_2_cif.got.tgz:2947.got - 2010.06.03 18:43:04.
