data_PCOD9116043
_publ_section_title
;
Structure prediction by ZEFSAII (Michael W. Deem and Ramdas Pophale) SiO2 
 PCOD9116043
Probable space group: P 21
;
_chemical_formula_sum "Si O2"
_cell_formula_units_Z 16
_cell_length_a 11.679696
_cell_length_b 10.739903
_cell_length_c 5.671091
_cell_angle_alpha 90.000000
_cell_angle_beta 66.465447
_cell_angle_gamma 90.000000
_cell_volume 652.202300
_symmetry_space_group_name_H-M "P 21"
_symmetry_group_IT_number 4
_symmetry_cell_setting 'monoclinic'
loop_
_space_group_symop_operation_xyz
x,y,z
-x,1/2+y,-z
loop_
_atom_site_type_symbol
_atom_site_label
_atom_site_fract_x
_atom_site_fract_y
_atom_site_fract_z
Si Si1 0.985947 0.058280 0.812399
Si Si2 0.746696 0.634130 0.561863
Si Si3 0.880150 0.308799 0.674314
Si Si4 0.491078 0.085358 0.001343
Si Si5 0.351625 0.772851 0.853998
Si Si6 0.175453 0.639292 0.668211
Si Si7 0.141952 0.403111 0.413658
Si Si8 0.534144 0.500323 0.486967
O O1 0.929033 0.171961 0.708955
O O2 0.129444 0.056517 0.611014
O O3 0.897493 0.939796 0.822867
O O4 0.955375 0.104756 0.098434
O O5 0.659756 0.596165 0.854664
O O6 0.789182 0.775687 0.578341
O O7 0.645211 0.601870 0.443122
O O8 0.760058 0.343069 0.921481
O O9 0.839532 0.273123 0.444392
O O10 0.999535 0.391414 0.624524
O O11 0.524729 0.997259 0.200327
O O12 0.556283 0.213732 0.028636
O O13 0.525224 0.043783 0.711983
O O14 0.281736 0.662248 0.773600
O O15 0.418222 0.863478 0.618067
O O16 0.205438 0.521827 0.479801
#
# Coordination Sequence:
#
# PCOD9116043 Si02
#       8
#     2   2   2   2   2   2   2   2
#     4   9  20  38  59 101 135 182 223 282 348 418
#     4   9  23  42  65 103 137 187 231 293 349 426
#     4   9  22  37  65  98 139 183 227 285 346 426
#     4  10  26  47  68 105 135 184 245 291 356 420
#     4  11  25  45  71 100 140 184 238 295 363 422
#     4  10  23  39  65 101 137 184 231 286 358 426
#     4  10  21  39  66 100 142 177 231 285 353 420
#     4  10  26  45  73 104 135 189 232 297 351 424
#
# _framework density 24.532267999999998
#
# number of rings (size 3 to 8) (size 9 to 14) (size 15 to 20)
#    0.750    1.500    0.000    0.000    8.750    6.000 
#    6.750    0.000    0.000    0.000    0.000    0.000 
#    0.000    0.000    0.000    0.000    0.000    0.000 
#
# Total GULP energy -89112.412671 kJ/mol
# GULP energy per Si atom -5569.525792 kJ/mol
# Density = 2.447643 g / cm^3
# Si number density = 24.532268 Si / 1000 Ang^3
#
#
#
# Elastic Constant Matrix: (Units=GPa)
#
#
# Indices 1 2 3 4 5 6 
#
# 1 85.0535 32.9079 31.4668 0.0000 5.4576 0.0000
# 2 32.9079 89.8114 12.3334 0.0000 17.9085 0.0000
# 3 31.4668 12.3334 78.4662 0.0000 9.0589 0.0000
# 4 0.0000 0.0000 0.0000 26.5350 0.0000 10.4358
# 5 5.4576 17.9085 9.0589 0.0000 30.8078 0.0000
# 6 0.0000 0.0000 0.0000 10.4358 0.0000 21.7195
#
#
#
# Elastic Compliance Matrix: (Units=1/GPa)
#
#
# Indices 1 2 3 4 5 6 
#
# 1 0.015848 -0.005424 -0.005738 0.000000 0.002033 0.000000
# 2 -0.005424 0.014556 0.000780 0.000000 -0.007730 0.000000
# 3 -0.005738 0.000780 0.015380 0.000000 -0.003959 0.000000
# 4 0.000000 0.000000 0.000000 0.046467 0.000000 -0.022326
# 5 0.002033 -0.007730 -0.003959 0.000000 0.037757 0.000000
# 6 0.000000 0.000000 0.000000 -0.022326 0.000000 0.056769
#
#
# Mechanical properties :
#
#
# Convention : Reuss Voigt Hill
#
# Bulk Modulus (GPa) = 39.96827 45.19413 42.58120
# Shear Modulus (GPa) = 23.16086 27.58733 25.37410
#
# Velocity S-wave (km/s) = 3.07595 3.35704 3.21957
# Velocity P-wave (km/s) = 5.37985 5.78694 5.58710
#
# Compressibility (1/GPa) = 0.02501985
#
# Stress axis : x y z
#
# Youngs Moduli (GPa) = 63.09804 68.69879 65.02039
#
# Poissons Ratio (x) = 0.37265 0.37306
# Poissons Ratio (y) = 0.34227 -0.05070
# Poissons Ratio (z) = 0.36203 -0.05357
#
# Static dielectric constant tensor:
#      x y z
#    x 1.987990 0.000000 0.032400 
#    y 0.000000 2.002640 0.000000 
#    z 0.032400 0.000000 2.069700 
# 
# From -- ./inp_files/3054.got.cif
#   From: 2010.05.17/outbox.cif.g08.bks.cpg/sg4_2_cif.got.tgz:3054.got - 2010.06.03 18:43:04.
