data_PCOD9116110
_publ_section_title
;
Structure prediction by ZEFSAII (Michael W. Deem and Ramdas Pophale) SiO2 
 PCOD9116110
Probable space group: P 21
;
_chemical_formula_sum "Si O2"
_cell_formula_units_Z 16
_cell_length_a 12.893704
_cell_length_b 5.173634
_cell_length_c 13.443567
_cell_angle_alpha 90.000000
_cell_angle_beta 76.451411
_cell_angle_gamma 90.000000
_cell_volume 871.828062
_symmetry_space_group_name_H-M "P 21"
_symmetry_group_IT_number 4
_symmetry_cell_setting 'monoclinic'
loop_
_space_group_symop_operation_xyz
x,y,z
-x,1/2+y,-z
loop_
_atom_site_type_symbol
_atom_site_label
_atom_site_fract_x
_atom_site_fract_y
_atom_site_fract_z
Si Si1 0.167540 0.462970 0.766201
Si Si2 0.069334 0.963038 0.702632
Si Si3 0.076336 0.384186 0.993140
Si Si4 0.638744 0.913668 0.427835
Si Si5 0.931336 0.482558 0.514048
Si Si6 0.171617 0.417342 0.191513
Si Si7 0.609609 0.412828 0.565700
Si Si8 0.248218 0.923488 0.278989
O O1 0.124376 0.752402 0.760251
O O2 0.160895 0.401519 0.884143
O O3 0.276329 0.426420 0.680495
O O4 0.087450 0.253486 0.735322
O O5 0.117015 0.922544 0.582831
O O6 0.943538 0.910506 0.727794
O O7 0.137050 0.409036 0.084179
O O8 0.991534 0.619150 0.999497
O O9 0.648135 0.158086 0.498930
O O10 0.518893 0.914873 0.411122
O O11 0.649450 0.660923 0.494446
O O12 0.850213 0.441959 0.621127
O O13 0.974207 0.774048 0.495910
O O14 0.231194 0.673205 0.214927
O O15 0.239669 0.173153 0.211419
O O16 0.651721 0.415904 0.668930
#
# Coordination Sequence:
#
# PCOD9116110 Si02
#       8
#     2   2   2   2   2   2   2   2
#     4  12  22  37  60  81 111 145 190 244 282 321
#     4  12  22  35  53  81 114 151 184 224 278 338
#     4  12  23  38  57  80 112 154 197 235 278 325
#     4  10  21  40  63  88 112 144 191 241 282 334
#     4  12  21  30  46  73 107 142 173 208 257 333
#     4  12  23  37  53  78 115 154 189 224 273 338
#     4  10  22  40  62  87 115 147 188 232 287 345
#     4  12  22  37  54  78 116 153 182 224 285 338
#
# _framework density 18.352240999999999
#
# number of rings (size 3 to 8) (size 9 to 14) (size 15 to 20)
#    0.000    0.500    5.000    5.250    0.000    0.000 
#    0.000    0.000    0.000    1.500    0.000    0.000 
#    0.000    0.000    0.000    0.000    0.000    0.000 
#
# Total GULP energy -89429.681958 kJ/mol
# GULP energy per Si atom -5589.355122 kJ/mol
# Density = 1.831047 g / cm^3
# Si number density = 18.352241 Si / 1000 Ang^3
#
#
#
# Elastic Constant Matrix: (Units=GPa)
#
#
# Indices 1 2 3 4 5 6 
#
# 1 66.7003 25.5396 30.7960 0.0000 16.5656 0.0000
# 2 25.5396 115.7550 41.2525 0.0000 14.4321 0.0000
# 3 30.7960 41.2525 115.3453 0.0000 29.6489 0.0000
# 4 0.0000 0.0000 0.0000 24.0875 0.0000 3.7007
# 5 16.5656 14.4321 29.6489 0.0000 35.9021 0.0000
# 6 0.0000 0.0000 0.0000 3.7007 0.0000 5.6395
#
#
#
# Elastic Compliance Matrix: (Units=1/GPa)
#
#
# Indices 1 2 3 4 5 6 
#
# 1 0.018499 -0.002459 -0.002691 0.000000 -0.005325 0.000000
# 2 -0.002459 0.010279 -0.002855 0.000000 -0.000639 0.000000
# 3 -0.002691 -0.002855 0.012435 0.000000 -0.007879 0.000000
# 4 0.000000 0.000000 0.000000 0.046170 0.000000 -0.030298
# 5 -0.005325 -0.000639 -0.007879 0.000000 0.037075 0.000000
# 6 0.000000 0.000000 0.000000 -0.030298 0.000000 0.197204
#
#
# Mechanical properties :
#
#
# Convention : Reuss Voigt Hill
#
# Bulk Modulus (GPa) = 39.67871 54.77518 47.22694
# Shear Modulus (GPa) = 14.44788 26.47331 20.46059
#
# Velocity S-wave (km/s) = 2.80885 3.80216 3.34261
# Velocity P-wave (km/s) = 5.67337 7.01332 6.37862
#
# Compressibility (1/GPa) = 0.02520243
#
# Stress axis : x y z
#
# Youngs Moduli (GPa) = 54.05767 97.28875 80.42064
#
# Poissons Ratio (x) = 0.23919 0.21641
# Poissons Ratio (y) = 0.13290 0.22963
# Poissons Ratio (z) = 0.14547 0.27779
#
# Static dielectric constant tensor:
#      x y z
#    x 1.626990 0.000000 0.006140 
#    y 0.000000 1.644850 0.000000 
#    z 0.006140 0.000000 1.636840 
# 
# From -- ./inp_files/11704.got.cif
#   From: 2010.05.17/outbox.cif.g08.bks.cpg/sg4_6_cif.got.tgz:11704.got - 2010.06.03 18:43:04.
