data_PCOD9116850
_publ_section_title
;
Structure prediction by ZEFSAII (Michael W. Deem and Ramdas Pophale) SiO2 
 PCOD9116850
Probable space group: P 21
;
_chemical_formula_sum "Si O2"
_cell_formula_units_Z 16
_cell_length_a 8.289178
_cell_length_b 17.291868
_cell_length_c 7.358470
_cell_angle_alpha 90.000000
_cell_angle_beta 36.725610
_cell_angle_gamma 90.000000
_cell_volume 630.710521
_symmetry_space_group_name_H-M "P 21"
_symmetry_group_IT_number 4
_symmetry_cell_setting 'monoclinic'
loop_
_space_group_symop_operation_xyz
x,y,z
-x,1/2+y,-z
loop_
_atom_site_type_symbol
_atom_site_label
_atom_site_fract_x
_atom_site_fract_y
_atom_site_fract_z
Si Si1 0.987029 0.438810 0.097155
Si Si2 0.008234 0.378526 0.474077
Si Si3 0.756634 0.693290 0.374125
Si Si4 0.512082 0.281822 0.902913
Si Si5 0.509097 0.842100 0.473998
Si Si6 0.745706 0.027399 0.623748
Si Si7 0.815237 0.581229 0.026345
Si Si8 0.317648 0.639452 0.024413
O O1 0.936332 0.427995 0.357594
O O2 0.761354 0.382271 0.212646
O O3 0.945036 0.524165 0.059595
O O4 0.280187 0.406633 0.782490
O O5 0.737746 0.338357 0.787438
O O6 0.155556 0.439293 0.471791
O O7 0.218925 0.313986 0.217631
O O8 0.656617 0.781280 0.471301
O O9 0.802693 0.665016 0.127101
O O10 0.029325 0.674821 0.233709
O O11 0.514303 0.642841 0.675589
O O12 0.563024 0.292675 0.642303
O O13 0.553750 0.196427 0.940632
O O14 0.474095 0.046172 0.762076
O O15 0.697566 0.055706 0.872407
O O16 0.989584 0.077557 0.321951
#
# Coordination Sequence:
#
# PCOD9116850 Si02
#       8
#     2   2   2   2   2   2   2   2
#     4  10  22  41  65  93 127 165 206 257 317 376
#     4  10  22  41  65  93 127 165 206 257 317 376
#     4  12  26  43  66  94 129 169 213 263 314 375
#     4  10  22  41  65  93 127 165 206 257 317 376
#     4  10  22  41  65  93 127 165 206 257 317 376
#     4  12  26  43  66  94 129 169 213 263 314 375
#     4  12  26  43  66  94 129 169 213 263 314 375
#     4  12  26  43  66  94 129 169 213 263 314 375
#
# _framework density 25.368216
#
# number of rings (size 3 to 8) (size 9 to 14) (size 15 to 20)
#    0.000    1.000    0.000    6.000    0.000   12.000 
#    0.000    0.000    0.000    0.000    0.000    0.000 
#    0.000    0.000    0.000    0.000    0.000    0.000 
#
# Total GULP energy -89767.234634 kJ/mol
# GULP energy per Si atom -5610.452165 kJ/mol
# Density = 2.531048 g / cm^3
# Si number density = 25.368216 Si / 1000 Ang^3
#
#
#
# Elastic Constant Matrix: (Units=GPa)
#
#
# Indices 1 2 3 4 5 6 
#
# 1 54.9203 4.2198 -2.5116 0.0000 -15.8026 0.0000
# 2 4.2198 64.3746 -6.0536 0.0000 -6.9476 0.0000
# 3 -2.5116 -6.0536 99.0179 0.0000 -15.7929 0.0000
# 4 0.0000 0.0000 0.0000 32.4965 0.0000 3.8439
# 5 -15.8026 -6.9476 -15.7929 0.0000 44.3529 0.0000
# 6 0.0000 0.0000 0.0000 3.8439 0.0000 16.4976
#
#
#
# Elastic Compliance Matrix: (Units=1/GPa)
#
#
# Indices 1 2 3 4 5 6 
#
# 1 0.020591 -0.000330 0.001764 0.000000 0.007913 0.000000
# 2 -0.000330 0.016003 0.001432 0.000000 0.002899 0.000000
# 3 0.001764 0.001432 0.010992 0.000000 0.004767 0.000000
# 4 0.000000 0.000000 0.000000 0.031645 0.000000 -0.007373
# 5 0.007913 0.002899 0.004767 0.000000 0.027517 0.000000
# 6 0.000000 0.000000 0.000000 -0.007373 0.000000 0.062333
#
#
# Mechanical properties :
#
#
# Convention : Reuss Voigt Hill
#
# Bulk Modulus (GPa) = 18.75476 23.29133 21.02304
# Shear Modulus (GPa) = 27.60593 33.51328 30.55961
#
# Velocity S-wave (km/s) = 3.30238 3.63860 3.47456
# Velocity P-wave (km/s) = 4.68509 5.18206 4.93983
#
# Compressibility (1/GPa) = 0.05331981
#
# Stress axis : x y z
#
# Youngs Moduli (GPa) = 48.56474 62.48704 90.97693
#
# Poissons Ratio (x) = 0.02061 -0.16050
# Poissons Ratio (y) = 0.01602 -0.13032
# Poissons Ratio (z) = -0.08568 -0.08951
#
# Static dielectric constant tensor:
#      x y z
#    x 2.043890 0.000000 0.005840 
#    y 0.000000 1.999130 0.000000 
#    z 0.005840 0.000000 1.892840 
# 
# From -- ./inp_files/6913.got.cif
#   From: 2010.05.17/outbox.cif.g08.bks.cpg/sg4_4_cif.got.tgz:6913.got - 2010.06.03 18:43:04.
