data_PCOD9116093
_publ_section_title
;
Structure prediction by ZEFSAII (Michael W. Deem and Ramdas Pophale) SiO2 
 PCOD9116093
Probable space group: P 21
;
_chemical_formula_sum "Si O2"
_cell_formula_units_Z 16
_cell_length_a 8.239513
_cell_length_b 13.331381
_cell_length_c 6.562523
_cell_angle_alpha 90.000000
_cell_angle_beta 91.048297
_cell_angle_gamma 90.000000
_cell_volume 720.733697
_symmetry_space_group_name_H-M "P 21"
_symmetry_group_IT_number 4
_symmetry_cell_setting 'monoclinic'
loop_
_space_group_symop_operation_xyz
x,y,z
-x,1/2+y,-z
loop_
_atom_site_type_symbol
_atom_site_label
_atom_site_fract_x
_atom_site_fract_y
_atom_site_fract_z
Si Si1 0.510689 0.339340 0.558572
Si Si2 0.815900 0.091431 0.571735
Si Si3 0.005098 0.949156 0.861405
Si Si4 0.189021 0.423794 0.758297
Si Si5 0.487630 0.017788 0.761563
Si Si6 0.318059 0.152527 0.471740
Si Si7 0.682686 0.472506 0.849754
Si Si8 0.006467 0.783567 0.525790
O O1 0.350358 0.367226 0.688321
O O2 0.522834 0.416686 0.371772
O O3 0.467968 0.230859 0.468242
O O4 0.652465 0.372320 0.716428
O O5 0.653976 0.070021 0.696418
O O6 0.854138 0.205971 0.527335
O O7 0.958390 0.039237 0.708009
O O8 0.806591 0.029967 0.359345
O O9 0.038350 0.851975 0.723260
O O10 0.155396 0.969655 0.012524
O O11 0.850485 0.931080 0.005573
O O12 0.043167 0.359730 0.653845
O O13 0.345642 0.093232 0.683842
O O14 0.462807 0.991232 0.994156
O O15 0.153350 0.214681 0.444550
O O16 0.320149 0.066240 0.302995
#
# Coordination Sequence:
#
# PCOD9116093 Si02
#       8
#     2   2   2   2   2   2   2   2
#     4   9  21  41  61  84 122 161 203 252 304 363
#     4  10  21  40  61  86 125 162 200 253 309 366
#     4  11  23  38  63  93 122 158 206 259 310 366
#     4   9  20  39  60  86 117 157 203 251 305 362
#     4  10  22  39  62  91 123 163 206 251 302 364
#     4  10  22  41  63  87 122 166 205 252 308 365
#     4  11  23  39  63  94 123 159 207 255 306 369
#     4  10  22  39  61  89 122 160 202 253 312 365
#
# _framework density 22.1996
#
# number of rings (size 3 to 8) (size 9 to 14) (size 15 to 20)
#    0.000    2.000    0.000    3.000    0.000   10.000 
#    0.000    2.500    0.000    0.000    0.000    0.000 
#    0.000    0.000    0.000    0.000    0.000    0.000 
#
# Total GULP energy -89445.207693 kJ/mol
# GULP energy per Si atom -5590.325481 kJ/mol
# Density = 2.214907 g / cm^3
# Si number density = 22.199600 Si / 1000 Ang^3
#
#
#
# Elastic Constant Matrix: (Units=GPa)
#
#
# Indices 1 2 3 4 5 6 
#
# 1 70.4829 29.6190 20.8664 0.0000 8.5355 0.0000
# 2 29.6190 109.8442 48.3633 0.0000 2.1311 0.0000
# 3 20.8664 48.3633 93.4785 0.0000 3.6669 0.0000
# 4 0.0000 0.0000 0.0000 18.3624 0.0000 3.1356
# 5 8.5355 2.1311 3.6669 0.0000 37.9372 0.0000
# 6 0.0000 0.0000 0.0000 3.1356 0.0000 32.7471
#
#
#
# Elastic Compliance Matrix: (Units=1/GPa)
#
#
# Indices 1 2 3 4 5 6 
#
# 1 0.016641 -0.003684 -0.001676 0.000000 -0.003375 0.000000
# 2 -0.003684 0.012605 -0.005726 0.000000 0.000674 0.000000
# 3 -0.001676 -0.005726 0.014060 0.000000 -0.000660 0.000000
# 4 0.000000 0.000000 0.000000 0.055364 0.000000 -0.005301
# 5 -0.003375 0.000674 -0.000660 0.000000 0.027145 0.000000
# 6 0.000000 0.000000 0.000000 -0.005301 0.000000 0.031045
#
#
# Mechanical properties :
#
#
# Convention : Reuss Voigt Hill
#
# Bulk Modulus (GPa) = 47.31586 52.38921 49.85253
# Shear Modulus (GPa) = 26.87083 29.47313 28.17198
#
# Velocity S-wave (km/s) = 3.48288 3.64764 3.56621
# Velocity P-wave (km/s) = 6.12651 6.43356 6.28191
#
# Compressibility (1/GPa) = 0.02113456
#
# Stress axis : x y z
#
# Youngs Moduli (GPa) = 60.09336 79.33416 71.12350
#
# Poissons Ratio (x) = 0.29223 0.11923
# Poissons Ratio (y) = 0.22135 0.40723
# Poissons Ratio (z) = 0.10074 0.45424
#
# Static dielectric constant tensor:
#      x y z
#    x 1.925910 0.000000 0.012880 
#    y 0.000000 1.796010 0.000000 
#    z 0.012880 0.000000 1.752820 
# 
# From -- ./inp_files/1444.got.cif
#   From: 2010.05.17/outbox.cif.g08.bks.cpg/sg4_1_cif.got.tgz:1444.got - 2010.06.03 18:43:04.
