data_PCOD9116899
_publ_section_title
;
Structure prediction by ZEFSAII (Michael W. Deem and Ramdas Pophale) SiO2 
 PCOD9116899
Probable space group: P 21
;
_chemical_formula_sum "Si O2"
_cell_formula_units_Z 12
_cell_length_a 7.259561
_cell_length_b 12.758161
_cell_length_c 5.318898
_cell_angle_alpha 90.000000
_cell_angle_beta 79.014334
_cell_angle_gamma 90.000000
_cell_volume 483.601658
_symmetry_space_group_name_H-M "P 21"
_symmetry_group_IT_number 4
_symmetry_cell_setting 'monoclinic'
loop_
_space_group_symop_operation_xyz
x,y,z
-x,1/2+y,-z
loop_
_atom_site_type_symbol
_atom_site_label
_atom_site_fract_x
_atom_site_fract_y
_atom_site_fract_z
Si Si1 0.307430 0.279010 0.896090
Si Si2 0.549965 0.413744 0.512510
Si Si3 0.476386 0.108534 0.199011
Si Si4 0.238555 0.477932 0.218810
Si Si5 0.202446 0.752166 0.760131
Si Si6 0.003706 0.679352 0.321019
O O1 0.499191 0.329663 0.741267
O O2 0.203080 0.216068 0.703344
O O3 0.351272 0.193750 0.095596
O O4 0.199124 0.378371 0.048300
O O5 0.624066 0.519509 0.615965
O O6 0.348010 0.435999 0.435478
O O7 0.697573 0.363918 0.285420
O O8 0.629402 0.168949 0.324347
O O9 0.600691 0.046297 0.961518
O O10 0.066710 0.557108 0.311566
O O11 0.063176 0.732032 0.566268
O O12 0.117369 0.727046 0.052594
#
# Coordination Sequence:
#
# PCOD9116899 Si02
#       6
#     2   2   2   2   2   2
#     4  11  25  43  70 102 143 182 231 294 354 409
#     4  11  22  42  74  98 131 191 246 280 337 424
#     4  10  22  41  69 100 133 183 240 288 333 419
#     4  10  22  43  67  99 139 185 235 286 346 415
#     4  11  23  44  68  97 138 182 230 285 344 412
#     4  11  26  45  66 104 146 177 222 297 360 405
#
# _framework density 24.813814000000001
#
# number of rings (size 3 to 8) (size 9 to 14) (size 15 to 20)
#    0.000    1.333    3.333    2.000    4.667    1.333 
#    0.000    0.000    0.000    0.000    0.000    0.000 
#    0.000    0.000    0.000    0.000    0.000    0.000 
#
# Total GULP energy -67203.706839 kJ/mol
# GULP energy per Si atom -5600.308903 kJ/mol
# Density = 2.475734 g / cm^3
# Si number density = 24.813814 Si / 1000 Ang^3
#
#
#
# Elastic Constant Matrix: (Units=GPa)
#
#
# Indices 1 2 3 4 5 6 
#
# 1 73.6286 38.5223 30.4935 0.0000 16.7874 0.0000
# 2 38.5223 129.8281 40.9848 0.0000 2.4075 0.0000
# 3 30.4935 40.9848 105.6931 0.0000 16.1933 0.0000
# 4 0.0000 0.0000 0.0000 45.9899 0.0000 8.6357
# 5 16.7874 2.4075 16.1933 0.0000 46.2356 0.0000
# 6 0.0000 0.0000 0.0000 8.6357 0.0000 35.7467
#
#
#
# Elastic Compliance Matrix: (Units=1/GPa)
#
#
# Indices 1 2 3 4 5 6 
#
# 1 0.018286 -0.004470 -0.002706 0.000000 -0.005459 0.000000
# 2 -0.004470 0.009896 -0.002872 0.000000 0.002114 0.000000
# 3 -0.002706 -0.002872 0.011816 0.000000 -0.003006 0.000000
# 4 0.000000 0.000000 0.000000 0.022777 0.000000 -0.005502
# 5 -0.005459 0.002114 -0.003006 0.000000 0.024553 0.000000
# 6 0.000000 0.000000 0.000000 -0.005502 0.000000 0.029304
#
#
# Mechanical properties :
#
#
# Convention : Reuss Voigt Hill
#
# Bulk Modulus (GPa) = 50.24428 58.79458 54.51943
# Shear Modulus (GPa) = 34.87674 38.87107 36.87391
#
# Velocity S-wave (km/s) = 3.75312 3.96221 3.85908
# Velocity P-wave (km/s) = 6.25089 6.68415 6.47115
#
# Compressibility (1/GPa) = 0.01990276
#
# Stress axis : x y z
#
# Youngs Moduli (GPa) = 54.68730 101.04859 84.63002
#
# Poissons Ratio (x) = 0.45172 0.22899
# Poissons Ratio (y) = 0.24447 0.24302
# Poissons Ratio (z) = 0.14797 0.29017
#
# Static dielectric constant tensor:
#      x y z
#    x 1.993150 0.000000 -0.027070 
#    y 0.000000 1.969650 0.000000 
#    z -0.027070 0.000000 1.949950 
# 
# From -- ./inp_files/1095.got.cif
#   From: 2010.05.17/outbox.cif.g08.bks.cpg/sg4_1_cif.got.tgz:1095.got - 2010.06.03 18:43:04.
