data_PCOD9116982
_publ_section_title
;
Structure prediction by ZEFSAII (Michael W. Deem and Ramdas Pophale) SiO2 
 PCOD9116982
Probable space group: P 21
;
_chemical_formula_sum "Si O2"
_cell_formula_units_Z 14
_cell_length_a 10.404282
_cell_length_b 9.193247
_cell_length_c 13.187223
_cell_angle_alpha 90.000000
_cell_angle_beta 148.137589
_cell_angle_gamma 90.000000
_cell_volume 665.841150
_symmetry_space_group_name_H-M "P 21"
_symmetry_group_IT_number 4
_symmetry_cell_setting 'monoclinic'
loop_
_space_group_symop_operation_xyz
x,y,z
-x,1/2+y,-z
loop_
_atom_site_type_symbol
_atom_site_label
_atom_site_fract_x
_atom_site_fract_y
_atom_site_fract_z
Si Si1 0.527609 0.895850 0.732517
Si Si2 0.854721 0.632935 0.889463
Si Si3 0.315499 0.272619 0.699957
Si Si4 0.986605 0.507401 0.580696
Si Si5 0.492973 0.384973 0.603373
Si Si6 0.702875 0.102983 0.672729
Si Si7 0.205058 0.607012 0.940288
O O1 0.648107 0.747306 0.778683
O O2 0.242259 0.897700 0.562118
O O3 0.565512 0.011985 0.667927
O O4 0.677508 0.964162 0.927359
O O5 0.736017 0.476452 0.789948
O O6 0.015274 0.669400 0.897129
O O7 0.032815 0.627306 0.104553
O O8 0.391534 0.314956 0.636827
O O9 0.202205 0.413720 0.676449
O O10 0.120880 0.141065 0.557716
O O11 0.563495 0.213554 0.917664
O O12 0.071635 0.568573 0.746746
O O13 0.566089 0.256417 0.575720
O O14 0.310339 0.501833 0.433366
#
# Coordination Sequence:
#
# PCOD9116982 Si02
#       7
#     2   2   2   2   2   2   2
#     4  10  22  42  68 105 138 178 227 280 351 415
#     4  11  23  40  69 106 143 169 229 289 350 423
#     4  11  27  48  69 102 136 186 242 285 335 423
#     4  11  25  49  73  94 145 187 232 291 339 410
#     4  12  24  42  67 104 140 180 225 282 358 416
#     4  11  22  40  67 101 142 177 215 287 353 416
#     4  10  23  45  73  98 140 181 230 292 348 405
#
# _framework density 21.026038
#
# number of rings (size 3 to 8) (size 9 to 14) (size 15 to 20)
#    0.000    1.143    4.286    3.429    4.000    3.429 
#    0.000    0.000    0.000    0.000    0.000    0.000 
#    0.000    0.000    0.000    0.000    0.000    0.000 
#
# Total GULP energy -78278.144942 kJ/mol
# GULP energy per Si atom -5591.296067 kJ/mol
# Density = 2.097818 g / cm^3
# Si number density = 21.026038 Si / 1000 Ang^3
#
#
#
# Elastic Constant Matrix: (Units=GPa)
#
#
# Indices 1 2 3 4 5 6 
#
# 1 16.8521 6.9045 8.7238 0.0000 6.1419 0.0000
# 2 6.9045 93.4489 16.6208 0.0000 6.7379 0.0000
# 3 8.7238 16.6208 82.8124 0.0000 -9.3341 0.0000
# 4 0.0000 0.0000 0.0000 29.2080 0.0000 12.9077
# 5 6.1419 6.7379 -9.3341 0.0000 24.0382 0.0000
# 6 0.0000 0.0000 0.0000 12.9077 0.0000 36.0706
#
#
#
# Elastic Compliance Matrix: (Units=1/GPa)
#
#
# Indices 1 2 3 4 5 6 
#
# 1 0.073242 -0.002094 -0.009766 0.000000 -0.021919 0.000000
# 2 -0.002094 0.011569 -0.002517 0.000000 -0.003685 0.000000
# 3 -0.009766 -0.002517 0.014610 0.000000 0.008874 0.000000
# 4 0.000000 0.000000 0.000000 0.040668 0.000000 -0.014553
# 5 -0.021919 -0.003685 0.008874 0.000000 0.051680 0.000000
# 6 0.000000 0.000000 0.000000 -0.014553 0.000000 0.032931
#
#
# Mechanical properties :
#
#
# Convention : Reuss Voigt Hill
#
# Bulk Modulus (GPa) = 14.15083 28.62352 21.38717
# Shear Modulus (GPa) = 18.04995 28.58765 23.31880
#
# Velocity S-wave (km/s) = 2.93312 3.69132 3.33384
# Velocity P-wave (km/s) = 4.26798 5.64010 5.00132
#
# Compressibility (1/GPa) = 0.07066724
#
# Stress axis : x y z
#
# Youngs Moduli (GPa) = 13.65335 86.43733 68.44833
#
# Poissons Ratio (x) = 0.18101 0.66846
# Poissons Ratio (y) = 0.02859 0.17226
# Poissons Ratio (z) = 0.13334 0.21754
#
# Static dielectric constant tensor:
#      x y z
#    x 1.757160 0.000000 0.014520 
#    y 0.000000 1.759000 0.000000 
#    z 0.014520 0.000000 1.799420 
# 
# From -- ./inp_files/10778.got.cif
#   From: 2010.05.17/outbox.cif.g08.bks.cpg/sg4_6_cif.got.tgz:10778.got - 2010.06.03 18:43:04.
