data_PCOD9116520
_publ_section_title
;
Structure prediction by ZEFSAII (Michael W. Deem and Ramdas Pophale) SiO2 
 PCOD9116520
Probable space group: P 21
;
_chemical_formula_sum "Si O2"
_cell_formula_units_Z 16
_cell_length_a 11.764968
_cell_length_b 8.653302
_cell_length_c 15.292410
_cell_angle_alpha 90.000000
_cell_angle_beta 152.609209
_cell_angle_gamma 90.000000
_cell_volume 716.242794
_symmetry_space_group_name_H-M "P 21"
_symmetry_group_IT_number 4
_symmetry_cell_setting 'monoclinic'
loop_
_space_group_symop_operation_xyz
x,y,z
-x,1/2+y,-z
loop_
_atom_site_type_symbol
_atom_site_label
_atom_site_fract_x
_atom_site_fract_y
_atom_site_fract_z
Si Si1 0.600189 0.528510 0.460724
Si Si2 0.820523 0.554933 0.255995
Si Si3 0.432584 0.554735 0.832093
Si Si4 0.040822 0.708689 0.680335
Si Si5 0.330826 0.703558 0.586047
Si Si6 0.695742 0.526512 0.729326
Si Si7 0.434824 0.705177 0.106331
Si Si8 0.833773 0.194669 0.895561
O O1 0.619934 0.369140 0.422038
O O2 0.695555 0.515978 0.624915
O O3 0.316394 0.583125 0.271670
O O4 0.773383 0.652617 0.528631
O O5 0.937012 0.384283 0.337731
O O6 0.644690 0.587616 0.218150
O O7 0.040790 0.676734 0.401938
O O8 0.645476 0.574706 0.050884
O O9 0.172881 0.596945 0.700400
O O10 0.459931 0.665461 0.766957
O O11 0.450826 0.377277 0.814763
O O12 0.220669 0.702843 0.887233
O O13 0.431184 0.575517 0.586284
O O14 0.789522 0.366481 0.832657
O O15 0.884117 0.654572 0.894844
O O16 0.306481 0.668504 0.109039
#
# Coordination Sequence:
#
# PCOD9116520 Si02
#       8
#     2   2   2   2   2   2   2   2
#     4  12  27  45  70 104 143 185 236 291 348 415
#     4  10  24  41  72 103 140 182 222 290 351 416
#     4  10  23  42  67 103 141 177 227 282 348 419
#     4  10  22  43  70 105 145 178 222 294 349 419
#     4  12  26  43  71 102 136 190 230 282 352 423
#     4  12  27  51  69 105 138 184 245 289 350 413
#     4  10  21  46  69 102 141 182 229 282 353 412
#     4  12  26  47  76  96 140 188 231 296 345 417
#
# _framework density 22.338792999999999
#
# number of rings (size 3 to 8) (size 9 to 14) (size 15 to 20)
#    0.000    1.000    2.500    3.000    3.500    4.000 
#    0.000    0.000    0.000    0.000    0.000    0.000 
#    0.000    0.000    0.000    0.000    0.000    0.000 
#
# Total GULP energy -89583.511338 kJ/mol
# GULP energy per Si atom -5598.969459 kJ/mol
# Density = 2.228795 g / cm^3
# Si number density = 22.338793 Si / 1000 Ang^3
#
#
#
# Elastic Constant Matrix: (Units=GPa)
#
#
# Indices 1 2 3 4 5 6 
#
# 1 74.7492 -4.1541 9.0112 0.0000 -5.2488 0.0000
# 2 -4.1541 53.1730 1.3528 0.0000 -11.6379 0.0000
# 3 9.0112 1.3528 62.3323 0.0000 -2.8495 0.0000
# 4 0.0000 0.0000 0.0000 34.4655 0.0000 2.1809
# 5 -5.2488 -11.6379 -2.8495 0.0000 23.6945 0.0000
# 6 0.0000 0.0000 0.0000 2.1809 0.0000 32.5762
#
#
#
# Elastic Compliance Matrix: (Units=1/GPa)
#
#
# Indices 1 2 3 4 5 6 
#
# 1 0.013986 0.001982 -0.001889 0.000000 0.003845 0.000000
# 2 0.001982 0.021353 -0.000252 0.000000 0.010896 0.000000
# 3 -0.001889 -0.000252 0.016387 0.000000 0.001428 0.000000
# 4 0.000000 0.000000 0.000000 0.029138 0.000000 -0.001951
# 5 0.003845 0.010896 0.001428 0.000000 0.048579 0.000000
# 6 0.000000 0.000000 0.000000 -0.001951 0.000000 0.030828
#
#
# Mechanical properties :
#
#
# Convention : Reuss Voigt Hill
#
# Bulk Modulus (GPa) = 19.45227 22.51935 20.98581
# Shear Modulus (GPa) = 28.13344 30.41686 29.27515
#
# Velocity S-wave (km/s) = 3.55265 3.69401 3.62402
# Velocity P-wave (km/s) = 5.05521 5.31949 5.18904
#
# Compressibility (1/GPa) = 0.05140787
#
# Stress axis : x y z
#
# Youngs Moduli (GPa) = 71.50039 46.83247 61.02422
#
# Poissons Ratio (x) = -0.09283 0.11529
# Poissons Ratio (y) = -0.14172 0.01537
# Poissons Ratio (z) = 0.13508 0.01179
#
# Static dielectric constant tensor:
#      x y z
#    x 1.781680 0.000000 -0.023700 
#    y 0.000000 1.802280 0.000000 
#    z -0.023700 0.000000 1.838590 
# 
# From -- ./inp_files/13910.got.cif
#   From: 2010.05.17/outbox.cif.g08.bks.cpg/sg4_7_cif.got.tgz:13910.got - 2010.06.03 18:43:04.
