data_PCOD9116977
_publ_section_title
;
Structure prediction by ZEFSAII (Michael W. Deem and Ramdas Pophale) SiO2 
 PCOD9116977
Probable space group: P 21
;
_chemical_formula_sum "Si O2"
_cell_formula_units_Z 14
_cell_length_a 15.674250
_cell_length_b 9.559278
_cell_length_c 10.146089
_cell_angle_alpha 90.000000
_cell_angle_beta 25.706390
_cell_angle_gamma 90.000000
_cell_volume 659.416188
_symmetry_space_group_name_H-M "P 21"
_symmetry_group_IT_number 4
_symmetry_cell_setting 'monoclinic'
loop_
_space_group_symop_operation_xyz
x,y,z
-x,1/2+y,-z
loop_
_atom_site_type_symbol
_atom_site_label
_atom_site_fract_x
_atom_site_fract_y
_atom_site_fract_z
Si Si1 0.793916 0.126890 0.189517
Si Si2 0.477747 0.255329 0.021241
Si Si3 0.585011 0.713663 0.176504
Si Si4 0.249184 0.920240 0.159376
Si Si5 0.978306 0.816754 0.316040
Si Si6 0.176634 0.609718 0.541391
Si Si7 0.938557 0.885468 0.799557
O O1 0.572801 0.186541 0.489348
O O2 0.807435 0.089561 0.324581
O O3 0.933193 0.247071 0.937728
O O4 0.851847 0.991311 0.026011
O O5 0.242015 0.253613 0.360644
O O6 0.508592 0.289456 0.822349
O O7 0.577818 0.346062 0.996918
O O8 0.615378 0.116191 0.827000
O O9 0.665697 0.560237 0.024340
O O10 0.759766 0.811289 0.976626
O O11 0.138744 0.813327 0.211694
O O12 0.078350 0.962247 0.500215
O O13 0.945267 0.982007 0.345637
O O14 0.070158 0.757966 0.670043
#
# Coordination Sequence:
#
# PCOD9116977 Si02
#       7
#     2   2   2   2   2   2   2
#     4  11  26  41  66 101 138 186 235 278 352 424
#     4  10  22  42  68 101 130 177 233 290 338 410
#     4  11  23  45  66  99 145 174 237 288 344 420
#     4  11  24  43  71 102 133 184 234 287 349 409
#     4  12  23  45  72 100 143 186 233 291 353 417
#     4  10  23  44  69  97 141 184 228 294 349 406
#     4  11  23  42  72  98 136 185 230 286 349 412
#
# _framework density 21.230903000000001
#
# number of rings (size 3 to 8) (size 9 to 14) (size 15 to 20)
#    0.000    1.143    2.857    3.429    2.000    1.143 
#    2.571    0.000    0.000    0.000    0.000    0.000 
#    0.000    0.000    0.000    0.000    0.000    0.000 
#
# Total GULP energy -78091.371004 kJ/mol
# GULP energy per Si atom -5577.955072 kJ/mol
# Density = 2.118258 g / cm^3
# Si number density = 21.230903 Si / 1000 Ang^3
#
#
#
# Elastic Constant Matrix: (Units=GPa)
#
#
# Indices 1 2 3 4 5 6 
#
# 1 75.3537 14.1490 25.8769 0.0000 -24.9410 0.0000
# 2 14.1490 78.3461 47.4069 0.0000 -9.6934 0.0000
# 3 25.8769 47.4069 152.8765 0.0000 -5.1800 0.0000
# 4 0.0000 0.0000 0.0000 28.9994 0.0000 10.0439
# 5 -24.9410 -9.6934 -5.1800 0.0000 33.2630 0.0000
# 6 0.0000 0.0000 0.0000 10.0439 0.0000 32.1524
#
#
#
# Elastic Compliance Matrix: (Units=1/GPa)
#
#
# Indices 1 2 3 4 5 6 
#
# 1 0.018702 -0.000074 -0.002682 0.000000 0.013584 0.000000
# 2 -0.000074 0.016216 -0.004884 0.000000 0.003910 0.000000
# 3 -0.002682 -0.004884 0.008438 0.000000 -0.002121 0.000000
# 4 0.000000 0.000000 0.000000 0.038667 0.000000 -0.012079
# 5 0.013584 0.003910 -0.002121 0.000000 0.041058 0.000000
# 6 0.000000 0.000000 0.000000 -0.012079 0.000000 0.034875
#
#
# Mechanical properties :
#
#
# Convention : Reuss Voigt Hill
#
# Bulk Modulus (GPa) = 35.61762 53.49357 44.55559
# Shear Modulus (GPa) = 27.38320 33.49251 30.43786
#
# Velocity S-wave (km/s) = 3.59525 3.97613 3.79048
# Velocity P-wave (km/s) = 5.83499 6.80663 6.33946
#
# Compressibility (1/GPa) = 0.02807599
#
# Stress axis : x y z
#
# Youngs Moduli (GPa) = 53.47105 61.66757 118.51379
#
# Poissons Ratio (x) = 0.00454 0.31791
# Poissons Ratio (y) = 0.00394 0.57878
# Poissons Ratio (z) = 0.14343 0.30116
#
# Static dielectric constant tensor:
#      x y z
#    x 1.835480 0.000000 -0.054600 
#    y 0.000000 1.786330 0.000000 
#    z -0.054600 0.000000 1.790520 
# 
# From -- ./inp_files/9107.got.cif
#   From: 2010.05.17/outbox.cif.g08.bks.cpg/sg4_5_cif.got.tgz:9107.got - 2010.06.03 18:43:04.
