data_PCOD9116008
_publ_section_title
;
Structure prediction by ZEFSAII (Michael W. Deem and Ramdas Pophale) SiO2 
 PCOD9116008
Probable space group: P 21
;
_chemical_formula_sum "Si O2"
_cell_formula_units_Z 16
_cell_length_a 12.802087
_cell_length_b 4.878181
_cell_length_c 10.932192
_cell_angle_alpha 90.000000
_cell_angle_beta 56.860050
_cell_angle_gamma 90.000000
_cell_volume 571.671577
_symmetry_space_group_name_H-M "P 21"
_symmetry_group_IT_number 4
_symmetry_cell_setting 'monoclinic'
loop_
_space_group_symop_operation_xyz
x,y,z
-x,1/2+y,-z
loop_
_atom_site_type_symbol
_atom_site_label
_atom_site_fract_x
_atom_site_fract_y
_atom_site_fract_z
Si Si1 0.778810 0.085920 0.980785
Si Si2 0.975521 0.440757 0.100530
Si Si3 0.476789 0.679176 0.953721
Si Si4 0.717840 0.502444 0.665174
Si Si5 0.966973 0.635714 0.603823
Si Si6 0.731880 0.580399 0.168356
Si Si7 0.424990 0.716481 0.577524
Si Si8 0.216602 0.502052 0.535029
O O1 0.665315 0.079189 0.961458
O O2 0.784928 0.395504 0.024352
O O3 0.730148 0.886241 0.121429
O O4 0.918433 0.984133 0.865323
O O5 0.835702 0.547011 0.208838
O O6 0.977215 0.140584 0.040828
O O7 0.577816 0.575424 0.792138
O O8 0.523571 0.506226 0.041263
O O9 0.820257 0.567162 0.706311
O O10 0.736779 0.195722 0.606643
O O11 0.759016 0.697571 0.527107
O O12 0.012043 0.438044 0.462407
O O13 0.069221 0.565032 0.641928
O O14 0.611207 0.412863 0.286572
O O15 0.509715 0.450851 0.548223
O O16 0.304272 0.586815 0.590216
#
# Coordination Sequence:
#
# PCOD9116008 Si02
#       8
#     2   2   2   2   2   2   2   2
#     4  10  21  39  67  85 118 163 197 243 309 366
#     4   8  16  34  60  87 111 148 205 241 284 359
#     4  12  26  42  60  94 122 150 204 258 302 360
#     4  10  21  39  67  85 118 163 197 243 309 366
#     4   8  16  34  60  87 111 148 205 241 284 359
#     4  10  21  39  62  90 118 164 199 242 299 356
#     4  12  26  38  56  94 134 154 204 252 282 354
#     4  10  21  39  62  90 118 164 199 242 299 356
#
# _framework density 27.988095999999999
#
# number of rings (size 3 to 8) (size 9 to 14) (size 15 to 20)
#    0.000    2.000    0.000    3.000    5.250    0.000 
#    2.250    0.000    2.750    0.000    0.000    0.000 
#    0.000    0.000    0.000    0.000    0.000    0.000 
#
# Total GULP energy -89572.550622 kJ/mol
# GULP energy per Si atom -5598.284414 kJ/mol
# Density = 2.792439 g / cm^3
# Si number density = 27.988096 Si / 1000 Ang^3
#
#
#
# Elastic Constant Matrix: (Units=GPa)
#
#
# Indices 1 2 3 4 5 6 
#
# 1 135.7796 19.0475 4.3692 0.0000 -5.2258 0.0000
# 2 19.0475 131.5017 18.7551 0.0000 -3.9366 0.0000
# 3 4.3692 18.7551 68.6323 0.0000 -6.5078 0.0000
# 4 0.0000 0.0000 0.0000 32.7883 0.0000 -8.3148
# 5 -5.2258 -3.9366 -6.5078 0.0000 21.2500 0.0000
# 6 0.0000 0.0000 0.0000 -8.3148 0.0000 40.4175
#
#
#
# Elastic Compliance Matrix: (Units=1/GPa)
#
#
# Indices 1 2 3 4 5 6 
#
# 1 0.007576 -0.001042 -0.000040 0.000000 0.001658 0.000000
# 2 -0.001042 0.008070 -0.002082 0.000000 0.000601 0.000000
# 3 -0.000040 -0.002082 0.015556 0.000000 0.004368 0.000000
# 4 0.000000 0.000000 0.000000 0.032177 0.000000 0.006620
# 5 0.001658 0.000601 0.004368 0.000000 0.048916 0.000000
# 6 0.000000 0.000000 0.000000 0.006620 0.000000 0.026104
#
#
# Mechanical properties :
#
#
# Convention : Reuss Voigt Hill
#
# Bulk Modulus (GPa) = 40.20290 46.69524 43.44907
# Shear Modulus (GPa) = 32.67562 38.47394 35.57478
#
# Velocity S-wave (km/s) = 3.42055 3.71165 3.56907
# Velocity P-wave (km/s) = 5.47683 5.92357 5.70458
#
# Compressibility (1/GPa) = 0.02487383
#
# Stress axis : x y z
#
# Youngs Moduli (GPa) = 131.99316 123.91059 64.28330
#
# Poissons Ratio (x) = 0.12911 0.00260
# Poissons Ratio (y) = 0.13754 0.13384
# Poissons Ratio (z) = 0.00533 0.25799
#
# Static dielectric constant tensor:
#      x y z
#    x 2.289170 0.000000 0.005550 
#    y 0.000000 2.038890 0.000000 
#    z 0.005550 0.000000 2.197320 
# 
# From -- ./inp_files/11497.got.cif
#   From: 2010.05.17/outbox.cif.g08.bks.cpg/sg4_6_cif.got.tgz:11497.got - 2010.06.03 18:43:04.
