data_PCOD9116134
_publ_section_title
;
Structure prediction by ZEFSAII (Michael W. Deem and Ramdas Pophale) SiO2 
 PCOD9116134
Probable space group: P 21
;
_chemical_formula_sum "Si O2"
_cell_formula_units_Z 16
_cell_length_a 8.874179
_cell_length_b 11.509047
_cell_length_c 9.291889
_cell_angle_alpha 90.000000
_cell_angle_beta 135.145373
_cell_angle_gamma 90.000000
_cell_volume 669.347822
_symmetry_space_group_name_H-M "P 21"
_symmetry_group_IT_number 4
_symmetry_cell_setting 'monoclinic'
loop_
_space_group_symop_operation_xyz
x,y,z
-x,1/2+y,-z
loop_
_atom_site_type_symbol
_atom_site_label
_atom_site_fract_x
_atom_site_fract_y
_atom_site_fract_z
Si Si1 0.655929 0.159530 0.210084
Si Si2 0.064748 0.072402 0.311100
Si Si3 0.258013 0.745647 0.246750
Si Si4 0.200173 0.548537 0.413463
Si Si5 0.205585 0.199857 0.784173
Si Si6 0.366717 0.878673 0.618103
Si Si7 0.137652 0.377660 0.998756
Si Si8 0.285897 0.286565 0.526056
O O1 0.642169 0.088310 0.350584
O O2 0.682588 0.292461 0.282668
O O3 0.853353 0.112506 0.252307
O O4 0.439127 0.149722 0.974110
O O5 0.207488 0.183201 0.370101
O O6 0.219771 0.992436 0.515049
O O7 0.982588 0.996372 0.122702
O O8 0.250660 0.613560 0.298185
O O9 0.305648 0.813219 0.429155
O O10 0.459153 0.775695 0.285881
O O11 0.036502 0.797245 0.038278
O O12 0.212012 0.410842 0.420148
O O13 0.973532 0.603320 0.307457
O O14 0.168741 0.304273 0.871692
O O15 0.191194 0.254997 0.617319
O O16 0.621437 0.896220 0.786419
#
# Coordination Sequence:
#
# PCOD9116134 Si02
#       8
#     2   2   2   2   2   2   2   2
#     4  10  21  40  65  95 125 167 212 267 326 385
#     4  11  23  35  62  96 125 162 211 268 315 382
#     4   9  22  43  67  91 126 171 214 261 318 387
#     4  10  22  44  65  90 133 170 211 267 324 387
#     4  10  22  42  66  96 129 165 215 271 328 386
#     4   9  21  43  68  86 128 174 212 264 327 383
#     4   9  20  43  67  89 125 174 213 261 325 386
#     4  12  25  40  66  99 131 169 216 267 327 384
#
# _framework density 23.903863000000001
#
# number of rings (size 3 to 8) (size 9 to 14) (size 15 to 20)
#    0.000    2.000    1.250    1.500    7.000    0.000 
#    6.750    0.000    0.000    0.000    0.000    0.000 
#    0.000    0.000    0.000    0.000    0.000    0.000 
#
# Total GULP energy -89542.057560 kJ/mol
# GULP energy per Si atom -5596.378597 kJ/mol
# Density = 2.384946 g / cm^3
# Si number density = 23.903863 Si / 1000 Ang^3
#
#
#
# Elastic Constant Matrix: (Units=GPa)
#
#
# Indices 1 2 3 4 5 6 
#
# 1 67.0710 29.0421 22.0137 0.0000 26.6627 0.0000
# 2 29.0421 173.6309 58.1188 0.0000 18.2268 0.0000
# 3 22.0137 58.1188 152.7572 0.0000 25.5194 0.0000
# 4 0.0000 0.0000 0.0000 27.3622 0.0000 10.7745
# 5 26.6627 18.2268 25.5194 0.0000 34.8237 0.0000
# 6 0.0000 0.0000 0.0000 10.7745 0.0000 24.8120
#
#
#
# Elastic Compliance Matrix: (Units=1/GPa)
#
#
# Indices 1 2 3 4 5 6 
#
# 1 0.022101 -0.002113 0.000298 0.000000 -0.016033 0.000000
# 2 -0.002113 0.006907 -0.002267 0.000000 -0.000336 0.000000
# 3 0.000298 -0.002267 0.008211 0.000000 -0.005058 0.000000
# 4 0.000000 0.000000 0.000000 0.044085 0.000000 -0.019144
# 5 -0.016033 -0.000336 -0.005058 0.000000 0.044875 0.000000
# 6 0.000000 0.000000 0.000000 -0.019144 0.000000 0.048616
#
#
# Mechanical properties :
#
#
# Convention : Reuss Voigt Hill
#
# Bulk Modulus (GPa) = 34.41978 67.97870 51.19924
# Shear Modulus (GPa) = 25.95455 36.35187 31.15321
#
# Velocity S-wave (km/s) = 3.29871 3.90391 3.61400
# Velocity P-wave (km/s) = 5.37951 6.98719 6.23538
#
# Compressibility (1/GPa) = 0.02905306
#
# Stress axis : x y z
#
# Youngs Moduli (GPa) = 45.24758 144.78180 121.78621
#
# Poissons Ratio (x) = 0.30595 -0.03624
# Poissons Ratio (y) = 0.09561 0.27612
# Poissons Ratio (z) = -0.01346 0.32826
#
# Static dielectric constant tensor:
#      x y z
#    x 1.936920 0.000000 0.015940 
#    y 0.000000 1.933360 0.000000 
#    z 0.015940 0.000000 1.925160 
# 
# From -- ./inp_files/11306.got.cif
#   From: 2010.05.17/outbox.cif.g08.bks.cpg/sg4_6_cif.got.tgz:11306.got - 2010.06.03 18:43:04.
