data_PCOD9116929
_publ_section_title
;
Structure prediction by ZEFSAII (Michael W. Deem and Ramdas Pophale) SiO2 
 PCOD9116929
Probable space group: P 21
;
_chemical_formula_sum "Si O2"
_cell_formula_units_Z 14
_cell_length_a 18.540847
_cell_length_b 5.703581
_cell_length_c 11.376823
_cell_angle_alpha 90.000000
_cell_angle_beta 24.817564
_cell_angle_gamma 90.000000
_cell_volume 504.973456
_symmetry_space_group_name_H-M "P 21"
_symmetry_group_IT_number 4
_symmetry_cell_setting 'monoclinic'
loop_
_space_group_symop_operation_xyz
x,y,z
-x,1/2+y,-z
loop_
_atom_site_type_symbol
_atom_site_label
_atom_site_fract_x
_atom_site_fract_y
_atom_site_fract_z
Si Si1 0.625126 0.810480 0.923189
Si Si2 0.215983 0.782302 0.553763
Si Si3 0.315488 0.931351 0.754680
Si Si4 0.920895 0.424062 0.486155
Si Si5 0.776086 0.160691 0.891211
Si Si6 0.726301 0.806612 0.497910
Si Si7 0.671245 0.928516 0.331977
O O1 0.767606 0.611121 0.734740
O O2 0.644233 0.828060 0.750936
O O3 0.667516 0.017471 0.955133
O O4 0.424775 0.765305 0.243183
O O5 0.147321 0.784194 0.523402
O O6 0.150000 0.532302 0.697900
O O7 0.188789 0.050098 0.635505
O O8 0.524215 0.954452 0.447538
O O9 0.268068 0.700678 0.749666
O O10 0.239238 0.179626 0.830649
O O11 0.282916 0.871368 0.938655
O O12 0.929150 0.260214 0.585499
O O13 0.113805 0.508202 0.179438
O O14 0.610426 0.852385 0.554169
#
# Coordination Sequence:
#
# PCOD9116929 Si02
#       7
#     2   2   2   2   2   2   2
#     4  11  24  38  64 101 133 182 221 285 350 409
#     4  11  24  38  65 102 133 178 224 281 349 408
#     4  10  24  39  66  91 136 181 232 278 339 399
#     4  11  25  41  63 103 142 178 228 269 365 421
#     4  12  24  43  65  99 143 184 218 286 346 432
#     4  11  21  39  64  93 136 164 222 291 337 398
#     4  10  22  42  61  99 127 181 235 286 330 391
#
# _framework density 27.724229000000001
#
# number of rings (size 3 to 8) (size 9 to 14) (size 15 to 20)
#    0.000    1.143    2.857    3.429    8.000    1.143 
#    0.000    0.000    0.000   10.286    0.000    0.000 
#    0.000    0.000    0.000    0.000    0.000    0.000 
#
# Total GULP energy -78051.605447 kJ/mol
# GULP energy per Si atom -5575.114675 kJ/mol
# Density = 2.766113 g / cm^3
# Si number density = 27.724229 Si / 1000 Ang^3
#
#
#
# Elastic Constant Matrix: (Units=GPa)
#
#
# Indices 1 2 3 4 5 6 
#
# 1 116.5808 38.6626 17.7560 0.0000 10.2698 0.0000
# 2 38.6626 241.5911 27.6167 0.0000 18.6486 0.0000
# 3 17.7560 27.6167 75.8306 0.0000 -13.8530 0.0000
# 4 0.0000 0.0000 0.0000 25.0489 0.0000 11.0009
# 5 10.2698 18.6486 -13.8530 0.0000 26.0815 0.0000
# 6 0.0000 0.0000 0.0000 11.0009 0.0000 45.9315
#
#
#
# Elastic Compliance Matrix: (Units=1/GPa)
#
#
# Indices 1 2 3 4 5 6 
#
# 1 0.009708 -0.000869 -0.002814 0.000000 -0.004696 0.000000
# 2 -0.000869 0.004893 -0.002386 0.000000 -0.004423 0.000000
# 3 -0.002814 -0.002386 0.016866 0.000000 0.011773 0.000000
# 4 0.000000 0.000000 0.000000 0.044615 0.000000 -0.010686
# 5 -0.004696 -0.004423 0.011773 0.000000 0.049606 0.000000
# 6 0.000000 0.000000 0.000000 -0.010686 0.000000 0.024331
#
#
# Mechanical properties :
#
#
# Convention : Reuss Voigt Hill
#
# Bulk Modulus (GPa) = 51.74231 66.89700 59.31965
# Shear Modulus (GPa) = 29.65574 42.74354 36.19964
#
# Velocity S-wave (km/s) = 3.27413 3.93076 3.61737
# Velocity P-wave (km/s) = 5.74430 6.69201 6.23618
#
# Compressibility (1/GPa) = 0.01932655
#
# Stress axis : x y z
#
# Youngs Moduli (GPa) = 103.00325 204.39066 59.29071
#
# Poissons Ratio (x) = 0.17771 0.16687
# Poissons Ratio (y) = 0.08956 0.14149
# Poissons Ratio (z) = 0.28990 0.48774
#
# Static dielectric constant tensor:
#      x y z
#    x 2.140830 0.000000 0.039530 
#    y 0.000000 2.274350 0.000000 
#    z 0.039530 0.000000 2.159360 
# 
# From -- ./inp_files/12788.got.cif
#   From: 2010.05.17/outbox.cif.g08.bks.cpg/sg4_7_cif.got.tgz:12788.got - 2010.06.03 18:43:04.
