data_PCOD9116468
_publ_section_title
;
Structure prediction by ZEFSAII (Michael W. Deem and Ramdas Pophale) SiO2 
 PCOD9116468
Probable space group: P 21
;
_chemical_formula_sum "Si O2"
_cell_formula_units_Z 16
_cell_length_a 7.965679
_cell_length_b 12.511243
_cell_length_c 9.182808
_cell_angle_alpha 90.000000
_cell_angle_beta 49.201168
_cell_angle_gamma 90.000000
_cell_volume 692.786553
_symmetry_space_group_name_H-M "P 21"
_symmetry_group_IT_number 4
_symmetry_cell_setting 'monoclinic'
loop_
_space_group_symop_operation_xyz
x,y,z
-x,1/2+y,-z
loop_
_atom_site_type_symbol
_atom_site_label
_atom_site_fract_x
_atom_site_fract_y
_atom_site_fract_z
Si Si1 0.374081 0.060650 0.242734
Si Si2 0.008563 0.527501 0.768769
Si Si3 0.305942 0.736930 0.593026
Si Si4 0.415463 0.288388 0.174318
Si Si5 0.953381 0.814507 0.383926
Si Si6 0.743399 0.623831 0.395603
Si Si7 0.456315 0.832509 0.203368
Si Si8 0.747773 0.433538 0.172444
O O1 0.220226 0.046070 0.189205
O O2 0.509194 0.168468 0.139972
O O3 0.212650 0.065888 0.475609
O O4 0.514832 0.955985 0.195919
O O5 0.137663 0.638290 0.686297
O O6 0.134772 0.428892 0.620276
O O7 0.945887 0.477652 0.960014
O O8 0.520661 0.690391 0.551321
O O9 0.414789 0.770687 0.376419
O O10 0.213030 0.839046 0.732508
O O11 0.181906 0.288452 0.392568
O O12 0.567944 0.379834 0.162864
O O13 0.386163 0.298446 0.017592
O O14 0.920139 0.719629 0.285201
O O15 0.210934 0.826319 0.271075
O O16 0.693858 0.539070 0.298590
#
# Coordination Sequence:
#
# PCOD9116468 Si02
#       8
#     2   2   2   2   2   2   2   2
#     4  10  21  44  67  98 136 179 234 287 335 420
#     4  11  26  43  72 100 143 185 235 283 355 424
#     4  12  25  43  69 105 137 183 231 293 358 409
#     4  11  22  43  73  98 137 187 232 281 351 416
#     4  10  22  46  70  99 140 184 232 289 345 413
#     4  11  24  42  71  94 142 178 233 293 348 409
#     4  11  24  44  72 101 138 183 239 284 346 423
#     4  12  24  43  68 101 143 179 232 290 348 418
#
# _framework density 23.095137000000001
#
# number of rings (size 3 to 8) (size 9 to 14) (size 15 to 20)
#    0.000    1.000    6.250    2.250    3.500    1.000 
#    0.000    2.500    0.000    0.000    0.000    0.000 
#    0.000    0.000    0.000    0.000    0.000    0.000 
#
# Total GULP energy -89229.129984 kJ/mol
# GULP energy per Si atom -5576.820624 kJ/mol
# Density = 2.304257 g / cm^3
# Si number density = 23.095137 Si / 1000 Ang^3
#
#
#
# Elastic Constant Matrix: (Units=GPa)
#
#
# Indices 1 2 3 4 5 6 
#
# 1 35.0267 10.4088 4.1143 0.0000 8.4257 0.0000
# 2 10.4088 150.5922 49.6978 0.0000 19.0456 0.0000
# 3 4.1143 49.6978 119.3032 0.0000 24.2048 0.0000
# 4 0.0000 0.0000 0.0000 14.3777 0.0000 3.8777
# 5 8.4257 19.0456 24.2048 0.0000 28.6503 0.0000
# 6 0.0000 0.0000 0.0000 3.8777 0.0000 26.0513
#
#
#
# Elastic Compliance Matrix: (Units=1/GPa)
#
#
# Indices 1 2 3 4 5 6 
#
# 1 0.031067 -0.001431 0.001431 0.000000 -0.009394 0.000000
# 2 -0.001431 0.007971 -0.002753 0.000000 -0.002552 0.000000
# 3 0.001431 -0.002753 0.011095 0.000000 -0.007964 0.000000
# 4 0.000000 0.000000 0.000000 0.072461 0.000000 -0.010786
# 5 -0.009394 -0.002552 -0.007964 0.000000 0.046091 0.000000
# 6 0.000000 0.000000 0.000000 -0.010786 0.000000 0.039991
#
#
# Mechanical properties :
#
#
# Convention : Reuss Voigt Hill
#
# Bulk Modulus (GPa) = 22.40908 48.15153 35.28030
# Shear Modulus (GPa) = 21.82844 29.86260 25.84552
#
# Velocity S-wave (km/s) = 3.07767 3.59977 3.34891
# Velocity P-wave (km/s) = 4.72794 6.17837 5.50117
#
# Compressibility (1/GPa) = 0.04462478
#
# Stress axis : x y z
#
# Youngs Moduli (GPa) = 32.18887 125.45905 90.12718
#
# Poissons Ratio (x) = 0.17959 -0.12895
# Poissons Ratio (y) = 0.04608 0.24815
# Poissons Ratio (z) = -0.04605 0.34543
#
# Static dielectric constant tensor:
#      x y z
#    x 1.905370 0.000000 0.055560 
#    y 0.000000 2.016880 0.000000 
#    z 0.055560 0.000000 1.945810 
# 
# From -- ./inp_files/6377.got.cif
#   From: 2010.05.17/outbox.cif.g08.bks.cpg/sg4_4_cif.got.tgz:6377.got - 2010.06.03 18:43:04.
