data_PCOD9116744
_publ_section_title
;
Structure prediction by ZEFSAII (Michael W. Deem and Ramdas Pophale) SiO2 
 PCOD9116744
Probable space group: P 21
;
_chemical_formula_sum "Si O2"
_cell_formula_units_Z 16
_cell_length_a 8.990727
_cell_length_b 5.161948
_cell_length_c 27.501738
_cell_angle_alpha 90.000000
_cell_angle_beta 32.758006
_cell_angle_gamma 90.000000
_cell_volume 690.620837
_symmetry_space_group_name_H-M "P 21"
_symmetry_group_IT_number 4
_symmetry_cell_setting 'monoclinic'
loop_
_space_group_symop_operation_xyz
x,y,z
-x,1/2+y,-z
loop_
_atom_site_type_symbol
_atom_site_label
_atom_site_fract_x
_atom_site_fract_y
_atom_site_fract_z
Si Si1 0.538975 0.630200 0.961859
Si Si2 0.490704 0.339654 0.677183
Si Si3 0.923469 0.178714 0.151546
Si Si4 0.361430 0.003916 0.846918
Si Si5 0.041999 0.378520 0.588560
Si Si6 0.451725 0.843323 0.622077
Si Si7 0.093803 0.856625 0.020088
Si Si8 0.993693 0.889398 0.667717
O O1 0.846681 0.747848 0.871324
O O2 0.576892 0.331483 0.965807
O O3 0.313368 0.654993 0.982057
O O4 0.252571 0.448828 0.777335
O O5 0.512317 0.567064 0.630584
O O6 0.768945 0.323382 0.632097
O O7 0.429444 0.067008 0.668693
O O8 0.724339 0.387656 0.181739
O O9 0.105498 0.090366 0.055006
O O10 0.681391 0.966317 0.766723
O O11 0.190932 0.885036 0.938722
O O12 0.228574 0.287142 0.886946
O O13 0.294065 0.415301 0.482669
O O14 0.994834 0.633079 0.634072
O O15 0.102830 0.132754 0.606331
O O16 0.182306 0.839124 0.662513
#
# Coordination Sequence:
#
# PCOD9116744 Si02
#       8
#     2   2   2   2   2   2   2   2
#     4  10  22  40  65  90 128 174 228 277 341 394
#     4  12  26  45  73 107 146 187 235 296 352 436
#     4  11  24  44  65  98 136 185 231 289 351 414
#     4  12  24  44  68  99 138 182 245 282 354 409
#     4  12  24  50  78 105 142 191 236 293 364 432
#     4  12  27  48  72 112 144 186 235 295 365 430
#     4  11  24  43  66  96 134 187 234 292 338 414
#     4  12  27  46  77 107 146 188 238 300 353 429
#
# _framework density 23.167560000000002
#
# number of rings (size 3 to 8) (size 9 to 14) (size 15 to 20)
#    0.000    0.500    3.750    4.500    3.500    0.000 
#    6.750    0.000    0.000    0.000    0.000    0.000 
#    0.000    0.000    0.000    0.000    0.000    0.000 
#
# Total GULP energy -89415.760391 kJ/mol
# GULP energy per Si atom -5588.485024 kJ/mol
# Density = 2.311483 g / cm^3
# Si number density = 23.167560 Si / 1000 Ang^3
#
#
#
# Elastic Constant Matrix: (Units=GPa)
#
#
# Indices 1 2 3 4 5 6 
#
# 1 100.9748 17.1913 24.3242 0.0000 -5.8596 0.0000
# 2 17.1913 70.9220 -16.2227 0.0000 11.5452 0.0000
# 3 24.3242 -16.2227 80.1432 0.0000 2.8004 0.0000
# 4 0.0000 0.0000 0.0000 35.0903 0.0000 7.4627
# 5 -5.8596 11.5452 2.8004 0.0000 39.5431 0.0000
# 6 0.0000 0.0000 0.0000 7.4627 0.0000 38.4898
#
#
#
# Elastic Compliance Matrix: (Units=1/GPa)
#
#
# Indices 1 2 3 4 5 6 
#
# 1 0.012004 -0.004540 -0.004682 0.000000 0.003436 0.000000
# 2 -0.004540 0.017362 0.005106 0.000000 -0.006103 0.000000
# 3 -0.004682 0.005106 0.015046 0.000000 -0.003250 0.000000
# 4 0.000000 0.000000 0.000000 0.029724 0.000000 -0.005763
# 5 0.003436 -0.006103 -0.003250 0.000000 0.027810 0.000000
# 6 0.000000 0.000000 0.000000 -0.005763 0.000000 0.027098
#
#
# Mechanical properties :
#
#
# Convention : Reuss Voigt Hill
#
# Bulk Modulus (GPa) = 27.64101 33.62505 30.63303
# Shear Modulus (GPa) = 33.48149 37.74112 35.61131
#
# Velocity S-wave (km/s) = 3.80569 4.04053 3.92486
# Velocity P-wave (km/s) = 5.59176 6.02604 5.81296
#
# Compressibility (1/GPa) = 0.03617813
#
# Stress axis : x y z
#
# Youngs Moduli (GPa) = 83.30738 57.59731 66.46351
#
# Poissons Ratio (x) = 0.26149 0.31120
# Poissons Ratio (y) = 0.37822 -0.33934
# Poissons Ratio (z) = 0.39007 -0.29407
#
# Static dielectric constant tensor:
#      x y z
#    x 1.902810 0.000000 -0.017110 
#    y 0.000000 1.944940 0.000000 
#    z -0.017110 0.000000 1.873510 
# 
# From -- ./inp_files/16322.got.cif
#   From: 2010.05.17/outbox.cif.g08.bks.cpg/sg4_9_cif.got.tgz:16322.got - 2010.06.03 18:43:04.
