data_PCOD9116988
_publ_section_title
;
Structure prediction by ZEFSAII (Michael W. Deem and Ramdas Pophale) SiO2 
 PCOD9116988
Probable space group: P 21
;
_chemical_formula_sum "Si O2"
_cell_formula_units_Z 16
_cell_length_a 10.762325
_cell_length_b 11.600235
_cell_length_c 8.392169
_cell_angle_alpha 90.000000
_cell_angle_beta 40.778015
_cell_angle_gamma 90.000000
_cell_volume 684.300414
_symmetry_space_group_name_H-M "P 21"
_symmetry_group_IT_number 4
_symmetry_cell_setting 'monoclinic'
loop_
_space_group_symop_operation_xyz
x,y,z
-x,1/2+y,-z
loop_
_atom_site_type_symbol
_atom_site_label
_atom_site_fract_x
_atom_site_fract_y
_atom_site_fract_z
Si Si1 0.777355 0.484830 0.756760
Si Si2 0.032804 0.341229 0.691580
Si Si3 0.866116 0.393525 0.320145
Si Si4 0.112084 0.634448 0.366827
Si Si5 0.174839 0.256482 0.897506
Si Si6 0.427594 0.032811 0.585882
Si Si7 0.368903 0.497228 0.283804
Si Si8 0.251323 0.491095 0.945144
O O1 0.823083 0.414219 0.548830
O O2 0.875764 0.441280 0.825356
O O3 0.895075 0.601247 0.615006
O O4 0.554598 0.491175 0.994019
O O5 0.110058 0.298001 0.784148
O O6 0.215086 0.393892 0.423149
O O7 0.914341 0.243945 0.715518
O O8 0.692133 0.430416 0.380152
O O9 0.974488 0.272672 0.186586
O O10 0.030561 0.486212 0.103363
O O11 0.254469 0.617815 0.374711
O O12 0.215649 0.537708 0.155395
O O13 0.292657 0.139859 0.765063
O O14 0.298462 0.356137 0.867636
O O15 0.545749 0.991580 0.622206
O O16 0.591088 0.065239 0.297382
#
# Coordination Sequence:
#
# PCOD9116988 Si02
#       8
#     2   2   2   2   2   2   2   2
#     4  10  22  42  69  96 138 175 225 280 331 413
#     4  11  23  45  67  98 136 187 222 283 344 403
#     4   9  21  43  64  98 135 178 219 283 335 405
#     4  10  23  45  68  93 139 181 222 282 348 398
#     4  10  22  42  68  96 136 178 225 283 343 401
#     4  12  22  43  71 100 138 175 229 287 343 399
#     4  11  24  42  69 103 136 174 234 280 332 424
#     4   9  21  44  66  96 132 172 232 280 334 415
#
# _framework density 23.381543000000001
#
# number of rings (size 3 to 8) (size 9 to 14) (size 15 to 20)
#    0.750    1.000    1.250    3.000    0.000    3.000 
#    9.000    0.000    0.000    0.000    0.000    0.000 
#    0.000    0.000    0.000    0.000    0.000    0.000 
#
# Total GULP energy -89068.175194 kJ/mol
# GULP energy per Si atom -5566.760950 kJ/mol
# Density = 2.332833 g / cm^3
# Si number density = 23.381543 Si / 1000 Ang^3
#
#
#
# Elastic Constant Matrix: (Units=GPa)
#
#
# Indices 1 2 3 4 5 6 
#
# 1 81.3441 17.3164 39.6715 0.0000 -16.8681 0.0000
# 2 17.3164 48.0750 28.3901 0.0000 -0.4173 0.0000
# 3 39.6715 28.3901 143.5972 0.0000 -31.2141 0.0000
# 4 0.0000 0.0000 0.0000 22.3777 0.0000 -3.3534
# 5 -16.8681 -0.4173 -31.2141 0.0000 34.6865 0.0000
# 6 0.0000 0.0000 0.0000 -3.3534 0.0000 29.8676
#
#
#
# Elastic Compliance Matrix: (Units=1/GPa)
#
#
# Indices 1 2 3 4 5 6 
#
# 1 0.015403 -0.004170 -0.002255 0.000000 0.005411 0.000000
# 2 -0.004170 0.025356 -0.005266 0.000000 -0.006461 0.000000
# 3 -0.002255 -0.005266 0.010413 0.000000 0.008210 0.000000
# 4 0.000000 0.000000 0.000000 0.045452 0.000000 0.005103
# 5 0.005411 -0.006461 0.008210 0.000000 0.038772 0.000000
# 6 0.000000 0.000000 0.000000 0.005103 0.000000 0.034054
#
#
# Mechanical properties :
#
#
# Convention : Reuss Voigt Hill
#
# Bulk Modulus (GPa) = 35.98187 49.30801 42.64494
# Shear Modulus (GPa) = 24.74106 29.89558 27.31832
#
# Velocity S-wave (km/s) = 3.25644 3.57963 3.42185
# Velocity P-wave (km/s) = 5.43706 6.18217 5.82155
#
# Compressibility (1/GPa) = 0.02779177
#
# Stress axis : x y z
#
# Youngs Moduli (GPa) = 64.92326 39.43816 96.03761
#
# Poissons Ratio (x) = 0.16444 0.21654
# Poissons Ratio (y) = 0.27070 0.50570
# Poissons Ratio (z) = 0.14638 0.20767
#
# Static dielectric constant tensor:
#      x y z
#    x 1.903320 0.000000 0.048840 
#    y 0.000000 1.952310 0.000000 
#    z 0.048840 0.000000 1.933590 
# 
# From -- ./inp_files/8305.got.cif
#   From: 2010.05.17/outbox.cif.g08.bks.cpg/sg4_5_cif.got.tgz:8305.got - 2010.06.03 18:43:04.
