data_PCOD9116467
_publ_section_title
;
Structure prediction by ZEFSAII (Michael W. Deem and Ramdas Pophale) SiO2 
 PCOD9116467
Probable space group: P 21
;
_chemical_formula_sum "Si O2"
_cell_formula_units_Z 16
_cell_length_a 12.173575
_cell_length_b 9.543431
_cell_length_c 11.459541
_cell_angle_alpha 90.000000
_cell_angle_beta 145.828314
_cell_angle_gamma 90.000000
_cell_volume 747.781424
_symmetry_space_group_name_H-M "P 21"
_symmetry_group_IT_number 4
_symmetry_cell_setting 'monoclinic'
loop_
_space_group_symop_operation_xyz
x,y,z
-x,1/2+y,-z
loop_
_atom_site_type_symbol
_atom_site_label
_atom_site_fract_x
_atom_site_fract_y
_atom_site_fract_z
Si Si1 0.505734 0.805450 0.944245
Si Si2 0.727908 0.483713 0.551796
Si Si3 0.240010 0.827247 0.909601
Si Si4 0.646543 0.614733 0.870025
Si Si5 0.104421 0.271250 0.236565
Si Si6 0.531758 0.601723 0.159878
Si Si7 0.607660 0.001993 0.564463
Si Si8 0.061369 0.732303 0.150865
O O1 0.291832 0.811851 0.818181
O O2 0.526674 0.727380 0.840654
O O3 0.569104 0.966294 0.987902
O O4 0.616610 0.707323 0.136486
O O5 0.849615 0.607677 0.719646
O O6 0.685262 0.536633 0.384057
O O7 0.518340 0.474000 0.431449
O O8 0.841715 0.340961 0.674499
O O9 0.021106 0.813096 0.761306
O O10 0.368441 0.699704 0.077114
O O11 0.322149 0.974625 0.026499
O O12 0.532661 0.571244 0.654311
O O13 0.856630 0.677168 0.020750
O O14 0.304386 0.357118 0.405851
O O15 0.982169 0.304489 0.012148
O O16 0.789021 0.106092 0.740332
#
# Coordination Sequence:
#
# PCOD9116467 Si02
#       8
#     2   2   2   2   2   2   2   2
#     4  10  22  42  73  96 135 193 227 287 361 408
#     4  12  25  42  67 110 141 182 243 286 356 429
#     4  10  21  44  67  97 134 186 235 279 351 418
#     4  12  23  47  72 102 141 188 234 289 364 422
#     4  12  24  43  67 103 143 186 230 294 358 419
#     4  10  22  42  71  98 136 185 238 286 343 423
#     4  12  25  45  71 104 144 188 234 293 358 429
#     4  12  26  43  68 110 144 184 233 296 357 424
#
# _framework density 21.396628
#
# number of rings (size 3 to 8) (size 9 to 14) (size 15 to 20)
#    0.750    0.000    3.750    4.500    3.500    0.000 
#    0.000    3.750    0.000    0.000    0.000    0.000 
#    0.000    0.000    0.000    0.000    0.000    0.000 
#
# Total GULP energy -89382.963617 kJ/mol
# GULP energy per Si atom -5586.435226 kJ/mol
# Density = 2.134793 g / cm^3
# Si number density = 21.396628 Si / 1000 Ang^3
#
#
#
# Elastic Constant Matrix: (Units=GPa)
#
#
# Indices 1 2 3 4 5 6 
#
# 1 95.9695 27.5385 26.1230 0.0000 -1.9969 0.0000
# 2 27.5385 117.3392 21.8769 0.0000 5.7562 0.0000
# 3 26.1230 21.8769 66.2671 0.0000 -4.3552 0.0000
# 4 0.0000 0.0000 0.0000 32.2019 0.0000 3.8241
# 5 -1.9969 5.7562 -4.3552 0.0000 17.8196 0.0000
# 6 0.0000 0.0000 0.0000 3.8241 0.0000 29.4955
#
#
#
# Elastic Compliance Matrix: (Units=1/GPa)
#
#
# Indices 1 2 3 4 5 6 
#
# 1 0.012152 -0.002158 -0.004007 0.000000 0.001080 0.000000
# 2 -0.002158 0.009715 -0.002621 0.000000 -0.004020 0.000000
# 3 -0.004007 -0.002621 0.017848 0.000000 0.004760 0.000000
# 4 0.000000 0.000000 0.000000 0.031540 0.000000 -0.004089
# 5 0.001080 -0.004020 0.004760 0.000000 0.058701 0.000000
# 6 0.000000 0.000000 0.000000 -0.004089 0.000000 0.034434
#
#
# Mechanical properties :
#
#
# Convention : Reuss Voigt Hill
#
# Bulk Modulus (GPa) = 45.15999 47.85028 46.50514
# Shear Modulus (GPa) = 26.40722 29.50588 27.95655
#
# Velocity S-wave (km/s) = 3.51690 3.71751 3.61860
# Velocity P-wave (km/s) = 6.13542 6.39051 6.26426
#
# Compressibility (1/GPa) = 0.02214349
#
# Stress axis : x y z
#
# Youngs Moduli (GPa) = 82.28808 102.93823 56.02837
#
# Poissons Ratio (x) = 0.22213 0.22452
# Poissons Ratio (y) = 0.17757 0.14683
# Poissons Ratio (z) = 0.32975 0.26977
#
# Static dielectric constant tensor:
#      x y z
#    x 1.778630 0.000000 -0.022770 
#    y 0.000000 1.789470 0.000000 
#    z -0.022770 0.000000 1.766890 
# 
# From -- ./inp_files/12143.got.cif
#   From: 2010.05.17/outbox.cif.g08.bks.cpg/sg4_7_cif.got.tgz:12143.got - 2010.06.03 18:43:04.
