data_PCOD9116921
_publ_section_title
;
Structure prediction by ZEFSAII (Michael W. Deem and Ramdas Pophale) SiO2 
 PCOD9116921
Probable space group: P 21
;
_chemical_formula_sum "Si O2"
_cell_formula_units_Z 14
_cell_length_a 16.134646
_cell_length_b 5.092740
_cell_length_c 7.894862
_cell_angle_alpha 90.000000
_cell_angle_beta 65.015599
_cell_angle_gamma 90.000000
_cell_volume 588.012172
_symmetry_space_group_name_H-M "P 21"
_symmetry_group_IT_number 4
_symmetry_cell_setting 'monoclinic'
loop_
_space_group_symop_operation_xyz
x,y,z
-x,1/2+y,-z
loop_
_atom_site_type_symbol
_atom_site_label
_atom_site_fract_x
_atom_site_fract_y
_atom_site_fract_z
Si Si1 0.946596 0.031980 0.986964
Si Si2 0.752933 0.104375 0.330102
Si Si3 0.552555 0.264210 0.383886
Si Si4 0.955488 0.809105 0.602052
Si Si5 0.700015 0.277647 0.694938
Si Si6 0.762996 0.776512 0.650813
Si Si7 0.493263 0.567455 0.111399
O O1 0.843274 0.081796 0.141256
O O2 0.002638 0.304546 0.948282
O O3 0.947445 0.914791 0.798162
O O4 0.748835 0.861197 0.467258
O O5 0.656667 0.165507 0.323218
O O6 0.759250 0.323435 0.473777
O O7 0.513281 0.507277 0.534943
O O8 0.547023 0.404071 0.205749
O O9 0.862579 0.682716 0.612311
O O10 0.025690 0.568787 0.525882
O O11 0.691699 0.562076 0.777142
O O12 0.604833 0.148898 0.727577
O O13 0.749691 0.055030 0.758097
O O14 0.474782 0.350330 0.982586
#
# Coordination Sequence:
#
# PCOD9116921 Si02
#       7
#     2   2   2   2   2   2   2
#     4  12  28  48  76 113 149 191 251 309 365 442
#     4  10  26  44  80 103 147 192 250 304 369 428
#     4  12  26  46  77 109 148 199 253 302 369 449
#     4  12  25  46  74 109 147 193 241 306 376 443
#     4  10  23  43  73  99 143 192 242 290 373 424
#     4  10  22  41  73 102 140 188 242 289 373 433
#     4  12  26  46  71 109 150 193 243 310 367 435
#
# _framework density 23.80903
#
# number of rings (size 3 to 8) (size 9 to 14) (size 15 to 20)
#    0.857    0.000    1.429    5.143    8.000    1.143 
#    0.000    4.286    0.000    0.000    0.000    0.000 
#    0.000    0.000    0.000    0.000    0.000    0.000 
#
# Total GULP energy -78063.501144 kJ/mol
# GULP energy per Si atom -5575.964367 kJ/mol
# Density = 2.375484 g / cm^3
# Si number density = 23.809030 Si / 1000 Ang^3
#
#
#
# Elastic Constant Matrix: (Units=GPa)
#
#
# Indices 1 2 3 4 5 6 
#
# 1 114.3887 30.7737 30.6003 0.0000 -5.4592 0.0000
# 2 30.7737 146.5250 31.2426 0.0000 -9.1009 0.0000
# 3 30.6003 31.2426 102.8725 0.0000 -8.3505 0.0000
# 4 0.0000 0.0000 0.0000 23.3978 0.0000 1.8266
# 5 -5.4592 -9.1009 -8.3505 0.0000 30.2638 0.0000
# 6 0.0000 0.0000 0.0000 1.8266 0.0000 35.0750
#
#
#
# Elastic Compliance Matrix: (Units=1/GPa)
#
#
# Indices 1 2 3 4 5 6 
#
# 1 0.009824 -0.001509 -0.002411 0.000000 0.000653 0.000000
# 2 -0.001509 0.007607 -0.001737 0.000000 0.001536 0.000000
# 3 -0.002411 -0.001737 0.011137 0.000000 0.002116 0.000000
# 4 0.000000 0.000000 0.000000 0.042913 0.000000 -0.002235
# 5 0.000653 0.001536 0.002116 0.000000 0.034206 0.000000
# 6 0.000000 0.000000 0.000000 -0.002235 0.000000 0.028627
#
#
# Mechanical properties :
#
#
# Convention : Reuss Voigt Hill
#
# Bulk Modulus (GPa) = 57.95254 61.00215 59.47735
# Shear Modulus (GPa) = 33.02937 35.82530 34.42733
#
# Velocity S-wave (km/s) = 3.72864 3.88325 3.80673
# Velocity P-wave (km/s) = 6.55213 6.76633 6.66009
#
# Compressibility (1/GPa) = 0.01725550
#
# Stress axis : x y z
#
# Youngs Moduli (GPa) = 101.79003 131.45098 89.78903
#
# Poissons Ratio (x) = 0.19831 0.21649
# Poissons Ratio (y) = 0.15356 0.15596
# Poissons Ratio (z) = 0.24542 0.22832
#
# Static dielectric constant tensor:
#      x y z
#    x 2.002440 0.000000 -0.039420 
#    y 0.000000 2.024490 0.000000 
#    z -0.039420 0.000000 1.978150 
# 
# From -- ./inp_files/9012.got.cif
#   From: 2010.05.17/outbox.cif.g08.bks.cpg/sg4_5_cif.got.tgz:9012.got - 2010.06.03 18:43:04.
