data_PCOD9116013
_publ_section_title
;
Structure prediction by ZEFSAII (Michael W. Deem and Ramdas Pophale) SiO2 
 PCOD9116013
Probable space group: P 21
;
_chemical_formula_sum "Si O2"
_cell_formula_units_Z 16
_cell_length_a 15.636442
_cell_length_b 5.274240
_cell_length_c 10.069165
_cell_angle_alpha 90.000000
_cell_angle_beta 124.071246
_cell_angle_gamma 90.000000
_cell_volume 687.861101
_symmetry_space_group_name_H-M "P 21"
_symmetry_group_IT_number 4
_symmetry_cell_setting 'monoclinic'
loop_
_space_group_symop_operation_xyz
x,y,z
-x,1/2+y,-z
loop_
_atom_site_type_symbol
_atom_site_label
_atom_site_fract_x
_atom_site_fract_y
_atom_site_fract_z
Si Si1 0.653783 0.129570 0.880040
Si Si2 0.635656 0.517493 0.637432
Si Si3 0.027380 0.908758 0.196832
Si Si4 0.467701 0.759752 0.663241
Si Si5 0.853305 0.240780 0.154620
Si Si6 0.488894 0.944222 0.070937
Si Si7 0.839466 0.630698 0.908918
Si Si8 0.056381 0.701926 0.506787
O O1 0.661611 0.267143 0.745438
O O2 0.614541 0.351857 0.945451
O O3 0.561550 0.930150 0.799997
O O4 0.764241 0.044858 0.031494
O O5 0.524641 0.613049 0.592610
O O6 0.620571 0.436736 0.473035
O O7 0.725803 0.710470 0.759713
O O8 0.061498 0.738142 0.352603
O O9 0.967149 0.144399 0.212212
O O10 0.936624 0.809306 0.020810
O O11 0.122039 0.963893 0.182949
O O12 0.438412 0.558800 0.749945
O O13 0.851539 0.274662 0.311272
O O14 0.832117 0.477703 0.040830
O O15 0.529621 0.687416 0.038657
O O16 0.027852 0.413477 0.519843
#
# Coordination Sequence:
#
# PCOD9116013 Si02
#       8
#     2   2   2   2   2   2   2   2
#     4  10  21  39  67  95 126 174 221 264 326 400
#     4  10  22  36  63  96 129 167 226 266 339 389
#     4  11  21  38  63  89 133 168 213 277 335 381
#     4  11  20  40  67  93 133 176 211 286 322 402
#     4  10  21  39  64  91 127 172 222 262 324 402
#     4  11  23  43  65  91 130 179 220 267 337 392
#     4  11  21  38  60  93 128 171 218 272 331 402
#     4  10  21  39  63  88 122 167 213 264 318 380
#
# _framework density 23.260508000000002
#
# number of rings (size 3 to 8) (size 9 to 14) (size 15 to 20)
#    0.000    1.500    5.000    0.750    0.000    0.000 
#    2.250    0.000    0.000    4.500    0.000    0.000 
#    0.000    0.000    0.000    0.000    0.000    0.000 
#
# Total GULP energy -89195.025389 kJ/mol
# GULP energy per Si atom -5574.689087 kJ/mol
# Density = 2.320757 g / cm^3
# Si number density = 23.260508 Si / 1000 Ang^3
#
#
#
# Elastic Constant Matrix: (Units=GPa)
#
#
# Indices 1 2 3 4 5 6 
#
# 1 40.6851 9.7404 32.8313 0.0000 -5.1996 0.0000
# 2 9.7404 80.0275 16.7218 0.0000 -8.9157 0.0000
# 3 32.8313 16.7218 118.3403 0.0000 1.4467 0.0000
# 4 0.0000 0.0000 0.0000 35.2330 0.0000 -3.1074
# 5 -5.1996 -8.9157 1.4467 0.0000 32.1174 0.0000
# 6 0.0000 0.0000 0.0000 -3.1074 0.0000 26.2945
#
#
#
# Elastic Compliance Matrix: (Units=1/GPa)
#
#
# Indices 1 2 3 4 5 6 
#
# 1 0.032857 -0.001536 -0.008963 0.000000 0.005297 0.000000
# 2 -0.001536 0.013392 -0.001509 0.000000 0.003537 0.000000
# 3 -0.008963 -0.001509 0.011179 0.000000 -0.002374 0.000000
# 4 0.000000 0.000000 0.000000 0.028681 0.000000 0.003389
# 5 0.005297 0.003537 -0.002374 0.000000 0.033082 0.000000
# 6 0.000000 0.000000 0.000000 0.003389 0.000000 0.038431
#
#
# Mechanical properties :
#
#
# Convention : Reuss Voigt Hill
#
# Bulk Modulus (GPa) = 29.93069 39.73777 34.83423
# Shear Modulus (GPa) = 25.93671 30.71294 28.32483
#
# Velocity S-wave (km/s) = 3.34286 3.63766 3.49337
# Velocity P-wave (km/s) = 5.27211 5.89613 5.59283
#
# Compressibility (1/GPa) = 0.03341052
#
# Stress axis : x y z
#
# Youngs Moduli (GPa) = 30.43523 74.67088 89.45212
#
# Poissons Ratio (x) = 0.11471 0.80177
# Poissons Ratio (y) = 0.04675 0.13502
# Poissons Ratio (z) = 0.27280 0.11271
#
# Static dielectric constant tensor:
#      x y z
#    x 1.943050 0.000000 -0.010650 
#    y 0.000000 1.991110 0.000000 
#    z -0.010650 0.000000 1.947210 
# 
# From -- ./inp_files/9442.got.cif
#   From: 2010.05.17/outbox.cif.g08.bks.cpg/sg4_5_cif.got.tgz:9442.got - 2010.06.03 18:43:04.
