data_PCOD9116657
_publ_section_title
;
Structure prediction by ZEFSAII (Michael W. Deem and Ramdas Pophale) SiO2 
 PCOD9116657
Probable space group: P 21
;
_chemical_formula_sum "Si O2"
_cell_formula_units_Z 16
_cell_length_a 9.917685
_cell_length_b 8.269424
_cell_length_c 20.772117
_cell_angle_alpha 90.000000
_cell_angle_beta 154.265101
_cell_angle_gamma 90.000000
_cell_volume 739.714282
_symmetry_space_group_name_H-M "P 21"
_symmetry_group_IT_number 4
_symmetry_cell_setting 'monoclinic'
loop_
_space_group_symop_operation_xyz
x,y,z
-x,1/2+y,-z
loop_
_atom_site_type_symbol
_atom_site_label
_atom_site_fract_x
_atom_site_fract_y
_atom_site_fract_z
Si Si1 0.213411 0.832680 0.510987
Si Si2 0.113825 0.235217 0.738013
Si Si3 0.785561 0.227076 0.981760
Si Si4 0.039361 0.495948 0.486868
Si Si5 0.746606 0.429165 0.834103
Si Si6 0.185220 0.747175 0.267435
Si Si7 0.128669 0.363915 0.248508
Si Si8 0.165937 0.395251 0.407100
O O1 0.031238 0.681829 0.463118
O O2 0.552926 0.779354 0.636085
O O3 0.018897 0.878043 0.364016
O O4 0.211255 0.962624 0.566241
O O5 0.098960 0.282411 0.805978
O O6 0.437987 0.172032 0.850237
O O7 0.870758 0.086956 0.623800
O O8 0.884401 0.319347 0.089343
O O9 0.775093 0.341466 0.914886
O O10 0.030044 0.084892 0.073016
O O11 0.384624 0.469415 0.664346
O O12 0.001944 0.385205 0.406733
O O13 0.848833 0.315914 0.818451
O O14 0.210233 0.553729 0.277283
O O15 0.488523 0.830529 0.430187
O O16 0.051763 0.322526 0.289797
#
# Coordination Sequence:
#
# PCOD9116657 Si02
#       8
#     2   2   2   2   2   2   2   2
#     4  11  21  40  64  96 123 162 221 267 315 374
#     4  10  22  42  66  96 129 170 213 272 319 390
#     4  12  25  43  67  93 140 174 215 260 332 405
#     4  10  22  39  64  97 126 159 217 273 318 372
#     4  11  24  44  62  94 131 177 207 264 326 390
#     4  10  22  41  69  96 128 166 223 270 324 380
#     4  11  23  40  68  95 129 174 209 270 331 386
#     4   9  21  39  66  93 128 164 219 270 319 375
#
# _framework density 21.629974000000001
#
# number of rings (size 3 to 8) (size 9 to 14) (size 15 to 20)
#    0.000    1.500    3.750    0.750    3.500    4.000 
#    0.000    0.000    2.750    0.000    0.000    0.000 
#    0.000    0.000    0.000    0.000    0.000    0.000 
#
# Total GULP energy -89233.949323 kJ/mol
# GULP energy per Si atom -5577.121833 kJ/mol
# Density = 2.158074 g / cm^3
# Si number density = 21.629974 Si / 1000 Ang^3
#
#
#
# Elastic Constant Matrix: (Units=GPa)
#
#
# Indices 1 2 3 4 5 6 
#
# 1 90.0766 14.2470 37.8944 0.0000 -23.6823 0.0000
# 2 14.2470 47.6826 30.1165 0.0000 -6.2974 0.0000
# 3 37.8944 30.1165 97.4014 0.0000 -23.3650 0.0000
# 4 0.0000 0.0000 0.0000 30.9717 0.0000 -6.0424
# 5 -23.6823 -6.2974 -23.3650 0.0000 36.8456 0.0000
# 6 0.0000 0.0000 0.0000 -6.0424 0.0000 26.8676
#
#
#
# Elastic Compliance Matrix: (Units=1/GPa)
#
#
# Indices 1 2 3 4 5 6 
#
# 1 0.014644 -0.001132 -0.003698 0.000000 0.006873 0.000000
# 2 -0.001132 0.026168 -0.007964 0.000000 -0.001305 0.000000
# 3 -0.003698 -0.007964 0.015652 0.000000 0.006187 0.000000
# 4 0.000000 0.000000 0.000000 0.033769 0.000000 0.007595
# 5 0.006873 -0.001305 0.006187 0.000000 0.035259 0.000000
# 6 0.000000 0.000000 0.000000 0.007595 0.000000 0.038927
#
#
# Mechanical properties :
#
#
# Convention : Reuss Voigt Hill
#
# Bulk Modulus (GPa) = 32.38773 44.40849 38.39811
# Shear Modulus (GPa) = 24.96267 29.13049 27.04658
#
# Velocity S-wave (km/s) = 3.40086 3.67381 3.53997
# Velocity P-wave (km/s) = 5.51608 6.21059 5.87361
#
# Compressibility (1/GPa) = 0.03087589
#
# Stress axis : x y z
#
# Youngs Moduli (GPa) = 68.28891 38.21498 63.88807
#
# Poissons Ratio (x) = 0.04325 0.23629
# Poissons Ratio (y) = 0.07728 0.50880
# Poissons Ratio (z) = 0.25256 0.30434
#
# Static dielectric constant tensor:
#      x y z
#    x 1.846100 0.000000 -0.043360 
#    y 0.000000 1.818670 0.000000 
#    z -0.043360 0.000000 1.806380 
# 
# From -- ./inp_files/7820.got.cif
#   From: 2010.05.17/outbox.cif.g08.bks.cpg/sg4_4_cif.got.tgz:7820.got - 2010.06.03 18:43:04.
