data_PCOD9116260
_publ_section_title
;
Structure prediction by ZEFSAII (Michael W. Deem and Ramdas Pophale) SiO2 
 PCOD9116260
Probable space group: P 21
;
_chemical_formula_sum "Si O2"
_cell_formula_units_Z 16
_cell_length_a 5.278350
_cell_length_b 12.276349
_cell_length_c 12.361519
_cell_angle_alpha 90.000000
_cell_angle_beta 57.621658
_cell_angle_gamma 90.000000
_cell_volume 676.479349
_symmetry_space_group_name_H-M "P 21"
_symmetry_group_IT_number 4
_symmetry_cell_setting 'monoclinic'
loop_
_space_group_symop_operation_xyz
x,y,z
-x,1/2+y,-z
loop_
_atom_site_type_symbol
_atom_site_label
_atom_site_fract_x
_atom_site_fract_y
_atom_site_fract_z
Si Si1 0.863087 0.587910 0.344441
Si Si2 0.739780 0.659650 0.978932
Si Si3 0.135944 0.870438 0.395515
Si Si4 0.577485 0.241984 0.158338
Si Si5 0.372559 0.442395 0.336558
Si Si6 0.679049 0.750030 0.221166
Si Si7 0.013803 0.962223 0.191978
Si Si8 0.542322 0.591708 0.623678
O O1 0.636149 0.501575 0.341421
O O2 0.900263 0.678861 0.244498
O O3 0.676617 0.642571 0.485392
O O4 0.150928 0.526639 0.326507
O O5 0.544865 0.719808 0.932744
O O6 0.075298 0.710029 0.909376
O O7 0.770810 0.533113 0.934202
O O8 0.622028 0.684784 0.124795
O O9 0.362829 0.770002 0.354983
O O10 0.823888 0.874105 0.530523
O O11 0.129502 0.896937 0.269282
O O12 0.297699 0.975693 0.407741
O O13 0.510953 0.361422 0.217022
O O14 0.406904 0.161127 0.280717
O O15 0.823436 0.870544 0.170950
O O16 0.803562 0.055634 0.294628
#
# Coordination Sequence:
#
# PCOD9116260 Si02
#       8
#     2   2   2   2   2   2   2   2
#     4  11  25  43  65 107 146 177 230 297 361 421
#     4  11  26  47  68 101 140 190 245 283 340 423
#     4  10  21  41  68 101 136 176 231 287 361 422
#     4  11  24  43  71  97 135 191 236 286 354 419
#     4  11  25  43  70 105 148 178 227 303 366 419
#     4  11  28  43  70 106 137 196 236 292 346 423
#     4  10  21  43  69  96 137 185 232 285 353 413
#     4   9  20  39  65  99 133 175 225 285 355 422
#
# _framework density 23.651865000000001
#
# number of rings (size 3 to 8) (size 9 to 14) (size 15 to 20)
#    0.000    1.500    2.500    0.750    5.250    5.000 
#    0.000    0.000    0.000    0.000    0.000    0.000 
#    0.000    0.000    0.000    0.000    0.000    0.000 
#
# Total GULP energy -89448.874943 kJ/mol
# GULP energy per Si atom -5590.554684 kJ/mol
# Density = 2.359803 g / cm^3
# Si number density = 23.651865 Si / 1000 Ang^3
#
#
#
# Elastic Constant Matrix: (Units=GPa)
#
#
# Indices 1 2 3 4 5 6 
#
# 1 111.9106 36.7223 24.2444 0.0000 17.2743 0.0000
# 2 36.7223 89.4469 37.4010 0.0000 1.4930 0.0000
# 3 24.2444 37.4010 82.3456 0.0000 18.1797 0.0000
# 4 0.0000 0.0000 0.0000 32.3607 0.0000 8.0690
# 5 17.2743 1.4930 18.1797 0.0000 36.6838 0.0000
# 6 0.0000 0.0000 0.0000 8.0690 0.0000 15.8753
#
#
#
# Elastic Compliance Matrix: (Units=1/GPa)
#
#
# Indices 1 2 3 4 5 6 
#
# 1 0.011205 -0.004443 -0.000175 0.000000 -0.005009 0.000000
# 2 -0.004443 0.015835 -0.006966 0.000000 0.004900 0.000000
# 3 -0.000175 -0.006966 0.017155 0.000000 -0.008136 0.000000
# 4 0.000000 0.000000 0.000000 0.035386 0.000000 -0.017986
# 5 -0.005009 0.004900 -0.008136 0.000000 0.033451 0.000000
# 6 0.000000 0.000000 0.000000 -0.017986 0.000000 0.072133
#
#
# Mechanical properties :
#
#
# Convention : Reuss Voigt Hill
#
# Bulk Modulus (GPa) = 47.55775 53.38205 50.46990
# Shear Modulus (GPa) = 23.21885 29.33964 26.27925
#
# Velocity S-wave (km/s) = 3.13660 3.52586 3.33691
# Velocity P-wave (km/s) = 5.76790 6.26055 6.01927
#
# Compressibility (1/GPa) = 0.02102707
#
# Stress axis : x y z
#
# Youngs Moduli (GPa) = 89.24749 63.15193 58.29053
#
# Poissons Ratio (x) = 0.28061 0.01020
# Poissons Ratio (y) = 0.39656 0.40603
# Poissons Ratio (z) = 0.01562 0.43989
#
# Static dielectric constant tensor:
#      x y z
#    x 1.919120 0.000000 -0.049670 
#    y 0.000000 1.917200 0.000000 
#    z -0.049670 0.000000 1.987610 
# 
# From -- ./inp_files/2966.got.cif
#   From: 2010.05.17/outbox.cif.g08.bks.cpg/sg4_2_cif.got.tgz:2966.got - 2010.06.03 18:43:04.
