data_PCOD9116844
_publ_section_title
;
Structure prediction by ZEFSAII (Michael W. Deem and Ramdas Pophale) SiO2 
 PCOD9116844
Probable space group: P 21
;
_chemical_formula_sum "Si O2"
_cell_formula_units_Z 14
_cell_length_a 8.348474
_cell_length_b 8.444124
_cell_length_c 12.256761
_cell_angle_alpha 90.000000
_cell_angle_beta 36.516427
_cell_angle_gamma 90.000000
_cell_volume 514.154022
_symmetry_space_group_name_H-M "P 21"
_symmetry_group_IT_number 4
_symmetry_cell_setting 'monoclinic'
loop_
_space_group_symop_operation_xyz
x,y,z
-x,1/2+y,-z
loop_
_atom_site_type_symbol
_atom_site_label
_atom_site_fract_x
_atom_site_fract_y
_atom_site_fract_z
Si Si1 0.919828 0.477730 0.575015
Si Si2 0.583415 0.639009 0.372884
Si Si3 0.994600 0.231036 0.292428
Si Si4 0.343586 0.558897 0.904146
Si Si5 0.600925 0.788418 0.590384
Si Si6 0.716948 0.053271 0.817001
Si Si7 0.212012 0.222060 0.963006
O O1 0.911702 0.594669 0.680587
O O2 0.607263 0.441252 0.742719
O O3 0.139196 0.348552 0.484951
O O4 0.038199 0.558001 0.402808
O O5 0.670018 0.681589 0.447311
O O6 0.509694 0.455099 0.397183
O O7 0.784919 0.677589 0.164888
O O8 0.315234 0.748620 0.502468
O O9 0.216725 0.369398 0.182895
O O10 0.985979 0.169412 0.173631
O O11 0.413165 0.696707 0.780516
O O12 0.144574 0.411949 0.996482
O O13 0.301747 0.624728 0.050339
O O14 0.467195 0.124545 0.882106
#
# Coordination Sequence:
#
# PCOD9116844 Si02
#       7
#     2   2   2   2   2   2   2
#     4  11  22  40  67 103 139 182 236 291 362 415
#     4  11  24  48  68  99 148 194 244 285 353 438
#     4  10  22  41  64  99 143 184 239 287 355 432
#     4  11  25  42  67 106 146 180 246 296 367 419
#     4  11  25  46  73  99 146 197 236 296 351 431
#     4  11  22  39  70 106 141 186 231 306 363 413
#     4  11  22  40  69 100 141 187 236 301 355 426
#
# _framework density 27.229195000000001
#
# number of rings (size 3 to 8) (size 9 to 14) (size 15 to 20)
#    0.000    1.143    4.286    2.571    4.000    0.000 
#    0.000    8.571    0.000    0.000    0.000    0.000 
#    0.000    0.000    0.000    0.000    0.000    0.000 
#
# Total GULP energy -78060.893028 kJ/mol
# GULP energy per Si atom -5575.778073 kJ/mol
# Density = 2.716722 g / cm^3
# Si number density = 27.229195 Si / 1000 Ang^3
#
#
#
# Elastic Constant Matrix: (Units=GPa)
#
#
# Indices 1 2 3 4 5 6 
#
# 1 1618.7278 399.5007 1582.1438 0.0000 -27.6193 0.0000
# 2 399.5007 207.7446 392.1357 0.0000 11.7113 0.0000
# 3 1582.1438 392.1357 1741.7062 0.0000 -1.8524 0.0000
# 4 0.0000 0.0000 0.0000 52.7270 0.0000 13.1085
# 5 -27.6193 11.7113 -1.8524 0.0000 69.9387 0.0000
# 6 0.0000 0.0000 0.0000 13.1085 0.0000 14.3487
#
#
#
# Elastic Compliance Matrix: (Units=1/GPa)
#
#
# Indices 1 2 3 4 5 6 
#
# 1 0.006560 -0.002671 -0.005354 0.000000 0.002896 0.000000
# 2 -0.002671 0.009609 0.000260 0.000000 -0.002657 0.000000
# 3 -0.005354 0.000260 0.005377 0.000000 -0.002016 0.000000
# 4 0.000000 0.000000 0.000000 0.024539 0.000000 -0.022418
# 5 0.002896 -0.002657 -0.002016 0.000000 0.015833 0.000000
# 6 0.000000 0.000000 0.000000 -0.022418 0.000000 0.090173
#
#
# Mechanical properties :
#
#
# Convention : Reuss Voigt Hill
#
# Bulk Modulus (GPa) = 166.24056 923.97102 545.10579
# Shear Modulus (GPa) = 29.47661 107.02945 68.25303
#
# Velocity S-wave (km/s) = 3.29376 6.27632 5.01204
# Velocity P-wave (km/s) = 8.69770 19.81390 15.30099
#
# Compressibility (1/GPa) = 0.00601538
#
# Stress axis : x y z
#
# Youngs Moduli (GPa) = 152.45013 104.07012 185.97555
#
# Poissons Ratio (x) = 0.27798 0.99574
# Poissons Ratio (y) = 0.40721 -0.04838
# Poissons Ratio (z) = 0.81624 -0.02708
#
# Static dielectric constant tensor:
#      x y z
#    x 2.419440 0.000000 -0.126840 
#    y 0.000000 -11.806610 0.000000 
#    z -0.126840 0.000000 2.166430 
# 
# From -- ./inp_files/10788.got.cif
#   From: 2010.05.17/outbox.cif.g08.bks.cpg/sg4_6_cif.got.tgz:10788.got - 2010.06.03 18:43:04.
