data_PCOD9116500
_publ_section_title
;
Structure prediction by ZEFSAII (Michael W. Deem and Ramdas Pophale) SiO2 
 PCOD9116500
Probable space group: P 21
;
_chemical_formula_sum "Si O2"
_cell_formula_units_Z 16
_cell_length_a 12.553491
_cell_length_b 4.940361
_cell_length_c 13.936459
_cell_angle_alpha 90.000000
_cell_angle_beta 42.359809
_cell_angle_gamma 90.000000
_cell_volume 582.366625
_symmetry_space_group_name_H-M "P 21"
_symmetry_group_IT_number 4
_symmetry_cell_setting 'monoclinic'
loop_
_space_group_symop_operation_xyz
x,y,z
-x,1/2+y,-z
loop_
_atom_site_type_symbol
_atom_site_label
_atom_site_fract_x
_atom_site_fract_y
_atom_site_fract_z
Si Si1 0.861021 0.253530 0.856812
Si Si2 0.571885 0.858176 0.085545
Si Si3 0.810046 0.813028 0.422631
Si Si4 0.833410 0.073004 0.207235
Si Si5 0.893829 0.034409 0.567065
Si Si6 0.174269 0.137249 0.943085
Si Si7 0.493304 0.621681 0.569666
Si Si8 0.304435 0.145330 0.175738
O O1 0.825759 0.484111 0.800796
O O2 0.030809 0.144535 0.708981
O O3 0.714630 0.055111 0.959019
O O4 0.860141 0.372543 0.966270
O O5 0.566503 0.664654 0.996418
O O6 0.655987 0.724991 0.121911
O O7 0.402525 0.001483 0.196545
O O8 0.810773 0.025261 0.334445
O O9 0.819972 0.968528 0.514561
O O10 0.648056 0.650869 0.529211
O O11 0.821590 0.781135 0.163109
O O12 0.673860 0.214871 0.273404
O O13 0.990923 0.245726 0.086364
O O14 0.777450 0.910606 0.724577
O O15 0.050089 0.842682 0.467549
O O16 0.483558 0.320470 0.536046
#
# Coordination Sequence:
#
# PCOD9116500 Si02
#       8
#     2   2   2   2   2   2   2   2
#     4  10  21  45  68  99 140 183 230 285 358 423
#     4  11  23  41  70 105 139 186 221 298 358 420
#     4  10  23  46  72  99 142 188 233 291 357 418
#     4  10  24  46  69 103 139 185 238 298 350 426
#     4  12  27  47  73 107 140 191 242 289 350 434
#     4  10  25  40  68 102 136 182 237 287 354 423
#     4  10  24  45  71 101 137 189 236 289 349 417
#     4  11  23  42  71 102 147 178 235 287 354 427
#
# _framework density 27.4741
#
# number of rings (size 3 to 8) (size 9 to 14) (size 15 to 20)
#    0.000    1.500    2.500    0.750    7.000    3.000 
#    0.000    0.000    0.000    0.000    0.000    0.000 
#    0.000    0.000    0.000    0.000    0.000    0.000 
#
# Total GULP energy -89300.702241 kJ/mol
# GULP energy per Si atom -5581.293890 kJ/mol
# Density = 2.741157 g / cm^3
# Si number density = 27.474100 Si / 1000 Ang^3
#
#
#
# Elastic Constant Matrix: (Units=GPa)
#
#
# Indices 1 2 3 4 5 6 
#
# 1 156.7145 17.1323 31.2733 0.0000 -3.5306 0.0000
# 2 17.1323 52.6026 -5.1406 0.0000 3.9082 0.0000
# 3 31.2733 -5.1406 44.4583 0.0000 -3.5820 0.0000
# 4 0.0000 0.0000 0.0000 32.8579 0.0000 -9.5644
# 5 -3.5306 3.9082 -3.5820 0.0000 75.3361 0.0000
# 6 0.0000 0.0000 0.0000 -9.5644 0.0000 36.2580
#
#
#
# Elastic Compliance Matrix: (Units=1/GPa)
#
#
# Indices 1 2 3 4 5 6 
#
# 1 0.007914 -0.003174 -0.005913 0.000000 0.000254 0.000000
# 2 -0.003174 0.020561 0.004530 0.000000 -0.001000 0.000000
# 3 -0.005913 0.004530 0.027239 0.000000 0.000783 0.000000
# 4 0.000000 0.000000 0.000000 0.032965 0.000000 0.008696
# 5 0.000254 -0.001000 0.000783 0.000000 0.013375 0.000000
# 6 0.000000 0.000000 0.000000 0.008696 0.000000 0.029874
#
#
# Mechanical properties :
#
#
# Convention : Reuss Voigt Hill
#
# Bulk Modulus (GPa) = 21.45979 37.81172 29.63575
# Shear Modulus (GPa) = 31.93309 42.92441 37.42875
#
# Velocity S-wave (km/s) = 3.41295 3.95696 3.69498
# Velocity P-wave (km/s) = 4.83310 5.88806 5.38647
#
# Compressibility (1/GPa) = 0.04659878
#
# Stress axis : x y z
#
# Youngs Moduli (GPa) = 126.36125 48.63513 36.71147
#
# Poissons Ratio (x) = 0.15438 0.21709
# Poissons Ratio (y) = 0.40110 -0.16629
# Poissons Ratio (z) = 0.74722 -0.22030
#
# Static dielectric constant tensor:
#      x y z
#    x 2.254800 0.000000 -0.031790 
#    y 0.000000 2.362880 0.000000 
#    z -0.031790 0.000000 2.173550 
# 
# From -- ./inp_files/13800.got.cif
#   From: 2010.05.17/outbox.cif.g08.bks.cpg/sg4_7_cif.got.tgz:13800.got - 2010.06.03 18:43:04.
