data_PCOD9116022
_publ_section_title
;
Structure prediction by ZEFSAII (Michael W. Deem and Ramdas Pophale) SiO2 
 PCOD9116022
Probable space group: P 21
;
_chemical_formula_sum "Si O2"
_cell_formula_units_Z 14
_cell_length_a 7.858881
_cell_length_b 8.108072
_cell_length_c 9.104595
_cell_angle_alpha 90.000000
_cell_angle_beta 113.008303
_cell_angle_gamma 90.000000
_cell_volume 533.996369
_symmetry_space_group_name_H-M "P 21"
_symmetry_group_IT_number 4
_symmetry_cell_setting 'monoclinic'
loop_
_space_group_symop_operation_xyz
x,y,z
-x,1/2+y,-z
loop_
_atom_site_type_symbol
_atom_site_label
_atom_site_fract_x
_atom_site_fract_y
_atom_site_fract_z
Si Si1 0.301697 0.434420 0.032805
Si Si2 0.716480 0.132473 0.693985
Si Si3 0.660466 0.587791 0.795946
Si Si4 0.229431 0.574167 0.726144
Si Si5 0.957951 0.673902 0.379990
Si Si6 0.328139 0.279445 0.485773
Si Si7 0.731136 0.422988 0.102175
O O1 0.238379 0.571212 0.127425
O O2 0.291563 0.255296 0.099543
O O3 0.518396 0.466505 0.070317
O O4 0.202822 0.439056 0.843528
O O5 0.530484 0.236443 0.614692
O O6 0.874066 0.234478 0.664703
O O7 0.684683 0.953587 0.602912
O O8 0.436642 0.568408 0.727482
O O9 0.714972 0.634952 0.648607
O O10 0.748344 0.450099 0.932473
O O11 0.231276 0.741830 0.824643
O O12 0.072931 0.593125 0.553497
O O13 0.806356 0.772836 0.421000
O O14 0.857752 0.541734 0.242159
#
# Coordination Sequence:
#
# PCOD9116022 Si02
#       7
#     2   2   2   2   2   2   2
#     4   9  20  41  64  91 130 173 216 269 333 395
#     4  11  24  43  68  98 135 177 222 276 336 399
#     4   9  20  41  64  91 130 173 216 269 333 395
#     4  10  21  39  63  95 131 170 219 272 327 396
#     4  12  24  40  66 100 132 172 220 276 326 394
#     4  11  24  43  68  98 135 177 222 276 336 399
#     4  10  21  39  63  95 131 170 219 272 327 396
#
# _framework density 26.217406
#
# number of rings (size 3 to 8) (size 9 to 14) (size 15 to 20)
#    0.000    1.714    2.857    0.857    0.000    5.714 
#    0.000    0.000    0.000    0.000    0.000    0.000 
#    0.000    0.000    0.000    0.000    0.000    0.000 
#
# Total GULP energy -78453.556877 kJ/mol
# GULP energy per Si atom -5603.825491 kJ/mol
# Density = 2.615773 g / cm^3
# Si number density = 26.217406 Si / 1000 Ang^3
#
#
#
# Elastic Constant Matrix: (Units=GPa)
#
#
# Indices 1 2 3 4 5 6 
#
# 1 125.2014 37.4064 39.1944 0.0000 -13.5692 0.0000
# 2 37.4064 85.5196 16.2148 0.0000 -7.8312 0.0000
# 3 39.1944 16.2148 174.5377 0.0000 -13.4599 0.0000
# 4 0.0000 0.0000 0.0000 34.3231 0.0000 -12.8279
# 5 -13.5692 -7.8312 -13.4599 0.0000 48.4000 0.0000
# 6 0.0000 0.0000 0.0000 -12.8279 0.0000 27.5033
#
#
#
# Elastic Compliance Matrix: (Units=1/GPa)
#
#
# Indices 1 2 3 4 5 6 
#
# 1 0.009853 -0.003830 -0.001729 0.000000 0.001662 0.000000
# 2 -0.003830 0.013522 -0.000317 0.000000 0.001026 0.000000
# 3 -0.001729 -0.000317 0.006240 0.000000 0.001199 0.000000
# 4 0.000000 0.000000 0.000000 0.035286 0.000000 0.016458
# 5 0.001662 0.001026 0.001199 0.000000 0.021627 0.000000
# 6 0.000000 0.000000 0.000000 0.016458 0.000000 0.044035
#
#
# Mechanical properties :
#
#
# Convention : Reuss Voigt Hill
#
# Bulk Modulus (GPa) = 55.97893 63.43222 59.70557
# Shear Modulus (GPa) = 33.72279 41.54149 37.63214
#
# Velocity S-wave (km/s) = 3.59036 3.98490 3.79276
# Velocity P-wave (km/s) = 6.21174 6.73942 6.48095
#
# Compressibility (1/GPa) = 0.01786387
#
# Stress axis : x y z
#
# Youngs Moduli (GPa) = 101.49671 73.95137 160.26833
#
# Poissons Ratio (x) = 0.28320 0.27703
# Poissons Ratio (y) = 0.38869 0.05083
# Poissons Ratio (z) = 0.17544 0.02345
#
# Static dielectric constant tensor:
#      x y z
#    x 1.998810 0.000000 -0.004060 
#    y 0.000000 2.158480 0.000000 
#    z -0.004060 0.000000 2.030570 
# 
# From -- ./inp_files/5482.got.cif
#   From: 2010.05.17/outbox.cif.g08.bks.cpg/sg4_3_cif.got.tgz:5482.got - 2010.06.03 18:43:04.
