data_PCOD9116712
_publ_section_title
;
Structure prediction by ZEFSAII (Michael W. Deem and Ramdas Pophale) SiO2 
 PCOD9116712
Probable space group: P 21
;
_chemical_formula_sum "Si O2"
_cell_formula_units_Z 16
_cell_length_a 9.593880
_cell_length_b 12.821447
_cell_length_c 6.533799
_cell_angle_alpha 90.000000
_cell_angle_beta 72.192093
_cell_angle_gamma 90.000000
_cell_volume 765.197986
_symmetry_space_group_name_H-M "P 21"
_symmetry_group_IT_number 4
_symmetry_cell_setting 'monoclinic'
loop_
_space_group_symop_operation_xyz
x,y,z
-x,1/2+y,-z
loop_
_atom_site_type_symbol
_atom_site_label
_atom_site_fract_x
_atom_site_fract_y
_atom_site_fract_z
Si Si1 0.989568 0.501010 0.104289
Si Si2 0.083281 0.317065 0.330267
Si Si3 0.198764 0.458602 0.631583
Si Si4 0.106446 0.648645 0.402135
Si Si5 0.333995 0.829722 0.283202
Si Si6 0.604232 0.745956 0.910370
Si Si7 0.312958 0.016008 0.995932
Si Si8 0.491575 0.876453 0.607019
O O1 0.837292 0.525885 0.062563
O O2 0.985166 0.395000 0.240912
O O3 0.035530 0.592382 0.239235
O O4 0.114424 0.482891 0.877596
O O5 0.113879 0.370754 0.536427
O O6 0.239796 0.303866 0.151278
O O7 0.013879 0.204668 0.401552
O O8 0.190605 0.561113 0.493434
O O9 0.366049 0.421361 0.572501
O O10 0.215829 0.740968 0.293589
O O11 0.364569 0.848352 0.506906
O O12 0.487345 0.791214 0.120368
O O13 0.287910 0.935695 0.192606
O O14 0.540878 0.775560 0.715408
O O15 0.630802 0.625293 0.943331
O O16 0.432315 0.961701 0.794337
#
# Coordination Sequence:
#
# PCOD9116712 Si02
#       8
#     2   2   2   2   2   2   2   2
#     4  11  24  42  64  90 125 164 202 257 310 357
#     4  10  22  41  62  91 126 161 207 252 302 368
#     4  10  22  40  63  90 121 163 206 248 305 367
#     4  11  24  40  62  92 124 161 206 251 305 371
#     4  11  24  42  63  91 125 161 206 254 305 368
#     4  10  23  41  63  92 123 162 208 253 304 366
#     4  11  24  40  63  95 124 158 208 255 304 367
#     4  10  23  42  64  89 126 166 201 256 309 356
#
# _framework density 20.909621999999999
#
# number of rings (size 3 to 8) (size 9 to 14) (size 15 to 20)
#    0.000    1.500    0.000    3.750    0.000   16.000 
#    0.000    0.000    0.000    0.000    0.000    0.000 
#    0.000    0.000    0.000    0.000    0.000    0.000 
#
# Total GULP energy -89498.408846 kJ/mol
# GULP energy per Si atom -5593.650553 kJ/mol
# Density = 2.086203 g / cm^3
# Si number density = 20.909622 Si / 1000 Ang^3
#
#
#
# Elastic Constant Matrix: (Units=GPa)
#
#
# Indices 1 2 3 4 5 6 
#
# 1 104.5891 46.5382 44.9848 0.0000 9.7188 0.0000
# 2 46.5382 116.1909 35.0531 0.0000 31.4184 0.0000
# 3 44.9848 35.0531 66.6337 0.0000 7.0458 0.0000
# 4 0.0000 0.0000 0.0000 22.1591 0.0000 -7.0726
# 5 9.7188 31.4184 7.0458 0.0000 34.8149 0.0000
# 6 0.0000 0.0000 0.0000 -7.0726 0.0000 26.9054
#
#
#
# Elastic Compliance Matrix: (Units=1/GPa)
#
#
# Indices 1 2 3 4 5 6 
#
# 1 0.014539 -0.003642 -0.007989 0.000000 0.000844 0.000000
# 2 -0.003642 0.014208 -0.003850 0.000000 -0.011026 0.000000
# 3 -0.007989 -0.003850 0.022300 0.000000 0.001191 0.000000
# 4 0.000000 0.000000 0.000000 0.049261 0.000000 0.012949
# 5 0.000844 -0.011026 0.001191 0.000000 0.038197 0.000000
# 6 0.000000 0.000000 0.000000 0.012949 0.000000 0.040571
#
#
# Mechanical properties :
#
#
# Convention : Reuss Voigt Hill
#
# Bulk Modulus (GPa) = 49.78512 60.06286 54.92399
# Shear Modulus (GPa) = 23.06974 27.49840 25.28407
#
# Velocity S-wave (km/s) = 3.32521 3.63038 3.48114
# Velocity P-wave (km/s) = 6.21322 6.80883 6.51783
#
# Compressibility (1/GPa) = 0.02008632
#
# Stress axis : x y z
#
# Youngs Moduli (GPa) = 68.77878 70.38240 44.84255
#
# Poissons Ratio (x) = 0.25630 0.35826
# Poissons Ratio (y) = 0.25046 0.17264
# Poissons Ratio (z) = 0.54949 0.27096
#
# Static dielectric constant tensor:
#      x y z
#    x 1.747190 0.000000 -0.019920 
#    y 0.000000 1.714710 0.000000 
#    z -0.019920 0.000000 1.742150 
# 
# From -- ./inp_files/1342.got.cif
#   From: 2010.05.17/outbox.cif.g08.bks.cpg/sg4_1_cif.got.tgz:1342.got - 2010.06.03 18:43:04.
