data_PCOD9116462
_publ_section_title
;
Structure prediction by ZEFSAII (Michael W. Deem and Ramdas Pophale) SiO2 
 PCOD9116462
Probable space group: P 21
;
_chemical_formula_sum "Si O2"
_cell_formula_units_Z 14
_cell_length_a 12.954049
_cell_length_b 9.479442
_cell_length_c 9.489956
_cell_angle_alpha 90.000000
_cell_angle_beta 31.499899
_cell_angle_gamma 90.000000
_cell_volume 608.886522
_symmetry_space_group_name_H-M "P 21"
_symmetry_group_IT_number 4
_symmetry_cell_setting 'monoclinic'
loop_
_space_group_symop_operation_xyz
x,y,z
-x,1/2+y,-z
loop_
_atom_site_type_symbol
_atom_site_label
_atom_site_fract_x
_atom_site_fract_y
_atom_site_fract_z
Si Si1 0.916972 0.445050 0.692485
Si Si2 0.768352 0.914584 0.904853
Si Si3 0.816385 0.521034 0.119960
Si Si4 0.049240 0.333633 0.026651
Si Si5 0.446715 0.148095 0.950381
Si Si6 0.412080 0.463325 0.447544
Si Si7 0.620761 0.205440 0.053603
O O1 0.928408 0.478172 0.844602
O O2 0.751489 0.551858 0.823536
O O3 0.823718 0.289392 0.788538
O O4 0.115230 0.450756 0.373688
O O5 0.609877 0.795193 0.055551
O O6 0.668084 0.058285 0.071626
O O7 0.921844 0.855147 0.840741
O O8 0.850531 0.398435 0.194261
O O9 0.899968 0.672400 0.068934
O O10 0.588521 0.527265 0.337195
O O11 0.216355 0.431247 0.759659
O O12 0.516470 0.173248 0.026978
O O13 0.601519 0.065643 0.671562
O O14 0.493066 0.313782 0.294099
#
# Coordination Sequence:
#
# PCOD9116462 Si02
#       7
#     2   2   2   2   2   2   2
#     4  10  23  44  63  95 141 168 221 292 323 396
#     4  12  23  40  68 100 129 173 233 269 336 410
#     4  10  26  48  66 100 136 184 229 276 345 398
#     4  12  27  44  72  99 138 186 223 280 345 404
#     4  10  21  44  65  97 131 176 225 276 341 387
#     4  10  25  48  65  97 147 172 222 292 331 409
#     4  10  23  38  69  98 126 179 223 273 345 396
#
# _framework density 22.992788000000001
#
# number of rings (size 3 to 8) (size 9 to 14) (size 15 to 20)
#    0.000    1.714    2.857    2.571   10.000    1.143 
#    2.571    0.000    0.000    0.000    0.000    0.000 
#    0.000    0.000    0.000    0.000    0.000    0.000 
#
# Total GULP energy -78360.858670 kJ/mol
# GULP energy per Si atom -5597.204191 kJ/mol
# Density = 2.294046 g / cm^3
# Si number density = 22.992788 Si / 1000 Ang^3
#
#
#
# Elastic Constant Matrix: (Units=GPa)
#
#
# Indices 1 2 3 4 5 6 
#
# 1 88.9679 15.6700 -11.8284 0.0000 -1.0299 0.0000
# 2 15.6700 137.0367 -3.0161 0.0000 -5.6143 0.0000
# 3 -11.8284 -3.0161 63.0100 0.0000 12.6116 0.0000
# 4 0.0000 0.0000 0.0000 -6.4945 0.0000 -11.5603
# 5 -1.0299 -5.6143 12.6116 0.0000 16.7699 0.0000
# 6 0.0000 0.0000 0.0000 -11.5603 0.0000 32.8165
#
#
#
# Elastic Compliance Matrix: (Units=1/GPa)
#
#
# Indices 1 2 3 4 5 6 
#
# 1 0.011789 -0.001359 0.002465 0.000000 -0.001585 0.000000
# 2 -0.001359 0.007557 -0.000451 0.000000 0.002786 0.000000
# 3 0.002465 -0.000451 0.019202 0.000000 -0.014440 0.000000
# 4 0.000000 0.000000 0.000000 -0.094636 0.000000 -0.033337
# 5 -0.001585 0.002786 -0.014440 0.000000 0.071325 0.000000
# 6 0.000000 0.000000 0.000000 -0.033337 0.000000 0.018729
#
#
# Mechanical properties :
#
#
# Convention : Reuss Voigt Hill
#
# Bulk Modulus (GPa) = 25.08864 32.29620 28.69242
# Shear Modulus (GPa) = 108.83619 27.83099 68.33359
#
# Velocity S-wave (km/s) = 6.88750 3.48289 5.45748
# Velocity P-wave (km/s) = 8.61310 5.50007 7.22621
#
# Compressibility (1/GPa) = 0.03985868
#
# Stress axis : x y z
#
# Youngs Moduli (GPa) = 84.82688 132.32980 52.07824
#
# Poissons Ratio (x) = 0.17980 -0.12838
# Poissons Ratio (y) = 0.11525 0.02348
# Poissons Ratio (z) = -0.20911 0.05966
#
# Static dielectric constant tensor:
#      x y z
#    x 1.850490 0.000000 -0.014220 
#    y 0.000000 1.849480 0.000000 
#    z -0.014220 0.000000 1.880380 
# 
# From -- ./inp_files/5630.got.cif
#   From: 2010.05.17/outbox.cif.g08.bks.cpg/sg4_3_cif.got.tgz:5630.got - 2010.06.03 18:43:04.
