data_PCOD9116227
_publ_section_title
;
Structure prediction by ZEFSAII (Michael W. Deem and Ramdas Pophale) SiO2 
 PCOD9116227
Probable space group: P 21
;
_chemical_formula_sum "Si O2"
_cell_formula_units_Z 14
_cell_length_a 15.508953
_cell_length_b 5.215865
_cell_length_c 8.700474
_cell_angle_alpha 90.000000
_cell_angle_beta 128.085105
_cell_angle_gamma 90.000000
_cell_volume 553.960900
_symmetry_space_group_name_H-M "P 21"
_symmetry_group_IT_number 4
_symmetry_cell_setting 'monoclinic'
loop_
_space_group_symop_operation_xyz
x,y,z
-x,1/2+y,-z
loop_
_atom_site_type_symbol
_atom_site_label
_atom_site_fract_x
_atom_site_fract_y
_atom_site_fract_z
Si Si1 0.306780 0.653290 0.607808
Si Si2 0.978997 0.430437 0.377255
Si Si3 0.685115 0.835710 0.678915
Si Si4 0.465091 0.986305 0.599715
Si Si5 0.125528 0.628288 0.966869
Si Si6 0.454264 0.721661 0.012887
Si Si7 0.910443 0.285897 0.728464
O O1 0.282781 0.430338 0.457258
O O2 0.418176 0.768997 0.659270
O O3 0.339822 0.607911 0.820290
O O4 0.203293 0.842298 0.482656
O O5 0.973146 0.692164 0.470964
O O6 0.052537 0.520967 0.312938
O O7 0.870781 0.319227 0.173784
O O8 0.566721 0.938743 0.602148
O O9 0.646545 0.544835 0.617891
O O10 0.776038 0.929042 0.896756
O O11 0.513825 0.191023 0.774812
O O12 0.012839 0.471678 0.822413
O O13 0.113883 0.770079 0.117638
O O14 0.538237 0.519420 0.024361
#
# Coordination Sequence:
#
# PCOD9116227 Si02
#       7
#     2   2   2   2   2   2   2
#     4  10  23  41  69 102 136 190 238 299 365 440
#     4  12  26  49  75 109 158 192 246 314 376 445
#     4  11  23  41  68 104 140 188 244 307 365 432
#     4  11  22  41  68  99 142 181 244 300 367 433
#     4  11  25  44  75 108 146 200 255 302 379 453
#     4  10  21  41  65  96 135 176 231 286 353 429
#     4  11  24  45  76 108 145 197 254 308 365 466
#
# _framework density 25.272542999999999
#
# number of rings (size 3 to 8) (size 9 to 14) (size 15 to 20)
#    0.000    1.143    5.714    0.000    2.000    1.143 
#    0.000    0.000    6.286    0.000    0.000    0.000 
#    0.000    0.000    0.000    0.000    0.000    0.000 
#
# Total GULP energy -78031.812682 kJ/mol
# GULP energy per Si atom -5573.700906 kJ/mol
# Density = 2.521502 g / cm^3
# Si number density = 25.272543 Si / 1000 Ang^3
#
#
#
# Elastic Constant Matrix: (Units=GPa)
#
#
# Indices 1 2 3 4 5 6 
#
# 1 52.0664 10.9701 13.7774 0.0000 9.1835 0.0000
# 2 10.9701 84.3224 24.8762 0.0000 -7.8210 0.0000
# 3 13.7774 24.8762 131.3950 0.0000 -6.4341 0.0000
# 4 0.0000 0.0000 0.0000 40.1807 0.0000 -4.6812
# 5 9.1835 -7.8210 -6.4341 0.0000 34.9155 0.0000
# 6 0.0000 0.0000 0.0000 -4.6812 0.0000 35.7513
#
#
#
# Elastic Compliance Matrix: (Units=1/GPa)
#
#
# Indices 1 2 3 4 5 6 
#
# 1 0.021517 -0.002813 -0.002050 0.000000 -0.006667 0.000000
# 2 -0.002813 0.013131 -0.002029 0.000000 0.003307 0.000000
# 3 -0.002050 -0.002029 0.008289 0.000000 0.001612 0.000000
# 4 0.000000 0.000000 0.000000 0.025273 0.000000 0.003309
# 5 -0.006667 0.003307 0.001612 0.000000 0.031432 0.000000
# 6 0.000000 0.000000 0.000000 0.003309 0.000000 0.028404
#
#
# Mechanical properties :
#
#
# Convention : Reuss Voigt Hill
#
# Bulk Modulus (GPa) = 34.30247 40.78122 37.54185
# Shear Modulus (GPa) = 32.99288 36.71350 34.85319
#
# Velocity S-wave (km/s) = 3.61707 3.81557 3.71764
# Velocity P-wave (km/s) = 5.57196 5.96515 5.77190
#
# Compressibility (1/GPa) = 0.02915242
#
# Stress axis : x y z
#
# Youngs Moduli (GPa) = 46.47404 76.15834 120.64630
#
# Poissons Ratio (x) = 0.21423 0.24734
# Poissons Ratio (y) = 0.13073 0.24479
# Poissons Ratio (z) = 0.09528 0.15453
#
# Static dielectric constant tensor:
#      x y z
#    x 2.026950 0.000000 -0.009630 
#    y 0.000000 2.231110 0.000000 
#    z -0.009630 0.000000 2.046750 
# 
# From -- ./inp_files/9073.got.cif
#   From: 2010.05.17/outbox.cif.g08.bks.cpg/sg4_5_cif.got.tgz:9073.got - 2010.06.03 18:43:04.
