data_PCOD9116476
_publ_section_title
;
Structure prediction by ZEFSAII (Michael W. Deem and Ramdas Pophale) SiO2 
 PCOD9116476
Probable space group: P 21
;
_chemical_formula_sum "Si O2"
_cell_formula_units_Z 16
_cell_length_a 7.263848
_cell_length_b 13.150024
_cell_length_c 6.979349
_cell_angle_alpha 90.000000
_cell_angle_beta 112.888945
_cell_angle_gamma 90.000000
_cell_volume 614.172893
_symmetry_space_group_name_H-M "P 21"
_symmetry_group_IT_number 4
_symmetry_cell_setting 'monoclinic'
loop_
_space_group_symop_operation_xyz
x,y,z
-x,1/2+y,-z
loop_
_atom_site_type_symbol
_atom_site_label
_atom_site_fract_x
_atom_site_fract_y
_atom_site_fract_z
Si Si1 0.374076 0.359010 0.393627
Si Si2 0.305366 0.707368 0.612817
Si Si3 0.978951 0.312393 0.809979
Si Si4 0.639074 0.458970 0.803024
Si Si5 0.148323 0.501036 0.696110
Si Si6 0.251052 0.097984 0.493640
Si Si7 0.446198 0.530964 0.114078
Si Si8 0.008803 0.770853 0.783255
O O1 0.482293 0.255775 0.363145
O O2 0.468513 0.390539 0.633608
O O3 0.439264 0.441869 0.265301
O O4 0.134641 0.367734 0.305513
O O5 0.155665 0.750905 0.391598
O O6 0.270783 0.585148 0.616576
O O7 0.227972 0.760223 0.781218
O O8 0.837071 0.391400 0.869924
O O9 0.138694 0.382428 0.763422
O O10 0.036258 0.243106 0.013480
O O11 0.673044 0.552102 0.674089
O O12 0.573964 0.494437 0.983812
O O13 0.922470 0.515626 0.526518
O O14 0.227341 0.548940 0.934679
O O15 0.424544 0.114077 0.719022
O O16 0.117636 0.194791 0.401855
#
# Coordination Sequence:
#
# PCOD9116476 Si02
#       8
#     2   2   2   2   2   2   2   2
#     4  10  22  41  64  98 132 168 232 280 327 422
#     4  10  24  44  63 101 142 171 230 297 336 404
#     4  10  21  44  69  96 135 183 236 275 346 416
#     4   9  21  40  65  93 125 176 220 281 341 393
#     4  10  22  43  68  96 134 181 227 275 347 408
#     4   9  23  42  59  96 136 165 230 287 329 414
#     4  11  21  43  67  94 132 177 226 279 346 408
#     4  11  22  41  65  96 132 179 219 282 348 393
#
# _framework density 26.051297999999999
#
# number of rings (size 3 to 8) (size 9 to 14) (size 15 to 20)
#    0.000    2.000    1.250    1.500    3.500    2.000 
#   11.250    2.500    0.000    0.000    0.000    0.000 
#    0.000    0.000    0.000    0.000    0.000    0.000 
#
# Total GULP energy -89178.754719 kJ/mol
# GULP energy per Si atom -5573.672170 kJ/mol
# Density = 2.599200 g / cm^3
# Si number density = 26.051298 Si / 1000 Ang^3
#
#
#
# Elastic Constant Matrix: (Units=GPa)
#
#
# Indices 1 2 3 4 5 6 
#
# 1 115.7133 20.0160 18.1379 0.0000 -23.9795 0.0000
# 2 20.0160 80.1324 20.6199 0.0000 -11.7385 0.0000
# 3 18.1379 20.6199 106.9868 0.0000 2.5641 0.0000
# 4 0.0000 0.0000 0.0000 27.9387 0.0000 -1.0765
# 5 -23.9795 -11.7385 2.5641 0.0000 57.2756 0.0000
# 6 0.0000 0.0000 0.0000 -1.0765 0.0000 39.2618
#
#
#
# Elastic Compliance Matrix: (Units=1/GPa)
#
#
# Indices 1 2 3 4 5 6 
#
# 1 0.009952 -0.001529 -0.001486 0.000000 0.003920 0.000000
# 2 -0.001529 0.013832 -0.002462 0.000000 0.002305 0.000000
# 3 -0.001486 -0.002462 0.010111 0.000000 -0.001580 0.000000
# 4 0.000000 0.000000 0.000000 0.035830 0.000000 0.000982
# 5 0.003920 0.002305 -0.001580 0.000000 0.019644 0.000000
# 6 0.000000 0.000000 0.000000 0.000982 0.000000 0.025497
#
#
# Mechanical properties :
#
#
# Convention : Reuss Voigt Hill
#
# Bulk Modulus (GPa) = 43.59091 46.70889 45.14990
# Shear Modulus (GPa) = 37.46200 41.16580 39.31390
#
# Velocity S-wave (km/s) = 3.79622 3.97946 3.88892
# Velocity P-wave (km/s) = 5.99868 6.25167 6.12648
#
# Compressibility (1/GPa) = 0.02294056
#
# Stress axis : x y z
#
# Youngs Moduli (GPa) = 100.48399 72.29360 98.89922
#
# Poissons Ratio (x) = 0.11055 0.14700
# Poissons Ratio (y) = 0.15366 0.24349
# Poissons Ratio (z) = 0.14936 0.17798
#
# Static dielectric constant tensor:
#      x y z
#    x 2.231290 0.000000 0.026660 
#    y 0.000000 2.239380 0.000000 
#    z 0.026660 0.000000 2.136210 
# 
# From -- ./inp_files/1951.got.cif
#   From: 2010.05.17/outbox.cif.g08.bks.cpg/sg4_1_cif.got.tgz:1951.got - 2010.06.03 18:43:04.
