data_PCOD9116094
_publ_section_title
;
Structure prediction by ZEFSAII (Michael W. Deem and Ramdas Pophale) SiO2 
 PCOD9116094
Probable space group: P 21
;
_chemical_formula_sum "Si O2"
_cell_formula_units_Z 16
_cell_length_a 5.388632
_cell_length_b 22.212608
_cell_length_c 5.522032
_cell_angle_alpha 90.000000
_cell_angle_beta 102.065590
_cell_angle_gamma 90.000000
_cell_volume 646.361408
_symmetry_space_group_name_H-M "P 21"
_symmetry_group_IT_number 4
_symmetry_cell_setting 'monoclinic'
loop_
_space_group_symop_operation_xyz
x,y,z
-x,1/2+y,-z
loop_
_atom_site_type_symbol
_atom_site_label
_atom_site_fract_x
_atom_site_fract_y
_atom_site_fract_z
Si Si1 0.670485 0.004200 0.613447
Si Si2 0.861132 0.548999 0.547663
Si Si3 0.147728 0.710989 0.280309
Si Si4 0.027997 0.939172 0.065738
Si Si5 0.337559 0.306385 0.348878
Si Si6 0.566635 0.895966 0.223987
Si Si7 0.806732 0.286677 0.203168
Si Si8 0.313949 0.172971 0.542170
O O1 0.399812 0.030227 0.645568
O O2 0.878006 0.050556 0.549660
O O3 0.602690 0.956285 0.393324
O O4 0.832414 0.966510 0.835655
O O5 0.907415 0.497010 0.752277
O O6 0.791634 0.615717 0.623940
O O7 0.182243 0.749595 0.538231
O O8 0.393132 0.668011 0.323230
O O9 0.874109 0.681051 0.267378
O O10 0.159655 0.748874 0.035516
O O11 0.297633 0.911643 0.043037
O O12 0.847281 0.891649 0.166778
O O13 0.465341 0.340762 0.597576
O O14 0.521924 0.312896 0.158139
O O15 0.302350 0.235491 0.393199
O O16 0.050916 0.329568 0.267041
#
# Coordination Sequence:
#
# PCOD9116094 Si02
#       8
#     2   2   2   2   2   2   2   2
#     4  10  21  40  62  95 117 165 217 271 333 388
#     4  10  21  40  63  87 128 161 213 275 326 397
#     4  10  21  40  61  86 130 171 213 262 315 393
#     4  10  21  40  65  90 125 164 217 271 331 389
#     4  10  21  40  62  93 130 170 218 264 334 405
#     4  10  21  40  63  90 130 163 212 275 324 396
#     4  10  21  40  61  86 130 172 214 261 315 391
#     4  10  21  40  61  91 128 170 214 267 336 405
#
# _framework density 24.753952000000002
#
# number of rings (size 3 to 8) (size 9 to 14) (size 15 to 20)
#    0.000    2.000    0.000    3.000    0.000    0.000 
#   27.000    0.000    0.000    0.000    0.000    0.000 
#    0.000    0.000    0.000    0.000    0.000    0.000 
#
# Total GULP energy -89325.048647 kJ/mol
# GULP energy per Si atom -5582.815540 kJ/mol
# Density = 2.469761 g / cm^3
# Si number density = 24.753952 Si / 1000 Ang^3
#
#
#
# Elastic Constant Matrix: (Units=GPa)
#
#
# Indices 1 2 3 4 5 6 
#
# 1 179.6830 47.7999 38.2604 0.0000 18.9165 0.0000
# 2 47.7999 94.6151 7.6356 0.0000 -3.9858 0.0000
# 3 38.2604 7.6356 53.8948 0.0000 4.0567 0.0000
# 4 0.0000 0.0000 0.0000 7.7622 0.0000 3.6815
# 5 18.9165 -3.9858 4.0567 0.0000 37.8384 0.0000
# 6 0.0000 0.0000 0.0000 3.6815 0.0000 44.6009
#
#
#
# Elastic Compliance Matrix: (Units=1/GPa)
#
#
# Indices 1 2 3 4 5 6 
#
# 1 0.008030 -0.003828 -0.004865 0.000000 -0.003896 0.000000
# 2 -0.003828 0.012580 0.000697 0.000000 0.003164 0.000000
# 3 -0.004865 0.000697 0.021898 0.000000 0.000158 0.000000
# 4 0.000000 0.000000 0.000000 0.134079 0.000000 -0.011067
# 5 -0.003896 0.003164 0.000158 0.000000 0.028692 0.000000
# 6 0.000000 0.000000 0.000000 -0.011067 0.000000 0.023335
#
#
# Mechanical properties :
#
#
# Convention : Reuss Voigt Hill
#
# Bulk Modulus (GPa) = 37.71315 57.28719 47.50017
# Shear Modulus (GPa) = 19.72825 33.67344 26.70084
#
# Velocity S-wave (km/s) = 2.82613 3.69226 3.28784
# Velocity P-wave (km/s) = 5.09094 6.43195 5.80033
#
# Compressibility (1/GPa) = 0.02651595
#
# Stress axis : x y z
#
# Youngs Moduli (GPa) = 124.53640 79.49005 45.66712
#
# Poissons Ratio (x) = 0.30430 0.22216
# Poissons Ratio (y) = 0.47675 -0.03184
# Poissons Ratio (z) = 0.60584 -0.05542
#
# Static dielectric constant tensor:
#      x y z
#    x 2.057130 0.000000 0.000280 
#    y 0.000000 1.996510 0.000000 
#    z 0.000280 0.000000 2.074500 
# 
# From -- ./inp_files/673.got.cif
#   From: 2010.05.17/outbox.cif.g08.bks.cpg/sg4_1_cif.got.tgz:673.got - 2010.06.03 18:43:04.
