data_PCOD9116073
_publ_section_title
;
Structure prediction by ZEFSAII (Michael W. Deem and Ramdas Pophale) SiO2 
 PCOD9116073
Probable space group: P 21
;
_chemical_formula_sum "Si O2"
_cell_formula_units_Z 16
_cell_length_a 12.115818
_cell_length_b 9.354641
_cell_length_c 6.306502
_cell_angle_alpha 90.000000
_cell_angle_beta 64.502098
_cell_angle_gamma 90.000000
_cell_volume 645.155252
_symmetry_space_group_name_H-M "P 21"
_symmetry_group_IT_number 4
_symmetry_cell_setting 'monoclinic'
loop_
_space_group_symop_operation_xyz
x,y,z
-x,1/2+y,-z
loop_
_atom_site_type_symbol
_atom_site_label
_atom_site_fract_x
_atom_site_fract_y
_atom_site_fract_z
Si Si1 0.811258 0.161650 0.838336
Si Si2 0.614793 0.001468 0.102034
Si Si3 0.768465 0.718693 0.923411
Si Si4 0.976489 0.751734 0.044588
Si Si5 0.521686 0.564347 0.204056
Si Si6 0.587845 0.349911 0.482453
Si Si7 0.913330 0.911456 0.494100
Si Si8 0.153094 0.872896 0.537151
O O1 0.936281 0.170503 0.865006
O O2 0.785618 0.296154 0.715898
O O3 0.831230 0.040535 0.642823
O O4 0.702838 0.131389 0.092264
O O5 0.704029 0.866150 0.050220
O O6 0.491391 0.961977 0.314106
O O7 0.575671 0.039448 0.897953
O O8 0.652403 0.616245 0.000382
O O9 0.862282 0.673012 0.030910
O O10 0.848740 0.770043 0.653527
O O11 0.927052 0.881717 0.233423
O O12 0.062202 0.797157 0.780025
O O13 0.546318 0.409835 0.288855
O O14 0.464075 0.693988 0.398114
O O15 0.727452 0.395015 0.416846
O O16 0.045587 0.949446 0.486988
#
# Coordination Sequence:
#
# PCOD9116073 Si02
#       8
#     2   2   2   2   2   2   2   2
#     4  10  21  39  70  92 131 181 224 283 347 412
#     4  10  23  43  67  93 138 183 228 281 344 407
#     4   9  22  43  65 100 131 179 234 280 347 404
#     4  10  22  40  66  96 137 173 226 288 340 410
#     4  11  25  44  70 104 141 184 233 286 341 414
#     4  11  26  44  70 106 137 185 233 280 349 409
#     4   9  21  41  66  97 133 179 221 283 349 405
#     4  10  22  42  62 102 132 170 233 273 349 411
#
# _framework density 24.800232000000001
#
# number of rings (size 3 to 8) (size 9 to 14) (size 15 to 20)
#    0.000    2.000    1.250    0.000    3.500   12.000 
#    9.000    0.000    0.000    0.000    0.000    0.000 
#    0.000    0.000    0.000    0.000    0.000    0.000 
#
# Total GULP energy -89131.275078 kJ/mol
# GULP energy per Si atom -5570.704692 kJ/mol
# Density = 2.474379 g / cm^3
# Si number density = 24.800232 Si / 1000 Ang^3
#
#
#
# Elastic Constant Matrix: (Units=GPa)
#
#
# Indices 1 2 3 4 5 6 
#
# 1 152.6337 4.8295 15.3294 0.0000 -8.1572 0.0000
# 2 4.8295 34.0833 10.9737 0.0000 -1.8255 0.0000
# 3 15.3294 10.9737 50.8251 0.0000 -8.5685 0.0000
# 4 0.0000 0.0000 0.0000 20.9129 0.0000 -9.7195
# 5 -8.1572 -1.8255 -8.5685 0.0000 38.8020 0.0000
# 6 0.0000 0.0000 0.0000 -9.7195 0.0000 24.7978
#
#
#
# Elastic Compliance Matrix: (Units=1/GPa)
#
#
# Indices 1 2 3 4 5 6 
#
# 1 0.006798 -0.000327 -0.001809 0.000000 0.001014 0.000000
# 2 -0.000327 0.031548 -0.006725 0.000000 -0.000069 0.000000
# 3 -0.001809 -0.006725 0.022389 0.000000 0.004247 0.000000
# 4 0.000000 0.000000 0.000000 0.058468 0.000000 0.022917
# 5 0.001014 -0.000069 0.004247 0.000000 0.026920 0.000000
# 6 0.000000 0.000000 0.000000 0.022917 0.000000 0.049308
#
#
# Mechanical properties :
#
#
# Convention : Reuss Voigt Hill
#
# Bulk Modulus (GPa) = 23.24811 33.31191 28.28001
# Shear Modulus (GPa) = 21.97914 30.66317 26.32115
#
# Velocity S-wave (km/s) = 2.98022 3.52007 3.26134
# Velocity P-wave (km/s) = 4.60834 5.47562 5.06060
#
# Compressibility (1/GPa) = 0.04301426
#
# Stress axis : x y z
#
# Youngs Moduli (GPa) = 147.10566 31.69821 44.66508
#
# Poissons Ratio (x) = 0.01035 0.08079
# Poissons Ratio (y) = 0.04803 0.30036
# Poissons Ratio (z) = 0.26608 0.21316
#
# Static dielectric constant tensor:
#      x y z
#    x 1.896400 0.000000 -0.037210 
#    y 0.000000 2.074530 0.000000 
#    z -0.037210 0.000000 2.025990 
# 
# From -- ./inp_files/2721.got.cif
#   From: 2010.05.17/outbox.cif.g08.bks.cpg/sg4_2_cif.got.tgz:2721.got - 2010.06.03 18:43:04.
