data_PCOD9116488
_publ_section_title
;
Structure prediction by ZEFSAII (Michael W. Deem and Ramdas Pophale) SiO2 
 PCOD9116488
Probable space group: P 21
;
_chemical_formula_sum "Si O2"
_cell_formula_units_Z 14
_cell_length_a 12.106896
_cell_length_b 10.480003
_cell_length_c 8.382415
_cell_angle_alpha 90.000000
_cell_angle_beta 31.628169
_cell_angle_gamma 90.000000
_cell_volume 557.737517
_symmetry_space_group_name_H-M "P 21"
_symmetry_group_IT_number 4
_symmetry_cell_setting 'monoclinic'
loop_
_space_group_symop_operation_xyz
x,y,z
-x,1/2+y,-z
loop_
_atom_site_type_symbol
_atom_site_label
_atom_site_fract_x
_atom_site_fract_y
_atom_site_fract_z
Si Si1 0.653007 0.759010 0.679877
Si Si2 0.296744 0.203061 0.741141
Si Si3 0.866366 0.439075 0.062985
Si Si4 0.781296 0.040214 0.545990
Si Si5 0.719244 0.211372 0.078159
Si Si6 0.870842 0.308663 0.392279
Si Si7 0.058888 0.054057 0.520657
O O1 0.767503 0.736593 0.364213
O O2 0.652385 0.908905 0.727648
O O3 0.422133 0.714132 0.906990
O O4 0.766420 0.663702 0.663714
O O5 0.544262 0.232910 0.431379
O O6 0.296473 0.051758 0.767727
O O7 0.117513 0.263910 0.071995
O O8 0.860308 0.335371 0.930481
O O9 0.828673 0.381581 0.280538
O O10 0.089497 0.509714 0.774750
O O11 0.717675 0.186991 0.597629
O O12 0.946640 0.053472 0.488444
O O13 0.870667 0.090893 0.876977
O O14 0.854739 0.414929 0.547050
#
# Coordination Sequence:
#
# PCOD9116488 Si02
#       7
#     2   2   2   2   2   2   2
#     4  10  21  45  63  95 134 160 219 271 317 392
#     4   9  21  36  60  96 122 157 215 263 317 374
#     4  11  20  40  65  96 123 167 218 271 321 381
#     4  11  24  41  66  97 128 176 213 270 326 393
#     4  10  23  38  69  91 130 173 211 267 334 382
#     4  11  22  38  70  95 126 171 220 269 325 383
#     4  12  23  44  67  92 135 176 214 265 334 395
#
# _framework density 25.101416
#
# number of rings (size 3 to 8) (size 9 to 14) (size 15 to 20)
#    0.857    0.571    4.286    0.857    4.000    1.143 
#    2.571    1.429    0.000    0.000    0.000    0.000 
#    0.000    0.000    0.000    0.000    0.000    0.000 
#
# Total GULP energy -78080.646959 kJ/mol
# GULP energy per Si atom -5577.189068 kJ/mol
# Density = 2.504428 g / cm^3
# Si number density = 25.101416 Si / 1000 Ang^3
#
#
#
# Elastic Constant Matrix: (Units=GPa)
#
#
# Indices 1 2 3 4 5 6 
#
# 1 73.7402 16.3819 -1.6448 0.0000 3.9099 0.0000
# 2 16.3819 153.0392 11.7356 0.0000 -5.8926 0.0000
# 3 -1.6448 11.7356 71.1548 0.0000 -5.9699 0.0000
# 4 0.0000 0.0000 0.0000 15.5592 0.0000 3.3120
# 5 3.9099 -5.8926 -5.9699 0.0000 34.2956 0.0000
# 6 0.0000 0.0000 0.0000 3.3120 0.0000 28.7412
#
#
#
# Elastic Compliance Matrix: (Units=1/GPa)
#
#
# Indices 1 2 3 4 5 6 
#
# 1 0.014023 -0.001604 0.000438 0.000000 -0.001798 0.000000
# 2 -0.001604 0.006833 -0.001066 0.000000 0.001171 0.000000
# 3 0.000438 -0.001066 0.014431 0.000000 0.002279 0.000000
# 4 0.000000 0.000000 0.000000 0.065887 0.000000 -0.007593
# 5 -0.001798 0.001171 0.002279 0.000000 0.029961 0.000000
# 6 0.000000 0.000000 0.000000 -0.007593 0.000000 0.035668
#
#
# Mechanical properties :
#
#
# Convention : Reuss Voigt Hill
#
# Bulk Modulus (GPa) = 32.44355 38.98662 35.71509
# Shear Modulus (GPa) = 27.54211 33.81665 30.67938
#
# Velocity S-wave (km/s) = 3.31604 3.67441 3.49981
# Velocity P-wave (km/s) = 5.25496 5.79371 5.53090
#
# Compressibility (1/GPa) = 0.03082277
#
# Stress axis : x y z
#
# Youngs Moduli (GPa) = 71.31386 146.35334 69.29542
#
# Poissons Ratio (x) = 0.23473 -0.03034
# Poissons Ratio (y) = 0.11438 0.07385
# Poissons Ratio (z) = -0.03122 0.15597
#
# Static dielectric constant tensor:
#      x y z
#    x 1.945790 0.000000 -0.000160 
#    y 0.000000 2.029520 0.000000 
#    z -0.000160 0.000000 2.022000 
# 
# From -- ./inp_files/8425.got.cif
#   From: 2010.05.17/outbox.cif.g08.bks.cpg/sg4_5_cif.got.tgz:8425.got - 2010.06.03 18:43:04.
