data_PCOD9116925
_publ_section_title
;
Structure prediction by ZEFSAII (Michael W. Deem and Ramdas Pophale) SiO2 
 PCOD9116925
Probable space group: P 21
;
_chemical_formula_sum "Si O2"
_cell_formula_units_Z 14
_cell_length_a 8.038528
_cell_length_b 12.272998
_cell_length_c 8.347330
_cell_angle_alpha 90.000000
_cell_angle_beta 127.538921
_cell_angle_gamma 90.000000
_cell_volume 653.002580
_symmetry_space_group_name_H-M "P 21"
_symmetry_group_IT_number 4
_symmetry_cell_setting 'monoclinic'
loop_
_space_group_symop_operation_xyz
x,y,z
-x,1/2+y,-z
loop_
_atom_site_type_symbol
_atom_site_label
_atom_site_fract_x
_atom_site_fract_y
_atom_site_fract_z
Si Si1 0.760084 0.103260 0.364017
Si Si2 0.325823 0.064063 0.203291
Si Si3 0.693564 0.333521 0.272845
Si Si4 0.191398 0.842758 0.285821
Si Si5 0.123587 0.616739 0.071331
Si Si6 0.265018 0.442228 0.925129
Si Si7 0.907331 0.527866 0.229372
O O1 0.559363 0.106068 0.365668
O O2 0.740442 0.211084 0.248231
O O3 0.985997 0.107394 0.581446
O O4 0.745781 0.990407 0.259955
O O5 0.301023 0.941732 0.254512
O O6 0.292755 0.066970 0.989945
O O7 0.116595 0.127668 0.140353
O O8 0.719077 0.337463 0.480842
O O9 0.852414 0.416723 0.282404
O O10 0.464171 0.370096 0.083259
O O11 0.198108 0.729823 0.190965
O O12 0.947832 0.877469 0.161773
O O13 0.078227 0.528964 0.187619
O O14 0.268232 0.551532 0.035658
#
# Coordination Sequence:
#
# PCOD9116925 Si02
#       7
#     2   2   2   2   2   2   2
#     4  12  23  41  65  89 124 165 195 258 305 348
#     4   9  22  40  60  86 127 153 201 252 294 359
#     4  12  24  39  65  91 121 163 206 245 308 360
#     4  11  22  40  63  89 122 164 200 249 306 357
#     4   9  21  42  58  87 126 153 199 255 294 357
#     4  11  24  38  64  91 122 160 208 244 303 367
#     4  10  22  42  59  91 126 152 205 257 290 364
#
# _framework density 21.439426999999998
#
# number of rings (size 3 to 8) (size 9 to 14) (size 15 to 20)
#    0.857    0.571    4.286    0.857    4.000    0.000 
#    0.000    1.429    0.000    0.000    0.000    0.000 
#    0.000    0.000    0.000    0.000    0.000    0.000 
#
# Total GULP energy -78011.156025 kJ/mol
# GULP energy per Si atom -5572.225430 kJ/mol
# Density = 2.139063 g / cm^3
# Si number density = 21.439427 Si / 1000 Ang^3
#
#
#
# Elastic Constant Matrix: (Units=GPa)
#
#
# Indices 1 2 3 4 5 6 
#
# 1 32.4181 17.4965 5.4446 0.0000 8.3257 0.0000
# 2 17.4965 72.3984 24.6966 0.0000 13.4516 0.0000
# 3 5.4446 24.6966 86.6037 0.0000 10.6697 0.0000
# 4 0.0000 0.0000 0.0000 32.7504 0.0000 -3.9171
# 5 8.3257 13.4516 10.6697 0.0000 19.6758 0.0000
# 6 0.0000 0.0000 0.0000 -3.9171 0.0000 31.0025
#
#
#
# Elastic Compliance Matrix: (Units=1/GPa)
#
#
# Indices 1 2 3 4 5 6 
#
# 1 0.037566 -0.007332 0.001147 0.000000 -0.011505 0.000000
# 2 -0.007332 0.018251 -0.003845 0.000000 -0.007289 0.000000
# 3 0.001147 -0.003845 0.013188 0.000000 -0.005008 0.000000
# 4 0.000000 0.000000 0.000000 0.031003 0.000000 0.003917
# 5 -0.011505 -0.007289 -0.005008 0.000000 0.063391 0.000000
# 6 0.000000 0.000000 0.000000 0.003917 0.000000 0.032750
#
#
# Mechanical properties :
#
#
# Convention : Reuss Voigt Hill
#
# Bulk Modulus (GPa) = 20.43180 31.85508 26.14344
# Shear Modulus (GPa) = 21.50299 26.27124 23.88712
#
# Velocity S-wave (km/s) = 3.17040 3.50433 3.34154
# Velocity P-wave (km/s) = 4.79089 5.59144 5.20657
#
# Compressibility (1/GPa) = 0.04894332
#
# Stress axis : x y z
#
# Youngs Moduli (GPa) = 26.61949 54.79288 75.82456
#
# Poissons Ratio (x) = 0.40175 -0.08694
# Poissons Ratio (y) = 0.19518 0.29158
# Poissons Ratio (z) = -0.03052 0.21070
#
# Static dielectric constant tensor:
#      x y z
#    x 1.774180 0.000000 -0.025080 
#    y 0.000000 1.771410 0.000000 
#    z -0.025080 0.000000 1.851970 
# 
# From -- ./inp_files/6455.got.cif
#   From: 2010.05.17/outbox.cif.g08.bks.cpg/sg4_4_cif.got.tgz:6455.got - 2010.06.03 18:43:04.
