data_PCOD9116077
_publ_section_title
;
Structure prediction by ZEFSAII (Michael W. Deem and Ramdas Pophale) SiO2 
 PCOD9116077
Probable space group: P 21
;
_chemical_formula_sum "Si O2"
_cell_formula_units_Z 14
_cell_length_a 9.106014
_cell_length_b 13.295491
_cell_length_c 5.275894
_cell_angle_alpha 90.000000
_cell_angle_beta 101.421221
_cell_angle_gamma 90.000000
_cell_volume 626.098298
_symmetry_space_group_name_H-M "P 21"
_symmetry_group_IT_number 4
_symmetry_cell_setting 'monoclinic'
loop_
_space_group_symop_operation_xyz
x,y,z
-x,1/2+y,-z
loop_
_atom_site_type_symbol
_atom_site_label
_atom_site_fract_x
_atom_site_fract_y
_atom_site_fract_z
Si Si1 0.688307 0.440300 0.667745
Si Si2 0.503668 0.579287 0.218610
Si Si3 0.736490 0.067997 0.221895
Si Si4 0.221987 0.194444 0.822124
Si Si5 0.918634 0.608965 0.749229
Si Si6 0.386050 0.378423 0.636989
Si Si7 0.597523 0.251146 0.442557
O O1 0.594030 0.511233 0.445913
O O2 0.830253 0.505494 0.788248
O O3 0.553731 0.404422 0.808839
O O4 0.723361 0.335160 0.541315
O O5 0.632388 0.623371 0.078013
O O6 0.436135 0.674992 0.340576
O O7 0.363901 0.527270 0.041017
O O8 0.657781 0.174899 0.255212
O O9 0.907428 0.085622 0.220367
O O10 0.705180 0.982007 0.420625
O O11 0.141949 0.151083 0.540765
O O12 0.287280 0.302505 0.767715
O O13 0.119072 0.184684 0.033677
O O14 0.443120 0.316949 0.403874
#
# Coordination Sequence:
#
# PCOD9116077 Si02
#       7
#     2   2   2   2   2   2   2
#     4   9  20  43  68  97 131 179 235 287 341 407
#     4  10  21  39  71  93 129 183 237 285 330 421
#     4  12  24  40  68 101 140 178 231 290 360 410
#     4  10  24  45  68  98 135 186 229 281 347 409
#     4  11  26  45  67 102 149 177 217 295 359 415
#     4   9  21  41  73  96 125 183 243 280 326 420
#     4   9  20  41  65  97 131 174 238 282 339 402
#
# _framework density 22.360704999999999
#
# number of rings (size 3 to 8) (size 9 to 14) (size 15 to 20)
#    0.857    1.143    1.429    0.857    6.000    4.571 
#    2.571    0.000    0.000    0.000    0.000    0.000 
#    0.000    0.000    0.000    0.000    0.000    0.000 
#
# Total GULP energy -77956.111902 kJ/mol
# GULP energy per Si atom -5568.293707 kJ/mol
# Density = 2.230981 g / cm^3
# Si number density = 22.360705 Si / 1000 Ang^3
#
#
#
# Elastic Constant Matrix: (Units=GPa)
#
#
# Indices 1 2 3 4 5 6 
#
# 1 153.6921 39.9254 46.1869 0.0000 -10.5374 0.0000
# 2 39.9254 121.7888 16.9826 0.0000 -9.5268 0.0000
# 3 46.1869 16.9826 62.4039 0.0000 -7.3473 0.0000
# 4 0.0000 0.0000 0.0000 19.5120 0.0000 -8.6392
# 5 -10.5374 -9.5268 -7.3473 0.0000 22.8862 0.0000
# 6 0.0000 0.0000 0.0000 -8.6392 0.0000 30.6144
#
#
#
# Elastic Compliance Matrix: (Units=1/GPa)
#
#
# Indices 1 2 3 4 5 6 
#
# 1 0.008881 -0.001985 -0.005871 0.000000 0.001378 0.000000
# 2 -0.001985 0.009170 -0.000711 0.000000 0.002675 0.000000
# 3 -0.005871 -0.000711 0.021004 0.000000 0.003744 0.000000
# 4 0.000000 0.000000 0.000000 0.058568 0.000000 0.016528
# 5 0.001378 0.002675 0.003744 0.000000 0.046644 0.000000
# 6 0.000000 0.000000 0.000000 0.016528 0.000000 0.037328
#
#
# Mechanical properties :
#
#
# Convention : Reuss Voigt Hill
#
# Bulk Modulus (GPa) = 45.61835 60.45273 53.03554
# Shear Modulus (GPa) = 24.26748 30.25518 27.26133
#
# Velocity S-wave (km/s) = 3.29792 3.68237 3.49544
# Velocity P-wave (km/s) = 5.91161 6.72115 6.32933
#
# Compressibility (1/GPa) = 0.02192100
#
# Stress axis : x y z
#
# Youngs Moduli (GPa) = 112.60219 109.04992 47.61000
#
# Poissons Ratio (x) = 0.21646 0.27950
# Poissons Ratio (y) = 0.22351 0.03387
# Poissons Ratio (z) = 0.66103 0.07759
#
# Static dielectric constant tensor:
#      x y z
#    x 1.806920 0.000000 -0.029220 
#    y 0.000000 1.928640 0.000000 
#    z -0.029220 0.000000 1.925360 
# 
# From -- ./inp_files/1638.got.cif
#   From: 2010.05.17/outbox.cif.g08.bks.cpg/sg4_1_cif.got.tgz:1638.got - 2010.06.03 18:43:04.
