data_PCOD9116441
_publ_section_title
;
Structure prediction by ZEFSAII (Michael W. Deem and Ramdas Pophale) SiO2 
 PCOD9116441
Probable space group: P 21
;
_chemical_formula_sum "Si O2"
_cell_formula_units_Z 16
_cell_length_a 18.025405
_cell_length_b 5.109857
_cell_length_c 8.975982
_cell_angle_alpha 90.000000
_cell_angle_beta 129.685956
_cell_angle_gamma 90.000000
_cell_volume 636.232775
_symmetry_space_group_name_H-M "P 21"
_symmetry_group_IT_number 4
_symmetry_cell_setting 'monoclinic'
loop_
_space_group_symop_operation_xyz
x,y,z
-x,1/2+y,-z
loop_
_atom_site_type_symbol
_atom_site_label
_atom_site_fract_x
_atom_site_fract_y
_atom_site_fract_z
Si Si1 0.533405 0.506060 0.458317
Si Si2 0.339075 0.561209 0.748697
Si Si3 0.877016 0.393071 0.366449
Si Si4 0.044269 0.399403 0.371360
Si Si5 0.177115 0.584621 0.300925
Si Si6 0.693648 0.654237 0.031397
Si Si7 0.247382 0.066622 0.226386
Si Si8 0.521372 0.308408 0.866832
O O1 0.480497 0.288138 0.484587
O O2 0.646655 0.455034 0.594352
O O3 0.480302 0.549710 0.234385
O O4 0.251649 0.649230 0.532299
O O5 0.410284 0.376727 0.743784
O O6 0.307694 0.394568 0.854500
O O7 0.420097 0.767083 0.906040
O O8 0.917889 0.609073 0.536783
O O9 0.765178 0.445913 0.202099
O O10 0.934340 0.427712 0.283799
O O11 0.902912 0.103351 0.450337
O O12 0.076766 0.501724 0.251825
O O13 0.178177 0.825025 0.186303
O O14 0.217246 0.320740 0.279436
O O15 0.739852 0.672088 0.926541
O O16 0.589665 0.521951 0.878804
#
# Coordination Sequence:
#
# PCOD9116441 Si02
#       8
#     2   2   2   2   2   2   2   2
#     4  12  25  45  64  90 134 186 228 277 332 408
#     4  12  26  40  68  96 132 174 231 290 337 391
#     4  10  22  41  74 106 131 174 218 283 343 400
#     4  10  21  43  72 105 136 167 224 278 344 406
#     4  12  26  46  68 101 136 182 225 285 338 410
#     4  12  26  46  64 100 135 178 227 287 335 412
#     4  12  28  43  68  96 140 185 230 270 346 412
#     4  12  26  38  66  94 130 172 231 284 335 387
#
# _framework density 25.148026999999999
#
# number of rings (size 3 to 8) (size 9 to 14) (size 15 to 20)
#    0.000    0.500    5.000    3.000    5.250    0.000 
#    0.000    1.250    0.000    0.000    0.000    0.000 
#    0.000    0.000    0.000    0.000    0.000    0.000 
#
# Total GULP energy -89510.817174 kJ/mol
# GULP energy per Si atom -5594.426073 kJ/mol
# Density = 2.509079 g / cm^3
# Si number density = 25.148027 Si / 1000 Ang^3
#
#
#
# Elastic Constant Matrix: (Units=GPa)
#
#
# Indices 1 2 3 4 5 6 
#
# 1 136.2529 25.6791 10.8515 0.0000 -24.6916 0.0000
# 2 25.6791 48.6832 6.2777 0.0000 -4.0260 0.0000
# 3 10.8515 6.2777 37.3477 0.0000 -6.0115 0.0000
# 4 0.0000 0.0000 0.0000 31.9602 0.0000 -13.9724
# 5 -24.6916 -4.0260 -6.0115 0.0000 36.6301 0.0000
# 6 0.0000 0.0000 0.0000 -13.9724 0.0000 46.3519
#
#
#
# Elastic Compliance Matrix: (Units=1/GPa)
#
#
# Indices 1 2 3 4 5 6 
#
# 1 0.009242 -0.004275 -0.001068 0.000000 0.005585 0.000000
# 2 -0.004275 0.023087 -0.002767 0.000000 -0.000799 0.000000
# 3 -0.001068 -0.002767 0.028129 0.000000 0.003593 0.000000
# 4 0.000000 0.000000 0.000000 0.036038 0.000000 0.010863
# 5 0.005585 -0.000799 0.003593 0.000000 0.031566 0.000000
# 6 0.000000 0.000000 0.000000 0.010863 0.000000 0.024849
#
#
# Mechanical properties :
#
#
# Convention : Reuss Voigt Hill
#
# Bulk Modulus (GPa) = 22.60511 34.21114 28.40812
# Shear Modulus (GPa) = 27.19198 34.95347 31.07272
#
# Velocity S-wave (km/s) = 3.29184 3.73219 3.51891
# Velocity P-wave (km/s) = 4.84321 5.67501 5.27553
#
# Compressibility (1/GPa) = 0.04423779
#
# Stress axis : x y z
#
# Youngs Moduli (GPa) = 108.19948 43.31456 35.55052
#
# Poissons Ratio (x) = 0.18519 0.03796
# Poissons Ratio (y) = 0.46260 0.09837
# Poissons Ratio (z) = 0.11553 0.11985
#
# Static dielectric constant tensor:
#      x y z
#    x 2.056570 0.000000 -0.074100 
#    y 0.000000 1.976840 0.000000 
#    z -0.074100 0.000000 1.988240 
# 
# From -- ./inp_files/8696.got.cif
#   From: 2010.05.17/outbox.cif.g08.bks.cpg/sg4_5_cif.got.tgz:8696.got - 2010.06.03 18:43:04.
