data_PCOD9116898
_publ_section_title
;
Structure prediction by ZEFSAII (Michael W. Deem and Ramdas Pophale) SiO2 
 PCOD9116898
Probable space group: P 21
;
_chemical_formula_sum "Si O2"
_cell_formula_units_Z 16
_cell_length_a 13.314330
_cell_length_b 11.961676
_cell_length_c 11.569945
_cell_angle_alpha 90.000000
_cell_angle_beta 21.985299
_cell_angle_gamma 90.000000
_cell_volume 689.830128
_symmetry_space_group_name_H-M "P 21"
_symmetry_group_IT_number 4
_symmetry_cell_setting 'monoclinic'
loop_
_space_group_symop_operation_xyz
x,y,z
-x,1/2+y,-z
loop_
_atom_site_type_symbol
_atom_site_label
_atom_site_fract_x
_atom_site_fract_y
_atom_site_fract_z
Si Si1 0.947912 0.524040 0.656330
Si Si2 0.319426 0.986174 0.293314
Si Si3 0.873969 0.269636 0.977758
Si Si4 0.602642 0.508785 0.253515
Si Si5 0.062056 0.638659 0.855936
Si Si6 0.735422 0.834586 0.754688
Si Si7 0.427116 0.206939 0.289287
Si Si8 0.937720 0.245839 0.388103
O O1 0.026673 0.392464 0.572709
O O2 0.155032 0.623325 0.467812
O O3 0.842948 0.538956 0.639158
O O4 0.724410 0.535397 0.995941
O O5 0.211262 0.863740 0.441548
O O6 0.337032 0.078725 0.371591
O O7 0.602705 0.949424 0.939540
O O8 0.189968 0.272763 0.608957
O O9 0.707218 0.384395 0.167071
O O10 0.709306 0.208173 0.052176
O O11 0.863115 0.201909 0.108152
O O12 0.292629 0.544876 0.587116
O O13 0.769750 0.582610 0.167105
O O14 0.039661 0.723959 0.771996
O O15 0.561476 0.763874 0.850166
O O16 0.819463 0.768084 0.779618
#
# Coordination Sequence:
#
# PCOD9116898 Si02
#       8
#     2   2   2   2   2   2   2   2
#     4  10  22  41  68  99 141 180 240 280 359 430
#     4  11  26  39  69 104 148 184 229 302 365 429
#     4  12  27  50  73 105 143 192 241 298 355 429
#     4  11  24  47  73 108 132 191 240 296 348 432
#     4  11  27  46  76 101 141 187 246 293 356 419
#     4  11  24  42  69 108 137 197 223 308 350 444
#     4  12  27  47  73 107 147 188 243 290 370 426
#     4  10  25  42  67 102 141 185 236 293 363 419
#
# _framework density 23.194116000000001
#
# number of rings (size 3 to 8) (size 9 to 14) (size 15 to 20)
#    0.000    1.000    2.500    2.250   15.750    2.000 
#    0.000    1.250    0.000    0.000    0.000    0.000 
#    0.000    0.000    0.000    0.000    0.000    0.000 
#
# Total GULP energy -89284.784780 kJ/mol
# GULP energy per Si atom -5580.299049 kJ/mol
# Density = 2.314133 g / cm^3
# Si number density = 23.194116 Si / 1000 Ang^3
#
#
#
# Elastic Constant Matrix: (Units=GPa)
#
#
# Indices 1 2 3 4 5 6 
#
# 1 124.6236 38.7815 13.3183 0.0000 -17.0054 0.0000
# 2 38.7815 92.9269 -1.6018 0.0000 -3.7223 0.0000
# 3 13.3183 -1.6018 49.7619 0.0000 -13.5660 0.0000
# 4 0.0000 0.0000 0.0000 32.4938 0.0000 -1.1525
# 5 -17.0054 -3.7223 -13.5660 0.0000 28.0682 0.0000
# 6 0.0000 0.0000 0.0000 -1.1525 0.0000 41.8623
#
#
#
# Elastic Compliance Matrix: (Units=1/GPa)
#
#
# Indices 1 2 3 4 5 6 
#
# 1 0.010109 -0.004050 -0.001512 0.000000 0.004857 0.000000
# 2 -0.004050 0.012473 0.001460 0.000000 -0.000094 0.000000
# 3 -0.001512 0.001460 0.023439 0.000000 0.010606 0.000000
# 4 0.000000 0.000000 0.000000 0.030805 0.000000 0.000848
# 5 0.004857 -0.000094 0.010606 0.000000 0.043684 0.000000
# 6 0.000000 0.000000 0.000000 0.000848 0.000000 0.023911
#
#
# Mechanical properties :
#
#
# Convention : Reuss Voigt Hill
#
# Bulk Modulus (GPa) = 26.44403 40.92315 33.68359
# Shear Modulus (GPa) = 30.26077 34.93915 32.59996
#
# Velocity S-wave (km/s) = 3.61595 3.88542 3.75310
# Velocity P-wave (km/s) = 5.37209 6.14904 5.77365
#
# Compressibility (1/GPa) = 0.03781572
#
# Stress axis : x y z
#
# Youngs Moduli (GPa) = 98.92308 80.17409 42.66443
#
# Poissons Ratio (x) = 0.32473 0.06450
# Poissons Ratio (y) = 0.40067 -0.06228
# Poissons Ratio (z) = 0.14956 -0.11704
#
# Static dielectric constant tensor:
#      x y z
#    x 1.846010 0.000000 0.012380 
#    y 0.000000 1.925810 0.000000 
#    z 0.012380 0.000000 2.046830 
# 
# From -- ./inp_files/3771.got.cif
#   From: 2010.05.17/outbox.cif.g08.bks.cpg/sg4_2_cif.got.tgz:3771.got - 2010.06.03 18:43:04.
