data_PCOD9116442
_publ_section_title
;
Structure prediction by ZEFSAII (Michael W. Deem and Ramdas Pophale) SiO2 
 PCOD9116442
Probable space group: P 21
;
_chemical_formula_sum "Si O2"
_cell_formula_units_Z 16
_cell_length_a 8.466169
_cell_length_b 10.163663
_cell_length_c 9.403462
_cell_angle_alpha 90.000000
_cell_angle_beta 55.439634
_cell_angle_gamma 90.000000
_cell_volume 666.352218
_symmetry_space_group_name_H-M "P 21"
_symmetry_group_IT_number 4
_symmetry_cell_setting 'monoclinic'
loop_
_space_group_symop_operation_xyz
x,y,z
-x,1/2+y,-z
loop_
_atom_site_type_symbol
_atom_site_label
_atom_site_fract_x
_atom_site_fract_y
_atom_site_fract_z
Si Si1 0.721263 0.680240 0.933868
Si Si2 0.456010 0.615504 0.641957
Si Si3 0.859493 0.575246 0.579593
Si Si4 0.054329 0.819627 0.361738
Si Si5 0.691532 0.202132 0.001693
Si Si6 0.180229 0.389126 0.751662
Si Si7 0.047074 0.447770 0.109546
Si Si8 0.310989 0.103152 0.736779
O O1 0.837843 0.596567 0.759369
O O2 0.520233 0.710105 0.957664
O O3 0.851798 0.810564 0.897425
O O4 0.663404 0.603083 0.107139
O O5 0.664041 0.619158 0.605507
O O6 0.330177 0.706784 0.813565
O O7 0.371767 0.468378 0.690423
O O8 0.498671 0.633342 0.452989
O O9 0.883079 0.420050 0.549329
O O10 0.015763 0.675831 0.442093
O O11 0.867166 0.890488 0.389898
O O12 0.190236 0.803679 0.155124
O O13 0.802898 0.062779 0.923140
O O14 0.188434 0.235501 0.778689
O O15 0.041020 0.450111 0.940141
O O16 0.827701 0.489330 0.255705
#
# Coordination Sequence:
#
# PCOD9116442 Si02
#       8
#     2   2   2   2   2   2   2   2
#     4  10  25  42  69 107 138 189 239 288 360 428
#     4  10  23  46  68 100 139 185 229 296 350 425
#     4  11  26  45  71 105 142 188 240 291 356 426
#     4  12  25  46  72 106 143 189 236 301 354 431
#     4  10  23  43  72  97 144 184 233 294 362 412
#     4  10  22  42  67 100 137 181 239 280 355 421
#     4  10  21  43  72  96 144 186 233 295 352 419
#     4  11  21  45  67 103 141 184 231 299 351 424
#
# _framework density 24.011323000000001
#
# number of rings (size 3 to 8) (size 9 to 14) (size 15 to 20)
#    0.000    1.500    2.500    0.750   10.500    1.000 
#    4.500    0.000    0.000    0.000    0.000    0.000 
#    0.000    0.000    0.000    0.000    0.000    0.000 
#
# Total GULP energy -89170.413222 kJ/mol
# GULP energy per Si atom -5573.150826 kJ/mol
# Density = 2.395667 g / cm^3
# Si number density = 24.011323 Si / 1000 Ang^3
#
#
#
# Elastic Constant Matrix: (Units=GPa)
#
#
# Indices 1 2 3 4 5 6 
#
# 1 36.8478 19.7431 28.1813 0.0000 6.8735 0.0000
# 2 19.7431 90.7912 43.4251 0.0000 -6.9001 0.0000
# 3 28.1813 43.4251 157.0304 0.0000 15.3100 0.0000
# 4 0.0000 0.0000 0.0000 30.5942 0.0000 3.9213
# 5 6.8735 -6.9001 15.3100 0.0000 27.1143 0.0000
# 6 0.0000 0.0000 0.0000 3.9213 0.0000 33.3307
#
#
#
# Elastic Compliance Matrix: (Units=1/GPa)
#
#
# Indices 1 2 3 4 5 6 
#
# 1 0.035000 -0.006505 -0.003657 0.000000 -0.008463 0.000000
# 2 -0.006505 0.014733 -0.003633 0.000000 0.007450 0.000000
# 3 -0.003657 -0.003633 0.008497 0.000000 -0.004795 0.000000
# 4 0.000000 0.000000 0.000000 0.033186 0.000000 -0.003904
# 5 -0.008463 0.007450 -0.004795 0.000000 0.043630 0.000000
# 6 0.000000 0.000000 0.000000 -0.003904 0.000000 0.030462
#
#
# Mechanical properties :
#
#
# Convention : Reuss Voigt Hill
#
# Bulk Modulus (GPa) = 32.63838 51.92980 42.28409
# Shear Modulus (GPa) = 24.59298 31.09582 27.84440
#
# Velocity S-wave (km/s) = 3.20382 3.60258 3.40904
# Velocity P-wave (km/s) = 5.22574 6.24331 5.75705
#
# Compressibility (1/GPa) = 0.03063878
#
# Stress axis : x y z
#
# Youngs Moduli (GPa) = 28.57167 67.87638 117.69226
#
# Poissons Ratio (x) = 0.44152 0.43043
# Poissons Ratio (y) = 0.18585 0.42759
# Poissons Ratio (z) = 0.10449 0.24660
#
# Static dielectric constant tensor:
#      x y z
#    x 1.985780 0.000000 -0.008350 
#    y 0.000000 1.932990 0.000000 
#    z -0.008350 0.000000 2.055290 
# 
# From -- ./inp_files/6225.got.cif
#   From: 2010.05.17/outbox.cif.g08.bks.cpg/sg4_4_cif.got.tgz:6225.got - 2010.06.03 18:43:04.
