data_PCOD9116099
_publ_section_title
;
Structure prediction by ZEFSAII (Michael W. Deem and Ramdas Pophale) SiO2 
 PCOD9116099
Probable space group: P 21
;
_chemical_formula_sum "Si O2"
_cell_formula_units_Z 16
_cell_length_a 9.219591
_cell_length_b 7.870497
_cell_length_c 13.688653
_cell_angle_alpha 90.000000
_cell_angle_beta 50.902141
_cell_angle_gamma 90.000000
_cell_volume 770.859818
_symmetry_space_group_name_H-M "P 21"
_symmetry_group_IT_number 4
_symmetry_cell_setting 'monoclinic'
loop_
_space_group_symop_operation_xyz
x,y,z
-x,1/2+y,-z
loop_
_atom_site_type_symbol
_atom_site_label
_atom_site_fract_x
_atom_site_fract_y
_atom_site_fract_z
Si Si1 0.619560 0.787650 0.248135
Si Si2 0.321258 0.845100 0.613650
Si Si3 0.018024 0.811933 0.191304
Si Si4 0.949403 0.825155 0.453033
Si Si5 0.278993 0.993030 0.419251
Si Si6 0.829307 0.607332 0.995276
Si Si7 0.344580 0.545493 0.483233
Si Si8 0.999236 0.964908 0.884624
O O1 0.817950 0.821334 0.217613
O O2 0.490335 0.956521 0.291687
O O3 0.490717 0.672550 0.372229
O O4 0.655671 0.674619 0.135460
O O5 0.275879 0.952971 0.536089
O O6 0.278946 0.649832 0.606169
O O7 0.198402 0.919099 0.752300
O O8 0.538742 0.877150 0.541575
O O9 0.983351 0.814049 0.321776
O O10 0.090469 0.623216 0.133447
O O11 0.155833 0.959948 0.092757
O O12 0.822020 0.673564 0.548776
O O13 0.143018 0.858937 0.424256
O O14 0.822104 0.993366 0.515160
O O15 0.895668 0.786640 0.924365
O O16 0.967606 0.531441 0.019956
#
# Coordination Sequence:
#
# PCOD9116099 Si02
#       8
#     2   2   2   2   2   2   2   2
#     4  10  21  40  61  98 126 159 210 262 314 378
#     4  11  20  37  58  94 125 159 205 265 316 379
#     4  11  22  41  65  95 128 164 213 266 311 383
#     4  12  24  42  63  92 125 172 208 263 334 384
#     4  11  23  40  64  87 131 160 212 265 320 396
#     4  11  21  37  63  91 131 163 212 258 315 372
#     4  11  21  34  60  92 127 161 203 260 326 377
#     4  11  20  35  58  93 123 164 205 261 310 373
#
# _framework density 20.756045
#
# number of rings (size 3 to 8) (size 9 to 14) (size 15 to 20)
#    0.000    1.000    6.250    4.500    0.000    1.000 
#    2.250    0.000    2.750    0.000    0.000    0.000 
#    0.000    0.000    0.000    0.000    0.000    0.000 
#
# Total GULP energy -89197.819985 kJ/mol
# GULP energy per Si atom -5574.863749 kJ/mol
# Density = 2.070880 g / cm^3
# Si number density = 20.756045 Si / 1000 Ang^3
#
#
#
# Elastic Constant Matrix: (Units=GPa)
#
#
# Indices 1 2 3 4 5 6 
#
# 1 58.5691 4.7222 7.8727 0.0000 -11.0354 0.0000
# 2 4.7222 126.6510 37.2994 0.0000 0.4566 0.0000
# 3 7.8727 37.2994 82.8610 0.0000 7.5344 0.0000
# 4 0.0000 0.0000 0.0000 40.2468 0.0000 -4.0408
# 5 -11.0354 0.4566 7.5344 0.0000 9.6393 0.0000
# 6 0.0000 0.0000 0.0000 -4.0408 0.0000 26.7993
#
#
#
# Elastic Compliance Matrix: (Units=1/GPa)
#
#
# Indices 1 2 3 4 5 6 
#
# 1 0.023622 0.000580 -0.005342 0.000000 0.031191 0.000000
# 2 0.000580 0.009197 -0.004538 0.000000 0.003776 0.000000
# 3 -0.005342 -0.004538 0.016315 0.000000 -0.018652 0.000000
# 4 0.000000 0.000000 0.000000 0.025229 0.000000 0.003804
# 5 0.031191 0.003776 -0.018652 0.000000 0.153851 0.000000
# 6 0.000000 0.000000 0.000000 0.003804 0.000000 0.037888
#
#
# Mechanical properties :
#
#
# Convention : Reuss Voigt Hill
#
# Bulk Modulus (GPa) = 32.75050 40.87442 36.81246
# Shear Modulus (GPa) = 16.95606 29.88289 23.41947
#
# Velocity S-wave (km/s) = 2.86129 3.79848 3.36269
# Velocity P-wave (km/s) = 5.17001 6.24287 5.73160
#
# Compressibility (1/GPa) = 0.03053388
#
# Stress axis : x y z
#
# Youngs Moduli (GPa) = 42.33336 108.73037 61.29374
#
# Poissons Ratio (x) = -0.06305 0.32740
# Poissons Ratio (y) = -0.02455 0.27818
# Poissons Ratio (z) = 0.22613 0.49346
#
# Static dielectric constant tensor:
#      x y z
#    x 1.724340 0.000000 -0.015960 
#    y 0.000000 1.842400 0.000000 
#    z -0.015960 0.000000 1.791730 
# 
# From -- ./inp_files/13717.got.cif
#   From: 2010.05.17/outbox.cif.g08.bks.cpg/sg4_7_cif.got.tgz:13717.got - 2010.06.03 18:43:04.
