data_PCOD9116928
_publ_section_title
;
Structure prediction by ZEFSAII (Michael W. Deem and Ramdas Pophale) SiO2 
 PCOD9116928
Probable space group: P 21
;
_chemical_formula_sum "Si O2"
_cell_formula_units_Z 14
_cell_length_a 11.631232
_cell_length_b 12.101651
_cell_length_c 7.054330
_cell_angle_alpha 90.000000
_cell_angle_beta 40.504172
_cell_angle_gamma 90.000000
_cell_volume 644.922537
_symmetry_space_group_name_H-M "P 21"
_symmetry_group_IT_number 4
_symmetry_cell_setting 'monoclinic'
loop_
_space_group_symop_operation_xyz
x,y,z
-x,1/2+y,-z
loop_
_atom_site_type_symbol
_atom_site_label
_atom_site_fract_x
_atom_site_fract_y
_atom_site_fract_z
Si Si1 0.463372 0.105220 0.833999
Si Si2 0.098234 0.823038 0.124395
Si Si3 0.869018 0.106320 0.694890
Si Si4 0.601381 0.028736 0.298240
Si Si5 0.631820 0.333566 0.551412
Si Si6 0.194929 0.500100 0.594235
Si Si7 0.187571 0.971732 0.346924
O O1 0.549995 0.224630 0.748861
O O2 0.455685 0.089317 0.614115
O O3 0.597718 0.005195 0.726475
O O4 0.288645 0.084745 0.170004
O O5 0.057838 0.715333 0.298690
O O6 0.207269 0.899783 0.132770
O O7 0.924309 0.892567 0.283079
O O8 0.225519 0.799595 0.787457
O O9 0.882007 0.094464 0.450482
O O10 0.982245 0.000931 0.621157
O O11 0.670907 0.091422 0.025977
O O12 0.522300 0.909998 0.344874
O O13 0.770838 0.025962 0.228910
O O14 0.733564 0.409142 0.574759
#
# Coordination Sequence:
#
# PCOD9116928 Si02
#       7
#     2   2   2   2   2   2   2
#     4  10  22  44  61  96 127 165 215 260 321 371
#     4  11  21  41  65  94 125 173 212 262 325 381
#     4  11  22  40  66  90 128 167 210 265 325 366
#     4  10  22  42  61  92 127 165 210 263 312 383
#     4  12  23  41  71  89 133 173 213 262 326 379
#     4   9  21  40  61  88 132 156 212 266 306 382
#     4  11  25  40  63  99 126 165 220 266 313 386
#
# _framework density 21.708034000000001
#
# number of rings (size 3 to 8) (size 9 to 14) (size 15 to 20)
#    0.857    0.571    2.857    2.571    0.000    3.429 
#    2.571    2.857    0.000    0.000    0.000    0.000 
#    0.000    0.000    0.000    0.000    0.000    0.000 
#
# Total GULP energy -77957.176264 kJ/mol
# GULP energy per Si atom -5568.369733 kJ/mol
# Density = 2.165863 g / cm^3
# Si number density = 21.708034 Si / 1000 Ang^3
#
#
#
# Elastic Constant Matrix: (Units=GPa)
#
#
# Indices 1 2 3 4 5 6 
#
# 1 70.4198 22.5779 24.1426 0.0000 23.7353 0.0000
# 2 22.5779 68.4287 1.3380 0.0000 -3.0442 0.0000
# 3 24.1426 1.3380 56.1200 0.0000 0.9472 0.0000
# 4 0.0000 0.0000 0.0000 36.9158 0.0000 1.7952
# 5 23.7353 -3.0442 0.9472 0.0000 20.6725 0.0000
# 6 0.0000 0.0000 0.0000 1.7952 0.0000 25.2914
#
#
#
# Elastic Compliance Matrix: (Units=1/GPa)
#
#
# Indices 1 2 3 4 5 6 
#
# 1 0.041418 -0.015524 -0.016619 0.000000 -0.049079 0.000000
# 2 -0.015524 0.020537 0.005841 0.000000 0.020581 0.000000
# 3 -0.016619 0.005841 0.024512 0.000000 0.018818 0.000000
# 4 0.000000 0.000000 0.000000 0.027182 0.000000 -0.001929
# 5 -0.049079 0.020581 0.018818 0.000000 0.106892 0.000000
# 6 0.000000 0.000000 0.000000 -0.001929 0.000000 0.039676
#
#
# Mechanical properties :
#
#
# Convention : Reuss Voigt Hill
#
# Bulk Modulus (GPa) = 29.53105 32.34283 30.93694
# Shear Modulus (GPa) = 15.42695 26.36995 20.89845
#
# Velocity S-wave (km/s) = 2.66871 3.48912 3.10612
# Velocity P-wave (km/s) = 4.80929 5.58241 5.21021
#
# Compressibility (1/GPa) = 0.03386266
#
# Stress axis : x y z
#
# Youngs Moduli (GPa) = 24.14427 48.69199 40.79711
#
# Poissons Ratio (x) = 0.75590 0.67801
# Poissons Ratio (y) = 0.37482 -0.23831
# Poissons Ratio (z) = 0.40126 -0.28443
#
# Static dielectric constant tensor:
#      x y z
#    x 1.850860 0.000000 0.013120 
#    y 0.000000 1.809610 0.000000 
#    z 0.013120 0.000000 1.824060 
# 
# From -- ./inp_files/2686.got.cif
#   From: 2010.05.17/outbox.cif.g08.bks.cpg/sg4_2_cif.got.tgz:2686.got - 2010.06.03 18:43:04.
