data_PCOD9116486
_publ_section_title
;
Structure prediction by ZEFSAII (Michael W. Deem and Ramdas Pophale) SiO2 
 PCOD9116486
Probable space group: P 21
;
_chemical_formula_sum "Si O2"
_cell_formula_units_Z 16
_cell_length_a 13.803062
_cell_length_b 9.206636
_cell_length_c 5.102358
_cell_angle_alpha 90.000000
_cell_angle_beta 85.030594
_cell_angle_gamma 90.000000
_cell_volume 645.969170
_symmetry_space_group_name_H-M "P 21"
_symmetry_group_IT_number 4
_symmetry_cell_setting 'monoclinic'
loop_
_space_group_symop_operation_xyz
x,y,z
-x,1/2+y,-z
loop_
_atom_site_type_symbol
_atom_site_label
_atom_site_fract_x
_atom_site_fract_y
_atom_site_fract_z
Si Si1 0.778536 0.916480 0.326948
Si Si2 0.497862 0.444644 0.412891
Si Si3 0.874581 0.410958 0.311927
Si Si4 0.101994 0.371943 0.216105
Si Si5 0.190446 0.069413 0.175218
Si Si6 0.715462 0.215226 0.192179
Si Si7 0.592400 0.245215 0.720398
Si Si8 0.368105 0.186845 0.407809
O O1 0.831322 0.957195 0.588670
O O2 0.706627 0.785763 0.411443
O O3 0.714268 0.043755 0.220807
O O4 0.859199 0.887558 0.088003
O O5 0.506725 0.364451 0.701520
O O6 0.430706 0.573278 0.304006
O O7 0.454622 0.295173 0.289771
O O8 0.588521 0.556710 0.431215
O O9 0.837771 0.444037 0.612376
O O10 0.825753 0.264826 0.210829
O O11 0.990104 0.410096 0.271340
O O12 0.832407 0.527384 0.115761
O O13 0.121667 0.203400 0.275690
O O14 0.300955 0.119766 0.196024
O O15 0.653076 0.277334 0.443714
O O16 0.661838 0.268868 0.947862
#
# Coordination Sequence:
#
# PCOD9116486 Si02
#       8
#     2   2   2   2   2   2   2   2
#     4  11  24  46  71 101 147 187 231 294 364 424
#     4  10  22  45  73 106 136 189 235 298 345 448
#     4  12  26  43  73 103 142 188 245 294 350 432
#     4  11  26  44  72 101 138 189 241 293 350 433
#     4  11  25  47  68 103 145 190 232 302 368 418
#     4  12  25  44  70 103 141 187 228 298 353 426
#     4  11  25  45  69 104 145 180 240 285 367 414
#     4  10  21  44  74 103 146 186 240 294 369 423
#
# _framework density 24.768981
#
# number of rings (size 3 to 8) (size 9 to 14) (size 15 to 20)
#    0.000    1.000    1.250    5.250    5.250    1.000 
#    0.000    2.500    0.000    0.000    0.000    0.000 
#    0.000    0.000    0.000    0.000    0.000    0.000 
#
# Total GULP energy -89293.562101 kJ/mol
# GULP energy per Si atom -5580.847631 kJ/mol
# Density = 2.471261 g / cm^3
# Si number density = 24.768981 Si / 1000 Ang^3
#
#
#
# Elastic Constant Matrix: (Units=GPa)
#
#
# Indices 1 2 3 4 5 6 
#
# 1 110.5571 15.3421 24.1591 0.0000 24.0403 0.0000
# 2 15.3421 99.7922 -1.4394 0.0000 1.7037 0.0000
# 3 24.1591 -1.4394 113.9391 0.0000 7.2551 0.0000
# 4 0.0000 0.0000 0.0000 27.7041 0.0000 5.8714
# 5 24.0403 1.7037 7.2551 0.0000 27.7306 0.0000
# 6 0.0000 0.0000 0.0000 5.8714 0.0000 37.9058
#
#
#
# Elastic Compliance Matrix: (Units=1/GPa)
#
#
# Indices 1 2 3 4 5 6 
#
# 1 0.011785 -0.001675 -0.001908 0.000000 -0.009615 0.000000
# 2 -0.001675 0.010273 0.000440 0.000000 0.000706 0.000000
# 3 -0.001908 0.000440 0.009237 0.000000 -0.000790 0.000000
# 4 0.000000 0.000000 0.000000 0.037321 0.000000 -0.005781
# 5 -0.009615 0.000706 -0.000790 0.000000 0.044560 0.000000
# 6 0.000000 0.000000 0.000000 -0.005781 0.000000 0.027277
#
#
# Mechanical properties :
#
#
# Convention : Reuss Voigt Hill
#
# Bulk Modulus (GPa) = 39.98595 44.49024 42.23809
# Shear Modulus (GPa) = 32.24259 37.74988 34.99624
#
# Velocity S-wave (km/s) = 3.61187 3.90818 3.76294
# Velocity P-wave (km/s) = 5.79420 6.19405 5.99746
#
# Compressibility (1/GPa) = 0.02500879
#
# Stress axis : x y z
#
# Youngs Moduli (GPa) = 84.85235 97.34570 108.26042
#
# Poissons Ratio (x) = 0.16308 0.20654
# Poissons Ratio (y) = 0.14215 -0.04764
# Poissons Ratio (z) = 0.16188 -0.04283
#
# Static dielectric constant tensor:
#      x y z
#    x 2.100730 0.000000 -0.041240 
#    y 0.000000 2.027010 0.000000 
#    z -0.041240 0.000000 1.949000 
# 
# From -- ./inp_files/3578.got.cif
#   From: 2010.05.17/outbox.cif.g08.bks.cpg/sg4_2_cif.got.tgz:3578.got - 2010.06.03 18:43:04.
