data_PCOD9116432
_publ_section_title
;
Structure prediction by ZEFSAII (Michael W. Deem and Ramdas Pophale) SiO2 
 PCOD9116432
Probable space group: P 21
;
_chemical_formula_sum "Si O2"
_cell_formula_units_Z 16
_cell_length_a 5.326294
_cell_length_b 12.832038
_cell_length_c 11.428940
_cell_angle_alpha 90.000000
_cell_angle_beta 68.040054
_cell_angle_gamma 90.000000
_cell_volume 724.461191
_symmetry_space_group_name_H-M "P 21"
_symmetry_group_IT_number 4
_symmetry_cell_setting 'monoclinic'
loop_
_space_group_symop_operation_xyz
x,y,z
-x,1/2+y,-z
loop_
_atom_site_type_symbol
_atom_site_label
_atom_site_fract_x
_atom_site_fract_y
_atom_site_fract_z
Si Si1 0.870313 0.280040 0.182529
Si Si2 0.381966 0.903201 0.961613
Si Si3 0.363593 0.675471 0.545075
Si Si4 0.952934 0.082844 0.049838
Si Si5 0.262001 0.863497 0.234695
Si Si6 0.109493 0.509484 0.189830
Si Si7 0.023746 0.173592 0.610086
Si Si8 0.311364 0.479202 0.701624
O O1 0.741130 0.240966 0.325235
O O2 0.056355 0.188124 0.094568
O O3 0.992813 0.394235 0.183114
O O4 0.665639 0.303710 0.111301
O O5 0.439933 0.869896 0.084624
O O6 0.577433 0.980440 0.857527
O O7 0.128752 0.978421 0.026835
O O8 0.136835 0.677105 0.484134
O O9 0.391889 0.556664 0.584688
O O10 0.665332 0.708781 0.455743
O O11 0.703266 0.051105 0.177391
O O12 0.912148 0.086642 0.918274
O O13 0.146348 0.749431 0.276491
O O14 0.458137 0.896923 0.306201
O O15 0.986168 0.933248 0.276382
O O16 0.988382 0.561621 0.325109
#
# Coordination Sequence:
#
# PCOD9116432 Si02
#       8
#     2   2   2   2   2   2   2   2
#     4  10  24  43  71  97 136 189 233 280 355 421
#     4  10  22  41  68 102 136 172 228 290 358 414
#     4  11  27  48  66 100 137 190 236 284 332 417
#     4   9  20  41  66  99 134 172 225 289 345 423
#     4  11  22  43  69 102 130 182 224 286 350 415
#     4  11  24  43  67 104 138 175 226 299 357 413
#     4  12  28  44  67 100 141 179 236 288 346 402
#     4  10  21  43  70  94 132 177 236 274 339 409
#
# _framework density 22.085379
#
# number of rings (size 3 to 8) (size 9 to 14) (size 15 to 20)
#    0.000    1.500    1.250    2.250    5.250    5.000 
#    0.000    0.000    0.000    0.000    0.000    0.000 
#    0.000    0.000    0.000    0.000    0.000    0.000 
#
# Total GULP energy -89170.020066 kJ/mol
# GULP energy per Si atom -5573.126254 kJ/mol
# Density = 2.203511 g / cm^3
# Si number density = 22.085379 Si / 1000 Ang^3
#
#
#
# Elastic Constant Matrix: (Units=GPa)
#
#
# Indices 1 2 3 4 5 6 
#
# 1 61.3123 -4.6869 12.0907 0.0000 10.4915 0.0000
# 2 -4.6869 65.6530 28.9313 0.0000 16.0475 0.0000
# 3 12.0907 28.9313 72.1639 0.0000 10.3911 0.0000
# 4 0.0000 0.0000 0.0000 42.9106 0.0000 4.7934
# 5 10.4915 16.0475 10.3911 0.0000 24.6115 0.0000
# 6 0.0000 0.0000 0.0000 4.7934 0.0000 23.4128
#
#
#
# Elastic Compliance Matrix: (Units=1/GPa)
#
#
# Indices 1 2 3 4 5 6 
#
# 1 0.019280 0.005642 -0.004024 0.000000 -0.010199 0.000000
# 2 0.005642 0.022508 -0.007996 0.000000 -0.013705 0.000000
# 3 -0.004024 -0.007996 0.017823 0.000000 -0.000596 0.000000
# 4 0.000000 0.000000 0.000000 0.023850 0.000000 -0.004883
# 5 -0.010199 -0.013705 -0.000596 0.000000 0.054167 0.000000
# 6 0.000000 0.000000 0.000000 -0.004883 0.000000 0.043711
#
#
# Mechanical properties :
#
#
# Convention : Reuss Voigt Hill
#
# Bulk Modulus (GPa) = 21.34161 30.19995 25.77078
# Shear Modulus (GPa) = 23.84230 29.03992 26.44111
#
# Velocity S-wave (km/s) = 3.28922 3.63008 3.46384
# Velocity P-wave (km/s) = 4.91014 5.59230 5.26229
#
# Compressibility (1/GPa) = 0.04685681
#
# Stress axis : x y z
#
# Youngs Moduli (GPa) = 51.86733 44.42919 56.10771
#
# Poissons Ratio (x) = -0.25069 0.22577
# Poissons Ratio (y) = -0.29266 0.44861
# Poissons Ratio (z) = 0.20870 0.35523
#
# Static dielectric constant tensor:
#      x y z
#    x 1.968240 0.000000 -0.007450 
#    y 0.000000 1.865940 0.000000 
#    z -0.007450 0.000000 1.804270 
# 
# From -- ./inp_files/10423.got.cif
#   From: 2010.05.17/outbox.cif.g08.bks.cpg/sg4_6_cif.got.tgz:10423.got - 2010.06.03 18:43:04.
