data_PCOD9116700
_publ_section_title
;
Structure prediction by ZEFSAII (Michael W. Deem and Ramdas Pophale) SiO2 
 PCOD9116700
Probable space group: P 21
;
_chemical_formula_sum "Si O2"
_cell_formula_units_Z 16
_cell_length_a 5.480975
_cell_length_b 20.758966
_cell_length_c 5.480973
_cell_angle_alpha 90.000000
_cell_angle_beta 90.000196
_cell_angle_gamma 90.000000
_cell_volume 623.621675
_symmetry_space_group_name_H-M "P 21"
_symmetry_group_IT_number 4
_symmetry_cell_setting 'monoclinic'
loop_
_space_group_symop_operation_xyz
x,y,z
-x,1/2+y,-z
loop_
_atom_site_type_symbol
_atom_site_label
_atom_site_fract_x
_atom_site_fract_y
_atom_site_fract_z
Si Si1 0.817517 0.539300 0.923175
Si Si2 0.672004 0.919990 0.751815
Si Si3 0.322858 0.501942 0.735412
Si Si4 0.248140 0.669993 0.671981
Si Si5 0.108564 0.643857 0.176693
Si Si6 0.823287 0.393855 0.108579
Si Si7 0.264632 0.251942 0.322876
Si Si8 0.076838 0.289301 0.817537
O O1 0.053418 0.532439 0.749964
O O2 0.882946 0.596951 0.109914
O O3 0.567805 0.543476 0.775906
O O4 0.802900 0.469744 0.052364
O O5 0.939709 0.890106 0.724303
O O6 0.429033 0.876814 0.762972
O O7 0.644474 0.966500 0.521294
O O8 0.682981 0.953988 0.023293
O O9 0.275666 0.640107 0.939679
O O10 0.478650 0.716506 0.644460
O O11 0.976650 0.703983 0.682961
O O12 0.237012 0.626816 0.429010
O O13 0.052369 0.719748 0.197083
O O14 0.890086 0.346949 0.882967
O O15 0.250048 0.282439 0.053441
O O16 0.224118 0.293475 0.567828
#
# Coordination Sequence:
#
# PCOD9116700 Si02
#       8
#     2   2   2   2   2   2   2   2
#     4  10  23  42  65  94 128 168 213 264 320 382
#     4  10  22  40  62  90 124 162 206 256 312 372
#     4  10  22  40  62  90 124 162 206 256 312 372
#     4  10  22  40  62  90 124 162 206 256 312 372
#     4  10  23  42  65  94 128 168 213 264 320 382
#     4  10  23  42  65  94 128 168 213 264 320 382
#     4  10  22  40  62  90 124 162 206 256 312 372
#     4  10  23  42  65  94 128 168 213 264 320 382
#
# _framework density 25.656580000000002
#
# number of rings (size 3 to 8) (size 9 to 14) (size 15 to 20)
#    0.000    2.000    0.000    1.500    0.000   16.000 
#    0.000    2.500    0.000    0.000    0.000    0.000 
#    0.000    0.000    0.000    0.000    0.000    0.000 
#
# Total GULP energy -89335.840489 kJ/mol
# GULP energy per Si atom -5583.490031 kJ/mol
# Density = 2.559818 g / cm^3
# Si number density = 25.656580 Si / 1000 Ang^3
#
#
#
# Elastic Constant Matrix: (Units=GPa)
#
#
# Indices 1 2 3 4 5 6 
#
# 1 188.9225 24.4779 28.2453 0.0000 1.5886 0.0000
# 2 24.4779 83.2166 24.4720 0.0000 0.0019 0.0000
# 3 28.2453 24.4720 188.9391 0.0000 -1.5785 0.0000
# 4 0.0000 0.0000 0.0000 47.5877 0.0000 0.0022
# 5 1.5886 0.0019 -1.5785 0.0000 28.3656 0.0000
# 6 0.0000 0.0000 0.0000 0.0022 0.0000 47.5974
#
#
#
# Elastic Compliance Matrix: (Units=1/GPa)
#
#
# Indices 1 2 3 4 5 6 
#
# 1 0.005581 -0.001451 -0.000649 0.000000 -0.000349 0.000000
# 2 -0.001451 0.012870 -0.001450 0.000000 0.000000 0.000000
# 3 -0.000649 -0.001450 0.005581 0.000000 0.000347 0.000000
# 4 0.000000 0.000000 0.000000 0.021014 0.000000 -0.000001
# 5 -0.000349 0.000000 0.000347 0.000000 0.035293 0.000000
# 6 0.000000 0.000000 0.000000 -0.000001 0.000000 0.021010
#
#
# Mechanical properties :
#
#
# Convention : Reuss Voigt Hill
#
# Bulk Modulus (GPa) = 59.06214 68.38542 63.72378
# Shear Modulus (GPa) = 43.82429 50.30233 47.06331
#
# Velocity S-wave (km/s) = 4.13741 4.43267 4.28758
# Velocity P-wave (km/s) = 6.77455 7.27393 7.02868
#
# Compressibility (1/GPa) = 0.01693132
#
# Stress axis : x y z
#
# Youngs Moduli (GPa) = 179.17439 77.70009 179.19519
#
# Poissons Ratio (x) = 0.11272 0.11636
# Poissons Ratio (y) = 0.25993 0.25985
# Poissons Ratio (z) = 0.11635 0.11267
#
# Static dielectric constant tensor:
#      x y z
#    x 2.067100 0.000000 0.000010 
#    y 0.000000 2.288380 0.000000 
#    z 0.000010 0.000000 2.067190 
# 
# From -- ./inp_files/547.got.cif
#   From: 2010.05.17/outbox.cif.g08.bks.cpg/sg4_1_cif.got.tgz:547.got - 2010.06.03 18:43:04.
