data_PCOD9116948
_publ_section_title
;
Structure prediction by ZEFSAII (Michael W. Deem and Ramdas Pophale) SiO2 
 PCOD9116948
Probable space group: P 21
;
_chemical_formula_sum "Si O2"
_cell_formula_units_Z 16
_cell_length_a 14.127708
_cell_length_b 8.419224
_cell_length_c 18.075003
_cell_angle_alpha 90.000000
_cell_angle_beta 22.008896
_cell_angle_gamma 90.000000
_cell_volume 805.683424
_symmetry_space_group_name_H-M "P 21"
_symmetry_group_IT_number 4
_symmetry_cell_setting 'monoclinic'
loop_
_space_group_symop_operation_xyz
x,y,z
-x,1/2+y,-z
loop_
_atom_site_type_symbol
_atom_site_label
_atom_site_fract_x
_atom_site_fract_y
_atom_site_fract_z
Si Si1 0.787256 0.906130 0.950204
Si Si2 0.308769 0.247792 0.838281
Si Si3 0.391827 0.479160 0.289505
Si Si4 0.130822 0.909285 0.251002
Si Si5 0.313465 0.175645 0.675249
Si Si6 0.838387 0.263820 0.925017
Si Si7 0.215518 0.808898 0.735175
Si Si8 0.524354 0.160753 0.920620
O O1 0.064886 0.836345 0.766751
O O2 0.801282 0.088006 0.919656
O O3 0.661044 0.889632 0.123986
O O4 0.643806 0.795868 0.997341
O O5 0.386611 0.263771 0.697834
O O6 0.452022 0.102730 0.773039
O O7 0.003301 0.226241 0.058131
O O8 0.365712 0.554853 0.226384
O O9 0.123664 0.445935 0.520664
O O10 0.575976 0.328728 0.147147
O O11 0.080132 0.879770 0.200615
O O12 0.263355 0.752794 0.187996
O O13 0.336661 0.050977 0.104311
O O14 0.537688 0.205769 0.454944
O O15 0.056925 0.245978 0.827278
O O16 0.278753 0.987653 0.715711
#
# Coordination Sequence:
#
# PCOD9116948 Si02
#       8
#     2   2   2   2   2   2   2   2
#     4   8  19  44  56  86 129 157 202 261 304 356
#     4   9  22  39  57  87 124 168 204 257 306 351
#     4  10  24  40  66  91 125 163 205 259 310 371
#     4  11  24  41  68  95 120 169 198 255 325 360
#     4  11  23  37  63  88 127 170 211 254 304 363
#     4  10  23  40  58  95 129 158 211 259 292 379
#     4   9  23  37  58  90 120 167 210 253 304 361
#     4  10  22  42  66  90 126 154 207 260 301 383
#
# _framework density 19.858915
#
# number of rings (size 3 to 8) (size 9 to 14) (size 15 to 20)
#    0.750    1.500    0.000    0.750    7.000    3.000 
#    4.500    1.250    0.000    0.000    0.000    0.000 
#    0.000    0.000    0.000    0.000    0.000    0.000 
#
# Total GULP energy -89194.179189 kJ/mol
# GULP energy per Si atom -5574.636199 kJ/mol
# Density = 1.981372 g / cm^3
# Si number density = 19.858915 Si / 1000 Ang^3
#
#
#
# Elastic Constant Matrix: (Units=GPa)
#
#
# Indices 1 2 3 4 5 6 
#
# 1 48.8712 8.7042 11.2977 0.0000 1.1311 0.0000
# 2 8.7042 41.1563 26.5405 0.0000 -12.1827 0.0000
# 3 11.2977 26.5405 131.5007 0.0000 1.8487 0.0000
# 4 0.0000 0.0000 0.0000 24.6756 0.0000 -9.6682
# 5 1.1311 -12.1827 1.8487 0.0000 13.0497 0.0000
# 6 0.0000 0.0000 0.0000 -9.6682 0.0000 18.0913
#
#
#
# Elastic Compliance Matrix: (Units=1/GPa)
#
#
# Indices 1 2 3 4 5 6 
#
# 1 0.021958 -0.006822 -0.000394 0.000000 -0.008216 0.000000
# 2 -0.006822 0.044322 -0.008967 0.000000 0.043239 0.000000
# 3 -0.000394 -0.008967 0.009585 0.000000 -0.009695 0.000000
# 4 0.000000 0.000000 0.000000 0.051259 0.000000 0.027393
# 5 -0.008216 0.043239 -0.009695 0.000000 0.119082 0.000000
# 6 0.000000 0.000000 0.000000 0.027393 0.000000 0.069914
#
#
# Mechanical properties :
#
#
# Convention : Reuss Voigt Hill
#
# Bulk Modulus (GPa) = 22.98922 34.95698 28.97310
# Shear Modulus (GPa) = 13.77462 22.82904 18.30183
#
# Velocity S-wave (km/s) = 2.63653 3.39420 3.03907
# Velocity P-wave (km/s) = 4.56835 5.74471 5.18996
#
# Compressibility (1/GPa) = 0.04349865
#
# Stress axis : x y z
#
# Youngs Moduli (GPa) = 45.54106 22.56196 104.33478
#
# Poissons Ratio (x) = 0.15391 0.04113
# Poissons Ratio (y) = 0.31067 0.93560
# Poissons Ratio (z) = 0.01795 0.20232
#
# Static dielectric constant tensor:
#      x y z
#    x 1.697980 0.000000 -0.008740 
#    y 0.000000 1.695730 0.000000 
#    z -0.008740 0.000000 1.685210 
# 
# From -- ./inp_files/3453.got.cif
#   From: 2010.05.17/outbox.cif.g08.bks.cpg/sg4_2_cif.got.tgz:3453.got - 2010.06.03 18:43:04.
