data_PCOD9116105
_publ_section_title
;
Structure prediction by ZEFSAII (Michael W. Deem and Ramdas Pophale) SiO2 
 PCOD9116105
Probable space group: P 21
;
_chemical_formula_sum "Si O2"
_cell_formula_units_Z 12
_cell_length_a 10.811430
_cell_length_b 5.617876
_cell_length_c 7.805483
_cell_angle_alpha 90.000000
_cell_angle_beta 79.237624
_cell_angle_gamma 90.000000
_cell_volume 465.744660
_symmetry_space_group_name_H-M "P 21"
_symmetry_group_IT_number 4
_symmetry_cell_setting 'monoclinic'
loop_
_space_group_symop_operation_xyz
x,y,z
-x,1/2+y,-z
loop_
_atom_site_type_symbol
_atom_site_label
_atom_site_fract_x
_atom_site_fract_y
_atom_site_fract_z
Si Si1 0.087492 0.218160 0.807265
Si Si2 0.741399 0.469152 0.745417
Si Si3 0.452453 0.285289 0.349369
Si Si4 0.988677 0.718661 0.779107
Si Si5 0.699015 0.136707 0.452333
Si Si6 0.692234 0.421655 0.132717
O O1 0.061311 0.467750 0.719024
O O2 0.230535 0.152016 0.824308
O O3 0.035456 0.984514 0.721711
O O4 0.019182 0.230255 0.010593
O O5 0.850704 0.663297 0.740673
O O6 0.762727 0.293558 0.581847
O O7 0.603130 0.577810 0.752650
O O8 0.733298 0.348685 0.933591
O O9 0.548448 0.205487 0.472543
O O10 0.324360 0.377339 0.469747
O O11 0.543072 0.441472 0.203299
O O12 0.735767 0.216419 0.253524
#
# Coordination Sequence:
#
# PCOD9116105 Si02
#       6
#     2   2   2   2   2   2
#     4   9  18  42  59  98 126 176 218 285 336 394
#     4  11  22  40  63  98 127 176 223 272 336 413
#     4  10  21  40  62  92 133 170 217 274 341 399
#     4   9  20  36  67  90 135 165 228 280 336 395
#     4  10  21  41  58  90 132 174 205 278 335 398
#     4   9  22  41  63  96 127 175 225 271 336 413
#
# _framework density 25.765188999999999
#
# number of rings (size 3 to 8) (size 9 to 14) (size 15 to 20)
#    1.000    1.333    1.667    0.000    4.667    0.000 
#   12.000    1.667    0.000    0.000    0.000    0.000 
#    0.000    0.000    0.000    0.000    0.000    0.000 
#
# Total GULP energy -66903.948533 kJ/mol
# GULP energy per Si atom -5575.329044 kJ/mol
# Density = 2.570655 g / cm^3
# Si number density = 25.765189 Si / 1000 Ang^3
#
#
#
# Elastic Constant Matrix: (Units=GPa)
#
#
# Indices 1 2 3 4 5 6 
#
# 1 60.7306 24.4474 26.7607 0.0000 10.2227 0.0000
# 2 24.4474 98.3997 27.3847 0.0000 8.0683 0.0000
# 3 26.7607 27.3847 144.6859 0.0000 12.0988 0.0000
# 4 0.0000 0.0000 0.0000 19.9529 0.0000 1.7321
# 5 10.2227 8.0683 12.0988 0.0000 35.7209 0.0000
# 6 0.0000 0.0000 0.0000 1.7321 0.0000 43.9359
#
#
#
# Elastic Compliance Matrix: (Units=1/GPa)
#
#
# Indices 1 2 3 4 5 6 
#
# 1 0.019837 -0.003882 -0.002607 0.000000 -0.003917 0.000000
# 2 -0.003882 0.011599 -0.001391 0.000000 -0.001038 0.000000
# 3 -0.002607 -0.001391 0.007789 0.000000 -0.001578 0.000000
# 4 0.000000 0.000000 0.000000 0.050290 0.000000 -0.001983
# 5 -0.003917 -0.001038 -0.001578 0.000000 0.029885 0.000000
# 6 0.000000 0.000000 0.000000 -0.001983 0.000000 0.022839
#
#
# Mechanical properties :
#
#
# Convention : Reuss Voigt Hill
#
# Bulk Modulus (GPa) = 42.61376 51.22241 46.91809
# Shear Modulus (GPa) = 30.15337 34.93682 32.54510
#
# Velocity S-wave (km/s) = 3.42470 3.68634 3.55793
# Velocity P-wave (km/s) = 5.67567 6.16786 5.92688
#
# Compressibility (1/GPa) = 0.02346660
#
# Stress axis : x y z
#
# Youngs Moduli (GPa) = 50.41123 86.21288 128.38944
#
# Poissons Ratio (x) = 0.33466 0.33467
# Poissons Ratio (y) = 0.19569 0.17854
# Poissons Ratio (z) = 0.13141 0.11989
#
# Static dielectric constant tensor:
#      x y z
#    x 2.196220 0.000000 -0.132060 
#    y 0.000000 2.140910 0.000000 
#    z -0.132060 0.000000 2.031270 
# 
# From -- ./inp_files/7379.got.cif
#   From: 2010.05.17/outbox.cif.g08.bks.cpg/sg4_4_cif.got.tgz:7379.got - 2010.06.03 18:43:04.
