data_PCOD9116781
_publ_section_title
;
Structure prediction by ZEFSAII (Michael W. Deem and Ramdas Pophale) SiO2 
 PCOD9116781
Probable space group: P 21
;
_chemical_formula_sum "Si O2"
_cell_formula_units_Z 14
_cell_length_a 11.403601
_cell_length_b 8.513583
_cell_length_c 8.617056
_cell_angle_alpha 90.000000
_cell_angle_beta 40.159715
_cell_angle_gamma 90.000000
_cell_volume 539.534828
_symmetry_space_group_name_H-M "P 21"
_symmetry_group_IT_number 4
_symmetry_cell_setting 'monoclinic'
loop_
_space_group_symop_operation_xyz
x,y,z
-x,1/2+y,-z
loop_
_atom_site_type_symbol
_atom_site_label
_atom_site_fract_x
_atom_site_fract_y
_atom_site_fract_z
Si Si1 0.126271 0.218570 0.585625
Si Si2 0.453783 0.088999 0.072792
Si Si3 0.283899 0.794296 0.354847
Si Si4 0.784377 0.049196 0.974644
Si Si5 0.682827 0.203106 0.370344
Si Si6 0.969989 0.057348 0.296175
Si Si7 0.260500 0.218428 0.803255
O O1 0.310044 0.201422 0.301942
O O2 0.039061 0.384903 0.630268
O O3 0.173332 0.219505 0.721051
O O4 0.985577 0.075514 0.705607
O O5 0.625599 0.055024 0.009711
O O6 0.339585 0.928380 0.179314
O O7 0.548324 0.170012 0.831406
O O8 0.289352 0.844933 0.532519
O O9 0.097371 0.698676 0.524088
O O10 0.755944 0.195789 0.122558
O O11 0.762817 0.887883 0.090818
O O12 0.806541 0.074788 0.334269
O O13 0.470256 0.174694 0.572845
O O14 0.153105 0.099951 0.023614
#
# Coordination Sequence:
#
# PCOD9116781 Si02
#       7
#     2   2   2   2   2   2   2
#     4  12  23  38  66 100 132 168 207 271 318 381
#     4  12  25  45  68  93 132 168 224 260 327 378
#     4  10  23  47  65  91 130 174 207 274 315 383
#     4  12  24  41  68 104 124 172 217 265 319 389
#     4  10  22  40  68  94 131 164 216 264 329 370
#     4  10  23  41  60  93 134 164 210 257 323 379
#     4  12  20  40  69  95 133 166 213 267 319 380
#
# _framework density 25.948278999999999
#
# number of rings (size 3 to 8) (size 9 to 14) (size 15 to 20)
#    0.857    0.000    5.714    1.714    0.000    3.429 
#    2.571    0.000    0.000    0.000    0.000    0.000 
#    0.000    0.000    0.000    0.000    0.000    0.000 
#
# Total GULP energy -78316.718377 kJ/mol
# GULP energy per Si atom -5594.051313 kJ/mol
# Density = 2.588922 g / cm^3
# Si number density = 25.948279 Si / 1000 Ang^3
#
#
#
# Elastic Constant Matrix: (Units=GPa)
#
#
# Indices 1 2 3 4 5 6 
#
# 1 102.2649 8.5786 10.5476 0.0000 -12.3156 0.0000
# 2 8.5786 73.4461 -3.2142 0.0000 -2.5285 0.0000
# 3 10.5476 -3.2142 102.0573 0.0000 -22.7689 0.0000
# 4 0.0000 0.0000 0.0000 35.4213 0.0000 4.1390
# 5 -12.3156 -2.5285 -22.7689 0.0000 43.0130 0.0000
# 6 0.0000 0.0000 0.0000 4.1390 0.0000 20.5853
#
#
#
# Elastic Compliance Matrix: (Units=1/GPa)
#
#
# Indices 1 2 3 4 5 6 
#
# 1 0.010239 -0.001129 -0.000515 0.000000 0.002592 0.000000
# 2 -0.001129 0.013811 0.000749 0.000000 0.000885 0.000000
# 3 -0.000515 0.000749 0.011171 0.000000 0.005810 0.000000
# 4 0.000000 0.000000 0.000000 0.028911 0.000000 -0.005813
# 5 0.002592 0.000885 0.005810 0.000000 0.027119 0.000000
# 6 0.000000 0.000000 0.000000 -0.005813 0.000000 0.049747
#
#
# Mechanical properties :
#
#
# Convention : Reuss Voigt Hill
#
# Bulk Modulus (GPa) = 29.91344 34.39914 32.15629
# Shear Modulus (GPa) = 32.48200 37.26101 34.87150
#
# Velocity S-wave (km/s) = 3.54191 3.79353 3.66988
# Velocity P-wave (km/s) = 5.31789 5.69855 5.51151
#
# Compressibility (1/GPa) = 0.03342979
#
# Stress axis : x y z
#
# Youngs Moduli (GPa) = 97.66964 72.40827 89.51351
#
# Poissons Ratio (x) = 0.08176 0.04613
# Poissons Ratio (y) = 0.11029 -0.06706
# Poissons Ratio (z) = 0.05034 -0.05424
#
# Static dielectric constant tensor:
#      x y z
#    x 2.050380 0.000000 0.058400 
#    y 0.000000 2.082210 0.000000 
#    z 0.058400 0.000000 1.974980 
# 
# From -- ./inp_files/12538.got.cif
#   From: 2010.05.17/outbox.cif.g08.bks.cpg/sg4_7_cif.got.tgz:12538.got - 2010.06.03 18:43:04.
