data_PCOD9116042
_publ_section_title
;
Structure prediction by ZEFSAII (Michael W. Deem and Ramdas Pophale) SiO2 
 PCOD9116042
Probable space group: P 21
;
_chemical_formula_sum "Si O2"
_cell_formula_units_Z 16
_cell_length_a 12.874016
_cell_length_b 10.253255
_cell_length_c 9.191835
_cell_angle_alpha 90.000000
_cell_angle_beta 145.193652
_cell_angle_gamma 90.000000
_cell_volume 692.572819
_symmetry_space_group_name_H-M "P 21"
_symmetry_group_IT_number 4
_symmetry_cell_setting 'monoclinic'
loop_
_space_group_symop_operation_xyz
x,y,z
-x,1/2+y,-z
loop_
_atom_site_type_symbol
_atom_site_label
_atom_site_fract_x
_atom_site_fract_y
_atom_site_fract_z
Si Si1 0.723664 0.990930 0.773526
Si Si2 0.669418 0.514596 0.784790
Si Si3 0.886782 0.257854 0.012454
Si Si4 0.314387 0.067407 0.858250
Si Si5 0.904468 0.123010 0.446395
Si Si6 0.433797 0.784756 0.998468
Si Si7 0.932598 0.741025 0.079118
Si Si8 0.227961 0.401910 0.491989
O O1 0.783155 0.980316 0.671925
O O2 0.509166 0.015326 0.517798
O O3 0.786649 0.857494 0.920281
O O4 0.820518 0.112589 0.957137
O O5 0.744202 0.369365 0.885136
O O6 0.644049 0.563532 0.920814
O O7 0.824295 0.611526 0.904436
O O8 0.070568 0.295034 0.306482
O O9 0.928429 0.275252 0.888438
O O10 0.096006 0.084934 0.592451
O O11 0.373114 0.925617 0.863509
O O12 0.437017 0.185877 0.942305
O O13 0.750878 0.204387 0.184827
O O14 0.968856 0.212080 0.656825
O O15 0.810620 0.996945 0.416166
O O16 0.577899 0.831483 0.285336
#
# Coordination Sequence:
#
# PCOD9116042 Si02
#       8
#     2   2   2   2   2   2   2   2
#     4  11  21  38  66 103 135 174 231 280 349 423
#     4  11  21  43  67  98 137 183 227 285 356 420
#     4  11  21  38  72  98 137 184 219 284 361 420
#     4  11  26  44  75 102 138 192 242 302 357 422
#     4  11  23  46  71  98 142 190 238 289 366 416
#     4  12  25  46  75 104 140 194 243 305 361 419
#     4  10  21  39  65  99 134 181 220 284 351 421
#     4  11  22  44  69 100 143 184 232 295 353 417
#
# _framework density 23.102262
#
# number of rings (size 3 to 8) (size 9 to 14) (size 15 to 20)
#    0.000    1.000    6.250    1.500    1.750    1.000 
#    0.000    2.500    0.000    0.000    0.000    0.000 
#    0.000    0.000    0.000    0.000    0.000    0.000 
#
# Total GULP energy -89465.228888 kJ/mol
# GULP energy per Si atom -5591.576806 kJ/mol
# Density = 2.304968 g / cm^3
# Si number density = 23.102262 Si / 1000 Ang^3
#
#
#
# Elastic Constant Matrix: (Units=GPa)
#
#
# Indices 1 2 3 4 5 6 
#
# 1 63.9354 43.9956 31.1057 0.0000 16.3780 0.0000
# 2 43.9956 144.5253 73.7277 0.0000 4.8465 0.0000
# 3 31.1057 73.7277 161.9483 0.0000 34.0935 0.0000
# 4 0.0000 0.0000 0.0000 53.8127 0.0000 9.9488
# 5 16.3780 4.8465 34.0935 0.0000 24.2335 0.0000
# 6 0.0000 0.0000 0.0000 9.9488 0.0000 32.7907
#
#
#
# Elastic Compliance Matrix: (Units=1/GPa)
#
#
# Indices 1 2 3 4 5 6 
#
# 1 0.025077 -0.008654 0.003306 0.000000 -0.019868 0.000000
# 2 -0.008654 0.012576 -0.006770 0.000000 0.012858 0.000000
# 3 0.003306 -0.006770 0.012513 0.000000 -0.018485 0.000000
# 4 0.000000 0.000000 0.000000 0.019687 0.000000 -0.005973
# 5 -0.019868 0.012858 -0.018485 0.000000 0.078128 0.000000
# 6 0.000000 0.000000 0.000000 -0.005973 0.000000 0.032309
#
#
# Mechanical properties :
#
#
# Convention : Reuss Voigt Hill
#
# Bulk Modulus (GPa) = 38.56511 74.22967 56.39739
# Shear Modulus (GPa) = 23.45547 36.93938 30.19742
#
# Velocity S-wave (km/s) = 3.18982 4.00303 3.61933
# Velocity P-wave (km/s) = 5.50418 7.31890 6.47543
#
# Compressibility (1/GPa) = 0.02593017
#
# Stress axis : x y z
#
# Youngs Moduli (GPa) = 39.87718 79.51610 79.91402
#
# Poissons Ratio (x) = 0.68813 -0.26419
# Poissons Ratio (y) = 0.34510 0.54102
# Poissons Ratio (z) = -0.13183 0.53833
#
# Static dielectric constant tensor:
#      x y z
#    x 1.893880 0.000000 0.012270 
#    y 0.000000 1.849560 0.000000 
#    z 0.012270 0.000000 1.855970 
# 
# From -- ./inp_files/12551.got.cif
#   From: 2010.05.17/outbox.cif.g08.bks.cpg/sg4_7_cif.got.tgz:12551.got - 2010.06.03 18:43:04.
