data_PCOD9116703
_publ_section_title
;
Structure prediction by ZEFSAII (Michael W. Deem and Ramdas Pophale) SiO2 
 PCOD9116703
Probable space group: P 21
;
_chemical_formula_sum "Si O2"
_cell_formula_units_Z 12
_cell_length_a 21.105895
_cell_length_b 5.001287
_cell_length_c 5.519718
_cell_angle_alpha 90.000000
_cell_angle_beta 43.455579
_cell_angle_gamma 90.000000
_cell_volume 400.737104
_symmetry_space_group_name_H-M "P 21"
_symmetry_group_IT_number 4
_symmetry_cell_setting 'monoclinic'
loop_
_space_group_symop_operation_xyz
x,y,z
-x,1/2+y,-z
loop_
_atom_site_type_symbol
_atom_site_label
_atom_site_fract_x
_atom_site_fract_y
_atom_site_fract_z
Si Si1 0.284841 0.329720 0.131953
Si Si2 0.549508 0.142306 0.459740
Si Si3 0.342129 0.401820 0.476859
Si Si4 0.117187 0.661754 0.613674
Si Si5 0.801827 0.385124 0.111444
Si Si6 0.042357 0.215135 0.252921
O O1 0.326124 0.233230 0.275022
O O2 0.177661 0.389047 0.444763
O O3 0.347256 0.601441 0.931527
O O4 0.310140 0.213380 0.795379
O O5 0.488078 0.934918 0.476081
O O6 0.559759 0.014907 0.700223
O O7 0.284163 0.677620 0.622462
O O8 0.143906 0.789300 0.793243
O O9 0.009327 0.657789 0.856275
O O10 0.161737 0.807004 0.257272
O O11 0.848980 0.683824 0.005753
O O12 0.990613 0.002212 0.567338
#
# Coordination Sequence:
#
# PCOD9116703 Si02
#       6
#     2   2   2   2   2   2
#     4   8  17  36  60  88 121 159 198 247 305 363
#     4  10  22  40  64  92 122 158 202 254 308 370
#     4   8  17  36  60  88 121 159 198 247 305 363
#     4   9  18  36  60  86 122 160 202 250 301 357
#     4   9  18  36  60  86 122 160 202 250 301 357
#     4  10  22  40  62  92 124 162 212 256 302 358
#
# _framework density 29.944823
#
# number of rings (size 3 to 8) (size 9 to 14) (size 15 to 20)
#    1.000    2.000    0.000    0.000    0.000    6.667 
#    3.000    0.000    0.000   16.000    0.000    0.000 
#    0.000    0.000    0.000    0.000    0.000    0.000 
#
# Total GULP energy -66911.604247 kJ/mol
# GULP energy per Si atom -5575.967021 kJ/mol
# Density = 2.987667 g / cm^3
# Si number density = 29.944823 Si / 1000 Ang^3
#
#
#
# Elastic Constant Matrix: (Units=GPa)
#
#
# Indices 1 2 3 4 5 6 
#
# 1 158.9910 -8.9276 27.7601 0.0000 4.5268 0.0000
# 2 -8.9276 86.6265 22.0271 0.0000 -8.3900 0.0000
# 3 27.7601 22.0271 93.7284 0.0000 33.6003 0.0000
# 4 0.0000 0.0000 0.0000 43.3792 0.0000 9.1508
# 5 4.5268 -8.3900 33.6003 0.0000 68.7267 0.0000
# 6 0.0000 0.0000 0.0000 9.1508 0.0000 23.7592
#
#
#
# Elastic Compliance Matrix: (Units=1/GPa)
#
#
# Indices 1 2 3 4 5 6 
#
# 1 0.006827 0.001513 -0.002767 0.000000 0.001088 0.000000
# 2 0.001513 0.013361 -0.005016 0.000000 0.003984 0.000000
# 3 -0.002767 -0.005016 0.015547 0.000000 -0.008031 0.000000
# 4 0.000000 0.000000 0.000000 0.025091 0.000000 -0.009664
# 5 0.001088 0.003984 -0.008031 0.000000 0.018891 0.000000
# 6 0.000000 0.000000 0.000000 -0.009664 0.000000 0.045811
#
#
# Mechanical properties :
#
#
# Convention : Reuss Voigt Hill
#
# Bulk Modulus (GPa) = 43.11742 46.78501 44.95121
# Shear Modulus (GPa) = 34.29345 47.07210 40.68278
#
# Velocity S-wave (km/s) = 3.38778 3.96910 3.68991
# Velocity P-wave (km/s) = 5.45280 6.05497 5.76175
#
# Compressibility (1/GPa) = 0.02319248
#
# Stress axis : x y z
#
# Youngs Moduli (GPa) = 146.48094 74.84456 64.32310
#
# Poissons Ratio (x) = -0.11321 0.17801
# Poissons Ratio (y) = -0.22157 0.32265
# Poissons Ratio (z) = 0.40538 0.37543
#
# Static dielectric constant tensor:
#      x y z
#    x 2.539850 0.000000 -0.050300 
#    y 0.000000 2.620190 0.000000 
#    z -0.050300 0.000000 2.477470 
# 
# From -- ./inp_files/4160.got.cif
#   From: 2010.05.17/outbox.cif.g08.bks.cpg/sg4_3_cif.got.tgz:4160.got - 2010.06.03 18:43:04.
