data_PCOD9116184
_publ_section_title
;
Structure prediction by ZEFSAII (Michael W. Deem and Ramdas Pophale) SiO2 
 PCOD9116184
Probable space group: P 21
;
_chemical_formula_sum "Si O2"
_cell_formula_units_Z 12
_cell_length_a 6.560742
_cell_length_b 5.228426
_cell_length_c 24.821700
_cell_angle_alpha 90.000000
_cell_angle_beta 145.272728
_cell_angle_gamma 90.000000
_cell_volume 485.042058
_symmetry_space_group_name_H-M "P 21"
_symmetry_group_IT_number 4
_symmetry_cell_setting 'monoclinic'
loop_
_space_group_symop_operation_xyz
x,y,z
-x,1/2+y,-z
loop_
_atom_site_type_symbol
_atom_site_label
_atom_site_fract_x
_atom_site_fract_y
_atom_site_fract_z
Si Si1 0.107695 0.518910 0.553772
Si Si2 0.101709 0.227314 0.657255
Si Si3 0.922033 0.428145 0.844589
Si Si4 0.540908 0.340147 0.214796
Si Si5 0.932756 0.455903 0.728146
Si Si6 0.061274 0.687819 0.046422
O O1 0.953642 0.379586 0.574327
O O2 0.534457 0.562400 0.650967
O O3 0.054989 0.289381 0.498872
O O4 0.510545 0.329811 0.750834
O O5 0.900048 0.266705 0.669860
O O6 0.204154 0.928293 0.680343
O O7 0.826813 0.717642 0.842276
O O8 0.064298 0.378463 0.816207
O O9 0.116492 0.285766 0.936103
O O10 0.424158 0.559362 0.147346
O O11 0.783578 0.155824 0.232516
O O12 0.895751 0.449034 0.978156
#
# Coordination Sequence:
#
# PCOD9116184 Si02
#       6
#     2   2   2   2   2   2
#     4  11  27  44  68  99 139 174 221 281 343 387
#     4   9  22  40  66  95 130 174 223 269 327 401
#     4   9  20  40  67  96 127 179 221 267 328 400
#     4  10  21  40  74  96 130 179 230 264 330 400
#     4  10  23  42  70  97 130 178 231 271 320 411
#     4  11  21  40  71  97 138 180 216 278 342 383
#
# _framework density 24.740120999999998
#
# number of rings (size 3 to 8) (size 9 to 14) (size 15 to 20)
#    0.000    2.000    1.667    0.000    9.333    4.000 
#    0.000    0.000   14.667    0.000    0.000    0.000 
#    0.000    0.000    0.000    0.000    0.000    0.000 
#
# Total GULP energy -66815.180891 kJ/mol
# GULP energy per Si atom -5567.931741 kJ/mol
# Density = 2.468381 g / cm^3
# Si number density = 24.740121 Si / 1000 Ang^3
#
#
#
# Elastic Constant Matrix: (Units=GPa)
#
#
# Indices 1 2 3 4 5 6 
#
# 1 106.6301 15.8615 20.9288 0.0000 -30.5708 0.0000
# 2 15.8615 91.8405 25.2452 0.0000 -18.2203 0.0000
# 3 20.9288 25.2452 76.0816 0.0000 -28.6736 0.0000
# 4 0.0000 0.0000 0.0000 52.6195 0.0000 -4.5875
# 5 -30.5708 -18.2203 -28.6736 0.0000 43.5747 0.0000
# 6 0.0000 0.0000 0.0000 -4.5875 0.0000 19.5936
#
#
#
# Elastic Compliance Matrix: (Units=1/GPa)
#
#
# Indices 1 2 3 4 5 6 
#
# 1 0.011755 -0.000419 -0.000070 0.000000 0.008026 0.000000
# 2 -0.000419 0.012338 -0.002853 0.000000 0.002988 0.000000
# 3 -0.000070 -0.002853 0.018140 0.000000 0.010695 0.000000
# 4 0.000000 0.000000 0.000000 0.019400 0.000000 0.004542
# 5 0.008026 0.002988 0.010695 0.000000 0.036867 0.000000
# 6 0.000000 0.000000 0.000000 0.004542 0.000000 0.052101
#
#
# Mechanical properties :
#
#
# Convention : Reuss Voigt Hill
#
# Bulk Modulus (GPa) = 28.12857 44.29149 36.21003
# Shear Modulus (GPa) = 29.56233 37.32532 33.44382
#
# Velocity S-wave (km/s) = 3.46050 3.88841 3.68068
# Velocity P-wave (km/s) = 5.23078 6.17261 5.72111
#
# Compressibility (1/GPa) = 0.03555105
#
# Stress axis : x y z
#
# Youngs Moduli (GPa) = 85.06799 81.05257 55.12586
#
# Poissons Ratio (x) = 0.03394 0.00385
# Poissons Ratio (y) = 0.03562 0.15725
# Poissons Ratio (z) = 0.00594 0.23121
#
# Static dielectric constant tensor:
#      x y z
#    x 1.977280 0.000000 -0.034040 
#    y 0.000000 2.409280 0.000000 
#    z -0.034040 0.000000 2.098320 
# 
# From -- ./inp_files/3834.got.cif
#   From: 2010.05.17/outbox.cif.g08.bks.cpg/sg4_2_cif.got.tgz:3834.got - 2010.06.03 18:43:04.
