data_PCOD9116265
_publ_section_title
;
Structure prediction by ZEFSAII (Michael W. Deem and Ramdas Pophale) SiO2 
 PCOD9116265
Probable space group: P 21
;
_chemical_formula_sum "Si O2"
_cell_formula_units_Z 16
_cell_length_a 15.530596
_cell_length_b 9.324096
_cell_length_c 6.155007
_cell_angle_alpha 90.000000
_cell_angle_beta 44.808227
_cell_angle_gamma 90.000000
_cell_volume 628.130558
_symmetry_space_group_name_H-M "P 21"
_symmetry_group_IT_number 4
_symmetry_cell_setting 'monoclinic'
loop_
_space_group_symop_operation_xyz
x,y,z
-x,1/2+y,-z
loop_
_atom_site_type_symbol
_atom_site_label
_atom_site_fract_x
_atom_site_fract_y
_atom_site_fract_z
Si Si1 0.054760 0.250000 0.159168
Si Si2 0.289141 0.630429 0.225300
Si Si3 0.482635 0.587224 0.496454
Si Si4 0.512481 0.289915 0.894888
Si Si5 0.891344 0.210892 0.811660
Si Si6 0.898573 0.461182 0.146994
Si Si7 0.366153 0.067574 0.397068
Si Si8 0.744011 0.955069 0.319727
O O1 0.026734 0.215606 0.462317
O O2 0.973693 0.376588 0.195137
O O3 0.192339 0.308405 0.871481
O O4 0.035288 0.103951 0.059353
O O5 0.353544 0.727958 0.288658
O O6 0.182554 0.705147 0.283239
O O7 0.250919 0.490091 0.430585
O O8 0.393248 0.617819 0.857559
O O9 0.509228 0.727523 0.305758
O O10 0.608792 0.545152 0.389826
O O11 0.393791 0.480725 0.522238
O O12 0.534351 0.456682 0.879381
O O13 0.408901 0.220182 0.229328
O O14 0.880875 0.349298 0.980795
O O15 0.830093 0.078307 0.050087
O O16 0.765300 0.519605 0.447176
#
# Coordination Sequence:
#
# PCOD9116265 Si02
#       8
#     2   2   2   2   2   2   2   2
#     4  12  26  44  64  94 136 178 228 285 336 403
#     4   9  18  38  66  91 126 171 216 271 331 394
#     4   9  21  39  65  95 130 171 216 270 334 402
#     4  10  22  41  65  98 137 176 219 268 334 403
#     4  11  21  41  67  93 126 172 226 282 340 397
#     4  12  27  44  68  99 135 181 232 282 341 400
#     4  11  24  42  67 102 137 177 223 279 339 407
#     4  10  21  41  68  96 131 176 222 275 341 406
#
# _framework density 25.472411999999998
#
# number of rings (size 3 to 8) (size 9 to 14) (size 15 to 20)
#    0.000    1.500    0.000    6.000    0.000    9.000 
#    0.000    1.250    0.000    0.000    0.000    0.000 
#    0.000    0.000    0.000    0.000    0.000    0.000 
#
# Total GULP energy -89390.032906 kJ/mol
# GULP energy per Si atom -5586.877057 kJ/mol
# Density = 2.541444 g / cm^3
# Si number density = 25.472412 Si / 1000 Ang^3
#
#
#
# Elastic Constant Matrix: (Units=GPa)
#
#
# Indices 1 2 3 4 5 6 
#
# 1 95.8048 7.6150 5.8170 0.0000 -3.0257 0.0000
# 2 7.6150 101.7143 8.8219 0.0000 -4.0708 0.0000
# 3 5.8170 8.8219 120.3405 0.0000 -1.4335 0.0000
# 4 0.0000 0.0000 0.0000 42.2561 0.0000 -3.8300
# 5 -3.0257 -4.0708 -1.4335 0.0000 27.2829 0.0000
# 6 0.0000 0.0000 0.0000 -3.8300 0.0000 30.6935
#
#
#
# Elastic Compliance Matrix: (Units=1/GPa)
#
#
# Indices 1 2 3 4 5 6 
#
# 1 0.010554 -0.000710 -0.000446 0.000000 0.001041 0.000000
# 2 -0.000710 0.009999 -0.000682 0.000000 0.001377 0.000000
# 3 -0.000446 -0.000682 0.008385 0.000000 0.000289 0.000000
# 4 0.000000 0.000000 0.000000 0.023936 0.000000 0.002987
# 5 0.001041 0.001377 0.000289 0.000000 0.036989 0.000000
# 6 0.000000 0.000000 0.000000 0.002987 0.000000 0.032953
#
#
# Mechanical properties :
#
#
# Convention : Reuss Voigt Hill
#
# Bulk Modulus (GPa) = 39.58477 40.26304 39.92390
# Shear Modulus (GPa) = 37.06110 39.75355 38.40732
#
# Velocity S-wave (km/s) = 3.81852 3.95479 3.88725
# Velocity P-wave (km/s) = 5.91738 6.05761 5.98791
#
# Compressibility (1/GPa) = 0.02526224
#
# Stress axis : x y z
#
# Youngs Moduli (GPa) = 94.74848 100.01095 119.26395
#
# Poissons Ratio (x) = 0.07099 0.05316
# Poissons Ratio (y) = 0.06726 0.08137
# Poissons Ratio (z) = 0.04223 0.06824
#
# Static dielectric constant tensor:
#      x y z
#    x 2.098510 0.000000 -0.076030 
#    y 0.000000 2.028700 0.000000 
#    z -0.076030 0.000000 2.061670 
# 
# From -- ./inp_files/4102.got.cif
#   From: 2010.05.17/outbox.cif.g08.bks.cpg/sg4_3_cif.got.tgz:4102.got - 2010.06.03 18:43:04.
