data_PCOD9116175
_publ_section_title
;
Structure prediction by ZEFSAII (Michael W. Deem and Ramdas Pophale) SiO2 
 PCOD9116175
Probable space group: P 21
;
_chemical_formula_sum "Si O2"
_cell_formula_units_Z 16
_cell_length_a 6.975283
_cell_length_b 9.317899
_cell_length_c 9.502997
_cell_angle_alpha 90.000000
_cell_angle_beta 82.500910
_cell_angle_gamma 90.000000
_cell_volume 612.364347
_symmetry_space_group_name_H-M "P 21"
_symmetry_group_IT_number 4
_symmetry_cell_setting 'monoclinic'
loop_
_space_group_symop_operation_xyz
x,y,z
-x,1/2+y,-z
loop_
_atom_site_type_symbol
_atom_site_label
_atom_site_fract_x
_atom_site_fract_y
_atom_site_fract_z
Si Si1 0.426933 0.556050 0.676207
Si Si2 0.552360 0.365445 0.207653
Si Si3 0.064787 0.218913 0.480909
Si Si4 0.549600 0.846863 0.093405
Si Si5 0.005089 0.090182 0.195676
Si Si6 0.255179 0.509316 0.415492
Si Si7 0.233472 0.131707 0.746292
Si Si8 0.012291 0.324039 0.964886
O O1 0.458691 0.723117 0.698105
O O2 0.526058 0.465689 0.790644
O O3 0.198428 0.530001 0.729690
O O4 0.427363 0.505172 0.515702
O O5 0.362239 0.458680 0.264869
O O6 0.733641 0.465419 0.230279
O O7 0.557752 0.323316 0.042589
O O8 0.091332 0.388427 0.459724
O O9 0.214452 0.171983 0.586486
O O10 0.107796 0.144403 0.326918
O O11 0.856657 0.159818 0.554447
O O12 0.590494 0.709419 0.187883
O O13 0.770051 0.881327 0.023370
O O14 0.091107 0.962662 0.091976
O O15 0.960071 0.226658 0.102292
O O16 0.047925 0.205147 0.838435
#
# Coordination Sequence:
#
# PCOD9116175 Si02
#       8
#     2   2   2   2   2   2   2   2
#     4  10  23  43  63  96 141 173 230 285 336 414
#     4  12  25  41  71 102 132 187 230 281 355 414
#     4  11  23  46  69 102 137 180 234 290 347 408
#     4   9  20  45  62  90 136 180 222 285 329 408
#     4  10  21  40  70  95 139 179 224 288 337 408
#     4  11  26  45  71  97 140 182 227 289 347 414
#     4  10  23  42  69  96 143 176 228 288 338 419
#     4   9  21  40  65  98 130 181 227 278 337 401
#
# _framework density 26.128236999999999
#
# number of rings (size 3 to 8) (size 9 to 14) (size 15 to 20)
#    0.750    1.000    1.250    2.250    7.000    2.000 
#    0.000    1.250    2.750    0.000    0.000    0.000 
#    0.000    0.000    0.000    0.000    0.000    0.000 
#
# Total GULP energy -89392.414763 kJ/mol
# GULP energy per Si atom -5587.025923 kJ/mol
# Density = 2.606877 g / cm^3
# Si number density = 26.128237 Si / 1000 Ang^3
#
#
#
# Elastic Constant Matrix: (Units=GPa)
#
#
# Indices 1 2 3 4 5 6 
#
# 1 38.8547 10.5091 27.3034 0.0000 2.0801 0.0000
# 2 10.5091 129.3071 56.0131 0.0000 8.8307 0.0000
# 3 27.3034 56.0131 175.2539 0.0000 43.5133 0.0000
# 4 0.0000 0.0000 0.0000 43.3929 0.0000 -5.0944
# 5 2.0801 8.8307 43.5133 0.0000 37.2051 0.0000
# 6 0.0000 0.0000 0.0000 -5.0944 0.0000 28.7720
#
#
#
# Elastic Compliance Matrix: (Units=1/GPa)
#
#
# Indices 1 2 3 4 5 6 
#
# 1 0.029623 -0.000236 -0.005837 0.000000 0.005227 0.000000
# 2 -0.000236 0.009058 -0.003280 0.000000 0.001700 0.000000
# 3 -0.005837 -0.003280 0.010413 0.000000 -0.011074 0.000000
# 4 0.000000 0.000000 0.000000 0.023534 0.000000 0.004167
# 5 0.005227 0.001700 -0.011074 0.000000 0.039134 0.000000
# 6 0.000000 0.000000 0.000000 0.004167 0.000000 0.035494
#
#
# Mechanical properties :
#
#
# Convention : Reuss Voigt Hill
#
# Bulk Modulus (GPa) = 32.90894 59.00745 45.95819
# Shear Modulus (GPa) = 28.39425 38.51334 33.45379
#
# Velocity S-wave (km/s) = 3.30013 3.84345 3.58211
# Velocity P-wave (km/s) = 5.20996 6.50607 5.89375
#
# Compressibility (1/GPa) = 0.03038688
#
# Stress axis : x y z
#
# Youngs Moduli (GPa) = 33.75764 110.40563 96.03039
#
# Poissons Ratio (x) = 0.02604 0.56058
# Poissons Ratio (y) = 0.00796 0.31499
# Poissons Ratio (z) = 0.19706 0.36215
#
# Static dielectric constant tensor:
#      x y z
#    x 2.147210 0.000000 -0.019640 
#    y 0.000000 2.010500 0.000000 
#    z -0.019640 0.000000 2.080070 
# 
# From -- ./inp_files/5683.got.cif
#   From: 2010.05.17/outbox.cif.g08.bks.cpg/sg4_3_cif.got.tgz:5683.got - 2010.06.03 18:43:04.
