data_PCOD9116308
_publ_section_title
;
Structure prediction by ZEFSAII (Michael W. Deem and Ramdas Pophale) SiO2 
 PCOD9116308
Probable space group: P 21
;
_chemical_formula_sum "Si O2"
_cell_formula_units_Z 16
_cell_length_a 28.803516
_cell_length_b 5.003850
_cell_length_c 11.516789
_cell_angle_alpha 90.000000
_cell_angle_beta 157.113265
_cell_angle_gamma 90.000000
_cell_volume 645.551737
_symmetry_space_group_name_H-M "P 21"
_symmetry_group_IT_number 4
_symmetry_cell_setting 'monoclinic'
loop_
_space_group_symop_operation_xyz
x,y,z
-x,1/2+y,-z
loop_
_atom_site_type_symbol
_atom_site_label
_atom_site_fract_x
_atom_site_fract_y
_atom_site_fract_z
Si Si1 0.419611 0.376290 0.792810
Si Si2 0.055807 0.777902 0.249594
Si Si3 0.909721 0.371094 0.076043
Si Si4 0.173133 0.501411 0.330992
Si Si5 0.425630 0.754688 0.350681
Si Si6 0.197537 0.010358 0.762864
Si Si7 0.879212 0.991620 0.281968
Si Si8 0.294748 0.658621 0.291871
O O1 0.299139 0.368583 0.593709
O O2 0.374308 0.499794 0.566534
O O3 0.513721 0.593690 0.059898
O O4 0.168309 0.688797 0.431524
O O5 0.111670 0.015082 0.455075
O O6 0.989709 0.580164 0.188112
O O7 0.942318 0.823068 0.905653
O O8 0.995185 0.362675 0.388715
O O9 0.871350 0.150202 0.889636
O O10 0.774611 0.414234 0.812892
O O11 0.470683 0.472688 0.410108
O O12 0.369390 0.729376 0.349700
O O13 0.325417 0.882345 0.036544
O O14 0.136069 0.792051 0.706257
O O15 0.207442 0.295763 0.844397
O O16 0.821564 0.988663 0.021252
#
# Coordination Sequence:
#
# PCOD9116308 Si02
#       8
#     2   2   2   2   2   2   2   2
#     4  11  29  51  72 104 146 202 263 303 357 441
#     4  11  22  41  73 109 151 188 238 310 386 444
#     4  10  22  43  66 107 147 180 232 295 378 457
#     4  11  23  42  74 108 149 197 242 315 372 446
#     4  11  24  45  67  97 136 186 244 297 352 432
#     4  10  22  40  66 100 140 179 230 287 363 436
#     4  10  21  42  65 103 137 174 219 286 370 447
#     4  10  25  46  73 100 140 192 238 307 370 433
#
# _framework density 24.784998999999999
#
# number of rings (size 3 to 8) (size 9 to 14) (size 15 to 20)
#    0.000    1.500    2.500    1.500    3.500    7.000 
#    9.000    0.000    0.000    0.000    0.000    0.000 
#    0.000    0.000    0.000    0.000    0.000    0.000 
#
# Total GULP energy -89240.784579 kJ/mol
# GULP energy per Si atom -5577.549036 kJ/mol
# Density = 2.472859 g / cm^3
# Si number density = 24.784999 Si / 1000 Ang^3
#
#
#
# Elastic Constant Matrix: (Units=GPa)
#
#
# Indices 1 2 3 4 5 6 
#
# 1 108.7198 17.9849 24.4615 0.0000 12.8180 0.0000
# 2 17.9849 61.8533 3.3563 0.0000 4.6505 0.0000
# 3 24.4615 3.3563 97.9875 0.0000 0.7768 0.0000
# 4 0.0000 0.0000 0.0000 37.9561 0.0000 -5.1944
# 5 12.8180 4.6505 0.7768 0.0000 46.6504 0.0000
# 6 0.0000 0.0000 0.0000 -5.1944 0.0000 14.2927
#
#
#
# Elastic Compliance Matrix: (Units=1/GPa)
#
#
# Indices 1 2 3 4 5 6 
#
# 1 0.010518 -0.002728 -0.002512 0.000000 -0.002576 0.000000
# 2 -0.002728 0.017026 0.000105 0.000000 -0.000949 0.000000
# 3 -0.002512 0.000105 0.010825 0.000000 0.000499 0.000000
# 4 0.000000 0.000000 0.000000 0.027725 0.000000 0.010076
# 5 -0.002576 -0.000949 0.000499 0.000000 0.022230 0.000000
# 6 0.000000 0.000000 0.000000 0.010076 0.000000 0.073628
#
#
# Mechanical properties :
#
#
# Convention : Reuss Voigt Hill
#
# Bulk Modulus (GPa) = 35.58749 40.01844 37.80297
# Shear Modulus (GPa) = 27.53472 34.63035 31.08254
#
# Velocity S-wave (km/s) = 3.33670 3.74201 3.54515
# Velocity P-wave (km/s) = 5.40688 5.90351 5.66065
#
# Compressibility (1/GPa) = 0.02809976
#
# Stress axis : x y z
#
# Youngs Moduli (GPa) = 95.07338 58.73284 92.37978
#
# Poissons Ratio (x) = 0.16024 0.23205
# Poissons Ratio (y) = 0.25939 -0.00974
# Poissons Ratio (z) = 0.23881 -0.00619
#
# Static dielectric constant tensor:
#      x y z
#    x 2.055210 0.000000 -0.003330 
#    y 0.000000 2.059080 0.000000 
#    z -0.003330 0.000000 2.009280 
# 
# From -- ./inp_files/13146.got.cif
#   From: 2010.05.17/outbox.cif.g08.bks.cpg/sg4_7_cif.got.tgz:13146.got - 2010.06.03 18:43:04.
