data_PCOD9116538
_publ_section_title
;
Structure prediction by ZEFSAII (Michael W. Deem and Ramdas Pophale) SiO2 
 PCOD9116538
Probable space group: P 21
;
_chemical_formula_sum "Si O2"
_cell_formula_units_Z 16
_cell_length_a 6.758534
_cell_length_b 17.035816
_cell_length_c 6.328148
_cell_angle_alpha 90.000000
_cell_angle_beta 115.935747
_cell_angle_gamma 90.000000
_cell_volume 655.223493
_symmetry_space_group_name_H-M "P 21"
_symmetry_group_IT_number 4
_symmetry_cell_setting 'monoclinic'
loop_
_space_group_symop_operation_xyz
x,y,z
-x,1/2+y,-z
loop_
_atom_site_type_symbol
_atom_site_label
_atom_site_fract_x
_atom_site_fract_y
_atom_site_fract_z
Si Si1 0.032657 0.894300 0.551129
Si Si2 0.585004 0.846787 0.210603
Si Si3 0.441678 0.604866 0.085375
Si Si4 0.298961 0.746085 0.777200
Si Si5 0.849111 0.609114 0.963657
Si Si6 0.330033 0.967783 0.340062
Si Si7 0.210528 0.517278 0.280181
Si Si8 0.404734 0.210140 0.457702
O O1 0.107331 0.808953 0.666329
O O2 0.235482 0.929555 0.510360
O O3 0.822710 0.885825 0.296615
O O4 0.947848 0.949964 0.701897
O O5 0.386630 0.903515 0.188681
O O6 0.622939 0.790787 0.431430
O O7 0.501337 0.793509 0.980927
O O8 0.323957 0.525132 0.101731
O O9 0.550409 0.645266 0.342201
O O10 0.273379 0.667990 0.905753
O O11 0.638212 0.596560 0.014262
O O12 0.381291 0.719619 0.587683
O O13 0.842562 0.532846 0.811062
O O14 0.789269 0.682966 0.790260
O O15 0.064728 0.597061 0.207142
O O16 0.569427 0.008147 0.479101
#
# Coordination Sequence:
#
# PCOD9116538 Si02
#       8
#     2   2   2   2   2   2   2   2
#     4  11  24  43  70 101 137 182 226 282 339 406
#     4  10  23  43  68  99 130 180 226 277 340 401
#     4  10  23  46  67 100 140 176 230 285 338 404
#     4  10  22  45  69  95 140 178 227 286 341 396
#     4  11  24  42  70  99 133 185 224 279 343 402
#     4  11  23  45  66  99 144 170 226 284 332 405
#     4  11  24  41  70 101 134 183 225 275 343 404
#     4  10  21  47  68  96 142 174 224 290 330 402
#
# _framework density 24.419153000000001
#
# number of rings (size 3 to 8) (size 9 to 14) (size 15 to 20)
#    0.000    1.500    2.500    1.500    1.750    3.000 
#    9.000    0.000    0.000    0.000    0.000    0.000 
#    0.000    0.000    0.000    0.000    0.000    0.000 
#
# Total GULP energy -89357.588028 kJ/mol
# GULP energy per Si atom -5584.849252 kJ/mol
# Density = 2.436357 g / cm^3
# Si number density = 24.419153 Si / 1000 Ang^3
#
#
#
# Elastic Constant Matrix: (Units=GPa)
#
#
# Indices 1 2 3 4 5 6 
#
# 1 80.4449 -5.1113 28.8073 0.0000 13.0471 0.0000
# 2 -5.1113 48.7973 17.9827 0.0000 -1.7782 0.0000
# 3 28.8073 17.9827 70.9406 0.0000 1.9340 0.0000
# 4 0.0000 0.0000 0.0000 48.0549 0.0000 -3.7705
# 5 13.0471 -1.7782 1.9340 0.0000 37.9823 0.0000
# 6 0.0000 0.0000 0.0000 -3.7705 0.0000 39.7349
#
#
#
# Elastic Compliance Matrix: (Units=1/GPa)
#
#
# Indices 1 2 3 4 5 6 
#
# 1 0.016210 0.004293 -0.007535 0.000000 -0.004984 0.000000
# 2 0.004293 0.023811 -0.007780 0.000000 0.000036 0.000000
# 3 -0.007535 -0.007780 0.019094 0.000000 0.001252 0.000000
# 4 0.000000 0.000000 0.000000 0.020966 0.000000 0.001989
# 5 -0.004984 0.000036 0.001252 0.000000 0.027978 0.000000
# 6 0.000000 0.000000 0.000000 0.001989 0.000000 0.025356
#
#
# Mechanical properties :
#
#
# Convention : Reuss Voigt Hill
#
# Bulk Modulus (GPa) = 26.97502 31.50448 29.23975
# Shear Modulus (GPa) = 29.79458 35.72135 32.75797
#
# Velocity S-wave (km/s) = 3.49683 3.82886 3.66660
# Velocity P-wave (km/s) = 5.23205 5.69881 5.47041
#
# Compressibility (1/GPa) = 0.03707133
#
# Stress axis : x y z
#
# Youngs Moduli (GPa) = 61.68955 41.99729 52.37207
#
# Poissons Ratio (x) = -0.18030 0.39462
# Poissons Ratio (y) = -0.26484 0.40746
# Poissons Ratio (z) = 0.46483 0.32675
#
# Static dielectric constant tensor:
#      x y z
#    x 1.955360 0.000000 0.041610 
#    y 0.000000 1.954000 0.000000 
#    z 0.041610 0.000000 1.924280 
# 
# From -- ./inp_files/638.got.cif
#   From: 2010.05.17/outbox.cif.g08.bks.cpg/sg4_1_cif.got.tgz:638.got - 2010.06.03 18:43:04.
