data_PCOD9116685
_publ_section_title
;
Structure prediction by ZEFSAII (Michael W. Deem and Ramdas Pophale) SiO2 
 PCOD9116685
Probable space group: P 21
;
_chemical_formula_sum "Si O2"
_cell_formula_units_Z 16
_cell_length_a 15.060731
_cell_length_b 5.092581
_cell_length_c 11.470653
_cell_angle_alpha 90.000000
_cell_angle_beta 51.349897
_cell_angle_gamma 90.000000
_cell_volume 687.082768
_symmetry_space_group_name_H-M "P 21"
_symmetry_group_IT_number 4
_symmetry_cell_setting 'monoclinic'
loop_
_space_group_symop_operation_xyz
x,y,z
-x,1/2+y,-z
loop_
_atom_site_type_symbol
_atom_site_label
_atom_site_fract_x
_atom_site_fract_y
_atom_site_fract_z
Si Si1 0.964252 0.403800 0.761260
Si Si2 0.150655 0.280626 0.447210
Si Si3 0.720056 0.271677 0.655539
Si Si4 0.067757 0.447385 0.907808
Si Si5 0.545050 0.357656 0.610128
Si Si6 0.228494 0.521402 0.155426
Si Si7 0.392832 0.856729 0.693693
Si Si8 0.774243 0.712864 0.043652
O O1 0.872242 0.174889 0.825616
O O2 0.029761 0.392317 0.585591
O O3 0.064723 0.376248 0.774067
O O4 0.888056 0.630485 0.880269
O O5 0.243077 0.486593 0.422563
O O6 0.172423 0.318439 0.292380
O O7 0.179498 0.981191 0.450324
O O8 0.612137 0.376510 0.675583
O O9 0.709176 0.218644 0.804299
O O10 0.182962 0.380086 0.881101
O O11 0.028597 0.745014 0.963839
O O12 0.488595 0.073180 0.645151
O O13 0.626656 0.382724 0.429517
O O14 0.447223 0.575707 0.675907
O O15 0.294581 0.370529 0.999373
O O16 0.288354 0.957443 0.856317
#
# Coordination Sequence:
#
# PCOD9116685 Si02
#       8
#     2   2   2   2   2   2   2   2
#     4  11  24  41  62  95 143 182 227 275 331 415
#     4  10  25  38  66  97 132 183 230 267 340 383
#     4  10  23  42  68  98 131 178 231 288 326 418
#     4  10  22  40  58  91 133 182 211 270 330 403
#     4  10  22  48  71 104 131 171 236 287 368 416
#     4  10  24  40  68  95 142 185 226 281 330 412
#     4  10  24  42  77 100 135 177 219 303 358 423
#     4  11  24  43  66 104 141 180 234 279 355 416
#
# _framework density 23.286857000000001
#
# number of rings (size 3 to 8) (size 9 to 14) (size 15 to 20)
#    0.750    1.000    1.250    1.500    8.750    0.000 
#    4.500    0.000    5.500    0.000    0.000    0.000 
#    0.000    0.000    0.000    0.000    0.000    0.000 
#
# Total GULP energy -89240.327658 kJ/mol
# GULP energy per Si atom -5577.520479 kJ/mol
# Density = 2.323386 g / cm^3
# Si number density = 23.286857 Si / 1000 Ang^3
#
#
#
# Elastic Constant Matrix: (Units=GPa)
#
#
# Indices 1 2 3 4 5 6 
#
# 1 100.4208 20.6926 45.3147 0.0000 21.5329 0.0000
# 2 20.6926 65.7596 12.1011 0.0000 8.3536 0.0000
# 3 45.3147 12.1011 84.4030 0.0000 18.3179 0.0000
# 4 0.0000 0.0000 0.0000 31.4689 0.0000 3.3057
# 5 21.5329 8.3536 18.3179 0.0000 20.1985 0.0000
# 6 0.0000 0.0000 0.0000 3.3057 0.0000 25.1969
#
#
#
# Elastic Compliance Matrix: (Units=1/GPa)
#
#
# Indices 1 2 3 4 5 6 
#
# 1 0.015146 -0.002459 -0.005597 0.000000 -0.010054 0.000000
# 2 -0.002459 0.016528 -0.000168 0.000000 -0.004062 0.000000
# 3 -0.005597 -0.000168 0.016892 0.000000 -0.009282 0.000000
# 4 0.000000 0.000000 0.000000 0.032222 0.000000 -0.004227
# 5 -0.010054 -0.004062 -0.009282 0.000000 0.070325 0.000000
# 6 0.000000 0.000000 0.000000 -0.004227 0.000000 0.040242
#
#
# Mechanical properties :
#
#
# Convention : Reuss Voigt Hill
#
# Bulk Modulus (GPa) = 31.13594 45.20001 38.16797
# Shear Modulus (GPa) = 22.88248 26.87120 24.87684
#
# Velocity S-wave (km/s) = 3.13810 3.40063 3.27200
# Velocity P-wave (km/s) = 5.15072 5.90519 5.54081
#
# Compressibility (1/GPa) = 0.03211722
#
# Stress axis : x y z
#
# Youngs Moduli (GPa) = 66.02244 60.50510 59.20073
#
# Poissons Ratio (x) = 0.14878 0.33137
# Poissons Ratio (y) = 0.16234 0.00994
# Poissons Ratio (z) = 0.36955 0.01016
#
# Static dielectric constant tensor:
#      x y z
#    x 1.924020 0.000000 0.028240 
#    y 0.000000 1.890460 0.000000 
#    z 0.028240 0.000000 1.915420 
# 
# From -- ./inp_files/12431.got.cif
#   From: 2010.05.17/outbox.cif.g08.bks.cpg/sg4_7_cif.got.tgz:12431.got - 2010.06.03 18:43:04.
