data_PCOD9116195
_publ_section_title
;
Structure prediction by ZEFSAII (Michael W. Deem and Ramdas Pophale) SiO2 
 PCOD9116195
Probable space group: P 21
;
_chemical_formula_sum "Si O2"
_cell_formula_units_Z 14
_cell_length_a 16.703367
_cell_length_b 7.372304
_cell_length_c 11.399882
_cell_angle_alpha 90.000000
_cell_angle_beta 158.823420
_cell_angle_gamma 90.000000
_cell_volume 507.116326
_symmetry_space_group_name_H-M "P 21"
_symmetry_group_IT_number 4
_symmetry_cell_setting 'monoclinic'
loop_
_space_group_symop_operation_xyz
x,y,z
-x,1/2+y,-z
loop_
_atom_site_type_symbol
_atom_site_label
_atom_site_fract_x
_atom_site_fract_y
_atom_site_fract_z
Si Si1 0.268679 0.180700 0.629798
Si Si2 0.409792 0.899833 0.197837
Si Si3 0.917598 0.922393 0.252556
Si Si4 0.191639 0.525140 0.397241
Si Si5 0.843221 0.411153 0.728144
Si Si6 0.489505 0.023335 0.549947
Si Si7 0.232430 0.656444 0.760259
O O1 0.128833 0.059320 0.528463
O O2 0.184280 0.387015 0.496786
O O3 0.210695 0.080122 0.428085
O O4 0.537810 0.174562 0.998987
O O5 0.527756 0.723763 0.419489
O O6 0.561228 0.007664 0.314692
O O7 0.375831 0.015654 0.268153
O O8 0.239461 0.800625 0.879453
O O9 0.786576 0.971039 0.193521
O O10 0.016204 0.722292 0.397202
O O11 0.748379 0.970753 0.915878
O O12 0.132826 0.735382 0.319072
O O13 0.044817 0.448305 0.089788
O O14 0.641725 0.388943 0.543996
#
# Coordination Sequence:
#
# PCOD9116195 Si02
#       7
#     2   2   2   2   2   2   2
#     4  11  24  48  69 105 143 186 246 287 354 425
#     4  10  21  41  62 105 140 178 236 285 356 409
#     4  11  25  47  74  98 147 184 235 295 356 418
#     4  11  22  38  67 103 144 191 226 294 352 419
#     4  12  21  40  69 103 152 181 235 292 354 422
#     4  11  22  39  71 105 143 183 233 295 347 424
#     4  10  25  49  68 103 143 185 237 296 347 429
#
# _framework density 27.607078000000001
#
# number of rings (size 3 to 8) (size 9 to 14) (size 15 to 20)
#    0.000    1.143    5.714    1.714    4.000    4.571 
#    7.714    0.000    0.000    0.000    0.000    0.000 
#    0.000    0.000    0.000    0.000    0.000    0.000 
#
# Total GULP energy -78401.873367 kJ/mol
# GULP energy per Si atom -5600.133812 kJ/mol
# Density = 2.754424 g / cm^3
# Si number density = 27.607078 Si / 1000 Ang^3
#
#
#
# Elastic Constant Matrix: (Units=GPa)
#
#
# Indices 1 2 3 4 5 6 
#
# 1 103.2766 -5.8423 10.6415 0.0000 -9.8825 0.0000
# 2 -5.8423 97.6146 11.1469 0.0000 -6.5501 0.0000
# 3 10.6415 11.1469 122.8203 0.0000 0.2989 0.0000
# 4 0.0000 0.0000 0.0000 52.7590 0.0000 -5.8487
# 5 -9.8825 -6.5501 0.2989 0.0000 34.7848 0.0000
# 6 0.0000 0.0000 0.0000 -5.8487 0.0000 42.0228
#
#
#
# Elastic Compliance Matrix: (Units=1/GPa)
#
#
# Indices 1 2 3 4 5 6 
#
# 1 0.010127 0.000922 -0.000969 0.000000 0.003059 0.000000
# 2 0.000922 0.010571 -0.001045 0.000000 0.002261 0.000000
# 3 -0.000969 -0.001045 0.008322 0.000000 -0.000543 0.000000
# 4 0.000000 0.000000 0.000000 0.019251 0.000000 0.002679
# 5 0.003059 0.002261 -0.000543 0.000000 0.030048 0.000000
# 6 0.000000 0.000000 0.000000 0.002679 0.000000 0.024170
#
#
# Mechanical properties :
#
#
# Convention : Reuss Voigt Hill
#
# Bulk Modulus (GPa) = 37.26143 39.51152 38.38647
# Shear Modulus (GPa) = 44.00749 46.43101 45.21925
#
# Velocity S-wave (km/s) = 3.99691 4.10549 4.05156
# Velocity P-wave (km/s) = 5.90142 6.06766 5.98512
#
# Compressibility (1/GPa) = 0.02683741
#
# Stress axis : x y z
#
# Youngs Moduli (GPa) = 98.74174 94.60205 120.16283
#
# Poissons Ratio (x) = -0.08722 0.11639
# Poissons Ratio (y) = -0.09104 0.12554
# Poissons Ratio (z) = 0.09564 0.09884
#
# Static dielectric constant tensor:
#      x y z
#    x 2.147490 0.000000 0.030380 
#    y 0.000000 2.152230 0.000000 
#    z 0.030380 0.000000 2.159300 
# 
# From -- ./inp_files/12890.got.cif
#   From: 2010.05.17/outbox.cif.g08.bks.cpg/sg4_7_cif.got.tgz:12890.got - 2010.06.03 18:43:04.
