data_PCOD9116868
_publ_section_title
;
Structure prediction by ZEFSAII (Michael W. Deem and Ramdas Pophale) SiO2 
 PCOD9116868
Probable space group: P 21
;
_chemical_formula_sum "Si O2"
_cell_formula_units_Z 14
_cell_length_a 8.707239
_cell_length_b 8.400853
_cell_length_c 9.129965
_cell_angle_alpha 90.000000
_cell_angle_beta 89.457556
_cell_angle_gamma 90.000000
_cell_volume 667.810894
_symmetry_space_group_name_H-M "P 21"
_symmetry_group_IT_number 4
_symmetry_cell_setting 'monoclinic'
loop_
_space_group_symop_operation_xyz
x,y,z
-x,1/2+y,-z
loop_
_atom_site_type_symbol
_atom_site_label
_atom_site_fract_x
_atom_site_fract_y
_atom_site_fract_z
Si Si1 0.684565 0.490270 0.211948
Si Si2 0.044229 0.000083 0.575240
Si Si3 0.114526 0.714682 0.196602
Si Si4 0.429738 0.684533 0.329477
Si Si5 0.554946 0.822675 0.629533
Si Si6 0.875886 0.686236 0.690370
Si Si7 0.046700 0.018890 0.025345
O O1 0.787095 0.490176 0.357231
O O2 0.575544 0.645211 0.224338
O O3 0.570783 0.340801 0.239039
O O4 0.803309 0.491849 0.078465
O O5 0.060744 0.039708 0.405948
O O6 0.965635 0.149281 0.657236
O O7 0.954564 0.843505 0.624154
O O8 0.288403 0.754403 0.239561
O O9 0.028578 0.859989 0.120069
O O10 0.092139 0.571319 0.078979
O O11 0.480482 0.776164 0.474892
O O12 0.383045 0.504775 0.380685
O O13 0.694296 0.707766 0.668542
O O14 0.919775 0.656521 0.856978
#
# Coordination Sequence:
#
# PCOD9116868 Si02
#       7
#     2   2   2   2   2   2   2
#     4   9  22  40  63  90 133 165 223 269 330 405
#     4  11  22  40  67 100 128 176 229 276 326 407
#     4  11  24  43  65  95 136 177 226 278 338 404
#     4  10  22  42  68  95 134 170 226 279 328 404
#     4  10  22  41  66  98 128 175 218 291 320 402
#     4  12  23  41  69  98 136 174 226 283 339 388
#     4  11  25  43  66  94 135 181 218 284 339 400
#
# _framework density 20.964020000000001
#
# number of rings (size 3 to 8) (size 9 to 14) (size 15 to 20)
#    0.857    0.571    2.857    2.571    6.000    1.143 
#    0.000    0.000    3.143    0.000    0.000    0.000 
#    0.000    0.000    0.000    0.000    0.000    0.000 
#
# Total GULP energy -78088.199785 kJ/mol
# GULP energy per Si atom -5577.728556 kJ/mol
# Density = 2.091630 g / cm^3
# Si number density = 20.964020 Si / 1000 Ang^3
#
#
#
# Elastic Constant Matrix: (Units=GPa)
#
#
# Indices 1 2 3 4 5 6 
#
# 1 72.2553 -4.3534 17.3589 0.0000 10.6719 0.0000
# 2 -4.3534 50.6133 14.0244 0.0000 -6.0957 0.0000
# 3 17.3589 14.0244 112.7950 0.0000 3.6249 0.0000
# 4 0.0000 0.0000 0.0000 40.8444 0.0000 0.8814
# 5 10.6719 -6.0957 3.6249 0.0000 35.3046 0.0000
# 6 0.0000 0.0000 0.0000 0.8814 0.0000 21.2386
#
#
#
# Elastic Compliance Matrix: (Units=1/GPa)
#
#
# Indices 1 2 3 4 5 6 
#
# 1 0.015100 0.001467 -0.002376 0.000000 -0.004067 0.000000
# 2 0.001467 0.021128 -0.002966 0.000000 0.003509 0.000000
# 3 -0.002376 -0.002966 0.009625 0.000000 -0.000782 0.000000
# 4 0.000000 0.000000 0.000000 0.024505 0.000000 -0.001017
# 5 -0.004067 0.003509 -0.000782 0.000000 0.030241 0.000000
# 6 0.000000 0.000000 0.000000 -0.001017 0.000000 0.047126
#
#
# Mechanical properties :
#
#
# Convention : Reuss Voigt Hill
#
# Bulk Modulus (GPa) = 26.24319 32.19147 29.21733
# Shear Modulus (GPa) = 29.73107 33.38643 31.55875
#
# Velocity S-wave (km/s) = 3.76998 3.99502 3.88413
# Velocity P-wave (km/s) = 5.61210 6.05550 5.83801
#
# Compressibility (1/GPa) = 0.03810512
#
# Stress axis : x y z
#
# Youngs Moduli (GPa) = 66.22684 47.33018 103.89519
#
# Poissons Ratio (x) = -0.06944 0.24680
# Poissons Ratio (y) = -0.09717 0.30810
# Poissons Ratio (z) = 0.15732 0.14036
#
# Static dielectric constant tensor:
#      x y z
#    x 1.775120 0.000000 -0.017920 
#    y 0.000000 1.822950 0.000000 
#    z -0.017920 0.000000 1.715650 
# 
# From -- ./inp_files/5634.got.cif
#   From: 2010.05.17/outbox.cif.g08.bks.cpg/sg4_3_cif.got.tgz:5634.got - 2010.06.03 18:43:04.
