data_PCOD9116133
_publ_section_title
;
Structure prediction by ZEFSAII (Michael W. Deem and Ramdas Pophale) SiO2 
 PCOD9116133
Probable space group: P 21
;
_chemical_formula_sum "Si O2"
_cell_formula_units_Z 14
_cell_length_a 15.209189
_cell_length_b 4.840111
_cell_length_c 15.209415
_cell_angle_alpha 90.000000
_cell_angle_beta 147.233435
_cell_angle_gamma 90.000000
_cell_volume 605.962576
_symmetry_space_group_name_H-M "P 21"
_symmetry_group_IT_number 4
_symmetry_cell_setting 'monoclinic'
loop_
_space_group_symop_operation_xyz
x,y,z
-x,1/2+y,-z
loop_
_atom_site_type_symbol
_atom_site_label
_atom_site_fract_x
_atom_site_fract_y
_atom_site_fract_z
Si Si1 0.105089 0.296490 0.753213
Si Si2 0.557461 0.361398 0.598939
Si Si3 0.098943 0.654685 0.057465
Si Si4 0.602801 0.507941 0.102798
Si Si5 0.746790 0.219445 0.394911
Si Si6 0.315890 0.217120 0.544823
Si Si7 0.955170 0.298805 0.184104
O O1 0.112354 0.608855 0.793254
O O2 0.941375 0.257989 0.558629
O O3 0.256668 0.172752 0.829842
O O4 0.079243 0.112604 0.818836
O O5 0.535917 0.675867 0.551867
O O6 0.468429 0.303682 0.615986
O O7 0.741444 0.258067 0.758566
O O8 0.116010 0.712302 0.968446
O O9 0.051881 0.340228 0.035953
O O10 0.670166 0.343136 0.243331
O O11 0.478978 0.757943 0.021028
O O12 0.681138 0.403335 0.420727
O O13 0.706774 0.907077 0.387675
O O14 0.150105 0.257931 0.349886
#
# Coordination Sequence:
#
# PCOD9116133 Si02
#       7
#     2   2   2   2   2   2   2
#     4  10  23  42  66  91 125 171 213 255 315 387
#     4  12  25  42  66  96 131 171 213 263 317 377
#     4  12  25  42  66  96 131 171 213 263 317 377
#     4  12  26  42  64  98 134 166 208 270 322 370
#     4  10  23  42  66  91 125 171 213 255 315 387
#     4  10  21  40  65  94 125 164 214 265 314 374
#     4  10  21  40  65  94 125 164 214 265 314 374
#
# _framework density 23.103739000000001
#
# number of rings (size 3 to 8) (size 9 to 14) (size 15 to 20)
#    0.000    1.143    0.000    6.000    0.000   10.286 
#    0.000    0.000    0.000    0.000    0.000    0.000 
#    0.000    0.000    0.000    0.000    0.000    0.000 
#
# Total GULP energy -78393.058313 kJ/mol
# GULP energy per Si atom -5599.504165 kJ/mol
# Density = 2.305115 g / cm^3
# Si number density = 23.103739 Si / 1000 Ang^3
#
#
#
# Elastic Constant Matrix: (Units=GPa)
#
#
# Indices 1 2 3 4 5 6 
#
# 1 44.4861 -10.7152 32.4587 0.0000 11.9296 0.0000
# 2 -10.7152 86.8885 15.6170 0.0000 7.6045 0.0000
# 3 32.4587 15.6170 83.7344 0.0000 -0.6017 0.0000
# 4 0.0000 0.0000 0.0000 36.6453 0.0000 2.5445
# 5 11.9296 7.6045 -0.6017 0.0000 23.0569 0.0000
# 6 0.0000 0.0000 0.0000 2.5445 0.0000 27.8284
#
#
#
# Elastic Compliance Matrix: (Units=1/GPa)
#
#
# Indices 1 2 3 4 5 6 
#
# 1 0.049626 0.012707 -0.021826 0.000000 -0.030437 0.000000
# 2 0.012707 0.015540 -0.007909 0.000000 -0.011906 0.000000
# 3 -0.021826 -0.007909 0.021982 0.000000 0.014475 0.000000
# 4 0.000000 0.000000 0.000000 0.027463 0.000000 -0.002511
# 5 -0.030437 -0.011906 0.014475 0.000000 0.063423 0.000000
# 6 0.000000 0.000000 0.000000 -0.002511 0.000000 0.036164
#
#
# Mechanical properties :
#
#
# Convention : Reuss Voigt Hill
#
# Bulk Modulus (GPa) = 18.83543 32.20333 25.51938
# Shear Modulus (GPa) = 18.80032 29.35602 24.07817
#
# Velocity S-wave (km/s) = 2.85570 3.56844 3.23178
# Velocity P-wave (km/s) = 4.36390 5.56302 4.99954
#
# Compressibility (1/GPa) = 0.05309143
#
# Stress axis : x y z
#
# Youngs Moduli (GPa) = 20.15053 64.35162 45.49136
#
# Poissons Ratio (x) = -0.81770 0.99288
# Poissons Ratio (y) = -0.25605 0.35981
# Poissons Ratio (z) = 0.43980 0.50898
#
# Static dielectric constant tensor:
#      x y z
#    x 1.823700 0.000000 0.012380 
#    y 0.000000 1.793300 0.000000 
#    z 0.012380 0.000000 1.866530 
# 
# From -- ./inp_files/14104.got.cif
#   From: 2010.05.17/outbox.cif.g08.bks.cpg/sg4_8_cif.got.tgz:14104.got - 2010.06.03 18:43:04.
