data_PCOD9116721
_publ_section_title
;
Structure prediction by ZEFSAII (Michael W. Deem and Ramdas Pophale) SiO2 
 PCOD9116721
Probable space group: P 21
;
_chemical_formula_sum "Si O2"
_cell_formula_units_Z 16
_cell_length_a 14.941770
_cell_length_b 8.014890
_cell_length_c 6.227270
_cell_angle_alpha 90.000000
_cell_angle_beta 117.589074
_cell_angle_gamma 90.000000
_cell_volume 660.958352
_symmetry_space_group_name_H-M "P 21"
_symmetry_group_IT_number 4
_symmetry_cell_setting 'monoclinic'
loop_
_space_group_symop_operation_xyz
x,y,z
-x,1/2+y,-z
loop_
_atom_site_type_symbol
_atom_site_label
_atom_site_fract_x
_atom_site_fract_y
_atom_site_fract_z
Si Si1 0.799408 0.252770 0.859689
Si Si2 0.324425 0.727935 0.895936
Si Si3 0.990659 0.758652 0.136589
Si Si4 0.872333 0.680932 0.601771
Si Si5 0.973819 0.987609 0.468340
Si Si6 0.681795 0.514060 0.463341
Si Si7 0.366106 0.545971 0.550806
Si Si8 0.508271 0.729786 0.428154
O O1 0.912359 0.280225 0.908208
O O2 0.739203 0.417768 0.718197
O O3 0.738754 0.103319 0.674307
O O4 0.779765 0.221180 0.087879
O O5 0.345666 0.562575 0.780133
O O6 0.321799 0.882701 0.732744
O O7 0.415627 0.753043 0.162026
O O8 0.033418 0.647840 0.382346
O O9 0.938112 0.919557 0.191727
O O10 0.911334 0.671678 0.890331
O O11 0.925322 0.845134 0.564732
O O12 0.752491 0.668267 0.470936
O O13 0.912346 0.528578 0.495865
O O14 0.574404 0.574246 0.422562
O O15 0.453109 0.683270 0.588316
O O16 0.414104 0.381851 0.503118
#
# Coordination Sequence:
#
# PCOD9116721 Si02
#       8
#     2   2   2   2   2   2   2   2
#     4  10  23  41  66  94 131 177 218 276 334 405
#     4  10  22  41  68  96 128 179 218 266 348 400
#     4  11  23  44  69  95 138 182 227 284 341 398
#     4  11  24  42  67 102 137 182 228 279 342 399
#     4  10  24  42  68  95 136 181 230 282 332 402
#     4  11  24  42  67 101 134 174 227 278 330 408
#     4  10  22  40  63  96 126 168 218 275 337 397
#     4  11  22  42  68  93 134 169 220 282 336 399
#
# _framework density 24.207276
#
# number of rings (size 3 to 8) (size 9 to 14) (size 15 to 20)
#    0.000    1.500    1.250    3.750    3.500    3.000 
#    0.000    0.000    0.000    0.000    0.000    0.000 
#    0.000    0.000    0.000    0.000    0.000    0.000 
#
# Total GULP energy -89241.631593 kJ/mol
# GULP energy per Si atom -5577.601975 kJ/mol
# Density = 2.415218 g / cm^3
# Si number density = 24.207276 Si / 1000 Ang^3
#
#
#
# Elastic Constant Matrix: (Units=GPa)
#
#
# Indices 1 2 3 4 5 6 
#
# 1 131.8429 11.4125 41.1929 0.0000 -23.0960 0.0000
# 2 11.4125 56.4794 -4.7777 0.0000 -6.2454 0.0000
# 3 41.1929 -4.7777 45.3195 0.0000 -20.4487 0.0000
# 4 0.0000 0.0000 0.0000 27.3308 0.0000 -7.9964
# 5 -23.0960 -6.2454 -20.4487 0.0000 39.2567 0.0000
# 6 0.0000 0.0000 0.0000 -7.9964 0.0000 44.5736
#
#
#
# Elastic Compliance Matrix: (Units=1/GPa)
#
#
# Indices 1 2 3 4 5 6 
#
# 1 0.011135 -0.003010 -0.010064 0.000000 0.000830 0.000000
# 2 -0.003010 0.019461 0.007040 0.000000 0.004992 0.000000
# 3 -0.010064 0.007040 0.038942 0.000000 0.015484 0.000000
# 4 0.000000 0.000000 0.000000 0.038616 0.000000 0.006928
# 5 0.000830 0.004992 0.015484 0.000000 0.034821 0.000000
# 6 0.000000 0.000000 0.000000 0.006928 0.000000 0.023678
#
#
# Mechanical properties :
#
#
# Convention : Reuss Voigt Hill
#
# Bulk Modulus (GPa) = 17.40019 36.58859 26.99439
# Shear Modulus (GPa) = 25.26830 34.61984 29.94407
#
# Velocity S-wave (km/s) = 3.23434 3.78582 3.52090
# Velocity P-wave (km/s) = 4.59908 5.85299 5.26351
#
# Compressibility (1/GPa) = 0.05747065
#
# Stress axis : x y z
#
# Youngs Moduli (GPa) = 89.80648 51.38418 25.67953
#
# Poissons Ratio (x) = 0.15464 0.25844
# Poissons Ratio (y) = 0.27028 -0.18078
# Poissons Ratio (z) = 0.90380 -0.36173
#
# Static dielectric constant tensor:
#      x y z
#    x 1.888470 0.000000 -0.037100 
#    y 0.000000 2.086300 0.000000 
#    z -0.037100 0.000000 1.929200 
# 
# From -- ./inp_files/3406.got.cif
#   From: 2010.05.17/outbox.cif.g08.bks.cpg/sg4_2_cif.got.tgz:3406.got - 2010.06.03 18:43:04.
