data_PCOD9116300
_publ_section_title
;
Structure prediction by ZEFSAII (Michael W. Deem and Ramdas Pophale) SiO2 
 PCOD9116300
Probable space group: P 21
;
_chemical_formula_sum "Si O2"
_cell_formula_units_Z 16
_cell_length_a 12.011336
_cell_length_b 10.384423
_cell_length_c 7.014602
_cell_angle_alpha 90.000000
_cell_angle_beta 118.399006
_cell_angle_gamma 90.000000
_cell_volume 769.644193
_symmetry_space_group_name_H-M "P 21"
_symmetry_group_IT_number 4
_symmetry_cell_setting 'monoclinic'
loop_
_space_group_symop_operation_xyz
x,y,z
-x,1/2+y,-z
loop_
_atom_site_type_symbol
_atom_site_label
_atom_site_fract_x
_atom_site_fract_y
_atom_site_fract_z
Si Si1 0.674668 0.326340 0.087825
Si Si2 0.038688 0.467475 0.978186
Si Si3 0.901462 0.822665 0.359752
Si Si4 0.748166 0.952003 0.546243
Si Si5 0.450935 0.240913 0.647373
Si Si6 0.320552 0.115597 0.870851
Si Si7 0.930701 0.244291 0.154405
Si Si8 0.556439 0.179290 0.327689
O O1 0.725195 0.471199 0.135347
O O2 0.780948 0.237161 0.076320
O O3 0.634622 0.280872 0.265388
O O4 0.545582 0.319518 0.861321
O O5 0.170747 0.478896 0.200740
O O6 0.956661 0.373609 0.049879
O O7 0.048307 0.387821 0.790168
O O8 0.010961 0.617042 0.900787
O O9 0.838234 0.933093 0.438366
O O10 0.793508 0.717286 0.224819
O O11 0.003651 0.760560 0.585422
O O12 0.673126 0.819550 0.510979
O O13 0.644299 0.055427 0.409784
O O14 0.398441 0.125000 0.734778
O O15 0.526464 0.213448 0.519082
O O16 0.423907 0.152801 0.113816
#
# Coordination Sequence:
#
# PCOD9116300 Si02
#       8
#     2   2   2   2   2   2   2   2
#     4  11  24  41  64 100 132 168 223 274 324 400
#     4  11  25  46  70  95 134 174 226 284 328 403
#     4  10  24  44  68  90 131 177 220 274 336 385
#     4  10  21  42  63  95 127 168 216 260 340 397
#     4  10  22  40  62  99 127 169 212 263 337 399
#     4  10  23  41  64  95 131 169 216 274 328 401
#     4  11  27  45  68 102 131 180 231 275 336 391
#     4  11  22  39  67  92 133 167 208 272 331 398
#
# _framework density 20.788827000000001
#
# number of rings (size 3 to 8) (size 9 to 14) (size 15 to 20)
#    0.000    1.500    1.250    2.250    5.250    4.000 
#    0.000    0.000    0.000    0.000    0.000    0.000 
#    0.000    0.000    0.000    0.000    0.000    0.000 
#
# Total GULP energy -89324.013956 kJ/mol
# GULP energy per Si atom -5582.750872 kJ/mol
# Density = 2.074151 g / cm^3
# Si number density = 20.788827 Si / 1000 Ang^3
#
#
#
# Elastic Constant Matrix: (Units=GPa)
#
#
# Indices 1 2 3 4 5 6 
#
# 1 57.3215 11.0040 17.1891 0.0000 -11.7760 0.0000
# 2 11.0040 79.5813 23.1574 0.0000 -17.1600 0.0000
# 3 17.1891 23.1574 96.5355 0.0000 -4.2323 0.0000
# 4 0.0000 0.0000 0.0000 10.3368 0.0000 -1.1309
# 5 -11.7760 -17.1600 -4.2323 0.0000 28.8177 0.0000
# 6 0.0000 0.0000 0.0000 -1.1309 0.0000 25.7201
#
#
#
# Elastic Compliance Matrix: (Units=1/GPa)
#
#
# Indices 1 2 3 4 5 6 
#
# 1 0.019996 -0.000205 -0.003179 0.000000 0.007582 0.000000
# 2 -0.000205 0.015405 -0.003282 0.000000 0.008607 0.000000
# 3 -0.003179 -0.003282 0.011644 0.000000 -0.001543 0.000000
# 4 0.000000 0.000000 0.000000 0.097210 0.000000 0.004274
# 5 0.007582 0.008607 -0.001543 0.000000 0.042698 0.000000
# 6 0.000000 0.000000 0.000000 0.004274 0.000000 0.039068
#
#
# Mechanical properties :
#
#
# Convention : Reuss Voigt Hill
#
# Bulk Modulus (GPa) = 29.66086 37.34880 33.50483
# Shear Modulus (GPa) = 19.95292 25.11409 22.53351
#
# Velocity S-wave (km/s) = 3.10141 3.47948 3.29587
# Velocity P-wave (km/s) = 5.20804 5.84356 5.53493
#
# Compressibility (1/GPa) = 0.03371447
#
# Stress axis : x y z
#
# Youngs Moduli (GPa) = 50.01071 64.91387 85.87771
#
# Poissons Ratio (x) = 0.01330 0.27299
# Poissons Ratio (y) = 0.01025 0.28181
# Poissons Ratio (z) = 0.15898 0.21302
#
# Static dielectric constant tensor:
#      x y z
#    x 1.779910 0.000000 -0.021720 
#    y 0.000000 1.771320 0.000000 
#    z -0.021720 0.000000 1.722480 
# 
# From -- ./inp_files/2663.got.cif
#   From: 2010.05.17/outbox.cif.g08.bks.cpg/sg4_2_cif.got.tgz:2663.got - 2010.06.03 18:43:04.
