data_PCOD9116821
_publ_section_title
;
Structure prediction by ZEFSAII (Michael W. Deem and Ramdas Pophale) SiO2 
 PCOD9116821
Probable space group: P 21
;
_chemical_formula_sum "Si O2"
_cell_formula_units_Z 14
_cell_length_a 10.691353
_cell_length_b 7.988030
_cell_length_c 7.066634
_cell_angle_alpha 90.000000
_cell_angle_beta 98.643638
_cell_angle_gamma 90.000000
_cell_volume 596.656122
_symmetry_space_group_name_H-M "P 21"
_symmetry_group_IT_number 4
_symmetry_cell_setting 'monoclinic'
loop_
_space_group_symop_operation_xyz
x,y,z
-x,1/2+y,-z
loop_
_atom_site_type_symbol
_atom_site_label
_atom_site_fract_x
_atom_site_fract_y
_atom_site_fract_z
Si Si1 0.606626 0.598380 0.692725
Si Si2 0.647340 0.054911 0.857356
Si Si3 0.800798 0.878400 0.599982
Si Si4 0.592794 0.364296 0.354132
Si Si5 0.989197 0.245332 0.071063
Si Si6 0.274526 0.899144 0.970947
Si Si7 0.846972 0.908583 0.168191
O O1 0.695716 0.733975 0.609319
O O2 0.608325 0.431809 0.567703
O O3 0.468027 0.680306 0.667920
O O4 0.665024 0.555524 0.908847
O O5 0.644491 0.238944 0.940482
O O6 0.740499 0.037164 0.696486
O O7 0.513388 0.982501 0.767190
O O8 0.714459 0.938291 0.030399
O O9 0.828253 0.902396 0.386871
O O10 0.924568 0.821208 0.742831
O O11 0.714622 0.392288 0.252723
O O12 0.929851 0.070289 0.124091
O O13 0.867707 0.360663 0.002590
O O14 0.078442 0.251866 0.905932
#
# Coordination Sequence:
#
# PCOD9116821 Si02
#       7
#     2   2   2   2   2   2   2
#     4  11  25  41  64  96 124 162 215 254 308 382
#     4   9  22  41  61  90 121 161 213 253 305 375
#     4  10  23  42  65  91 126 165 207 261 312 364
#     4  11  24  41  64  92 127 165 205 259 312 367
#     4  10  23  40  62  94 123 162 214 255 306 376
#     4  11  23  40  63  90 126 165 205 259 314 364
#     4  10  22  41  63  87 125 164 205 261 313 362
#
# _framework density 23.464102
#
# number of rings (size 3 to 8) (size 9 to 14) (size 15 to 20)
#    0.000    1.714    0.000    2.571    0.000   20.571 
#    0.000    0.000    0.000    0.000    0.000    0.000 
#    0.000    0.000    0.000    0.000    0.000    0.000 
#
# Total GULP energy -78359.488178 kJ/mol
# GULP energy per Si atom -5597.106298 kJ/mol
# Density = 2.341070 g / cm^3
# Si number density = 23.464102 Si / 1000 Ang^3
#
#
#
# Elastic Constant Matrix: (Units=GPa)
#
#
# Indices 1 2 3 4 5 6 
#
# 1 33.2682 -3.0975 6.7048 0.0000 -3.4862 0.0000
# 2 -3.0975 69.6356 6.8630 0.0000 -13.0932 0.0000
# 3 6.7048 6.8630 131.4351 0.0000 -30.7005 0.0000
# 4 0.0000 0.0000 0.0000 28.5569 0.0000 5.3532
# 5 -3.4862 -13.0932 -30.7005 0.0000 37.7061 0.0000
# 6 0.0000 0.0000 0.0000 5.3532 0.0000 32.2095
#
#
#
# Elastic Compliance Matrix: (Units=1/GPa)
#
#
# Indices 1 2 3 4 5 6 
#
# 1 0.030734 0.001973 -0.001046 0.000000 0.002675 0.000000
# 2 0.001973 0.015522 0.000482 0.000000 0.005965 0.000000
# 3 -0.001046 0.000482 0.009450 0.000000 0.007765 0.000000
# 4 0.000000 0.000000 0.000000 0.036144 0.000000 -0.006007
# 5 0.002675 0.005965 0.007765 0.000000 0.035162 0.000000
# 6 0.000000 0.000000 0.000000 -0.006007 0.000000 0.032045
#
#
# Mechanical properties :
#
#
# Convention : Reuss Voigt Hill
#
# Bulk Modulus (GPa) = 17.08680 28.36439 22.72559
# Shear Modulus (GPa) = 28.45005 34.61909 31.53457
#
# Velocity S-wave (km/s) = 3.48586 3.84527 3.66997
# Velocity P-wave (km/s) = 4.84764 5.64176 5.25971
#
# Compressibility (1/GPa) = 0.05852470
#
# Stress axis : x y z
#
# Youngs Moduli (GPa) = 32.53774 64.42354 105.81697
#
# Poissons Ratio (x) = -0.12712 0.11068
# Poissons Ratio (y) = -0.06420 -0.05102
# Poissons Ratio (z) = 0.03403 -0.03106
#
# Static dielectric constant tensor:
#      x y z
#    x 1.865400 0.000000 -0.021760 
#    y 0.000000 1.955840 0.000000 
#    z -0.021760 0.000000 1.862900 
# 
# From -- ./inp_files/2370.got.cif
#   From: 2010.05.17/outbox.cif.g08.bks.cpg/sg4_2_cif.got.tgz:2370.got - 2010.06.03 18:43:04.
