data_PCOD9116014
_publ_section_title
;
Structure prediction by ZEFSAII (Michael W. Deem and Ramdas Pophale) SiO2 
 PCOD9116014
Probable space group: P 21
;
_chemical_formula_sum "Si O2"
_cell_formula_units_Z 12
_cell_length_a 8.233631
_cell_length_b 8.116628
_cell_length_c 9.771239
_cell_angle_alpha 90.000000
_cell_angle_beta 132.885353
_cell_angle_gamma 90.000000
_cell_volume 478.467983
_symmetry_space_group_name_H-M "P 21"
_symmetry_group_IT_number 4
_symmetry_cell_setting 'monoclinic'
loop_
_space_group_symop_operation_xyz
x,y,z
-x,1/2+y,-z
loop_
_atom_site_type_symbol
_atom_site_label
_atom_site_fract_x
_atom_site_fract_y
_atom_site_fract_z
Si Si1 0.300818 0.926380 0.636877
Si Si2 0.333927 0.296183 0.541183
Si Si3 0.828991 0.903550 0.269236
Si Si4 0.218321 0.899645 0.147395
Si Si5 0.252519 0.263279 0.048269
Si Si6 0.857557 0.276066 0.180401
O O1 0.235849 0.902963 0.760291
O O2 0.084639 0.850535 0.439037
O O3 0.324883 0.110256 0.593487
O O4 0.535467 0.839862 0.757292
O O5 0.279419 0.404299 0.643880
O O6 0.122885 0.310575 0.320807
O O7 0.577512 0.354021 0.636635
O O8 0.712169 0.782238 0.095008
O O9 0.824078 0.091276 0.215002
O O10 0.247118 0.790085 0.027893
O O11 0.222905 0.083555 0.092688
O O12 0.976927 0.861629 0.066289
#
# Coordination Sequence:
#
# PCOD9116014 Si02
#       6
#     2   2   2   2   2   2
#     4  10  21  39  63  89 117 151 193 239 286 339
#     4  10  21  39  63  89 117 151 193 239 286 339
#     4  10  21  39  63  89 117 151 193 239 286 339
#     4  12  25  40  59  84 118 156 194 238 289 346
#     4  12  25  40  59  84 118 156 194 238 289 346
#     4  10  21  39  63  89 117 151 193 239 286 339
#
# _framework density 25.080051000000001
#
# number of rings (size 3 to 8) (size 9 to 14) (size 15 to 20)
#    0.000    1.333    0.000    6.000    0.000    5.333 
#    0.000    0.000    0.000    0.000    0.000    0.000 
#    0.000    0.000    0.000    0.000    0.000    0.000 
#
# Total GULP energy -67240.538927 kJ/mol
# GULP energy per Si atom -5603.378244 kJ/mol
# Density = 2.502297 g / cm^3
# Si number density = 25.080051 Si / 1000 Ang^3
#
#
#
# Elastic Constant Matrix: (Units=GPa)
#
#
# Indices 1 2 3 4 5 6 
#
# 1 63.7306 -0.7848 22.6353 0.0000 20.8640 0.0000
# 2 -0.7848 59.9221 9.5727 0.0000 11.7555 0.0000
# 3 22.6353 9.5727 129.9333 0.0000 29.5348 0.0000
# 4 0.0000 0.0000 0.0000 33.2981 0.0000 5.0980
# 5 20.8640 11.7555 29.5348 0.0000 52.0999 0.0000
# 6 0.0000 0.0000 0.0000 5.0980 0.0000 31.4796
#
#
#
# Elastic Compliance Matrix: (Units=1/GPa)
#
#
# Indices 1 2 3 4 5 6 
#
# 1 0.018601 0.001877 -0.001824 0.000000 -0.006838 0.000000
# 2 0.001877 0.017673 -0.000633 0.000000 -0.004380 0.000000
# 3 -0.001824 -0.000633 0.009025 0.000000 -0.004243 0.000000
# 4 0.000000 0.000000 0.000000 0.030795 0.000000 -0.004987
# 5 -0.006838 -0.004380 -0.004243 0.000000 0.025326 0.000000
# 6 0.000000 0.000000 0.000000 -0.004987 0.000000 0.032574
#
#
# Mechanical properties :
#
#
# Convention : Reuss Voigt Hill
#
# Bulk Modulus (GPa) = 22.65663 35.15916 28.90790
# Shear Modulus (GPa) = 33.36244 38.18636 35.77440
#
# Velocity S-wave (km/s) = 3.65120 3.90626 3.78088
# Velocity P-wave (km/s) = 5.17961 5.86467 5.53275
#
# Compressibility (1/GPa) = 0.04413718
#
# Stress axis : x y z
#
# Youngs Moduli (GPa) = 53.76134 56.58218 110.80173
#
# Poissons Ratio (x) = -0.10618 0.20213
# Poissons Ratio (y) = -0.10089 0.07017
# Poissons Ratio (z) = 0.09808 0.03584
#
# Static dielectric constant tensor:
#      x y z
#    x 2.065840 0.000000 0.018750 
#    y 0.000000 1.932970 0.000000 
#    z 0.018750 0.000000 1.942530 
# 
# From -- ./inp_files/5614.got.cif
#   From: 2010.05.17/outbox.cif.g08.bks.cpg/sg4_3_cif.got.tgz:5614.got - 2010.06.03 18:43:04.
