data_PCOD9116303
_publ_section_title
;
Structure prediction by ZEFSAII (Michael W. Deem and Ramdas Pophale) SiO2 
 PCOD9116303
Probable space group: P 21
;
_chemical_formula_sum "Si O2"
_cell_formula_units_Z 16
_cell_length_a 6.840727
_cell_length_b 13.582118
_cell_length_c 11.893025
_cell_angle_alpha 90.000000
_cell_angle_beta 39.948903
_cell_angle_gamma 90.000000
_cell_volume 709.524820
_symmetry_space_group_name_H-M "P 21"
_symmetry_group_IT_number 4
_symmetry_cell_setting 'monoclinic'
loop_
_space_group_symop_operation_xyz
x,y,z
-x,1/2+y,-z
loop_
_atom_site_type_symbol
_atom_site_label
_atom_site_fract_x
_atom_site_fract_y
_atom_site_fract_z
Si Si1 0.291835 0.137810 0.481584
Si Si2 0.566904 0.961044 0.474709
Si Si3 0.952792 0.676269 0.162592
Si Si4 0.417643 0.225226 0.887895
Si Si5 0.186217 0.778542 0.716022
Si Si6 0.520284 0.053886 0.020515
Si Si7 0.943395 0.125194 0.417692
Si Si8 0.205520 0.858052 0.144039
O O1 0.183447 0.171702 0.652292
O O2 0.567969 0.209823 0.328259
O O3 0.024603 0.142930 0.509977
O O4 0.418225 0.027203 0.442156
O O5 0.329785 0.884289 0.629706
O O6 0.868829 0.903722 0.301499
O O7 0.689790 0.041985 0.508897
O O8 0.159341 0.578701 0.061486
O O9 0.181259 0.770233 0.064411
O O10 0.695243 0.695413 0.184959
O O11 0.124289 0.273906 0.078558
O O12 0.493545 0.128018 0.927007
O O13 0.681229 0.305562 0.791000
O O14 0.133434 0.721778 0.620818
O O15 0.250336 0.081862 0.225084
O O16 0.445214 0.944177 0.013803
#
# Coordination Sequence:
#
# PCOD9116303 Si02
#       8
#     2   2   2   2   2   2   2   2
#     4  11  23  40  65  94 131 166 214 268 320 378
#     4  10  22  40  62 100 127 161 218 263 321 380
#     4  11  23  41  63  98 128 168 214 263 318 383
#     4  10  23  41  68  89 129 172 209 263 318 381
#     4  10  21  42  64  94 127 164 220 261 316 381
#     4   9  21  41  62  89 124 164 219 255 320 375
#     4   9  21  41  65  89 125 173 206 266 322 374
#     4  10  22  42  63  95 129 168 214 263 321 382
#
# _framework density 22.550304000000001
#
# number of rings (size 3 to 8) (size 9 to 14) (size 15 to 20)
#    0.000    2.000    1.250    1.500    1.750    8.000 
#    2.250    0.000    0.000    0.000    0.000    0.000 
#    0.000    0.000    0.000    0.000    0.000    0.000 
#
# Total GULP energy -89458.232999 kJ/mol
# GULP energy per Si atom -5591.139562 kJ/mol
# Density = 2.249898 g / cm^3
# Si number density = 22.550304 Si / 1000 Ang^3
#
#
#
# Elastic Constant Matrix: (Units=GPa)
#
#
# Indices 1 2 3 4 5 6 
#
# 1 140.9020 29.8900 7.7096 0.0000 7.9670 0.0000
# 2 29.8900 96.1048 15.0534 0.0000 -2.3411 0.0000
# 3 7.7096 15.0534 52.8682 0.0000 -1.6800 0.0000
# 4 0.0000 0.0000 0.0000 33.4052 0.0000 -21.6189
# 5 7.9670 -2.3411 -1.6800 0.0000 33.2839 0.0000
# 6 0.0000 0.0000 0.0000 -21.6189 0.0000 32.6296
#
#
#
# Elastic Compliance Matrix: (Units=1/GPa)
#
#
# Indices 1 2 3 4 5 6 
#
# 1 0.007746 -0.002378 -0.000518 0.000000 -0.002047 0.000000
# 2 -0.002378 0.011633 -0.002926 0.000000 0.001240 0.000000
# 3 -0.000518 -0.002926 0.019853 0.000000 0.000920 0.000000
# 4 0.000000 0.000000 0.000000 0.052407 0.000000 0.034723
# 5 -0.002047 0.001240 0.000920 0.000000 0.030668 0.000000
# 6 0.000000 0.000000 0.000000 0.034723 0.000000 0.053653
#
#
# Mechanical properties :
#
#
# Convention : Reuss Voigt Hill
#
# Bulk Modulus (GPa) = 36.24680 43.90899 40.07790
# Shear Modulus (GPa) = 25.40658 35.67854 30.54256
#
# Velocity S-wave (km/s) = 3.36022 3.98197 3.68424
# Velocity P-wave (km/s) = 5.58242 6.37615 5.99244
#
# Compressibility (1/GPa) = 0.02758864
#
# Stress axis : x y z
#
# Youngs Moduli (GPa) = 129.10504 85.95937 50.37052
#
# Poissons Ratio (x) = 0.20440 0.02607
# Poissons Ratio (y) = 0.30699 0.14740
# Poissons Ratio (z) = 0.06682 0.25154
#
# Static dielectric constant tensor:
#      x y z
#    x 1.843610 0.000000 -0.036880 
#    y 0.000000 1.851840 0.000000 
#    z -0.036880 0.000000 1.866260 
# 
# From -- ./inp_files/8271.got.cif
#   From: 2010.05.17/outbox.cif.g08.bks.cpg/sg4_5_cif.got.tgz:8271.got - 2010.06.03 18:43:04.
