data_PCOD9116250
_publ_section_title
;
Structure prediction by ZEFSAII (Michael W. Deem and Ramdas Pophale) SiO2 
 PCOD9116250
Probable space group: P 21
;
_chemical_formula_sum "Si O2"
_cell_formula_units_Z 14
_cell_length_a 7.694052
_cell_length_b 12.778619
_cell_length_c 9.363492
_cell_angle_alpha 90.000000
_cell_angle_beta 145.089979
_cell_angle_gamma 90.000000
_cell_volume 526.856710
_symmetry_space_group_name_H-M "P 21"
_symmetry_group_IT_number 4
_symmetry_cell_setting 'monoclinic'
loop_
_space_group_symop_operation_xyz
x,y,z
-x,1/2+y,-z
loop_
_atom_site_type_symbol
_atom_site_label
_atom_site_fract_x
_atom_site_fract_y
_atom_site_fract_z
Si Si1 0.105395 0.153220 0.320400
Si Si2 0.607721 0.868098 0.549468
Si Si3 0.357598 0.749197 0.764332
Si Si4 0.156818 0.139621 0.867613
Si Si5 0.005999 0.851926 0.282470
Si Si6 0.728919 0.057174 0.816866
Si Si7 0.004567 0.959155 0.561927
O O1 0.264677 0.251805 0.349241
O O2 0.383481 0.096111 0.586731
O O3 0.867979 0.204344 0.266321
O O4 0.919795 0.082529 0.084682
O O5 0.241759 0.875899 0.315791
O O6 0.746473 0.914916 0.496980
O O7 0.719367 0.937926 0.758096
O O8 0.195678 0.765183 0.500790
O O9 0.290555 0.879093 0.761249
O O10 0.519514 0.625609 0.840129
O O11 0.259572 0.267438 0.935804
O O12 0.894347 0.119130 0.801103
O O13 0.118179 0.068191 0.704903
O O14 0.915740 0.939303 0.335613
#
# Coordination Sequence:
#
# PCOD9116250 Si02
#       7
#     2   2   2   2   2   2   2
#     4  11  24  45  68 102 141 180 232 289 343 415
#     4  10  21  45  66 101 140 178 237 287 344 416
#     4   9  23  40  63  95 136 174 229 279 339 404
#     4  11  21  43  68  94 136 183 223 286 342 414
#     4  10  21  41  67  93 133 173 231 275 340 407
#     4  11  26  43  73 101 136 188 231 285 355 408
#     4   8  22  41  59  98 136 168 231 281 345 404
#
# _framework density 26.572690999999999
#
# number of rings (size 3 to 8) (size 9 to 14) (size 15 to 20)
#    0.857    1.143    1.429    0.857    4.000    1.143 
#    7.714    2.857    0.000    0.000    0.000    0.000 
#    0.000    0.000    0.000    0.000    0.000    0.000 
#
# Total GULP energy -78102.110775 kJ/mol
# GULP energy per Si atom -5578.722198 kJ/mol
# Density = 2.651221 g / cm^3
# Si number density = 26.572691 Si / 1000 Ang^3
#
#
#
# Elastic Constant Matrix: (Units=GPa)
#
#
# Indices 1 2 3 4 5 6 
#
# 1 141.8922 39.1172 70.0482 0.0000 13.9166 0.0000
# 2 39.1172 113.4803 51.4686 0.0000 0.0944 0.0000
# 3 70.0482 51.4686 164.7589 0.0000 13.5559 0.0000
# 4 0.0000 0.0000 0.0000 44.4201 0.0000 -0.8893
# 5 13.9166 0.0944 13.5559 0.0000 29.7552 0.0000
# 6 0.0000 0.0000 0.0000 -0.8893 0.0000 33.1614
#
#
#
# Elastic Compliance Matrix: (Units=1/GPa)
#
#
# Indices 1 2 3 4 5 6 
#
# 1 0.009408 -0.001790 -0.003199 0.000000 -0.002937 0.000000
# 2 -0.001790 0.010671 -0.002741 0.000000 0.002052 0.000000
# 3 -0.003199 -0.002741 0.008480 0.000000 -0.002358 0.000000
# 4 0.000000 0.000000 0.000000 0.022524 0.000000 0.000604
# 5 -0.002937 0.002052 -0.002358 0.000000 0.036049 0.000000
# 6 0.000000 0.000000 0.000000 0.000604 0.000000 0.030172
#
#
# Mechanical properties :
#
#
# Convention : Reuss Voigt Hill
#
# Bulk Modulus (GPa) = 76.34440 82.37772 79.36106
# Shear Modulus (GPa) = 36.46138 38.76716 37.61427
#
# Velocity S-wave (km/s) = 3.70826 3.82371 3.76643
# Velocity P-wave (km/s) = 6.86496 7.11074 6.98893
#
# Compressibility (1/GPa) = 0.01309854
#
# Stress axis : x y z
#
# Youngs Moduli (GPa) = 106.28716 93.71530 117.92330
#
# Poissons Ratio (x) = 0.16772 0.37728
# Poissons Ratio (y) = 0.19022 0.32327
# Poissons Ratio (z) = 0.34005 0.25690
#
# Static dielectric constant tensor:
#      x y z
#    x 2.039240 0.000000 -0.028130 
#    y 0.000000 2.565480 0.000000 
#    z -0.028130 0.000000 2.197500 
# 
# From -- ./inp_files/11407.got.cif
#   From: 2010.05.17/outbox.cif.g08.bks.cpg/sg4_6_cif.got.tgz:11407.got - 2010.06.03 18:43:04.
