data_PCOD9116708
_publ_section_title
;
Structure prediction by ZEFSAII (Michael W. Deem and Ramdas Pophale) SiO2 
 PCOD9116708
Probable space group: P 21
;
_chemical_formula_sum "Si O2"
_cell_formula_units_Z 16
_cell_length_a 11.467515
_cell_length_b 8.348263
_cell_length_c 13.891206
_cell_angle_alpha 90.000000
_cell_angle_beta 151.029282
_cell_angle_gamma 90.000000
_cell_volume 644.133614
_symmetry_space_group_name_H-M "P 21"
_symmetry_group_IT_number 4
_symmetry_cell_setting 'monoclinic'
loop_
_space_group_symop_operation_xyz
x,y,z
-x,1/2+y,-z
loop_
_atom_site_type_symbol
_atom_site_label
_atom_site_fract_x
_atom_site_fract_y
_atom_site_fract_z
Si Si1 0.484173 0.870820 0.269692
Si Si2 0.699124 0.683213 0.258382
Si Si3 0.569489 0.874798 0.981527
Si Si4 0.503166 0.646479 0.469426
Si Si5 0.231064 0.663792 0.608359
Si Si6 0.017788 0.090209 0.953015
Si Si7 0.382610 0.863135 0.552422
Si Si8 0.843453 0.946873 0.006247
O O1 0.529424 0.732004 0.224362
O O2 0.504351 0.786329 0.388817
O O3 0.686730 0.999145 0.382839
O O4 0.232221 0.968805 0.081623
O O5 0.625083 0.515277 0.157904
O O6 0.981321 0.666049 0.485173
O O7 0.650149 0.817104 0.143011
O O8 0.444711 0.729907 0.830996
O O9 0.789453 0.948470 0.079344
O O10 0.506166 0.726367 0.575887
O O11 0.687192 0.508046 0.568787
O O12 0.244339 0.553917 0.280585
O O13 0.199906 0.781618 0.493769
O O14 0.055493 0.270779 0.945917
O O15 0.977492 0.078121 0.038868
O O16 0.580047 0.935130 0.766428
#
# Coordination Sequence:
#
# PCOD9116708 Si02
#       8
#     2   2   2   2   2   2   2   2
#     4  12  23  43  70  97 133 174 223 279 332 399
#     4  12  27  45  70  96 134 183 229 278 334 390
#     4  11  25  46  68 100 136 174 234 275 332 403
#     4  11  24  40  66  99 133 173 215 270 339 406
#     4  11  24  45  71  94 134 177 225 287 331 391
#     4  11  21  38  69  93 131 169 212 266 340 390
#     4  10  22  40  62  97 133 169 214 270 334 399
#     4  10  22  41  64  96 134 169 214 273 332 398
#
# _framework density 24.839566999999999
#
# number of rings (size 3 to 8) (size 9 to 14) (size 15 to 20)
#    0.000    1.000    3.750    4.500    1.750    0.000 
#    0.000    3.750    0.000    0.000    0.000    0.000 
#    0.000    0.000    0.000    0.000    0.000    0.000 
#
# Total GULP energy -89472.680590 kJ/mol
# GULP energy per Si atom -5592.042537 kJ/mol
# Density = 2.478303 g / cm^3
# Si number density = 24.839567 Si / 1000 Ang^3
#
#
#
# Elastic Constant Matrix: (Units=GPa)
#
#
# Indices 1 2 3 4 5 6 
#
# 1 108.7420 6.0115 19.3117 0.0000 -1.7288 0.0000
# 2 6.0115 77.7947 3.2012 0.0000 10.3256 0.0000
# 3 19.3117 3.2012 47.9492 0.0000 7.4781 0.0000
# 4 0.0000 0.0000 0.0000 29.1792 0.0000 -2.1694
# 5 -1.7288 10.3256 7.4781 0.0000 36.0768 0.0000
# 6 0.0000 0.0000 0.0000 -2.1694 0.0000 50.7195
#
#
#
# Elastic Compliance Matrix: (Units=1/GPa)
#
#
# Indices 1 2 3 4 5 6 
#
# 1 0.010017 -0.000811 -0.004228 0.000000 0.001589 0.000000
# 2 -0.000811 0.013432 0.000037 0.000000 -0.003891 0.000000
# 3 -0.004228 0.000037 0.023344 0.000000 -0.005052 0.000000
# 4 0.000000 0.000000 0.000000 0.034380 0.000000 0.001471
# 5 0.001589 -0.003891 -0.005052 0.000000 0.029956 0.000000
# 6 0.000000 0.000000 0.000000 0.001471 0.000000 0.019779
#
#
# Mechanical properties :
#
#
# Convention : Reuss Voigt Hill
#
# Bulk Modulus (GPa) = 27.18266 32.39273 29.78769
# Shear Modulus (GPa) = 32.64245 36.92587 34.78416
#
# Velocity S-wave (km/s) = 3.62903 3.85980 3.74619
# Velocity P-wave (km/s) = 5.34105 5.73874 5.54346
#
# Compressibility (1/GPa) = 0.03678815
#
# Stress axis : x y z
#
# Youngs Moduli (GPa) = 99.83014 74.44946 42.83816
#
# Poissons Ratio (x) = 0.06037 0.18112
# Poissons Ratio (y) = 0.08095 -0.00157
# Poissons Ratio (z) = 0.42208 -0.00273
#
# Static dielectric constant tensor:
#      x y z
#    x 1.961770 0.000000 0.016590 
#    y 0.000000 2.036160 0.000000 
#    z 0.016590 0.000000 2.030880 
# 
# From -- ./inp_files/13977.got.cif
#   From: 2010.05.17/outbox.cif.g08.bks.cpg/sg4_7_cif.got.tgz:13977.got - 2010.06.03 18:43:04.
