data_PCOD9116448
_publ_section_title
;
Structure prediction by ZEFSAII (Michael W. Deem and Ramdas Pophale) SiO2 
 PCOD9116448
Probable space group: P 21
;
_chemical_formula_sum "Si O2"
_cell_formula_units_Z 12
_cell_length_a 8.259429
_cell_length_b 7.679314
_cell_length_c 10.402811
_cell_angle_alpha 90.000000
_cell_angle_beta 133.555769
_cell_angle_gamma 90.000000
_cell_volume 478.171652
_symmetry_space_group_name_H-M "P 21"
_symmetry_group_IT_number 4
_symmetry_cell_setting 'monoclinic'
loop_
_space_group_symop_operation_xyz
x,y,z
-x,1/2+y,-z
loop_
_atom_site_type_symbol
_atom_site_label
_atom_site_fract_x
_atom_site_fract_y
_atom_site_fract_z
Si Si1 0.596386 0.482450 0.750749
Si Si2 0.732046 0.095491 0.991491
Si Si3 0.274840 0.996793 0.658571
Si Si4 0.114576 0.300935 0.124920
Si Si5 0.445809 0.191989 0.505782
Si Si6 0.205074 0.594685 0.682455
O O1 0.799202 0.614860 0.885368
O O2 0.461157 0.603271 0.569790
O O3 0.411199 0.470952 0.757729
O O4 0.617586 0.310967 0.675723
O O5 0.832285 0.063106 0.186628
O O6 0.852187 0.275488 0.012002
O O7 0.464191 0.089453 0.848764
O O8 0.354745 0.050894 0.557957
O O9 0.019184 0.058463 0.520389
O O10 0.276439 0.794472 0.697219
O O11 0.241046 0.302616 0.331584
O O12 0.198961 0.445633 0.072719
#
# Coordination Sequence:
#
# PCOD9116448 Si02
#       6
#     2   2   2   2   2   2
#     4  10  21  43  76 109 150 200 252 314 380 448
#     4  12  27  52  73 117 156 202 258 314 388 456
#     4  12  26  51  79 111 154 208 252 318 393 447
#     4  10  25  49  75 109 152 207 259 311 383 451
#     4  10  21  46  74 113 146 196 266 306 372 462
#     4  12  26  49  75 117 158 197 259 317 390 460
#
# _framework density 25.095589
#
# number of rings (size 3 to 8) (size 9 to 14) (size 15 to 20)
#    1.000    0.000    3.333    3.000    2.333    2.667 
#    3.000    0.000    0.000    0.000    0.000    0.000 
#    0.000    0.000    0.000    0.000    0.000    0.000 
#
# Total GULP energy -66963.087585 kJ/mol
# GULP energy per Si atom -5580.257299 kJ/mol
# Density = 2.503847 g / cm^3
# Si number density = 25.095589 Si / 1000 Ang^3
#
#
#
# Elastic Constant Matrix: (Units=GPa)
#
#
# Indices 1 2 3 4 5 6 
#
# 1 35.0410 -15.6431 -10.8770 0.0000 4.6717 0.0000
# 2 -15.6431 81.9585 -12.8971 0.0000 -6.6391 0.0000
# 3 -10.8770 -12.8971 100.6946 0.0000 8.7913 0.0000
# 4 0.0000 0.0000 0.0000 22.8810 0.0000 4.3501
# 5 4.6717 -6.6391 8.7913 0.0000 48.1533 0.0000
# 6 0.0000 0.0000 0.0000 4.3501 0.0000 52.4517
#
#
#
# Elastic Compliance Matrix: (Units=1/GPa)
#
#
# Indices 1 2 3 4 5 6 
#
# 1 0.033523 0.006894 0.004781 0.000000 -0.003175 0.000000
# 2 0.006894 0.013970 0.002463 0.000000 0.000808 0.000000
# 3 0.004781 0.002463 0.010948 0.000000 -0.002123 0.000000
# 4 0.000000 0.000000 0.000000 0.044404 0.000000 -0.003683
# 5 -0.003175 0.000808 -0.002123 0.000000 0.021574 0.000000
# 6 0.000000 0.000000 0.000000 -0.003683 0.000000 0.019371
#
#
# Mechanical properties :
#
#
# Convention : Reuss Voigt Hill
#
# Bulk Modulus (GPa) = 11.53164 15.42886 13.48025
# Shear Modulus (GPa) = 34.62129 41.83797 38.22963
#
# Velocity S-wave (km/s) = 3.71829 4.08750 3.90726
# Velocity P-wave (km/s) = 4.79993 5.33275 5.07334
#
# Compressibility (1/GPa) = 0.08671794
#
# Stress axis : x y z
#
# Youngs Moduli (GPa) = 29.83036 71.58136 91.33783
#
# Poissons Ratio (x) = -0.49345 -0.43671
# Poissons Ratio (y) = -0.20564 -0.22501
# Poissons Ratio (z) = -0.14263 -0.17634
#
# Static dielectric constant tensor:
#      x y z
#    x 1.954570 0.000000 0.044920 
#    y 0.000000 2.180790 0.000000 
#    z 0.044920 0.000000 2.053110 
# 
# From -- ./inp_files/10821.got.cif
#   From: 2010.05.17/outbox.cif.g08.bks.cpg/sg4_6_cif.got.tgz:10821.got - 2010.06.03 18:43:04.
