data_PCOD9116379
_publ_section_title
;
Structure prediction by ZEFSAII (Michael W. Deem and Ramdas Pophale) SiO2 
 PCOD9116379
Probable space group: P 21
;
_chemical_formula_sum "Si O2"
_cell_formula_units_Z 16
_cell_length_a 7.879619
_cell_length_b 11.058415
_cell_length_c 12.291186
_cell_angle_alpha 90.000000
_cell_angle_beta 141.855348
_cell_angle_gamma 90.000000
_cell_volume 661.505732
_symmetry_space_group_name_H-M "P 21"
_symmetry_group_IT_number 4
_symmetry_cell_setting 'monoclinic'
loop_
_space_group_symop_operation_xyz
x,y,z
-x,1/2+y,-z
loop_
_atom_site_type_symbol
_atom_site_label
_atom_site_fract_x
_atom_site_fract_y
_atom_site_fract_z
Si Si1 0.155264 0.542120 0.647093
Si Si2 0.872748 0.024517 0.758555
Si Si3 0.896234 0.030938 0.129847
Si Si4 0.336435 0.292837 0.795954
Si Si5 0.451254 0.059363 0.740159
Si Si6 0.823114 0.771861 0.802349
Si Si7 0.811236 0.775171 0.050578
Si Si8 0.266849 0.680256 0.505028
O O1 0.098924 0.573185 0.743558
O O2 0.301892 0.640402 0.647299
O O3 0.345924 0.425839 0.754633
O O4 0.860799 0.519807 0.439779
O O5 0.630026 0.032132 0.724908
O O6 0.070030 0.138623 0.882183
O O7 0.763755 0.060379 0.584284
O O8 0.977333 0.887078 0.827153
O O9 0.038173 0.140212 0.137789
O O10 0.594490 0.013107 0.923186
O O11 0.005418 0.893274 0.176652
O O12 0.410021 0.280043 0.960968
O O13 0.014836 0.253736 0.639325
O O14 0.459852 0.201953 0.771286
O O15 0.526040 0.756186 0.596820
O O16 0.768039 0.796681 0.901261
#
# Coordination Sequence:
#
# PCOD9116379 Si02
#       8
#     2   2   2   2   2   2   2   2
#     4  10  23  44  62  93 133 174 221 269 329 391
#     4  11  23  42  66  96 134 173 219 275 331 396
#     4  11  24  42  70  99 130 177 219 271 334 396
#     4   9  22  40  63  91 128 173 219 273 326 388
#     4  11  21  41  65  92 131 171 216 272 325 386
#     4  12  22  41  66 101 131 174 218 274 337 391
#     4  10  21  43  63  96 132 167 220 269 329 395
#     4  10  24  39  63  94 129 175 222 269 327 395
#
# _framework density 24.187244
#
# number of rings (size 3 to 8) (size 9 to 14) (size 15 to 20)
#    0.000    1.500    2.500    1.500    1.750    6.000 
#    2.250    3.750    0.000    0.000    0.000    0.000 
#    0.000    0.000    0.000    0.000    0.000    0.000 
#
# Total GULP energy -89262.405987 kJ/mol
# GULP energy per Si atom -5578.900374 kJ/mol
# Density = 2.413219 g / cm^3
# Si number density = 24.187244 Si / 1000 Ang^3
#
#
#
# Elastic Constant Matrix: (Units=GPa)
#
#
# Indices 1 2 3 4 5 6 
#
# 1 47.8102 23.0597 29.7976 0.0000 -15.6565 0.0000
# 2 23.0597 104.3365 6.3914 0.0000 -13.0174 0.0000
# 3 29.7976 6.3914 85.1164 0.0000 -22.5749 0.0000
# 4 0.0000 0.0000 0.0000 25.3297 0.0000 -17.1469
# 5 -15.6565 -13.0174 -22.5749 0.0000 41.1058 0.0000
# 6 0.0000 0.0000 0.0000 -17.1469 0.0000 42.4849
#
#
#
# Elastic Compliance Matrix: (Units=1/GPa)
#
#
# Indices 1 2 3 4 5 6 
#
# 1 0.030944 -0.005658 -0.009080 0.000000 0.005008 0.000000
# 2 -0.005658 0.011014 0.001764 0.000000 0.002302 0.000000
# 3 -0.009080 0.001764 0.016417 0.000000 0.006116 0.000000
# 4 0.000000 0.000000 0.000000 0.054321 0.000000 0.021924
# 5 0.005008 0.002302 0.006116 0.000000 0.030323 0.000000
# 6 0.000000 0.000000 0.000000 0.021924 0.000000 0.032386
#
#
# Mechanical properties :
#
#
# Convention : Reuss Voigt Hill
#
# Bulk Modulus (GPa) = 30.83796 39.52894 35.18345
# Shear Modulus (GPa) = 23.56699 33.65170 28.60935
#
# Velocity S-wave (km/s) = 3.12485 3.73406 3.44296
# Velocity P-wave (km/s) = 5.07907 5.91348 5.51209
#
# Compressibility (1/GPa) = 0.03242756
#
# Stress axis : x y z
#
# Youngs Moduli (GPa) = 32.31664 90.79380 60.91237
#
# Poissons Ratio (x) = 0.51371 0.55307
# Poissons Ratio (y) = 0.18285 -0.10746
# Poissons Ratio (z) = 0.29343 -0.16018
#
# Static dielectric constant tensor:
#      x y z
#    x 1.900970 0.000000 0.025500 
#    y 0.000000 1.987270 0.000000 
#    z 0.025500 0.000000 2.012710 
# 
# From -- ./inp_files/11242.got.cif
#   From: 2010.05.17/outbox.cif.g08.bks.cpg/sg4_6_cif.got.tgz:11242.got - 2010.06.03 18:43:04.
