data_PCOD9116905
_publ_section_title
;
Structure prediction by ZEFSAII (Michael W. Deem and Ramdas Pophale) SiO2 
 PCOD9116905
Probable space group: P 21
;
_chemical_formula_sum "Si O2"
_cell_formula_units_Z 14
_cell_length_a 15.049778
_cell_length_b 5.024492
_cell_length_c 15.191636
_cell_angle_alpha 90.000000
_cell_angle_beta 30.742748
_cell_angle_gamma 90.000000
_cell_volume 587.224694
_symmetry_space_group_name_H-M "P 21"
_symmetry_group_IT_number 4
_symmetry_cell_setting 'monoclinic'
loop_
_space_group_symop_operation_xyz
x,y,z
-x,1/2+y,-z
loop_
_atom_site_type_symbol
_atom_site_label
_atom_site_fract_x
_atom_site_fract_y
_atom_site_fract_z
Si Si1 0.753043 0.880470 0.357203
Si Si2 0.083767 0.890790 0.399513
Si Si3 0.258900 0.338655 0.990695
Si Si4 0.937770 0.308343 0.021862
Si Si5 0.605053 0.612709 0.307265
Si Si6 0.954359 0.333104 0.773233
Si Si7 0.468084 0.748635 0.086194
O O1 0.653735 0.727373 0.362289
O O2 0.928474 0.973888 0.156959
O O3 0.850424 0.765350 0.359880
O O4 0.600332 0.070754 0.520178
O O5 0.067083 0.807622 0.312400
O O6 0.270008 0.810398 0.277963
O O7 0.946738 0.704706 0.566585
O O8 0.178695 0.630486 0.067606
O O9 0.111202 0.128015 0.145840
O O10 0.332912 0.277514 0.830512
O O11 0.408983 0.297727 0.935529
O O12 0.732650 0.354425 0.190922
O O13 0.995324 0.510877 0.051289
O O14 0.486350 0.454117 0.031201
#
# Coordination Sequence:
#
# PCOD9116905 Si02
#       7
#     2   2   2   2   2   2   2
#     4  11  26  46  73 107 155 194 256 316 367 443
#     4  12  26  47  74 109 152 193 240 309 381 443
#     4  12  26  47  76 109 144 198 256 303 377 457
#     4  10  22  41  69  94 136 193 241 293 366 425
#     4  11  26  45  73 107 152 198 256 304 381 439
#     4  12  27  48  75 109 148 196 252 306 378 450
#     4  12  23  48  76 105 145 192 245 303 370 451
#
# _framework density 23.840959999999999
#
# number of rings (size 3 to 8) (size 9 to 14) (size 15 to 20)
#    0.000    0.571    4.286    2.571   10.000    2.286 
#    2.571    0.000    0.000    0.000    0.000    0.000 
#    0.000    0.000    0.000    0.000    0.000    0.000 
#
# Total GULP energy -78127.375048 kJ/mol
# GULP energy per Si atom -5580.526789 kJ/mol
# Density = 2.378670 g / cm^3
# Si number density = 23.840960 Si / 1000 Ang^3
#
#
#
# Elastic Constant Matrix: (Units=GPa)
#
#
# Indices 1 2 3 4 5 6 
#
# 1 145.8444 -0.5827 7.5588 0.0000 -26.0383 0.0000
# 2 -0.5827 82.5989 -4.4516 0.0000 6.9419 0.0000
# 3 7.5588 -4.4516 81.2495 0.0000 -16.6160 0.0000
# 4 0.0000 0.0000 0.0000 39.9858 0.0000 -3.0897
# 5 -26.0383 6.9419 -16.6160 0.0000 33.4656 0.0000
# 6 0.0000 0.0000 0.0000 -3.0897 0.0000 25.7339
#
#
#
# Elastic Compliance Matrix: (Units=1/GPa)
#
#
# Indices 1 2 3 4 5 6 
#
# 1 0.008006 -0.000468 0.000582 0.000000 0.006615 0.000000
# 2 -0.000468 0.012351 0.000136 0.000000 -0.002859 0.000000
# 3 0.000582 0.000136 0.013743 0.000000 0.007249 0.000000
# 4 0.000000 0.000000 0.000000 0.025243 0.000000 0.003031
# 5 0.006615 -0.002859 0.007249 0.000000 0.039220 0.000000
# 6 0.000000 0.000000 0.000000 0.003031 0.000000 0.039223
#
#
# Mechanical properties :
#
#
# Convention : Reuss Voigt Hill
#
# Bulk Modulus (GPa) = 28.90189 34.97130 31.93659
# Shear Modulus (GPa) = 33.59763 40.31497 36.95630
#
# Velocity S-wave (km/s) = 3.75806 4.11663 3.94142
# Velocity P-wave (km/s) = 5.56595 6.10704 5.84276
#
# Compressibility (1/GPa) = 0.03459981
#
# Stress axis : x y z
#
# Youngs Moduli (GPa) = 124.91273 80.96525 72.76206
#
# Poissons Ratio (x) = 0.03790 -0.04238
# Poissons Ratio (y) = 0.05847 -0.00987
# Poissons Ratio (z) = -0.07275 -0.01098
#
# Static dielectric constant tensor:
#      x y z
#    x 2.139640 0.000000 0.104200 
#    y 0.000000 1.519600 0.000000 
#    z 0.104200 0.000000 1.948910 
# 
# From -- ./inp_files/14045.got.cif
#   From: 2010.05.17/outbox.cif.g08.bks.cpg/sg4_8_cif.got.tgz:14045.got - 2010.06.03 18:43:04.
