data_PCOD9116707
_publ_section_title
;
Structure prediction by ZEFSAII (Michael W. Deem and Ramdas Pophale) SiO2 
 PCOD9116707
Probable space group: P 21
;
_chemical_formula_sum "Si O2"
_cell_formula_units_Z 16
_cell_length_a 16.132080
_cell_length_b 9.000166
_cell_length_c 5.689777
_cell_angle_alpha 90.000000
_cell_angle_beta 125.112817
_cell_angle_gamma 90.000000
_cell_volume 675.772667
_symmetry_space_group_name_H-M "P 21"
_symmetry_group_IT_number 4
_symmetry_cell_setting 'monoclinic'
loop_
_space_group_symop_operation_xyz
x,y,z
-x,1/2+y,-z
loop_
_atom_site_type_symbol
_atom_site_label
_atom_site_fract_x
_atom_site_fract_y
_atom_site_fract_z
Si Si1 0.830852 0.439180 0.556221
Si Si2 0.606063 0.930426 0.135630
Si Si3 0.221916 0.423036 0.966716
Si Si4 0.295879 0.183199 0.421672
Si Si5 0.871215 0.353661 0.130259
Si Si6 0.989714 0.055495 0.415445
Si Si7 0.625182 0.127964 0.557405
Si Si8 0.556251 0.451531 0.505227
O O1 0.761791 0.584089 0.481219
O O2 0.806227 0.357417 0.268582
O O3 0.946994 0.491116 0.702240
O O4 0.825041 0.350541 0.793265
O O5 0.619844 0.793408 0.335209
O O6 0.629154 0.090804 0.288112
O O7 0.695064 0.893671 0.096467
O O8 0.497591 0.938870 0.837797
O O9 0.223227 0.289802 0.154836
O O10 0.269730 0.567232 0.171237
O O11 0.111530 0.462522 0.701226
O O12 0.352909 0.067340 0.347918
O O13 0.930721 0.513000 0.249868
O O14 0.951654 0.221116 0.303917
O O15 0.533385 0.018091 0.484753
O O16 0.596138 0.286755 0.608872
#
# Coordination Sequence:
#
# PCOD9116707 Si02
#       8
#     2   2   2   2   2   2   2   2
#     4  10  27  43  72 103 143 186 239 289 356 416
#     4  10  22  41  65  96 127 178 228 280 360 411
#     4  10  24  42  67  97 135 178 227 288 350 418
#     4  11  25  41  69  98 134 186 231 291 354 427
#     4  10  26  44  69 101 138 188 236 291 355 408
#     4  10  26  43  71  97 144 182 238 296 349 427
#     4  10  22  40  62  96 126 176 218 286 346 421
#     4  11  22  42  65  94 137 168 233 281 354 420
#
# _framework density 23.676601999999999
#
# number of rings (size 3 to 8) (size 9 to 14) (size 15 to 20)
#    0.750    1.000    0.000    3.000   10.500    3.000 
#    0.000    0.000    0.000    0.000    0.000    0.000 
#    0.000    0.000    0.000    0.000    0.000    0.000 
#
# Total GULP energy -89290.409803 kJ/mol
# GULP energy per Si atom -5580.650613 kJ/mol
# Density = 2.362271 g / cm^3
# Si number density = 23.676602 Si / 1000 Ang^3
#
#
#
# Elastic Constant Matrix: (Units=GPa)
#
#
# Indices 1 2 3 4 5 6 
#
# 1 56.6034 19.0873 -0.0583 0.0000 -6.4682 0.0000
# 2 19.0873 110.4076 19.9582 0.0000 -7.8616 0.0000
# 3 -0.0583 19.9582 70.2702 0.0000 -12.6668 0.0000
# 4 0.0000 0.0000 0.0000 21.2594 0.0000 0.4572
# 5 -6.4682 -7.8616 -12.6668 0.0000 34.6971 0.0000
# 6 0.0000 0.0000 0.0000 0.4572 0.0000 44.2142
#
#
#
# Elastic Compliance Matrix: (Units=1/GPa)
#
#
# Indices 1 2 3 4 5 6 
#
# 1 0.019190 -0.003362 0.001582 0.000000 0.003393 0.000000
# 2 -0.003362 0.010188 -0.002776 0.000000 0.000668 0.000000
# 3 0.001582 -0.002776 0.016014 0.000000 0.005512 0.000000
# 4 0.000000 0.000000 0.000000 0.047049 0.000000 -0.000486
# 5 0.003393 0.000668 0.005512 0.000000 0.031617 0.000000
# 6 0.000000 0.000000 0.000000 -0.000486 0.000000 0.022622
#
#
# Mechanical properties :
#
#
# Convention : Reuss Voigt Hill
#
# Bulk Modulus (GPa) = 27.56260 35.02842 31.29551
# Shear Modulus (GPa) = 29.78238 33.25373 31.51806
#
# Velocity S-wave (km/s) = 3.55051 3.75173 3.65251
# Velocity P-wave (km/s) = 5.33617 5.79603 5.57085
#
# Compressibility (1/GPa) = 0.03628105
#
# Stress axis : x y z
#
# Youngs Moduli (GPa) = 52.11085 98.15521 62.44477
#
# Poissons Ratio (x) = 0.33000 -0.09882
# Poissons Ratio (y) = 0.17520 0.17334
# Poissons Ratio (z) = -0.08246 0.27247
#
# Static dielectric constant tensor:
#      x y z
#    x 1.892670 0.000000 -0.055840 
#    y 0.000000 1.914690 0.000000 
#    z -0.055840 0.000000 1.956080 
# 
# From -- ./inp_files/3484.got.cif
#   From: 2010.05.17/outbox.cif.g08.bks.cpg/sg4_2_cif.got.tgz:3484.got - 2010.06.03 18:43:04.
