data_PCOD9116961
_publ_section_title
;
Structure prediction by ZEFSAII (Michael W. Deem and Ramdas Pophale) SiO2 
 PCOD9116961
Probable space group: P 21
;
_chemical_formula_sum "Si O2"
_cell_formula_units_Z 16
_cell_length_a 6.764368
_cell_length_b 8.940736
_cell_length_c 15.484481
_cell_angle_alpha 90.000000
_cell_angle_beta 128.837602
_cell_angle_gamma 90.000000
_cell_volume 729.446878
_symmetry_space_group_name_H-M "P 21"
_symmetry_group_IT_number 4
_symmetry_cell_setting 'monoclinic'
loop_
_space_group_symop_operation_xyz
x,y,z
-x,1/2+y,-z
loop_
_atom_site_type_symbol
_atom_site_label
_atom_site_fract_x
_atom_site_fract_y
_atom_site_fract_z
Si Si1 0.693704 0.847860 0.329019
Si Si2 0.243143 0.734564 0.508072
Si Si3 0.772972 0.656860 0.989023
Si Si4 0.616470 0.962787 0.035047
Si Si5 0.457818 0.791615 0.754912
Si Si6 0.367094 0.608018 0.146431
Si Si7 0.922998 0.101887 0.269283
Si Si8 0.545729 0.472931 0.568381
O O1 0.545537 0.743789 0.221831
O O2 0.944616 0.765879 0.433702
O O3 0.798737 0.991839 0.306986
O O4 0.509190 0.889790 0.356819
O O5 0.376045 0.743343 0.637444
O O6 0.297362 0.571644 0.483102
O O7 0.368259 0.857047 0.480052
O O8 0.638536 0.503257 0.982022
O O9 0.676172 0.698703 0.865801
O O10 0.072853 0.646355 0.078992
O O11 0.671460 0.793486 0.021192
O O12 0.837178 0.031505 0.155194
O O13 0.602642 0.055504 0.943229
O O14 0.211452 0.759663 0.748612
O O15 0.546555 0.962216 0.776357
O O16 0.222099 0.089982 0.360040
#
# Coordination Sequence:
#
# PCOD9116961 Si02
#       8
#     2   2   2   2   2   2   2   2
#     4  11  25  44  70 100 143 176 223 291 340 400
#     4  11  27  45  69 101 137 181 234 280 343 408
#     4  10  23  43  66  99 135 181 225 277 347 398
#     4  10  22  42  66  98 137 173 227 282 330 411
#     4  10  24  44  66  99 138 178 223 292 331 402
#     4  11  25  41  68 103 137 180 223 278 343 410
#     4  10  22  43  69  98 133 180 225 279 345 399
#     4  11  26  44  72 100 132 187 228 281 343 412
#
# _framework density 21.934426999999999
#
# number of rings (size 3 to 8) (size 9 to 14) (size 15 to 20)
#    0.000    1.500    1.250    1.500    7.000    7.000 
#    4.500    0.000    0.000    0.000    0.000    0.000 
#    0.000    0.000    0.000    0.000    0.000    0.000 
#
# Total GULP energy -89460.302884 kJ/mol
# GULP energy per Si atom -5591.268930 kJ/mol
# Density = 2.188450 g / cm^3
# Si number density = 21.934427 Si / 1000 Ang^3
#
#
#
# Elastic Constant Matrix: (Units=GPa)
#
#
# Indices 1 2 3 4 5 6 
#
# 1 79.6650 31.0761 30.3405 0.0000 8.9984 0.0000
# 2 31.0761 53.0675 20.4525 0.0000 6.4914 0.0000
# 3 30.3405 20.4525 71.5785 0.0000 -3.6212 0.0000
# 4 0.0000 0.0000 0.0000 25.4718 0.0000 2.8586
# 5 8.9984 6.4914 -3.6212 0.0000 21.5514 0.0000
# 6 0.0000 0.0000 0.0000 2.8586 0.0000 26.9636
#
#
#
# Elastic Compliance Matrix: (Units=1/GPa)
#
#
# Indices 1 2 3 4 5 6 
#
# 1 0.018598 -0.007801 -0.005979 0.000000 -0.006420 0.000000
# 2 -0.007801 0.025708 -0.004302 0.000000 -0.005209 0.000000
# 3 -0.005979 -0.004302 0.018080 0.000000 0.006830 0.000000
# 4 0.000000 0.000000 0.000000 0.039732 0.000000 -0.004212
# 5 -0.006420 -0.005209 0.006830 0.000000 0.051798 0.000000
# 6 0.000000 0.000000 0.000000 -0.004212 0.000000 0.037534
#
#
# Mechanical properties :
#
#
# Convention : Reuss Voigt Hill
#
# Bulk Modulus (GPa) = 38.13823 40.89437 39.51630
# Shear Modulus (GPa) = 21.15471 22.96016 22.05744
#
# Velocity S-wave (km/s) = 3.10893 3.23888 3.17457
# Velocity P-wave (km/s) = 5.50567 5.71590 5.61177
#
# Compressibility (1/GPa) = 0.02622041
#
# Stress axis : x y z
#
# Youngs Moduli (GPa) = 53.76927 38.89901 55.31006
#
# Poissons Ratio (x) = 0.30346 0.33070
# Poissons Ratio (y) = 0.41947 0.23796
# Poissons Ratio (z) = 0.32149 0.16736
#
# Static dielectric constant tensor:
#      x y z
#    x 1.789050 0.000000 0.003690 
#    y 0.000000 1.832070 0.000000 
#    z 0.003690 0.000000 1.790230 
# 
# From -- ./inp_files/3623.got.cif
#   From: 2010.05.17/outbox.cif.g08.bks.cpg/sg4_2_cif.got.tgz:3623.got - 2010.06.03 18:43:04.
