data_PCOD9116089
_publ_section_title
;
Structure prediction by ZEFSAII (Michael W. Deem and Ramdas Pophale) SiO2 
 PCOD9116089
Probable space group: P 21
;
_chemical_formula_sum "Si O2"
_cell_formula_units_Z 16
_cell_length_a 6.799151
_cell_length_b 22.784929
_cell_length_c 5.155639
_cell_angle_alpha 90.000000
_cell_angle_beta 50.266066
_cell_angle_gamma 90.000000
_cell_volume 614.218827
_symmetry_space_group_name_H-M "P 21"
_symmetry_group_IT_number 4
_symmetry_cell_setting 'monoclinic'
loop_
_space_group_symop_operation_xyz
x,y,z
-x,1/2+y,-z
loop_
_atom_site_type_symbol
_atom_site_label
_atom_site_fract_x
_atom_site_fract_y
_atom_site_fract_z
Si Si1 0.759786 0.108650 0.101573
Si Si2 0.024468 0.310364 0.077705
Si Si3 0.935853 0.001875 0.288577
Si Si4 0.770451 0.581810 0.541643
Si Si5 0.374059 0.781660 0.932698
Si Si6 0.593698 0.475888 0.360762
Si Si7 0.538277 0.372898 0.765754
Si Si8 0.709745 0.215251 0.492063
O O1 0.015212 0.127651 0.732571
O O2 0.503874 0.107116 0.144822
O O3 0.719308 0.149482 0.384653
O O4 0.837794 0.044178 0.138419
O O5 0.922089 0.297668 0.876197
O O6 0.280225 0.346133 0.865005
O O7 0.797167 0.345694 0.420689
O O8 0.991817 0.245690 0.233206
O O9 0.080833 0.040950 0.379424
O O10 0.663126 0.974399 0.594491
O O11 0.149845 0.956803 0.007246
O O12 0.672435 0.541519 0.383366
O O13 0.481442 0.844423 0.931434
O O14 0.397589 0.735670 0.144803
O O15 0.447062 0.748903 0.606434
O O16 0.550004 0.439283 0.659303
#
# Coordination Sequence:
#
# PCOD9116089 Si02
#       8
#     2   2   2   2   2   2   2   2
#     4  10  22  39  62  93 121 168 212 261 324 389
#     4   9  23  39  63  90 132 164 220 263 319 385
#     4  10  21  40  60  89 127 159 210 271 314 397
#     4  10  22  41  60  92 127 160 214 266 322 387
#     4   9  22  44  63  97 135 167 220 270 315 393
#     4  10  22  37  62  90 122 161 215 258 331 376
#     4  11  21  42  61  93 127 175 214 273 325 389
#     4   9  21  44  65  98 133 174 217 270 328 386
#
# _framework density 26.049348999999999
#
# number of rings (size 3 to 8) (size 9 to 14) (size 15 to 20)
#    0.750    1.500    0.000    1.500    1.750    6.000 
#    2.250    0.000    0.000    0.000    0.000    0.000 
#    0.000    0.000    0.000    0.000    0.000    0.000 
#
# Total GULP energy -89204.073654 kJ/mol
# GULP energy per Si atom -5575.254603 kJ/mol
# Density = 2.599006 g / cm^3
# Si number density = 26.049349 Si / 1000 Ang^3
#
#
#
# Elastic Constant Matrix: (Units=GPa)
#
#
# Indices 1 2 3 4 5 6 
#
# 1 134.9366 -0.4662 61.4793 0.0000 -30.2034 0.0000
# 2 -0.4662 55.0818 10.1008 0.0000 -14.0098 0.0000
# 3 61.4793 10.1008 96.0513 0.0000 -17.5074 0.0000
# 4 0.0000 0.0000 0.0000 23.4247 0.0000 5.8753
# 5 -30.2034 -14.0098 -17.5074 0.0000 59.6388 0.0000
# 6 0.0000 0.0000 0.0000 5.8753 0.0000 24.8101
#
#
#
# Elastic Compliance Matrix: (Units=1/GPa)
#
#
# Indices 1 2 3 4 5 6 
#
# 1 0.011517 0.002471 -0.006828 0.000000 0.004409 0.000000
# 2 0.002471 0.019987 -0.002746 0.000000 0.005140 0.000000
# 3 -0.006828 -0.002746 0.015132 0.000000 0.000339 0.000000
# 4 0.000000 0.000000 0.000000 0.045386 0.000000 -0.010748
# 5 0.004409 0.005140 0.000339 0.000000 0.020307 0.000000
# 6 0.000000 0.000000 0.000000 -0.010748 0.000000 0.042851
#
#
# Mechanical properties :
#
#
# Convention : Reuss Voigt Hill
#
# Bulk Modulus (GPa) = 30.83662 47.58862 39.21262
# Shear Modulus (GPa) = 27.74736 35.90511 31.82623
#
# Velocity S-wave (km/s) = 3.26726 3.71664 3.49917
# Velocity P-wave (km/s) = 5.10850 6.06021 5.60459
#
# Compressibility (1/GPa) = 0.03242897
#
# Stress axis : x y z
#
# Youngs Moduli (GPa) = 86.82637 50.03313 66.08454
#
# Poissons Ratio (x) = -0.12363 0.45123
# Poissons Ratio (y) = -0.21454 0.18150
# Poissons Ratio (z) = 0.59286 0.13741
#
# Static dielectric constant tensor:
#      x y z
#    x 2.062350 0.000000 -0.029290 
#    y 0.000000 2.080780 0.000000 
#    z -0.029290 0.000000 2.215510 
# 
# From -- ./inp_files/842.got.cif
#   From: 2010.05.17/outbox.cif.g08.bks.cpg/sg4_1_cif.got.tgz:842.got - 2010.06.03 18:43:04.
