data_PCOD9116506
_publ_section_title
;
Structure prediction by ZEFSAII (Michael W. Deem and Ramdas Pophale) SiO2 
 PCOD9116506
Probable space group: P 21
;
_chemical_formula_sum "Si O2"
_cell_formula_units_Z 14
_cell_length_a 6.416498
_cell_length_b 10.760668
_cell_length_c 8.232774
_cell_angle_alpha 90.000000
_cell_angle_beta 101.357599
_cell_angle_gamma 90.000000
_cell_volume 557.306877
_symmetry_space_group_name_H-M "P 21"
_symmetry_group_IT_number 4
_symmetry_cell_setting 'monoclinic'
loop_
_space_group_symop_operation_xyz
x,y,z
-x,1/2+y,-z
loop_
_atom_site_type_symbol
_atom_site_label
_atom_site_fract_x
_atom_site_fract_y
_atom_site_fract_z
Si Si1 0.004671 0.871270 0.446534
Si Si2 0.814171 0.119556 0.003399
Si Si3 0.612082 0.890548 0.138572
Si Si4 0.517664 0.252364 0.163147
Si Si5 0.239540 0.030848 0.230535
Si Si6 0.377102 0.392419 0.429923
Si Si7 0.671082 0.178142 0.613754
O O1 0.804710 0.881789 0.292852
O O2 0.879350 0.877183 0.597239
O O3 0.133625 0.743755 0.450653
O O4 0.153071 0.980325 0.391433
O O5 0.757998 0.158904 0.811636
O O6 0.749551 0.221022 0.130756
O O7 0.046398 0.068699 0.082743
O O8 0.660988 0.007052 0.030819
O O9 0.381263 0.921112 0.175561
O O10 0.609535 0.772343 0.023048
O O11 0.398653 0.146488 0.245601
O O12 0.493787 0.368783 0.277163
O O13 0.484644 0.280602 0.554456
O O14 0.391213 0.541143 0.460612
#
# Coordination Sequence:
#
# PCOD9116506 Si02
#       7
#     2   2   2   2   2   2   2
#     4  11  25  45  74 106 156 199 254 312 393 458
#     4  10  22  44  73 106 147 192 259 316 383 447
#     4  10  21  45  73 107 141 197 251 324 384 451
#     4  11  23  43  72 108 144 195 257 316 381 453
#     4  10  23  41  79 107 145 193 255 324 385 458
#     4  12  30  46  78 108 163 208 260 315 390 467
#     4  12  28  52  73 114 156 214 258 319 388 464
#
# _framework density 25.120808
#
# number of rings (size 3 to 8) (size 9 to 14) (size 15 to 20)
#    0.000    1.143    1.429    3.429   10.000    2.286 
#    2.571    0.000    0.000    0.000    0.000    0.000 
#    0.000    0.000    0.000    0.000    0.000    0.000 
#
# Total GULP energy -78095.846603 kJ/mol
# GULP energy per Si atom -5578.274757 kJ/mol
# Density = 2.506363 g / cm^3
# Si number density = 25.120808 Si / 1000 Ang^3
#
#
#
# Elastic Constant Matrix: (Units=GPa)
#
#
# Indices 1 2 3 4 5 6 
#
# 1 138.1969 58.5467 34.0337 0.0000 -9.4883 0.0000
# 2 58.5467 139.5317 26.2974 0.0000 2.2705 0.0000
# 3 34.0337 26.2974 68.7931 0.0000 6.9093 0.0000
# 4 0.0000 0.0000 0.0000 44.3427 0.0000 -0.2950
# 5 -9.4883 2.2705 6.9093 0.0000 22.0541 0.0000
# 6 0.0000 0.0000 0.0000 -0.2950 0.0000 48.4064
#
#
#
# Elastic Compliance Matrix: (Units=1/GPa)
#
#
# Indices 1 2 3 4 5 6 
#
# 1 0.010235 -0.003582 -0.004309 0.000000 0.006122 0.000000
# 2 -0.003582 0.008977 -0.001458 0.000000 -0.002009 0.000000
# 3 -0.004309 -0.001458 0.017962 0.000000 -0.007331 0.000000
# 4 0.000000 0.000000 0.000000 0.022553 0.000000 0.000137
# 5 0.006122 -0.002009 -0.007331 0.000000 0.050480 0.000000
# 6 0.000000 0.000000 0.000000 0.000137 0.000000 0.020659
#
#
# Mechanical properties :
#
#
# Convention : Reuss Voigt Hill
#
# Bulk Modulus (GPa) = 54.12418 64.91972 59.52195
# Shear Modulus (GPa) = 32.10821 38.13690 35.12256
#
# Velocity S-wave (km/s) = 3.57900 3.90056 3.74324
# Velocity P-wave (km/s) = 6.21863 6.79595 6.51369
#
# Compressibility (1/GPa) = 0.01847603
#
# Stress axis : x y z
#
# Youngs Moduli (GPa) = 97.70253 111.39207 55.67375
#
# Poissons Ratio (x) = 0.39902 0.23991
# Poissons Ratio (y) = 0.34998 0.08116
# Poissons Ratio (z) = 0.42102 0.16239
#
# Static dielectric constant tensor:
#      x y z
#    x 2.013690 0.000000 -0.054100 
#    y 0.000000 2.041140 0.000000 
#    z -0.054100 0.000000 2.103770 
# 
# From -- ./inp_files/1383.got.cif
#   From: 2010.05.17/outbox.cif.g08.bks.cpg/sg4_1_cif.got.tgz:1383.got - 2010.06.03 18:43:04.
