data_PCOD9116082
_publ_section_title
;
Structure prediction by ZEFSAII (Michael W. Deem and Ramdas Pophale) SiO2 
 PCOD9116082
Probable space group: P 21
;
_chemical_formula_sum "Si O2"
_cell_formula_units_Z 16
_cell_length_a 8.644071
_cell_length_b 9.174807
_cell_length_c 11.118548
_cell_angle_alpha 90.000000
_cell_angle_beta 46.506490
_cell_angle_gamma 90.000000
_cell_volume 639.693919
_symmetry_space_group_name_H-M "P 21"
_symmetry_group_IT_number 4
_symmetry_cell_setting 'monoclinic'
loop_
_space_group_symop_operation_xyz
x,y,z
-x,1/2+y,-z
loop_
_atom_site_type_symbol
_atom_site_label
_atom_site_fract_x
_atom_site_fract_y
_atom_site_fract_z
Si Si1 0.247497 0.085980 0.897470
Si Si2 0.084522 0.737378 0.478443
Si Si3 0.469894 0.712349 0.461151
Si Si4 0.226089 0.606053 0.147089
Si Si5 0.053446 0.785123 0.030237
Si Si6 0.238818 0.471733 0.697749
Si Si7 0.439730 0.311312 0.986517
Si Si8 0.133501 0.992223 0.298477
O O1 0.372513 0.115946 0.706691
O O2 0.362648 0.186849 0.934592
O O3 0.009891 0.159372 0.028742
O O4 0.229690 0.911312 0.923348
O O5 0.273870 0.749436 0.475212
O O6 0.165608 0.648969 0.316125
O O7 0.026191 0.893355 0.458351
O O8 0.887061 0.655479 0.644537
O O9 0.371116 0.618364 0.621216
O O10 0.595460 0.851279 0.441740
O O11 0.061638 0.686117 0.146332
O O12 0.435022 0.699835 0.993529
O O13 0.264755 0.433558 0.112458
O O14 0.839630 0.886512 0.142651
O O15 0.024999 0.482686 0.730740
O O16 0.638184 0.416974 0.840564
#
# Coordination Sequence:
#
# PCOD9116082 Si02
#       8
#     2   2   2   2   2   2   2   2
#     4  11  23  43  64  90 125 159 205 254 301 361
#     4  10  21  40  59  89 122 156 198 247 300 356
#     4  10  22  41  63  85 121 158 200 250 298 356
#     4  11  22  40  62  92 124 163 201 249 305 360
#     4  11  23  43  64  90 125 159 205 254 301 361
#     4  10  22  41  63  85 121 158 200 250 298 356
#     4  11  22  40  62  92 124 163 201 249 305 360
#     4  10  21  40  59  89 122 156 198 247 300 356
#
# _framework density 25.011959999999998
#
# number of rings (size 3 to 8) (size 9 to 14) (size 15 to 20)
#    0.000    1.500    5.000    1.500    0.000    3.000 
#    4.500    0.000    0.000    0.000    0.000    0.000 
#    0.000    0.000    0.000    0.000    0.000    0.000 
#
# Total GULP energy -89113.230156 kJ/mol
# GULP energy per Si atom -5569.576885 kJ/mol
# Density = 2.495503 g / cm^3
# Si number density = 25.011960 Si / 1000 Ang^3
#
#
#
# Elastic Constant Matrix: (Units=GPa)
#
#
# Indices 1 2 3 4 5 6 
#
# 1 67.3113 20.1384 1.7985 0.0000 -6.1334 0.0000
# 2 20.1384 116.5871 6.3734 0.0000 1.0337 0.0000
# 3 1.7985 6.3734 45.7233 0.0000 -8.8276 0.0000
# 4 0.0000 0.0000 0.0000 53.2332 0.0000 -0.0913
# 5 -6.1334 1.0337 -8.8276 0.0000 14.0149 0.0000
# 6 0.0000 0.0000 0.0000 -0.0913 0.0000 36.1115
#
#
#
# Elastic Compliance Matrix: (Units=1/GPa)
#
#
# Indices 1 2 3 4 5 6 
#
# 1 0.016471 -0.002993 0.001370 0.000000 0.008292 0.000000
# 2 -0.002993 0.009218 -0.001766 0.000000 -0.003102 0.000000
# 3 0.001370 -0.001766 0.025278 0.000000 0.016652 0.000000
# 4 0.000000 0.000000 0.000000 0.018785 0.000000 0.000048
# 5 0.008292 -0.003102 0.016652 0.000000 0.085699 0.000000
# 6 0.000000 0.000000 0.000000 0.000048 0.000000 0.027692
#
#
# Mechanical properties :
#
#
# Convention : Reuss Voigt Hill
#
# Bulk Modulus (GPa) = 22.63032 31.80471 27.21751
# Shear Modulus (GPa) = 24.43168 34.09267 29.26217
#
# Velocity S-wave (km/s) = 3.12877 3.69596 3.42413
# Velocity P-wave (km/s) = 4.70316 5.56389 5.15154
#
# Compressibility (1/GPa) = 0.04418851
#
# Stress axis : x y z
#
# Youngs Moduli (GPa) = 60.71301 108.47858 39.56026
#
# Poissons Ratio (x) = 0.32473 -0.05421
# Poissons Ratio (y) = 0.18174 0.06987
# Poissons Ratio (z) = -0.08320 0.19159
#
# Static dielectric constant tensor:
#      x y z
#    x 2.065830 0.000000 -0.033370 
#    y 0.000000 2.012950 0.000000 
#    z -0.033370 0.000000 2.089620 
# 
# From -- ./inp_files/13719.got.cif
#   From: 2010.05.17/outbox.cif.g08.bks.cpg/sg4_7_cif.got.tgz:13719.got - 2010.06.03 18:43:04.
