data_PCOD9116621
_publ_section_title
;
Structure prediction by ZEFSAII (Michael W. Deem and Ramdas Pophale) SiO2 
 PCOD9116621
Probable space group: P 21
;
_chemical_formula_sum "Si O2"
_cell_formula_units_Z 14
_cell_length_a 13.835260
_cell_length_b 7.806686
_cell_length_c 5.215936
_cell_angle_alpha 90.000000
_cell_angle_beta 115.261370
_cell_angle_gamma 90.000000
_cell_volume 509.486484
_symmetry_space_group_name_H-M "P 21"
_symmetry_group_IT_number 4
_symmetry_cell_setting 'monoclinic'
loop_
_space_group_symop_operation_xyz
x,y,z
-x,1/2+y,-z
loop_
_atom_site_type_symbol
_atom_site_label
_atom_site_fract_x
_atom_site_fract_y
_atom_site_fract_z
Si Si1 0.388324 0.988340 0.910925
Si Si2 0.651943 0.224638 0.691471
Si Si3 0.951386 0.403147 0.665627
Si Si4 0.902891 0.593710 0.117796
Si Si5 0.192732 0.448006 0.939627
Si Si6 0.633325 0.994660 0.280582
Si Si7 0.599598 0.679244 0.578158
O O1 0.338421 0.864864 0.075316
O O2 0.516488 0.959839 0.033402
O O3 0.384679 0.153019 0.101944
O O4 0.353243 0.046454 0.583374
O O5 0.529068 0.166212 0.603969
O O6 0.643409 0.197010 0.371055
O O7 0.753422 0.102160 0.846930
O O8 0.886449 0.479689 0.352983
O O9 0.986114 0.204232 0.727583
O O10 0.068382 0.489213 0.764260
O O11 0.904787 0.471242 0.877307
O O12 0.820215 0.750148 0.980349
O O13 0.263558 0.449064 0.765053
O O14 0.630486 0.866979 0.519932
#
# Coordination Sequence:
#
# PCOD9116621 Si02
#       7
#     2   2   2   2   2   2   2
#     4  10  22  39  61  92 134 170 212 260 311 354
#     4  10  22  38  65  92 127 175 215 254 309 382
#     4  10  23  43  70  96 127 164 208 263 337 388
#     4  10  23  43  70  96 127 164 208 263 337 388
#     4  10  24  38  74  88 128 162 226 246 330 382
#     4  10  22  38  65  92 127 175 215 254 309 382
#     4  10  22  39  61  92 134 170 212 260 311 354
#
# _framework density 27.478649000000001
#
# number of rings (size 3 to 8) (size 9 to 14) (size 15 to 20)
#    0.857    1.143    1.429    0.857    8.000    2.286 
#    0.000    4.286    0.000    0.000    0.000    0.000 
#    0.000    0.000    0.000    0.000    0.000    0.000 
#
# Total GULP energy -78021.141997 kJ/mol
# GULP energy per Si atom -5572.938714 kJ/mol
# Density = 2.741611 g / cm^3
# Si number density = 27.478649 Si / 1000 Ang^3
#
#
#
# Elastic Constant Matrix: (Units=GPa)
#
#
# Indices 1 2 3 4 5 6 
#
# 1 80.6942 -12.1255 12.9920 0.0000 -5.4527 0.0000
# 2 -12.1255 34.5878 -14.1991 0.0000 -10.1161 0.0000
# 3 12.9920 -14.1991 94.8312 0.0000 -31.7669 0.0000
# 4 0.0000 0.0000 0.0000 31.8933 0.0000 -7.2228
# 5 -5.4527 -10.1161 -31.7669 0.0000 52.5808 0.0000
# 6 0.0000 0.0000 0.0000 -7.2228 0.0000 44.1219
#
#
#
# Elastic Compliance Matrix: (Units=1/GPa)
#
#
# Indices 1 2 3 4 5 6 
#
# 1 0.013373 0.005200 -0.000318 0.000000 0.002195 0.000000
# 2 0.005200 0.038803 0.009753 0.000000 0.013897 0.000000
# 3 -0.000318 0.009753 0.015880 0.000000 0.011437 0.000000
# 4 0.000000 0.000000 0.000000 0.032562 0.000000 0.005330
# 5 0.002195 0.013897 0.011437 0.000000 0.028830 0.000000
# 6 0.000000 0.000000 0.000000 0.005330 0.000000 0.023537
#
#
# Mechanical properties :
#
#
# Convention : Reuss Voigt Hill
#
# Bulk Modulus (GPa) = 10.27493 20.38314 15.32903
# Shear Modulus (GPa) = 32.01874 40.61560 36.31717
#
# Velocity S-wave (km/s) = 3.41724 3.84875 3.63939
# Velocity P-wave (km/s) = 4.39515 5.21387 4.82192
#
# Compressibility (1/GPa) = 0.09732426
#
# Stress axis : x y z
#
# Youngs Moduli (GPa) = 74.77566 25.77128 62.97100
#
# Poissons Ratio (x) = -0.13400 0.02005
# Poissons Ratio (y) = -0.38880 -0.61414
# Poissons Ratio (z) = 0.02381 -0.25134
#
# Static dielectric constant tensor:
#      x y z
#    x 2.152200 0.000000 0.082270 
#    y 0.000000 2.354390 0.000000 
#    z 0.082270 0.000000 2.358740 
# 
# From -- ./inp_files/3439.got.cif
#   From: 2010.05.17/outbox.cif.g08.bks.cpg/sg4_2_cif.got.tgz:3439.got - 2010.06.03 18:43:04.
