data_PCOD9116062
_publ_section_title
;
Structure prediction by ZEFSAII (Michael W. Deem and Ramdas Pophale) SiO2 
 PCOD9116062
Probable space group: P 21
;
_chemical_formula_sum "Si O2"
_cell_formula_units_Z 14
_cell_length_a 18.154526
_cell_length_b 5.257765
_cell_length_c 17.808917
_cell_angle_alpha 90.000000
_cell_angle_beta 155.542531
_cell_angle_gamma 90.000000
_cell_volume 703.788977
_symmetry_space_group_name_H-M "P 21"
_symmetry_group_IT_number 4
_symmetry_cell_setting 'monoclinic'
loop_
_space_group_symop_operation_xyz
x,y,z
-x,1/2+y,-z
loop_
_atom_site_type_symbol
_atom_site_label
_atom_site_fract_x
_atom_site_fract_y
_atom_site_fract_z
Si Si1 0.439183 0.338190 0.340817
Si Si2 0.211565 0.013789 0.649017
Si Si3 0.144325 0.745632 0.039661
Si Si4 0.770134 0.545073 0.730178
Si Si5 0.433904 0.533822 0.107106
Si Si6 0.352168 0.036100 0.126180
Si Si7 0.203365 0.515812 0.742582
O O1 0.303782 0.542005 0.178849
O O2 0.629496 0.437756 0.541311
O O3 0.337583 0.256819 0.322573
O O4 0.463448 0.108384 0.304534
O O5 0.235579 0.758649 0.719737
O O6 0.358115 0.011365 0.720234
O O7 0.238724 0.259044 0.728000
O O8 0.006756 0.018427 0.431948
O O9 0.171392 0.855635 0.148622
O O10 0.168994 0.957453 0.998094
O O11 0.948936 0.632983 0.856545
O O12 0.363871 0.285667 0.086081
O O13 0.407633 0.793848 0.128809
O O14 0.325757 0.539556 0.928810
#
# Coordination Sequence:
#
# PCOD9116062 Si02
#       7
#     2   2   2   2   2   2   2
#     4  11  22  42  63  99 123 166 218 279 326 391
#     4  10  21  39  67  99 124 159 220 272 307 369
#     4  11  22  42  63  99 123 166 218 279 326 391
#     4  11  22  38  72  91 124 164 222 284 338 365
#     4  12  22  43  64  91 132 184 198 260 324 391
#     4  11  26  43  62  90 144 170 216 254 322 410
#     4  10  21  39  67  99 124 159 220 272 307 369
#
# _framework density 19.892326000000001
#
# number of rings (size 3 to 8) (size 9 to 14) (size 15 to 20)
#    0.000    1.143    4.286    2.571    0.000    0.000 
#    2.571    2.857    0.000    0.000    0.000    0.000 
#    0.000    0.000    0.000    0.000    0.000    0.000 
#
# Total GULP energy -78174.581982 kJ/mol
# GULP energy per Si atom -5583.898713 kJ/mol
# Density = 1.984705 g / cm^3
# Si number density = 19.892326 Si / 1000 Ang^3
#
#
#
# Elastic Constant Matrix: (Units=GPa)
#
#
# Indices 1 2 3 4 5 6 
#
# 1 28.0852 17.2433 14.1089 0.0000 2.9208 0.0000
# 2 17.2433 112.1125 19.6470 0.0000 8.4105 0.0000
# 3 14.1089 19.6470 75.7864 0.0000 23.9989 0.0000
# 4 0.0000 0.0000 0.0000 22.8634 0.0000 -3.0229
# 5 2.9208 8.4105 23.9989 0.0000 9.7068 0.0000
# 6 0.0000 0.0000 0.0000 -3.0229 0.0000 43.5877
#
#
#
# Elastic Compliance Matrix: (Units=1/GPa)
#
#
# Indices 1 2 3 4 5 6 
#
# 1 0.045210 -0.006557 -0.019384 0.000000 0.040004 0.000000
# 2 -0.006557 0.010498 0.003477 0.000000 -0.015720 0.000000
# 3 -0.019384 0.003477 0.069140 0.000000 -0.168121 0.000000
# 4 0.000000 0.000000 0.000000 0.044143 0.000000 0.003061
# 5 0.040004 -0.015720 -0.168121 0.000000 0.520261 0.000000
# 6 0.000000 0.000000 0.000000 0.003061 0.000000 0.023155
#
#
# Mechanical properties :
#
#
# Convention : Reuss Voigt Hill
#
# Bulk Modulus (GPa) = 12.51272 35.33140 23.92206
# Shear Modulus (GPa) = 6.37775 26.23058 16.30417
#
# Velocity S-wave (km/s) = 1.79251 3.63523 2.86601
# Velocity P-wave (km/s) = 3.25392 5.95145 4.79624
#
# Compressibility (1/GPa) = 0.07991868
#
# Stress axis : x y z
#
# Youngs Moduli (GPa) = 22.11912 95.25524 14.46337
#
# Poissons Ratio (x) = 0.62463 0.28036
# Poissons Ratio (y) = 0.14505 -0.05029
# Poissons Ratio (z) = 0.42877 -0.33122
#
# Static dielectric constant tensor:
#      x y z
#    x 1.697000 0.000000 0.004370 
#    y 0.000000 1.770680 0.000000 
#    z 0.004370 0.000000 1.653560 
# 
# From -- ./inp_files/14107.got.cif
#   From: 2010.05.17/outbox.cif.g08.bks.cpg/sg4_8_cif.got.tgz:14107.got - 2010.06.03 18:43:04.
