data_PCOD9116122
_publ_section_title
;
Structure prediction by ZEFSAII (Michael W. Deem and Ramdas Pophale) SiO2 
 PCOD9116122
Probable space group: P 21
;
_chemical_formula_sum "Si O2"
_cell_formula_units_Z 16
_cell_length_a 6.101702
_cell_length_b 7.665089
_cell_length_c 15.252411
_cell_angle_alpha 90.000000
_cell_angle_beta 114.317660
_cell_angle_gamma 90.000000
_cell_volume 650.065047
_symmetry_space_group_name_H-M "P 21"
_symmetry_group_IT_number 4
_symmetry_cell_setting 'monoclinic'
loop_
_space_group_symop_operation_xyz
x,y,z
-x,1/2+y,-z
loop_
_atom_site_type_symbol
_atom_site_label
_atom_site_fract_x
_atom_site_fract_y
_atom_site_fract_z
Si Si1 0.670203 0.186230 0.481299
Si Si2 0.591886 0.374791 0.185237
Si Si3 0.088566 0.952549 0.605980
Si Si4 0.794841 0.291316 0.042595
Si Si5 0.845080 0.070721 0.831073
Si Si6 0.507877 0.224074 0.640063
Si Si7 0.400907 0.076187 0.281148
Si Si8 0.030443 0.931633 0.099734
O O1 0.845175 0.288497 0.443797
O O2 0.589126 0.278502 0.556656
O O3 0.435189 0.155927 0.382555
O O4 0.825635 0.022045 0.540477
O O5 0.835894 0.418470 0.279986
O O6 0.600676 0.319003 0.085771
O O7 0.413530 0.539136 0.164181
O O8 0.491270 0.213527 0.225248
O O9 0.284011 0.096030 0.606295
O O10 0.019721 0.392097 0.125627
O O11 0.778203 0.394584 0.947880
O O12 0.855695 0.086717 0.041255
O O13 0.737790 0.125077 0.719883
O O14 0.024109 0.229008 0.888226
O O15 0.451535 0.395534 0.688020
O O16 0.144305 0.009810 0.206688
#
# Coordination Sequence:
#
# PCOD9116122 Si02
#       8
#     2   2   2   2   2   2   2   2
#     4  11  21  39  62  91 134 180 219 275 334 393
#     4  10  23  43  68  95 136 180 219 291 344 401
#     4  10  22  39  59  95 129 171 230 275 320 413
#     4  12  23  45  69  99 132 179 224 281 357 403
#     4  10  22  45  64  98 139 169 231 283 329 417
#     4  10  21  40  64  91 130 182 219 269 341 389
#     4  10  22  43  61 101 136 168 229 285 326 406
#     4  11  24  44  71 100 136 175 229 291 335 424
#
# _framework density 24.612919000000002
#
# number of rings (size 3 to 8) (size 9 to 14) (size 15 to 20)
#    0.000    1.500    2.500    2.250    0.000    1.000 
#   27.000    0.000    0.000    0.000    0.000    0.000 
#    0.000    0.000    0.000    0.000    0.000    0.000 
#
# Total GULP energy -89225.461597 kJ/mol
# GULP energy per Si atom -5576.591350 kJ/mol
# Density = 2.455690 g / cm^3
# Si number density = 24.612919 Si / 1000 Ang^3
#
#
#
# Elastic Constant Matrix: (Units=GPa)
#
#
# Indices 1 2 3 4 5 6 
#
# 1 16.2026 23.3036 19.1361 0.0000 2.7300 0.0000
# 2 23.3036 120.0028 31.4482 0.0000 7.3731 0.0000
# 3 19.1361 31.4482 115.9060 0.0000 2.2476 0.0000
# 4 0.0000 0.0000 0.0000 38.6274 0.0000 8.5815
# 5 2.7300 7.3731 2.2476 0.0000 37.3372 0.0000
# 6 0.0000 0.0000 0.0000 8.5815 0.0000 26.0021
#
#
#
# Elastic Compliance Matrix: (Units=1/GPa)
#
#
# Indices 1 2 3 4 5 6 
#
# 1 0.099429 -0.015949 -0.012023 0.000000 -0.003397 0.000000
# 2 -0.015949 0.011629 -0.000501 0.000000 -0.001100 0.000000
# 3 -0.012023 -0.000501 0.010742 0.000000 0.000331 0.000000
# 4 0.000000 0.000000 0.000000 0.027937 0.000000 -0.009220
# 5 -0.003397 -0.001100 0.000331 0.000000 0.027229 0.000000
# 6 0.000000 0.000000 0.000000 -0.009220 0.000000 0.041501
#
#
# Mechanical properties :
#
#
# Convention : Reuss Voigt Hill
#
# Bulk Modulus (GPa) = 15.41887 44.43191 29.92539
# Shear Modulus (GPa) = 16.83335 32.27491 24.55413
#
# Velocity S-wave (km/s) = 2.61803 3.62512 3.16193
# Velocity P-wave (km/s) = 3.92644 5.96770 5.05125
#
# Compressibility (1/GPa) = 0.06485559
#
# Stress axis : x y z
#
# Youngs Moduli (GPa) = 10.05745 85.99102 93.09213
#
# Poissons Ratio (x) = 1.37146 1.11920
# Poissons Ratio (y) = 0.16041 0.04662
# Poissons Ratio (z) = 0.12092 0.04306
#
# Static dielectric constant tensor:
#      x y z
#    x 1.987080 0.000000 0.009530 
#    y 0.000000 1.970120 0.000000 
#    z 0.009530 0.000000 1.996990 
# 
# From -- ./inp_files/13272.got.cif
#   From: 2010.05.17/outbox.cif.g08.bks.cpg/sg4_7_cif.got.tgz:13272.got - 2010.06.03 18:43:04.
