data_PCOD9116583
_publ_section_title
;
Structure prediction by ZEFSAII (Michael W. Deem and Ramdas Pophale) SiO2 
 PCOD9116583
Probable space group: P 21
;
_chemical_formula_sum "Si O2"
_cell_formula_units_Z 14
_cell_length_a 12.507567
_cell_length_b 5.523370
_cell_length_c 8.821032
_cell_angle_alpha 90.000000
_cell_angle_beta 62.839601
_cell_angle_gamma 90.000000
_cell_volume 542.195149
_symmetry_space_group_name_H-M "P 21"
_symmetry_group_IT_number 4
_symmetry_cell_setting 'monoclinic'
loop_
_space_group_symop_operation_xyz
x,y,z
-x,1/2+y,-z
loop_
_atom_site_type_symbol
_atom_site_label
_atom_site_fract_x
_atom_site_fract_y
_atom_site_fract_z
Si Si1 0.136235 0.313110 0.994840
Si Si2 0.097946 0.767692 0.657688
Si Si3 0.687362 0.212289 0.256348
Si Si4 0.321496 0.024096 0.017653
Si Si5 0.579993 0.711456 0.619770
Si Si6 0.428362 0.713526 0.185418
Si Si7 0.150155 0.254975 0.630817
O O1 0.235396 0.524385 0.897114
O O2 0.112380 0.244847 0.832892
O O3 0.198394 0.165051 0.093852
O O4 0.003385 0.314009 0.150808
O O5 0.227439 0.754386 0.658120
O O6 0.095727 0.498504 0.594290
O O7 0.107283 0.020612 0.565435
O O8 0.547017 0.174023 0.385066
O O9 0.677260 0.448115 0.158932
O O10 0.338351 0.785395 0.108070
O O11 0.436670 0.194039 0.969174
O O12 0.584064 0.456150 0.706483
O O13 0.704929 0.748995 0.453594
O O14 0.582353 0.956685 0.722128
#
# Coordination Sequence:
#
# PCOD9116583 Si02
#       7
#     2   2   2   2   2   2   2
#     4  11  23  40  65 104 127 174 223 279 335 397
#     4  11  24  39  65  98 134 171 223 272 336 397
#     4  10  22  37  62  99 134 166 218 272 337 396
#     4  11  22  41  65  97 129 170 223 283 328 372
#     4  11  24  42  64  96 138 173 218 262 344 410
#     4  11  24  41  64  96 130 172 221 276 324 396
#     4  11  23  42  63  96 140 174 212 274 338 412
#
# _framework density 25.820959999999999
#
# number of rings (size 3 to 8) (size 9 to 14) (size 15 to 20)
#    0.000    1.143    2.857    4.286    4.000    2.286 
#    0.000    0.000    0.000    3.429    0.000    0.000 
#    0.000    0.000    0.000    0.000    0.000    0.000 
#
# Total GULP energy -78017.255514 kJ/mol
# GULP energy per Si atom -5572.661108 kJ/mol
# Density = 2.576219 g / cm^3
# Si number density = 25.820960 Si / 1000 Ang^3
#
#
#
# Elastic Constant Matrix: (Units=GPa)
#
#
# Indices 1 2 3 4 5 6 
#
# 1 63.9660 45.5356 14.9124 0.0000 0.4003 0.0000
# 2 45.5356 202.9035 36.2306 0.0000 -9.7163 0.0000
# 3 14.9124 36.2306 86.7085 0.0000 -41.7848 0.0000
# 4 0.0000 0.0000 0.0000 21.7505 0.0000 22.7302
# 5 0.4003 -9.7163 -41.7848 0.0000 33.8292 0.0000
# 6 0.0000 0.0000 0.0000 22.7302 0.0000 4.8034
#
#
#
# Elastic Compliance Matrix: (Units=1/GPa)
#
#
# Indices 1 2 3 4 5 6 
#
# 1 0.019797 -0.003780 -0.006081 0.000000 -0.008831 0.000000
# 2 -0.003780 0.006175 -0.002603 0.000000 -0.001397 0.000000
# 3 -0.006081 -0.002603 0.032959 0.000000 0.040034 0.000000
# 4 0.000000 0.000000 0.000000 -0.011654 0.000000 0.055146
# 5 -0.008831 -0.001397 0.040034 0.000000 0.078712 0.000000
# 6 0.000000 0.000000 0.000000 0.055146 0.000000 -0.052769
#
#
# Mechanical properties :
#
#
# Convention : Reuss Voigt Hill
#
# Bulk Modulus (GPa) = 29.40992 60.77057 45.09024
# Shear Modulus (GPa) = 45.66927 29.20326 37.43626
#
# Velocity S-wave (km/s) = 4.21014 3.36667 3.81181
# Velocity P-wave (km/s) = 5.92017 6.22086 6.07237
#
# Compressibility (1/GPa) = 0.03400214
#
# Stress axis : x y z
#
# Youngs Moduli (GPa) = 50.51269 161.95165 30.34079
#
# Poissons Ratio (x) = 0.61216 0.18450
# Poissons Ratio (y) = 0.19093 0.07899
# Poissons Ratio (z) = 0.30716 0.42163
#
# Static dielectric constant tensor:
#      x y z
#    x 2.040530 0.000000 -0.026260 
#    y 0.000000 2.264160 0.000000 
#    z -0.026260 0.000000 2.076240 
# 
# From -- ./inp_files/11568.got.cif
#   From: 2010.05.17/outbox.cif.g08.bks.cpg/sg4_6_cif.got.tgz:11568.got - 2010.06.03 18:43:04.
