data_PCOD9116216
_publ_section_title
;
Structure prediction by ZEFSAII (Michael W. Deem and Ramdas Pophale) SiO2 
 PCOD9116216
Probable space group: P 21
;
_chemical_formula_sum "Si O2"
_cell_formula_units_Z 14
_cell_length_a 9.359566
_cell_length_b 8.860958
_cell_length_c 11.362209
_cell_angle_alpha 90.000000
_cell_angle_beta 34.686208
_cell_angle_gamma 90.000000
_cell_volume 536.257908
_symmetry_space_group_name_H-M "P 21"
_symmetry_group_IT_number 4
_symmetry_cell_setting 'monoclinic'
loop_
_space_group_symop_operation_xyz
x,y,z
-x,1/2+y,-z
loop_
_atom_site_type_symbol
_atom_site_label
_atom_site_fract_x
_atom_site_fract_y
_atom_site_fract_z
Si Si1 0.593995 0.835180 0.963779
Si Si2 0.364749 0.266487 0.328991
Si Si3 0.297726 0.545566 0.511856
Si Si4 0.751180 0.548203 0.921253
Si Si5 0.925605 0.546618 0.328911
Si Si6 0.905942 0.279060 0.986989
Si Si7 0.419127 0.349983 0.657375
O O1 0.603074 0.751297 0.831315
O O2 0.582296 0.695029 0.060597
O O3 0.834071 0.941602 0.816203
O O4 0.358320 0.944375 0.108675
O O5 0.315432 0.443072 0.385109
O O6 0.131194 0.172973 0.534628
O O7 0.630167 0.222220 0.215114
O O8 0.340085 0.420441 0.585098
O O9 0.487825 0.679085 0.403342
O O10 0.021666 0.613169 0.706103
O O11 0.814395 0.430063 0.981216
O O12 0.669815 0.447221 0.512900
O O13 0.985086 0.648053 0.172043
O O14 0.140054 0.336305 0.907686
#
# Coordination Sequence:
#
# PCOD9116216 Si02
#       7
#     2   2   2   2   2   2   2
#     4  11  24  40  67  95 131 171 215 264 325 380
#     4  11  25  41  63  95 132 168 214 271 315 385
#     4  11  21  42  67  96 127 167 218 261 323 383
#     4  10  21  41  64  93 128 169 212 262 318 385
#     4  12  23  41  68  95 129 175 211 262 331 380
#     4  10  23  44  66  95 132 165 219 271 319 380
#     4  11  21  41  71  91 127 175 207 265 327 379
#
# _framework density 26.106842
#
# number of rings (size 3 to 8) (size 9 to 14) (size 15 to 20)
#    0.000    1.143    5.714    1.714    2.000    1.143 
#    0.000    7.143    0.000    0.000    0.000    0.000 
#    0.000    0.000    0.000    0.000    0.000    0.000 
#
# Total GULP energy -78174.890210 kJ/mol
# GULP energy per Si atom -5583.920729 kJ/mol
# Density = 2.604742 g / cm^3
# Si number density = 26.106842 Si / 1000 Ang^3
#
#
#
# Elastic Constant Matrix: (Units=GPa)
#
#
# Indices 1 2 3 4 5 6 
#
# 1 69.0853 32.7983 12.8490 0.0000 -24.8828 0.0000
# 2 32.7983 157.6098 12.4855 0.0000 -7.1328 0.0000
# 3 12.8490 12.4855 44.1703 0.0000 -17.1481 0.0000
# 4 0.0000 0.0000 0.0000 47.1846 0.0000 -19.6435
# 5 -24.8828 -7.1328 -17.1481 0.0000 45.9127 0.0000
# 6 0.0000 0.0000 0.0000 -19.6435 0.0000 30.9787
#
#
#
# Elastic Compliance Matrix: (Units=1/GPa)
#
#
# Indices 1 2 3 4 5 6 
#
# 1 0.019932 -0.003626 -0.000933 0.000000 0.009891 0.000000
# 2 -0.003626 0.007155 -0.001519 0.000000 -0.001421 0.000000
# 3 -0.000933 -0.001519 0.026962 0.000000 0.009328 0.000000
# 4 0.000000 0.000000 0.000000 0.028795 0.000000 0.018259
# 5 0.009891 -0.001421 0.009328 0.000000 0.030404 0.000000
# 6 0.000000 0.000000 0.000000 0.018259 0.000000 0.043858
#
#
# Mechanical properties :
#
#
# Convention : Reuss Voigt Hill
#
# Bulk Modulus (GPa) = 23.87115 43.01453 33.44284
# Shear Modulus (GPa) = 27.28825 38.99738 33.14282
#
# Velocity S-wave (km/s) = 3.23654 3.86911 3.56688
# Velocity P-wave (km/s) = 4.80941 6.03922 5.45906
#
# Compressibility (1/GPa) = 0.04189158
#
# Stress axis : x y z
#
# Youngs Moduli (GPa) = 50.16959 139.75331 37.08896
#
# Poissons Ratio (x) = 0.50679 0.03462
# Poissons Ratio (y) = 0.18193 0.05636
# Poissons Ratio (z) = 0.04683 0.21235
#
# Static dielectric constant tensor:
#      x y z
#    x 2.077030 0.000000 0.008700 
#    y 0.000000 2.014850 0.000000 
#    z 0.008700 0.000000 2.092870 
# 
# From -- ./inp_files/10997.got.cif
#   From: 2010.05.17/outbox.cif.g08.bks.cpg/sg4_6_cif.got.tgz:10997.got - 2010.06.03 18:43:04.
