data_PCOD9116931
_publ_section_title
;
Structure prediction by ZEFSAII (Michael W. Deem and Ramdas Pophale) SiO2 
 PCOD9116931
Probable space group: P 21
;
_chemical_formula_sum "Si O2"
_cell_formula_units_Z 16
_cell_length_a 12.594179
_cell_length_b 10.021576
_cell_length_c 9.529406
_cell_angle_alpha 90.000000
_cell_angle_beta 34.803255
_cell_angle_gamma 90.000000
_cell_volume 686.476082
_symmetry_space_group_name_H-M "P 21"
_symmetry_group_IT_number 4
_symmetry_cell_setting 'monoclinic'
loop_
_space_group_symop_operation_xyz
x,y,z
-x,1/2+y,-z
loop_
_atom_site_type_symbol
_atom_site_label
_atom_site_fract_x
_atom_site_fract_y
_atom_site_fract_z
Si Si1 0.669438 0.468880 0.053297
Si Si2 0.468674 0.042960 0.076055
Si Si3 0.307625 0.319441 0.528037
Si Si4 0.738987 0.444649 0.438702
Si Si5 0.056066 0.286149 0.225584
Si Si6 0.420429 0.248942 0.699616
Si Si7 0.276517 0.299559 0.257046
Si Si8 0.017797 0.014577 0.092017
O O1 0.508178 0.367024 0.260304
O O2 0.594558 0.608680 0.203037
O O3 0.679880 0.485607 0.875944
O O4 0.856103 0.435387 0.931777
O O5 0.402933 0.025194 0.307209
O O6 0.455648 0.199501 0.048424
O O7 0.650648 0.951651 0.847728
O O8 0.358031 0.231654 0.607233
O O9 0.213060 0.274632 0.485548
O O10 0.178134 0.442706 0.717080
O O11 0.612272 0.327283 0.508162
O O12 0.888964 0.384748 0.383172
O O13 0.865378 0.509126 0.179079
O O14 0.116235 0.261554 0.320555
O O15 0.004197 0.157356 0.184991
O O16 0.253352 0.335179 0.948684
#
# Coordination Sequence:
#
# PCOD9116931 Si02
#       8
#     2   2   2   2   2   2   2   2
#     4  10  22  42  63  90 137 173 221 284 335 402
#     4  11  23  45  68 103 135 187 229 281 343 407
#     4  11  24  40  69  99 130 179 231 274 341 414
#     4  12  24  39  72  96 132 181 230 276 341 416
#     4  11  24  45  64  97 141 180 224 287 347 404
#     4  11  21  43  63  96 136 174 222 285 347 394
#     4  11  25  44  73 100 143 182 231 286 340 412
#     4  11  23  40  66  97 136 176 222 283 346 397
#
# _framework density 23.307438999999999
#
# number of rings (size 3 to 8) (size 9 to 14) (size 15 to 20)
#    0.000    1.000    6.250    0.750    5.250    1.000 
#    0.000    0.000    0.000    0.000    0.000    0.000 
#    0.000    0.000    0.000    0.000    0.000    0.000 
#
# Total GULP energy -89192.963630 kJ/mol
# GULP energy per Si atom -5574.560227 kJ/mol
# Density = 2.325439 g / cm^3
# Si number density = 23.307439 Si / 1000 Ang^3
#
#
#
# Elastic Constant Matrix: (Units=GPa)
#
#
# Indices 1 2 3 4 5 6 
#
# 1 126.5935 22.7716 20.8265 0.0000 31.4607 0.0000
# 2 22.7716 64.0295 0.3656 0.0000 -2.6446 0.0000
# 3 20.8265 0.3656 36.6522 0.0000 17.9047 0.0000
# 4 0.0000 0.0000 0.0000 17.5599 0.0000 1.6066
# 5 31.4607 -2.6446 17.9047 0.0000 57.1757 0.0000
# 6 0.0000 0.0000 0.0000 1.6066 0.0000 30.0336
#
#
#
# Elastic Compliance Matrix: (Units=1/GPa)
#
#
# Indices 1 2 3 4 5 6 
#
# 1 0.010360 -0.003862 -0.003514 0.000000 -0.004779 0.000000
# 2 -0.003862 0.017098 0.000708 0.000000 0.002694 0.000000
# 3 -0.003514 0.000708 0.033426 0.000000 -0.008501 0.000000
# 4 0.000000 0.000000 0.000000 0.057228 0.000000 -0.003061
# 5 -0.004779 0.002694 -0.008501 0.000000 0.022906 0.000000
# 6 0.000000 0.000000 0.000000 -0.003061 0.000000 0.033460
#
#
# Mechanical properties :
#
#
# Convention : Reuss Voigt Hill
#
# Bulk Modulus (GPa) = 21.03115 35.02251 28.02683
# Shear Modulus (GPa) = 24.55045 33.17462 28.86254
#
# Velocity S-wave (km/s) = 3.24903 3.77682 3.52282
# Velocity P-wave (km/s) = 4.80810 5.83765 5.34771
#
# Compressibility (1/GPa) = 0.04754852
#
# Stress axis : x y z
#
# Youngs Moduli (GPa) = 96.52943 58.48513 29.91701
#
# Poissons Ratio (x) = 0.22585 0.10512
# Poissons Ratio (y) = 0.37276 -0.02117
# Poissons Ratio (z) = 0.33917 -0.04138
#
# Static dielectric constant tensor:
#      x y z
#    x 1.916660 0.000000 0.048580 
#    y 0.000000 1.975940 0.000000 
#    z 0.048580 0.000000 1.885400 
# 
# From -- ./inp_files/8149.got.cif
#   From: 2010.05.17/outbox.cif.g08.bks.cpg/sg4_5_cif.got.tgz:8149.got - 2010.06.03 18:43:04.
