data_PCOD9116932
_publ_section_title
;
Structure prediction by ZEFSAII (Michael W. Deem and Ramdas Pophale) SiO2 
 PCOD9116932
Probable space group: P 21
;
_chemical_formula_sum "Si O2"
_cell_formula_units_Z 16
_cell_length_a 17.624993
_cell_length_b 6.182249
_cell_length_c 8.260485
_cell_angle_alpha 90.000000
_cell_angle_beta 55.226328
_cell_angle_gamma 90.000000
_cell_volume 739.335745
_symmetry_space_group_name_H-M "P 21"
_symmetry_group_IT_number 4
_symmetry_cell_setting 'monoclinic'
loop_
_space_group_symop_operation_xyz
x,y,z
-x,1/2+y,-z
loop_
_atom_site_type_symbol
_atom_site_label
_atom_site_fract_x
_atom_site_fract_y
_atom_site_fract_z
Si Si1 0.102054 0.783240 0.037552
Si Si2 0.558058 0.480456 0.165804
Si Si3 0.097982 0.502383 0.721150
Si Si4 0.285710 0.336373 0.516483
Si Si5 0.540977 0.600461 0.823344
Si Si6 0.602205 0.217566 0.522478
Si Si7 0.954041 0.149152 0.554204
Si Si8 0.286644 0.039346 0.823671
O O1 0.099852 0.653119 0.209547
O O2 0.118429 0.636119 0.859770
O O3 0.001983 0.893014 0.136358
O O4 0.181947 0.962105 0.958658
O O5 0.543266 0.225927 0.157972
O O6 0.484275 0.556262 0.392165
O O7 0.658201 0.579590 0.078634
O O8 0.523764 0.555735 0.030674
O O9 0.179072 0.326523 0.598937
O O10 0.095314 0.642982 0.560364
O O11 0.362412 0.230036 0.310321
O O12 0.316469 0.583667 0.492171
O O13 0.295763 0.227501 0.681064
O O14 0.561685 0.393600 0.691673
O O15 0.650744 0.339260 0.317087
O O16 0.999709 0.399291 0.500869
#
# Coordination Sequence:
#
# PCOD9116932 Si02
#       8
#     2   2   2   2   2   2   2   2
#     4  11  23  45  70 107 137 188 246 286 361 431
#     4  11  23  41  66  94 133 179 222 294 346 425
#     4  11  22  45  74  97 146 191 226 304 353 424
#     4  10  23  43  64 101 132 180 232 281 358 426
#     4  10  22  43  66  96 130 177 234 274 362 430
#     4  10  22  42  63  91 134 166 226 282 348 428
#     4  10  24  46  72 109 142 189 248 299 362 431
#     4  11  25  41  65 101 132 174 238 290 346 429
#
# _framework density 21.641047
#
# number of rings (size 3 to 8) (size 9 to 14) (size 15 to 20)
#    0.000    1.500    2.500    1.500    5.250    3.000 
#   11.250    0.000    0.000    0.000    0.000    0.000 
#    0.000    0.000    0.000    0.000    0.000    0.000 
#
# Total GULP energy -89111.228364 kJ/mol
# GULP energy per Si atom -5569.451773 kJ/mol
# Density = 2.159179 g / cm^3
# Si number density = 21.641047 Si / 1000 Ang^3
#
#
#
# Elastic Constant Matrix: (Units=GPa)
#
#
# Indices 1 2 3 4 5 6 
#
# 1 60.4668 7.9927 32.7377 0.0000 -12.6914 0.0000
# 2 7.9927 62.4274 12.6765 0.0000 6.1500 0.0000
# 3 32.7377 12.6765 59.5586 0.0000 14.4049 0.0000
# 4 0.0000 0.0000 0.0000 36.8050 0.0000 0.0234
# 5 -12.6914 6.1500 14.4049 0.0000 47.5995 0.0000
# 6 0.0000 0.0000 0.0000 0.0234 0.0000 19.1686
#
#
#
# Elastic Compliance Matrix: (Units=1/GPa)
#
#
# Indices 1 2 3 4 5 6 
#
# 1 0.030542 -0.001265 -0.019991 0.000000 0.014357 0.000000
# 2 -0.001265 0.016855 -0.002464 0.000000 -0.001769 0.000000
# 3 -0.019991 -0.002464 0.031846 0.000000 -0.014649 0.000000
# 4 0.000000 0.000000 0.000000 0.027170 0.000000 -0.000033
# 5 0.014357 -0.001769 -0.014649 0.000000 0.029498 0.000000
# 6 0.000000 0.000000 0.000000 -0.000033 0.000000 0.052169
#
#
# Mechanical properties :
#
#
# Convention : Reuss Voigt Hill
#
# Bulk Modulus (GPa) = 31.44385 32.14072 31.79229
# Shear Modulus (GPa) = 20.31505 29.31769 24.81637
#
# Velocity S-wave (km/s) = 3.06719 3.68465 3.39001
# Velocity P-wave (km/s) = 5.20623 5.74336 5.48138
#
# Compressibility (1/GPa) = 0.03180272
#
# Stress axis : x y z
#
# Youngs Moduli (GPa) = 32.74165 59.32864 31.40082
#
# Poissons Ratio (x) = 0.07507 0.62774
# Poissons Ratio (y) = 0.04143 0.07737
# Poissons Ratio (z) = 0.65454 0.14619
#
# Static dielectric constant tensor:
#      x y z
#    x 1.862980 0.000000 0.012580 
#    y 0.000000 1.917170 0.000000 
#    z 0.012580 0.000000 1.784960 
# 
# From -- ./inp_files/9487.got.cif
#   From: 2010.05.17/outbox.cif.g08.bks.cpg/sg4_5_cif.got.tgz:9487.got - 2010.06.03 18:43:04.
