data_PCOD9116423
_publ_section_title
;
Structure prediction by ZEFSAII (Michael W. Deem and Ramdas Pophale) SiO2 
 PCOD9116423
Probable space group: P 21
;
_chemical_formula_sum "Si O2"
_cell_formula_units_Z 14
_cell_length_a 8.749950
_cell_length_b 10.769735
_cell_length_c 7.094688
_cell_angle_alpha 90.000000
_cell_angle_beta 101.908002
_cell_angle_gamma 90.000000
_cell_volume 654.177980
_symmetry_space_group_name_H-M "P 21"
_symmetry_group_IT_number 4
_symmetry_cell_setting 'monoclinic'
loop_
_space_group_symop_operation_xyz
x,y,z
-x,1/2+y,-z
loop_
_atom_site_type_symbol
_atom_site_label
_atom_site_fract_x
_atom_site_fract_y
_atom_site_fract_z
Si Si1 0.788568 0.308500 0.482297
Si Si2 0.012494 0.376716 0.858894
Si Si3 0.447794 0.964019 0.835411
Si Si4 0.991146 0.928978 0.713277
Si Si5 0.334385 0.393954 0.779088
Si Si6 0.804727 0.648240 0.208535
Si Si7 0.336536 0.541199 0.434806
O O1 0.862893 0.373854 0.685754
O O2 0.654299 0.376552 0.327961
O O3 0.937303 0.312687 0.378350
O O4 0.726901 0.175743 0.529024
O O5 0.163022 0.445302 0.802792
O O6 0.083634 0.235478 0.889907
O O7 0.976069 0.422622 0.056727
O O8 0.329081 0.058958 0.907023
O O9 0.557720 0.040435 0.721854
O O10 0.553451 0.891772 0.011803
O O11 0.081583 0.051414 0.659532
O O12 0.809862 0.950939 0.642175
O O13 0.289381 0.254794 0.702594
O O14 0.410087 0.477775 0.638065
#
# Coordination Sequence:
#
# PCOD9116423 Si02
#       7
#     2   2   2   2   2   2   2
#     4  11  26  43  65 104 126 172 231 273 320 403
#     4  10  21  43  69  90 132 172 220 266 323 384
#     4  11  26  43  65  99 139 169 220 274 340 388
#     4  11  21  44  69  98 128 172 225 273 327 388
#     4  10  23  43  65  98 130 173 215 270 332 388
#     4   9  22  44  65  94 138 164 221 277 313 403
#     4  12  23  42  72  95 133 176 216 275 335 392
#
# _framework density 21.400905000000002
#
# number of rings (size 3 to 8) (size 9 to 14) (size 15 to 20)
#    0.857    0.571    4.286    0.000    4.000    4.571 
#    0.000    0.000    0.000    0.000    0.000    0.000 
#    0.000    0.000    0.000    0.000    0.000    0.000 
#
# Total GULP energy -77988.387419 kJ/mol
# GULP energy per Si atom -5570.599101 kJ/mol
# Density = 2.135220 g / cm^3
# Si number density = 21.400905 Si / 1000 Ang^3
#
#
#
# Elastic Constant Matrix: (Units=GPa)
#
#
# Indices 1 2 3 4 5 6 
#
# 1 75.0706 23.1183 22.3665 0.0000 15.2043 0.0000
# 2 23.1183 49.8276 15.5836 0.0000 3.6180 0.0000
# 3 22.3665 15.5836 108.8496 0.0000 19.3131 0.0000
# 4 0.0000 0.0000 0.0000 16.4633 0.0000 -0.3854
# 5 15.2043 3.6180 19.3131 0.0000 37.7499 0.0000
# 6 0.0000 0.0000 0.0000 -0.3854 0.0000 29.6527
#
#
#
# Elastic Compliance Matrix: (Units=1/GPa)
#
#
# Indices 1 2 3 4 5 6 
#
# 1 0.017038 -0.007033 -0.001536 0.000000 -0.005403 0.000000
# 2 -0.007033 0.023922 -0.002283 0.000000 0.001708 0.000000
# 3 -0.001536 -0.002283 0.010647 0.000000 -0.004610 0.000000
# 4 0.000000 0.000000 0.000000 0.060760 0.000000 0.000790
# 5 -0.005403 0.001708 -0.004610 0.000000 0.030861 0.000000
# 6 0.000000 0.000000 0.000000 0.000790 0.000000 0.033734
#
#
# Mechanical properties :
#
#
# Convention : Reuss Voigt Hill
#
# Bulk Modulus (GPa) = 33.43849 39.54273 36.49061
# Shear Modulus (GPa) = 23.96557 28.28514 26.12536
#
# Velocity S-wave (km/s) = 3.35003 3.63944 3.49773
# Velocity P-wave (km/s) = 5.53374 6.01481 5.77928
#
# Compressibility (1/GPa) = 0.02990566
#
# Stress axis : x y z
#
# Youngs Moduli (GPa) = 58.69142 41.80252 93.92080
#
# Poissons Ratio (x) = 0.29398 0.14423
# Poissons Ratio (y) = 0.41275 0.21440
# Poissons Ratio (z) = 0.09013 0.09542
#
# Static dielectric constant tensor:
#      x y z
#    x 1.814400 0.000000 0.012000 
#    y 0.000000 1.821910 0.000000 
#    z 0.012000 0.000000 1.765090 
# 
# From -- ./inp_files/1433.got.cif
#   From: 2010.05.17/outbox.cif.g08.bks.cpg/sg4_1_cif.got.tgz:1433.got - 2010.06.03 18:43:04.
