data_PCOD9116661
_publ_section_title
;
Structure prediction by ZEFSAII (Michael W. Deem and Ramdas Pophale) SiO2 
 PCOD9116661
Probable space group: P 21
;
_chemical_formula_sum "Si O2"
_cell_formula_units_Z 16
_cell_length_a 16.751636
_cell_length_b 6.803890
_cell_length_c 7.310044
_cell_angle_alpha 90.000000
_cell_angle_beta 123.568773
_cell_angle_gamma 90.000000
_cell_volume 694.217580
_symmetry_space_group_name_H-M "P 21"
_symmetry_group_IT_number 4
_symmetry_cell_setting 'monoclinic'
loop_
_space_group_symop_operation_xyz
x,y,z
-x,1/2+y,-z
loop_
_atom_site_type_symbol
_atom_site_label
_atom_site_fract_x
_atom_site_fract_y
_atom_site_fract_z
Si Si1 0.034685 0.962330 0.120042
Si Si2 0.209750 0.238954 0.420796
Si Si3 0.965563 0.601102 0.264996
Si Si4 0.813005 0.054116 0.892694
Si Si5 0.596183 0.794466 0.214928
Si Si6 0.468223 0.476486 0.229784
Si Si7 0.624507 0.155583 0.526796
Si Si8 0.138815 0.424661 0.678190
O O1 0.024142 0.771777 0.232464
O O2 0.118462 0.099419 0.301484
O O3 0.056892 0.953364 0.929881
O O4 0.926413 0.047747 0.996247
O O5 0.218318 0.344270 0.236127
O O6 0.311075 0.162561 0.617701
O O7 0.186781 0.405435 0.543169
O O8 0.877713 0.710800 0.250774
O O9 0.033097 0.506046 0.501490
O O10 0.737907 0.199860 0.701693
O O11 0.807280 0.054221 0.104286
O O12 0.506774 0.669960 0.174137
O O13 0.608287 0.996829 0.344467
O O14 0.587837 0.847382 0.991750
O O15 0.408748 0.546152 0.329339
O O16 0.557076 0.342187 0.409629
#
# Coordination Sequence:
#
# PCOD9116661 Si02
#       8
#     2   2   2   2   2   2   2   2
#     4  11  20  41  62  91 135 175 214 268 324 386
#     4  11  22  42  65  97 137 173 219 274 335 388
#     4  11  22  36  64  89 125 179 226 265 323 382
#     4  10  22  39  65  94 134 177 218 267 340 391
#     4  11  25  43  72 104 135 177 223 283 346 410
#     4  12  23  47  71 103 135 175 225 284 350 398
#     4  11  24  43  72 102 138 175 225 284 345 406
#     4  11  20  39  61  92 125 175 222 271 319 383
#
# _framework density 23.047529999999998
#
# number of rings (size 3 to 8) (size 9 to 14) (size 15 to 20)
#    0.000    1.000    6.250    2.250    0.000    1.000 
#    0.000    1.250    0.000    0.000    0.000    0.000 
#    0.000    0.000    0.000    0.000    0.000    0.000 
#
# Total GULP energy -89347.502664 kJ/mol
# GULP energy per Si atom -5584.218917 kJ/mol
# Density = 2.299507 g / cm^3
# Si number density = 23.047530 Si / 1000 Ang^3
#
#
#
# Elastic Constant Matrix: (Units=GPa)
#
#
# Indices 1 2 3 4 5 6 
#
# 1 53.7447 2.0405 22.7030 0.0000 4.9655 0.0000
# 2 2.0405 38.2172 10.0843 0.0000 -9.1705 0.0000
# 3 22.7030 10.0843 141.8496 0.0000 -11.1764 0.0000
# 4 0.0000 0.0000 0.0000 35.4947 0.0000 -4.3389
# 5 4.9655 -9.1705 -11.1764 0.0000 33.5676 0.0000
# 6 0.0000 0.0000 0.0000 -4.3389 0.0000 37.4234
#
#
#
# Elastic Compliance Matrix: (Units=1/GPa)
#
#
# Indices 1 2 3 4 5 6 
#
# 1 0.020583 -0.001256 -0.003565 0.000000 -0.004575 0.000000
# 2 -0.001256 0.028362 -0.001222 0.000000 0.007527 0.000000
# 3 -0.003565 -0.001222 0.007931 0.000000 0.002834 0.000000
# 4 0.000000 0.000000 0.000000 0.028578 0.000000 0.003313
# 5 -0.004575 0.007527 0.002834 0.000000 0.033467 0.000000
# 6 0.000000 0.000000 0.000000 0.003313 0.000000 0.027105
#
#
# Mechanical properties :
#
#
# Convention : Reuss Voigt Hill
#
# Bulk Modulus (GPa) = 22.32727 33.71855 28.02291
# Shear Modulus (GPa) = 28.89450 34.56271 31.72860
#
# Velocity S-wave (km/s) = 3.54459 3.87670 3.71436
# Velocity P-wave (km/s) = 5.14400 5.89069 5.52996
#
# Compressibility (1/GPa) = 0.04478827
#
# Stress axis : x y z
#
# Youngs Moduli (GPa) = 48.58378 35.25847 126.09450
#
# Poissons Ratio (x) = 0.04428 0.44959
# Poissons Ratio (y) = 0.06102 0.15411
# Poissons Ratio (z) = 0.17322 0.04309
#
# Static dielectric constant tensor:
#      x y z
#    x 1.934110 0.000000 0.024930 
#    y 0.000000 1.902590 0.000000 
#    z 0.024930 0.000000 1.860750 
# 
# From -- ./inp_files/4079.got.cif
#   From: 2010.05.17/outbox.cif.g08.bks.cpg/sg4_3_cif.got.tgz:4079.got - 2010.06.03 18:43:04.
