data_PCOD9116810
_publ_section_title
;
Structure prediction by ZEFSAII (Michael W. Deem and Ramdas Pophale) SiO2 
 PCOD9116810
Probable space group: P 21
;
_chemical_formula_sum "Si O2"
_cell_formula_units_Z 14
_cell_length_a 4.741332
_cell_length_b 5.184625
_cell_length_c 18.832317
_cell_angle_alpha 90.000000
_cell_angle_beta 104.265387
_cell_angle_gamma 90.000000
_cell_volume 448.661796
_symmetry_space_group_name_H-M "P 21"
_symmetry_group_IT_number 4
_symmetry_cell_setting 'monoclinic'
loop_
_space_group_symop_operation_xyz
x,y,z
-x,1/2+y,-z
loop_
_atom_site_type_symbol
_atom_site_label
_atom_site_fract_x
_atom_site_fract_y
_atom_site_fract_z
Si Si1 0.455603 0.146130 0.294381
Si Si2 0.701130 0.654627 0.008185
Si Si3 0.644301 0.762029 0.856041
Si Si4 0.310780 0.405740 0.581056
Si Si5 0.756493 0.761866 0.160035
Si Si6 0.119974 0.126181 0.683169
Si Si7 0.788662 0.799062 0.579415
O O1 0.240342 0.189889 0.215924
O O2 0.691427 0.363588 0.295005
O O3 0.392598 0.090996 0.377497
O O4 0.646304 0.880792 0.310677
O O5 0.887513 0.702101 0.090675
O O6 0.547086 0.377435 0.000839
O O7 0.832148 0.711651 0.938589
O O8 0.393922 0.540848 0.847454
O O9 0.495464 0.041528 0.849525
O O10 0.154437 0.139135 0.592104
O O11 0.377743 0.378521 0.501175
O O12 0.054288 0.618307 0.573470
O O13 0.961656 0.718221 0.239762
O O14 0.791717 0.007214 0.643024
#
# Coordination Sequence:
#
# PCOD9116810 Si02
#       7
#     2   2   2   2   2   2   2
#     4   9  21  38  54  87 118 156 212 257 314 390
#     4   8  14  23  45  77 111 149 193 250 308 371
#     4   9  15  30  51  77 118 155 195 258 314 373
#     4  10  22  41  56  86 123 158 213 269 315 398
#     4   9  16  29  49  83 114 149 206 253 309 386
#     4  11  21  39  61  84 123 165 204 270 323 382
#     4  10  23  40  60  86 121 162 209 265 327 378
#
# _framework density 31.203907999999998
#
# number of rings (size 3 to 8) (size 9 to 14) (size 15 to 20)
#    0.857    1.714    1.429    0.857    2.000    0.000 
#    5.143    0.000    0.000    0.000    0.000   26.000 
#    0.000    0.000    0.000    0.000    0.000    0.000 
#
# Total GULP energy -78174.612263 kJ/mol
# GULP energy per Si atom -5583.900876 kJ/mol
# Density = 3.113289 g / cm^3
# Si number density = 31.203908 Si / 1000 Ang^3
#
#
#
# Elastic Constant Matrix: (Units=GPa)
#
#
# Indices 1 2 3 4 5 6 
#
# 1 42.6810 15.5150 4.0502 0.0000 -1.0555 0.0000
# 2 15.5150 184.1111 -18.7362 0.0000 -1.7048 0.0000
# 3 4.0502 -18.7362 255.5922 0.0000 -8.2091 0.0000
# 4 0.0000 0.0000 0.0000 18.2126 0.0000 35.9920
# 5 -1.0555 -1.7048 -8.2091 0.0000 19.1151 0.0000
# 6 0.0000 0.0000 0.0000 35.9920 0.0000 -72.1486
#
#
#
# Elastic Compliance Matrix: (Units=1/GPa)
#
#
# Indices 1 2 3 4 5 6 
#
# 1 0.024260 -0.002087 -0.000507 0.000000 0.000935 0.000000
# 2 -0.002087 0.005660 0.000467 0.000000 0.000590 0.000000
# 3 -0.000507 0.000467 0.004011 0.000000 0.001736 0.000000
# 4 0.000000 0.000000 0.000000 0.027649 0.000000 0.013793
# 5 0.000935 0.000590 0.001736 0.000000 0.053165 0.000000
# 6 0.000000 0.000000 0.000000 0.013793 0.000000 -0.006980
#
#
# Mechanical properties :
#
#
# Convention : Reuss Voigt Hill
#
# Bulk Modulus (GPa) = 33.69832 53.78246 43.74039
# Shear Modulus (GPa) = 41.01325 25.13951 33.07638
#
# Velocity S-wave (km/s) = 3.62935 2.84148 3.25931
# Velocity P-wave (km/s) = 5.32782 5.29515 5.31151
#
# Compressibility (1/GPa) = 0.02967507
#
# Stress axis : x y z
#
# Youngs Moduli (GPa) = 41.22066 176.66634 249.34486
#
# Poissons Ratio (x) = 0.36876 0.12652
# Poissons Ratio (y) = 0.08604 -0.11644
# Poissons Ratio (z) = 0.02092 -0.08250
#
# Static dielectric constant tensor:
#      x y z
#    x 3.713130 0.000000 0.536950 
#    y 0.000000 2.577590 0.000000 
#    z 0.536950 0.000000 3.458390 
# 
# From -- ./inp_files/3849.got.cif
#   From: 2010.05.17/outbox.cif.g08.bks.cpg/sg4_2_cif.got.tgz:3849.got - 2010.06.03 18:43:04.
