data_PCOD9116360
_publ_section_title
;
Structure prediction by ZEFSAII (Michael W. Deem and Ramdas Pophale) SiO2 
 PCOD9116360
Probable space group: P 21
;
_chemical_formula_sum "Si O2"
_cell_formula_units_Z 16
_cell_length_a 8.096712
_cell_length_b 8.310924
_cell_length_c 16.134692
_cell_angle_alpha 90.000000
_cell_angle_beta 146.115236
_cell_angle_gamma 90.000000
_cell_volume 605.316539
_symmetry_space_group_name_H-M "P 21"
_symmetry_group_IT_number 4
_symmetry_cell_setting 'monoclinic'
loop_
_space_group_symop_operation_xyz
x,y,z
-x,1/2+y,-z
loop_
_atom_site_type_symbol
_atom_site_label
_atom_site_fract_x
_atom_site_fract_y
_atom_site_fract_z
Si Si1 0.808167 0.723130 0.329566
Si Si2 0.044927 0.864784 0.667620
Si Si3 0.581627 0.331373 0.379810
Si Si4 0.645223 0.362620 0.605289
Si Si5 0.526974 0.842983 0.060755
Si Si6 0.380559 0.190454 0.068613
Si Si7 0.726721 0.163443 0.791616
Si Si8 0.961089 0.678722 0.801138
O O1 0.848109 0.538566 0.318090
O O2 0.788018 0.812430 0.233927
O O3 0.505432 0.763441 0.250938
O O4 0.083475 0.781632 0.499827
O O5 0.011128 0.817984 0.751654
O O6 0.316406 0.740387 0.757513
O O7 0.694703 0.868295 0.500482
O O8 0.605261 0.338340 0.490726
O O9 0.447510 0.495381 0.289038
O O10 0.313110 0.210202 0.252629
O O11 0.766420 0.219314 0.713053
O O12 0.841681 0.520914 0.705091
O O13 0.624739 0.823817 0.006799
O O14 0.278430 0.704520 0.975754
O O15 0.419708 0.020222 0.038799
O O16 0.050640 0.175825 0.966977
#
# Coordination Sequence:
#
# PCOD9116360 Si02
#       8
#     2   2   2   2   2   2   2   2
#     4  12  28  45  68 105 155 197 242 297 381 454
#     4  10  24  43  71 106 143 189 235 308 366 428
#     4  11  23  46  71 100 143 188 246 301 360 437
#     4  11  24  43  76 108 132 184 248 305 365 424
#     4  11  24  43  72 108 141 193 246 307 370 425
#     4  11  25  46  73 105 143 188 258 307 357 438
#     4  12  29  46  70 106 149 194 240 303 376 447
#     4  10  21  42  73 108 134 181 243 310 349 425
#
# _framework density 26.432451
#
# number of rings (size 3 to 8) (size 9 to 14) (size 15 to 20)
#    0.000    1.000    2.500    3.750   15.750    1.000 
#    0.000    0.000    0.000    0.000    0.000    0.000 
#    0.000    0.000    0.000    0.000    0.000    0.000 
#
# Total GULP energy -89321.839489 kJ/mol
# GULP energy per Si atom -5582.614968 kJ/mol
# Density = 2.637229 g / cm^3
# Si number density = 26.432451 Si / 1000 Ang^3
#
#
#
# Elastic Constant Matrix: (Units=GPa)
#
#
# Indices 1 2 3 4 5 6 
#
# 1 82.9635 12.6284 52.1318 0.0000 13.5848 0.0000
# 2 12.6284 92.6512 45.2325 0.0000 14.3565 0.0000
# 3 52.1318 45.2325 206.2090 0.0000 28.4785 0.0000
# 4 0.0000 0.0000 0.0000 45.0252 0.0000 11.1254
# 5 13.5848 14.3565 28.4785 0.0000 60.4907 0.0000
# 6 0.0000 0.0000 0.0000 11.1254 0.0000 11.1400
#
#
#
# Elastic Compliance Matrix: (Units=1/GPa)
#
#
# Indices 1 2 3 4 5 6 
#
# 1 0.014480 -0.000049 -0.003425 0.000000 -0.001628 0.000000
# 2 -0.000049 0.012260 -0.002435 0.000000 -0.001752 0.000000
# 3 -0.003425 -0.002435 0.006485 0.000000 -0.001706 0.000000
# 4 0.000000 0.000000 0.000000 0.029486 0.000000 -0.029447
# 5 -0.001628 -0.001752 -0.001706 0.000000 0.018116 0.000000
# 6 0.000000 0.000000 0.000000 -0.029447 0.000000 0.119176
#
#
# Mechanical properties :
#
#
# Convention : Reuss Voigt Hill
#
# Bulk Modulus (GPa) = 46.71459 66.86768 56.79113
# Shear Modulus (GPa) = 22.83561 41.45324 32.14442
#
# Velocity S-wave (km/s) = 2.94245 3.96444 3.49104
# Velocity P-wave (km/s) = 5.40884 6.80501 6.14669
#
# Compressibility (1/GPa) = 0.02140659
#
# Stress axis : x y z
#
# Youngs Moduli (GPa) = 69.06227 81.56532 154.20132
#
# Poissons Ratio (x) = 0.00402 0.52814
# Poissons Ratio (y) = 0.00340 0.37545
# Poissons Ratio (z) = 0.23654 0.19860
#
# Static dielectric constant tensor:
#      x y z
#    x 2.221230 0.000000 0.038550 
#    y 0.000000 2.109130 0.000000 
#    z 0.038550 0.000000 2.178010 
# 
# From -- ./inp_files/15625.got.cif
#   From: 2010.05.17/outbox.cif.g08.bks.cpg/sg4_8_cif.got.tgz:15625.got - 2010.06.03 18:43:04.
