data_PCOD9116494
_publ_section_title
;
Structure prediction by ZEFSAII (Michael W. Deem and Ramdas Pophale) SiO2 
 PCOD9116494
Probable space group: P 21
;
_chemical_formula_sum "Si O2"
_cell_formula_units_Z 14
_cell_length_a 7.968757
_cell_length_b 8.053596
_cell_length_c 10.763735
_cell_angle_alpha 90.000000
_cell_angle_beta 130.963267
_cell_angle_gamma 90.000000
_cell_volume 521.633126
_symmetry_space_group_name_H-M "P 21"
_symmetry_group_IT_number 4
_symmetry_cell_setting 'monoclinic'
loop_
_space_group_symop_operation_xyz
x,y,z
-x,1/2+y,-z
loop_
_atom_site_type_symbol
_atom_site_label
_atom_site_fract_x
_atom_site_fract_y
_atom_site_fract_z
Si Si1 0.436261 0.617180 0.904086
Si Si2 0.203060 0.086458 0.724153
Si Si3 0.409537 0.362009 0.703944
Si Si4 0.723254 0.779139 0.848293
Si Si5 0.917558 0.551528 0.604579
Si Si6 0.211920 0.419077 0.376627
Si Si7 0.831055 0.403740 0.808258
O O1 0.517559 0.452789 0.873678
O O2 0.534147 0.760187 0.861915
O O3 0.172060 0.604585 0.761712
O O4 0.556631 0.602609 0.094033
O O5 0.200014 0.273594 0.666912
O O6 0.153368 0.999539 0.568534
O O7 0.024835 0.013447 0.734257
O O8 0.338066 0.490863 0.559360
O O9 0.629213 0.283313 0.749821
O O10 0.686850 0.896457 0.710309
O O11 0.787821 0.594850 0.829547
O O12 0.940126 0.845913 0.023169
O O13 0.797916 0.728037 0.577691
O O14 0.844549 0.414056 0.667104
#
# Coordination Sequence:
#
# PCOD9116494 Si02
#       7
#     2   2   2   2   2   2   2
#     4  11  24  43  70 102 140 188 235 293 359 424
#     4  11  24  42  76 102 138 192 242 296 361 427
#     4  10  23  45  68 104 145 188 240 296 362 427
#     4  10  23  44  70 103 145 186 240 293 362 432
#     4  10  24  44  68 101 145 182 239 301 353 432
#     4  10  21  45  67 102 142 187 239 294 360 427
#     4  10  23  45  69 102 149 189 237 303 357 433
#
# _framework density 26.838785000000001
#
# number of rings (size 3 to 8) (size 9 to 14) (size 15 to 20)
#    0.000    1.714    1.429    1.714    8.000    0.000 
#    7.714    2.857    0.000    0.000    0.000    0.000 
#    0.000    0.000    0.000    0.000    0.000    0.000 
#
# Total GULP energy -78066.433458 kJ/mol
# GULP energy per Si atom -5576.173818 kJ/mol
# Density = 2.677770 g / cm^3
# Si number density = 26.838785 Si / 1000 Ang^3
#
#
#
# Elastic Constant Matrix: (Units=GPa)
#
#
# Indices 1 2 3 4 5 6 
#
# 1 97.6625 30.5549 21.5374 0.0000 -17.4546 0.0000
# 2 30.5549 78.4825 23.1956 0.0000 -9.1887 0.0000
# 3 21.5374 23.1956 168.3386 0.0000 -16.0382 0.0000
# 4 0.0000 0.0000 0.0000 33.5631 0.0000 2.3631
# 5 -17.4546 -9.1887 -16.0382 0.0000 41.7908 0.0000
# 6 0.0000 0.0000 0.0000 2.3631 0.0000 38.5725
#
#
#
# Elastic Compliance Matrix: (Units=1/GPa)
#
#
# Indices 1 2 3 4 5 6 
#
# 1 0.012402 -0.004172 -0.000629 0.000000 0.004021 0.000000
# 2 -0.004172 0.014903 -0.001426 0.000000 0.000987 0.000000
# 3 -0.000629 -0.001426 0.006396 0.000000 0.001879 0.000000
# 4 0.000000 0.000000 0.000000 0.029924 0.000000 -0.001833
# 5 0.004021 0.000987 0.001879 0.000000 0.026546 0.000000
# 6 0.000000 0.000000 0.000000 -0.001833 0.000000 0.026038
#
#
# Mechanical properties :
#
#
# Convention : Reuss Voigt Hill
#
# Bulk Modulus (GPa) = 47.06176 55.00659 51.03417
# Shear Modulus (GPa) = 36.83418 40.73167 38.78292
#
# Velocity S-wave (km/s) = 3.70864 3.89992 3.80548
# Velocity P-wave (km/s) = 5.99264 6.38896 6.19397
#
# Compressibility (1/GPa) = 0.02124868
#
# Stress axis : x y z
#
# Youngs Moduli (GPa) = 80.63312 67.10171 156.34072
#
# Poissons Ratio (x) = 0.27993 0.09830
# Poissons Ratio (y) = 0.33637 0.22289
# Poissons Ratio (z) = 0.05070 0.09567
#
# Static dielectric constant tensor:
#      x y z
#    x 2.174460 0.000000 0.007090 
#    y 0.000000 2.285030 0.000000 
#    z 0.007090 0.000000 2.123220 
# 
# From -- ./inp_files/11076.got.cif
#   From: 2010.05.17/outbox.cif.g08.bks.cpg/sg4_6_cif.got.tgz:11076.got - 2010.06.03 18:43:04.
