data_PCOD9116229
_publ_section_title
;
Structure prediction by ZEFSAII (Michael W. Deem and Ramdas Pophale) SiO2 
 PCOD9116229
Probable space group: P 21
;
_chemical_formula_sum "Si O2"
_cell_formula_units_Z 16
_cell_length_a 13.172242
_cell_length_b 8.853029
_cell_length_c 5.525855
_cell_angle_alpha 90.000000
_cell_angle_beta 76.674324
_cell_angle_gamma 90.000000
_cell_volume 627.043532
_symmetry_space_group_name_H-M "P 21"
_symmetry_group_IT_number 4
_symmetry_cell_setting 'monoclinic'
loop_
_space_group_symop_operation_xyz
x,y,z
-x,1/2+y,-z
loop_
_atom_site_type_symbol
_atom_site_label
_atom_site_fract_x
_atom_site_fract_y
_atom_site_fract_z
Si Si1 0.274154 0.407380 0.898006
Si Si2 0.995954 0.591724 0.830336
Si Si3 0.946364 0.316078 0.572336
Si Si4 0.737457 0.783939 0.594228
Si Si5 0.503454 0.217323 0.254436
Si Si6 0.489524 0.854178 0.248686
Si Si7 0.169694 0.013227 0.722430
Si Si8 0.204354 0.721507 0.974709
O O1 0.227591 0.378955 0.658739
O O2 0.385481 0.323817 0.824860
O O3 0.286439 0.587387 0.916587
O O4 0.221381 0.349326 0.174511
O O5 0.989917 0.683604 0.583446
O O6 0.099410 0.647155 0.910517
O O7 0.995402 0.415505 0.757204
O O8 0.892294 0.611345 0.046361
O O9 0.920767 0.426323 0.368060
O O10 0.835802 0.256516 0.733959
O O11 0.612333 0.793241 0.680429
O O12 0.766682 0.613635 0.500620
O O13 0.483147 0.036584 0.259555
O O14 0.550888 0.273314 0.485077
O O15 0.552709 0.284111 0.978866
O O16 0.229496 0.879272 0.830391
#
# Coordination Sequence:
#
# PCOD9116229 Si02
#       8
#     2   2   2   2   2   2   2   2
#     4  10  24  42  63  93 128 164 208 256 310 373
#     4  10  22  40  58  84 114 154 210 260 306 368
#     4  10  22  40  58  82 116 152 210 262 310 364
#     4  10  24  42  63  93 128 164 208 256 310 373
#     4  10  21  41  65  98 131 165 210 255 308 376
#     4  10  21  41  65  98 131 165 210 255 308 376
#     4  10  23  41  58  87 121 160 212 260 313 370
#     4  10  23  41  58  87 121 160 212 260 313 370
#
# _framework density 25.516569
#
# number of rings (size 3 to 8) (size 9 to 14) (size 15 to 20)
#    0.000    2.000    0.000    1.500    7.000    6.000 
#    4.500    0.000    0.000    0.000    0.000    0.000 
#    0.000    0.000    0.000    0.000    0.000    0.000 
#
# Total GULP energy -89431.859103 kJ/mol
# GULP energy per Si atom -5589.491194 kJ/mol
# Density = 2.545849 g / cm^3
# Si number density = 25.516569 Si / 1000 Ang^3
#
#
#
# Elastic Constant Matrix: (Units=GPa)
#
#
# Indices 1 2 3 4 5 6 
#
# 1 31.7690 -12.3449 16.5013 0.0000 -2.2439 0.0000
# 2 -12.3449 125.7863 82.0073 0.0000 16.9801 0.0000
# 3 16.5013 82.0073 204.6140 0.0000 28.4393 0.0000
# 4 0.0000 0.0000 0.0000 49.8543 0.0000 -0.8160
# 5 -2.2439 16.9801 28.4393 0.0000 27.1892 0.0000
# 6 0.0000 0.0000 0.0000 -0.8160 0.0000 38.2061
#
#
#
# Elastic Compliance Matrix: (Units=1/GPa)
#
#
# Indices 1 2 3 4 5 6 
#
# 1 0.038365 0.007486 -0.006885 0.000000 0.005693 0.000000
# 2 0.007486 0.012380 -0.005355 0.000000 -0.001512 0.000000
# 3 -0.006885 -0.005355 0.008428 0.000000 -0.006040 0.000000
# 4 0.000000 0.000000 0.000000 0.020065 0.000000 0.000429
# 5 0.005693 -0.001512 -0.006040 0.000000 0.044511 0.000000
# 6 0.000000 0.000000 0.000000 0.000429 0.000000 0.026183
#
#
# Mechanical properties :
#
#
# Convention : Reuss Voigt Hill
#
# Bulk Modulus (GPa) = 20.13582 59.38854 39.76218
# Shear Modulus (GPa) = 28.40955 41.45030 34.92993
#
# Velocity S-wave (km/s) = 3.34035 4.03481 3.70389
# Velocity P-wave (km/s) = 4.77343 6.71054 5.82310
#
# Compressibility (1/GPa) = 0.04966275
#
# Stress axis : x y z
#
# Youngs Moduli (GPa) = 26.06574 80.77372 118.64689
#
# Poissons Ratio (x) = -0.60464 0.81694
# Poissons Ratio (y) = -0.19512 0.63540
# Poissons Ratio (z) = 0.17947 0.43257
#
# Static dielectric constant tensor:
#      x y z
#    x 2.048520 0.000000 0.008630 
#    y 0.000000 1.996410 0.000000 
#    z 0.008630 0.000000 2.011440 
# 
# From -- ./inp_files/3504.got.cif
#   From: 2010.05.17/outbox.cif.g08.bks.cpg/sg4_2_cif.got.tgz:3504.got - 2010.06.03 18:43:04.
