data_PCOD9116947
_publ_section_title
;
Structure prediction by ZEFSAII (Michael W. Deem and Ramdas Pophale) SiO2 
 PCOD9116947
Probable space group: P 21
;
_chemical_formula_sum "Si O2"
_cell_formula_units_Z 16
_cell_length_a 7.949797
_cell_length_b 11.268319
_cell_length_c 8.602405
_cell_angle_alpha 90.000000
_cell_angle_beta 72.674892
_cell_angle_gamma 90.000000
_cell_volume 735.648433
_symmetry_space_group_name_H-M "P 21"
_symmetry_group_IT_number 4
_symmetry_cell_setting 'monoclinic'
loop_
_space_group_symop_operation_xyz
x,y,z
-x,1/2+y,-z
loop_
_atom_site_type_symbol
_atom_site_label
_atom_site_fract_x
_atom_site_fract_y
_atom_site_fract_z
Si Si1 0.191353 0.152070 0.150410
Si Si2 0.857261 0.700596 0.197891
Si Si3 0.339999 0.801617 0.289185
Si Si4 0.227911 0.587936 0.123666
Si Si5 0.014689 0.433230 0.681004
Si Si6 0.535387 0.028699 0.199886
Si Si7 0.477344 0.200005 0.484945
Si Si8 0.272807 0.374426 0.334769
O O1 0.375123 0.086646 0.144652
O O2 0.181035 0.268489 0.261779
O O3 0.036519 0.060199 0.236839
O O4 0.188548 0.181597 0.969245
O O5 0.695189 0.680163 0.360169
O O6 0.019936 0.612909 0.196020
O O7 0.923924 0.834987 0.210767
O O8 0.319632 0.707563 0.158367
O O9 0.166613 0.881297 0.339801
O O10 0.367947 0.734675 0.442212
O O11 0.503220 0.889029 0.217214
O O12 0.302898 0.480251 0.206088
O O13 0.285248 0.562653 0.933006
O O14 0.154699 0.428983 0.504331
O O15 0.519990 0.084880 0.373458
O O16 0.433312 0.307188 0.377143
#
# Coordination Sequence:
#
# PCOD9116947 Si02
#       8
#     2   2   2   2   2   2   2   2
#     4  10  22  42  66  89 130 172 207 265 319 374
#     4  10  23  41  65  96 127 167 210 262 319 384
#     4  10  23  41  66  92 130 167 209 269 310 382
#     4  11  25  40  65  95 130 163 218 260 319 376
#     4   9  22  42  62  97 128 167 214 262 319 382
#     4  10  24  42  64  92 127 170 210 262 318 380
#     4  10  23  43  66  92 128 166 213 258 325 381
#     4  10  24  39  66  93 128 168 213 262 319 377
#
# _framework density 21.749521000000001
#
# number of rings (size 3 to 8) (size 9 to 14) (size 15 to 20)
#    0.000    2.000    0.000    0.750   17.500    2.000 
#    0.000    0.000    0.000    0.000    0.000    0.000 
#    0.000    0.000    0.000    0.000    0.000    0.000 
#
# Total GULP energy -89494.760271 kJ/mol
# GULP energy per Si atom -5593.422517 kJ/mol
# Density = 2.170002 g / cm^3
# Si number density = 21.749521 Si / 1000 Ang^3
#
#
#
# Elastic Constant Matrix: (Units=GPa)
#
#
# Indices 1 2 3 4 5 6 
#
# 1 47.6684 13.1131 22.3181 0.0000 10.7226 0.0000
# 2 13.1131 80.7234 34.4368 0.0000 -7.2863 0.0000
# 3 22.3181 34.4368 99.2816 0.0000 11.2848 0.0000
# 4 0.0000 0.0000 0.0000 23.4241 0.0000 1.5663
# 5 10.7226 -7.2863 11.2848 0.0000 31.3319 0.0000
# 6 0.0000 0.0000 0.0000 1.5663 0.0000 16.4402
#
#
#
# Elastic Compliance Matrix: (Units=1/GPa)
#
#
# Indices 1 2 3 4 5 6 
#
# 1 0.025430 -0.003316 -0.003639 0.000000 -0.008163 0.000000
# 2 -0.003316 0.015911 -0.005550 0.000000 0.006834 0.000000
# 3 -0.003639 -0.005550 0.013368 0.000000 -0.004860 0.000000
# 4 0.000000 0.000000 0.000000 0.042965 0.000000 -0.004093
# 5 -0.008163 0.006834 -0.004860 0.000000 0.038050 0.000000
# 6 0.000000 0.000000 0.000000 -0.004093 0.000000 0.061216
#
#
# Mechanical properties :
#
#
# Convention : Reuss Voigt Hill
#
# Bulk Modulus (GPa) = 33.66995 40.82326 37.24660
# Shear Modulus (GPa) = 21.56567 24.75960 23.16263
#
# Velocity S-wave (km/s) = 3.15230 3.37767 3.26693
# Velocity P-wave (km/s) = 5.36318 5.83284 5.60294
#
# Compressibility (1/GPa) = 0.02970007
#
# Stress axis : x y z
#
# Youngs Moduli (GPa) = 39.32324 62.84851 74.80563
#
# Poissons Ratio (x) = 0.20838 0.27219
# Poissons Ratio (y) = 0.13038 0.41520
# Poissons Ratio (z) = 0.14308 0.34884
#
# Static dielectric constant tensor:
#      x y z
#    x 1.815520 0.000000 0.007080 
#    y 0.000000 1.782180 0.000000 
#    z 0.007080 0.000000 1.762920 
# 
# From -- ./inp_files/5931.got.cif
#   From: 2010.05.17/outbox.cif.g08.bks.cpg/sg4_3_cif.got.tgz:5931.got - 2010.06.03 18:43:04.
