data_PCOD9116897
_publ_section_title
;
Structure prediction by ZEFSAII (Michael W. Deem and Ramdas Pophale) SiO2 
 PCOD9116897
Probable space group: P 21
;
_chemical_formula_sum "Si O2"
_cell_formula_units_Z 14
_cell_length_a 22.469193
_cell_length_b 5.169916
_cell_length_c 6.472573
_cell_angle_alpha 90.000000
_cell_angle_beta 131.970475
_cell_angle_gamma 90.000000
_cell_volume 559.014122
_symmetry_space_group_name_H-M "P 21"
_symmetry_group_IT_number 4
_symmetry_cell_setting 'monoclinic'
loop_
_space_group_symop_operation_xyz
x,y,z
-x,1/2+y,-z
loop_
_atom_site_type_symbol
_atom_site_label
_atom_site_fract_x
_atom_site_fract_y
_atom_site_fract_z
Si Si1 0.402725 0.736580 0.878775
Si Si2 0.134706 0.677926 0.661258
Si Si3 0.273204 0.334303 0.010295
Si Si4 0.155197 0.031040 0.042071
Si Si5 0.052213 0.330824 0.142306
Si Si6 0.580938 0.740444 0.368631
Si Si7 0.757120 0.429839 0.372574
O O1 0.401578 0.467522 0.755029
O O2 0.325407 0.773618 0.841021
O O3 0.403406 0.969067 0.711468
O O4 0.486381 0.753213 0.195925
O O5 0.090955 0.440804 0.446597
O O6 0.156410 0.872178 0.528086
O O7 0.227562 0.604217 0.923514
O O8 0.102542 0.829870 0.784655
O O9 0.360712 0.293869 0.304603
O O10 0.211907 0.173889 0.012336
O O11 0.264870 0.213556 0.762741
O O12 0.218335 0.889447 0.335180
O O13 0.108777 0.230734 0.084437
O O14 0.005603 0.586857 0.955717
#
# Coordination Sequence:
#
# PCOD9116897 Si02
#       7
#     2   2   2   2   2   2   2
#     4  10  22  41  68  98 150 203 247 317 381 432
#     4  11  27  47  79 116 144 201 263 307 386 477
#     4  11  24  42  74 110 142 196 263 302 380 461
#     4  11  25  49  81 106 155 198 251 325 377 455
#     4  12  29  55  81 116 158 200 251 321 403 482
#     4  10  22  42  65 104 145 200 256 308 383 440
#     4  11  23  44  72 110 148 200 257 312 382 449
#
# _framework density 25.044087000000001
#
# number of rings (size 3 to 8) (size 9 to 14) (size 15 to 20)
#    0.000    1.143    2.857    1.714   12.000    0.000 
#    5.143    0.000    0.000    0.000    0.000    0.000 
#    0.000    0.000    0.000    0.000    0.000    0.000 
#
# Total GULP energy -78163.744280 kJ/mol
# GULP energy per Si atom -5583.124591 kJ/mol
# Density = 2.498709 g / cm^3
# Si number density = 25.044087 Si / 1000 Ang^3
#
#
#
# Elastic Constant Matrix: (Units=GPa)
#
#
# Indices 1 2 3 4 5 6 
#
# 1 84.8398 39.1513 41.6506 0.0000 9.4288 0.0000
# 2 39.1513 100.6834 37.1965 0.0000 6.3401 0.0000
# 3 41.6506 37.1965 152.1111 0.0000 11.1404 0.0000
# 4 0.0000 0.0000 0.0000 35.8123 0.0000 0.1839
# 5 9.4288 6.3401 11.1404 0.0000 28.2925 0.0000
# 6 0.0000 0.0000 0.0000 0.1839 0.0000 40.9519
#
#
#
# Elastic Compliance Matrix: (Units=1/GPa)
#
#
# Indices 1 2 3 4 5 6 
#
# 1 0.015805 -0.004879 -0.002913 0.000000 -0.003027 0.000000
# 2 -0.004879 0.012482 -0.001679 0.000000 -0.000510 0.000000
# 3 -0.002913 -0.001679 0.007912 0.000000 -0.001768 0.000000
# 4 0.000000 0.000000 0.000000 0.027924 0.000000 -0.000125
# 5 -0.003027 -0.000510 -0.001768 0.000000 0.037164 0.000000
# 6 0.000000 0.000000 0.000000 -0.000125 0.000000 0.024419
#
#
# Mechanical properties :
#
#
# Convention : Reuss Voigt Hill
#
# Bulk Modulus (GPa) = 57.94838 63.73680 60.84259
# Shear Modulus (GPa) = 33.24463 35.65373 34.44918
#
# Velocity S-wave (km/s) = 3.64736 3.77721 3.71285
# Velocity P-wave (km/s) = 6.39738 6.67294 6.53661
#
# Compressibility (1/GPa) = 0.01725674
#
# Stress axis : x y z
#
# Youngs Moduli (GPa) = 63.27148 80.11699 126.39360
#
# Poissons Ratio (x) = 0.39090 0.36817
# Poissons Ratio (y) = 0.30871 0.21220
# Poissons Ratio (z) = 0.18430 0.13451
#
# Static dielectric constant tensor:
#      x y z
#    x 2.032190 0.000000 -0.053330 
#    y 0.000000 2.088080 0.000000 
#    z -0.053330 0.000000 2.052400 
# 
# From -- ./inp_files/4368.got.cif
#   From: 2010.05.17/outbox.cif.g08.bks.cpg/sg4_3_cif.got.tgz:4368.got - 2010.06.03 18:43:04.
