data_PCOD9116516
_publ_section_title
;
Structure prediction by ZEFSAII (Michael W. Deem and Ramdas Pophale) SiO2 
 PCOD9116516
Probable space group: P 21
;
_chemical_formula_sum "Si O2"
_cell_formula_units_Z 16
_cell_length_a 14.772418
_cell_length_b 8.638106
_cell_length_c 11.589055
_cell_angle_alpha 90.000000
_cell_angle_beta 27.995932
_cell_angle_gamma 90.000000
_cell_volume 694.175745
_symmetry_space_group_name_H-M "P 21"
_symmetry_group_IT_number 4
_symmetry_cell_setting 'monoclinic'
loop_
_space_group_symop_operation_xyz
x,y,z
-x,1/2+y,-z
loop_
_atom_site_type_symbol
_atom_site_label
_atom_site_fract_x
_atom_site_fract_y
_atom_site_fract_z
Si Si1 0.285020 0.117620 0.739564
Si Si2 0.471409 0.183025 0.108326
Si Si3 0.700060 0.433779 0.519044
Si Si4 0.600492 0.683005 0.076356
Si Si5 0.262807 0.830086 0.024685
Si Si6 0.975316 0.717974 0.765224
Si Si7 0.161706 0.418996 0.542256
Si Si8 0.586420 0.903881 0.514260
O O1 0.304832 0.299899 0.699202
O O2 0.266675 0.026572 0.638584
O O3 0.475807 0.045647 0.582211
O O4 0.112483 0.117965 0.027268
O O5 0.675281 0.232577 0.934119
O O6 0.321770 0.324507 0.293939
O O7 0.386574 0.044926 0.283331
O O8 0.470021 0.163534 0.974093
O O9 0.555471 0.285370 0.678377
O O10 0.902046 0.361607 0.330851
O O11 0.662531 0.506875 0.038627
O O12 0.803276 0.766856 0.874363
O O13 0.415089 0.788593 0.753042
O O14 0.041375 0.826768 0.237580
O O15 0.110461 0.588950 0.554287
O O16 0.262510 0.436032 0.554002
#
# Coordination Sequence:
#
# PCOD9116516 Si02
#       8
#     2   2   2   2   2   2   2   2
#     4  12  25  45  70 100 139 185 223 288 343 420
#     4  11  24  43  73 100 135 183 231 290 347 405
#     4  12  26  45  68 104 141 179 233 291 343 414
#     4  11  24  47  69 102 136 182 232 285 350 408
#     4  10  21  46  67  95 137 181 229 276 346 403
#     4  11  27  43  66 103 139 184 230 282 344 418
#     4  10  22  45  68  96 140 184 226 282 343 413
#     4  11  23  44  65  98 135 180 224 276 346 401
#
# _framework density 23.048918
#
# number of rings (size 3 to 8) (size 9 to 14) (size 15 to 20)
#    0.000    1.000    5.000    3.000    3.500    4.000 
#    2.250    0.000    0.000    0.000    0.000    0.000 
#    0.000    0.000    0.000    0.000    0.000    0.000 
#
# Total GULP energy -89294.372126 kJ/mol
# GULP energy per Si atom -5580.898258 kJ/mol
# Density = 2.299646 g / cm^3
# Si number density = 23.048918 Si / 1000 Ang^3
#
#
#
# Elastic Constant Matrix: (Units=GPa)
#
#
# Indices 1 2 3 4 5 6 
#
# 1 115.8128 16.6142 43.5394 0.0000 -27.9588 0.0000
# 2 16.6142 64.8387 21.2563 0.0000 -1.4840 0.0000
# 3 43.5394 21.2563 73.8646 0.0000 -28.9552 0.0000
# 4 0.0000 0.0000 0.0000 31.0637 0.0000 -13.2868
# 5 -27.9588 -1.4840 -28.9552 0.0000 47.1626 0.0000
# 6 0.0000 0.0000 0.0000 -13.2868 0.0000 23.2252
#
#
#
# Elastic Compliance Matrix: (Units=1/GPa)
#
#
# Indices 1 2 3 4 5 6 
#
# 1 0.011604 -0.001247 -0.005005 0.000000 0.003768 0.000000
# 2 -0.001247 0.017552 -0.005781 0.000000 -0.003736 0.000000
# 3 -0.005005 -0.005781 0.022279 0.000000 0.010530 0.000000
# 4 0.000000 0.000000 0.000000 0.042621 0.000000 0.024383
# 5 0.003768 -0.003736 0.010530 0.000000 0.029784 0.000000
# 6 0.000000 0.000000 0.000000 0.024383 0.000000 0.057006
#
#
# Mechanical properties :
#
#
# Convention : Reuss Voigt Hill
#
# Bulk Modulus (GPa) = 36.53347 46.37066 41.45206
# Shear Modulus (GPa) = 23.36078 31.83071 27.59574
#
# Velocity S-wave (km/s) = 3.18705 3.72022 3.46391
# Velocity P-wave (km/s) = 5.42475 6.21413 5.83281
#
# Compressibility (1/GPa) = 0.02737216
#
# Stress axis : x y z
#
# Youngs Moduli (GPa) = 86.17377 56.97394 44.88452
#
# Poissons Ratio (x) = 0.07102 0.22463
# Poissons Ratio (y) = 0.10742 0.25946
# Poissons Ratio (z) = 0.43127 0.32934
#
# Static dielectric constant tensor:
#      x y z
#    x 1.879390 0.000000 0.045680 
#    y 0.000000 1.949500 0.000000 
#    z 0.045680 0.000000 1.940690 
# 
# From -- ./inp_files/12624.got.cif
#   From: 2010.05.17/outbox.cif.g08.bks.cpg/sg4_7_cif.got.tgz:12624.got - 2010.06.03 18:43:04.
