data_PCOD9116316
_publ_section_title
;
Structure prediction by ZEFSAII (Michael W. Deem and Ramdas Pophale) SiO2 
 PCOD9116316
Probable space group: P 21
;
_chemical_formula_sum "Si O2"
_cell_formula_units_Z 16
_cell_length_a 11.185024
_cell_length_b 5.012663
_cell_length_c 16.613697
_cell_angle_alpha 90.000000
_cell_angle_beta 41.125247
_cell_angle_gamma 90.000000
_cell_volume 612.638567
_symmetry_space_group_name_H-M "P 21"
_symmetry_group_IT_number 4
_symmetry_cell_setting 'monoclinic'
loop_
_space_group_symop_operation_xyz
x,y,z
-x,1/2+y,-z
loop_
_atom_site_type_symbol
_atom_site_label
_atom_site_fract_x
_atom_site_fract_y
_atom_site_fract_z
Si Si1 0.223125 0.969150 0.615719
Si Si2 0.663804 0.541081 0.283087
Si Si3 0.039211 0.458109 0.030750
Si Si4 0.419303 0.011701 0.996900
Si Si5 0.955865 0.036728 0.471360
Si Si6 0.981044 0.479238 0.738570
Si Si7 0.434383 0.337577 0.832885
Si Si8 0.622150 0.653017 0.623168
O O1 0.141379 0.683203 0.681910
O O2 0.369235 0.083257 0.605818
O O3 0.305342 0.963163 0.484450
O O4 0.058649 0.181482 0.694675
O O5 0.608387 0.713070 0.233688
O O6 0.571752 0.262078 0.308119
O O7 0.882537 0.542759 0.170454
O O8 0.245860 0.479825 0.953800
O O9 0.004957 0.656216 0.973152
O O10 0.200811 0.003798 0.117364
O O11 0.498317 0.228024 0.020160
O O12 0.473302 0.121647 0.881393
O O13 0.055021 0.060034 0.335816
O O14 0.048037 0.817592 0.482249
O O15 0.758938 0.903331 0.556412
O O16 0.591092 0.539487 0.728051
#
# Coordination Sequence:
#
# PCOD9116316 Si02
#       8
#     2   2   2   2   2   2   2   2
#     4  11  27  46  76 110 158 200 242 301 395 449
#     4  11  26  42  78 106 155 191 248 301 374 461
#     4  10  21  42  66 104 139 189 230 287 366 435
#     4  12  30  51  78 110 148 199 258 331 390 435
#     4  11  26  47  79 108 145 200 258 319 386 443
#     4  11  26  53  72 109 153 199 251 313 381 472
#     4  11  27  46  74 109 150 196 258 309 375 463
#     4  11  27  45  73 112 150 196 255 315 369 460
#
# _framework density 26.116540000000001
#
# number of rings (size 3 to 8) (size 9 to 14) (size 15 to 20)
#    0.000    1.000    1.250    3.000   12.250    4.000 
#    0.000    0.000    0.000    0.000    0.000    0.000 
#    0.000    0.000    0.000    0.000    0.000    0.000 
#
# Total GULP energy -89622.367187 kJ/mol
# GULP energy per Si atom -5601.397949 kJ/mol
# Density = 2.605710 g / cm^3
# Si number density = 26.116540 Si / 1000 Ang^3
#
#
#
# Elastic Constant Matrix: (Units=GPa)
#
#
# Indices 1 2 3 4 5 6 
#
# 1 91.9396 -1.5819 19.2046 0.0000 23.9519 0.0000
# 2 -1.5819 64.0888 25.5956 0.0000 -5.8673 0.0000
# 3 19.2046 25.5956 113.9880 0.0000 2.0898 0.0000
# 4 0.0000 0.0000 0.0000 34.4698 0.0000 2.5927
# 5 23.9519 -5.8673 2.0898 0.0000 39.7248 0.0000
# 6 0.0000 0.0000 0.0000 2.5927 0.0000 46.4472
#
#
#
# Elastic Compliance Matrix: (Units=1/GPa)
#
#
# Indices 1 2 3 4 5 6 
#
# 1 0.013406 0.000497 -0.002226 0.000000 -0.007893 0.000000
# 2 0.000497 0.017461 -0.004050 0.000000 0.002492 0.000000
# 3 -0.002226 -0.004050 0.010053 0.000000 0.000215 0.000000
# 4 0.000000 0.000000 0.000000 0.029133 0.000000 -0.001626
# 5 -0.007893 0.002492 0.000215 0.000000 0.030289 0.000000
# 6 0.000000 0.000000 0.000000 -0.001626 0.000000 0.021621
#
#
# Mechanical properties :
#
#
# Convention : Reuss Voigt Hill
#
# Bulk Modulus (GPa) = 34.05579 39.60588 36.83084
# Shear Modulus (GPa) = 34.88954 39.24824 37.06889
#
# Velocity S-wave (km/s) = 3.65899 3.88082 3.77153
# Velocity P-wave (km/s) = 5.56050 5.93961 5.75318
#
# Compressibility (1/GPa) = 0.02936359
#
# Stress axis : x y z
#
# Youngs Moduli (GPa) = 74.59132 57.26909 99.46905
#
# Poissons Ratio (x) = -0.02847 0.22138
# Poissons Ratio (y) = -0.03709 0.40289
# Poissons Ratio (z) = 0.16601 0.23196
#
# Static dielectric constant tensor:
#      x y z
#    x 2.065300 0.000000 -0.029130 
#    y 0.000000 2.050580 0.000000 
#    z -0.029130 0.000000 2.038830 
# 
# From -- ./inp_files/15074.got.cif
#   From: 2010.05.17/outbox.cif.g08.bks.cpg/sg4_8_cif.got.tgz:15074.got - 2010.06.03 18:43:04.
