data_PCOD9116959
_publ_section_title
;
Structure prediction by ZEFSAII (Michael W. Deem and Ramdas Pophale) SiO2 
 PCOD9116959
Probable space group: P 21
;
_chemical_formula_sum "Si O2"
_cell_formula_units_Z 14
_cell_length_a 16.293335
_cell_length_b 5.115857
_cell_length_c 9.546473
_cell_angle_alpha 90.000000
_cell_angle_beta 133.780466
_cell_angle_gamma 90.000000
_cell_volume 574.521413
_symmetry_space_group_name_H-M "P 21"
_symmetry_group_IT_number 4
_symmetry_cell_setting 'monoclinic'
loop_
_space_group_symop_operation_xyz
x,y,z
-x,1/2+y,-z
loop_
_atom_site_type_symbol
_atom_site_label
_atom_site_fract_x
_atom_site_fract_y
_atom_site_fract_z
Si Si1 0.952916 0.836700 0.398505
Si Si2 0.648022 0.107047 0.191290
Si Si3 0.595289 0.603052 0.956452
Si Si4 0.804506 0.410098 0.731518
Si Si5 0.162731 0.273815 0.479264
Si Si6 0.425951 0.901579 0.381503
Si Si7 0.983820 0.620000 0.140468
O O1 0.859760 0.695038 0.386593
O O2 0.053909 0.637293 0.563696
O O3 0.952898 0.805163 0.233884
O O4 0.538062 0.090651 0.160674
O O5 0.753438 0.018183 0.409653
O O6 0.633114 0.891832 0.049283
O O7 0.650932 0.387182 0.123401
O O8 0.609084 0.514955 0.812411
O O9 0.786126 0.566584 0.565911
O O10 0.686072 0.328896 0.660353
O O11 0.908848 0.213014 0.824423
O O12 0.869846 0.595206 0.918741
O O13 0.038991 0.361065 0.275043
O O14 0.504076 0.641629 0.464603
#
# Coordination Sequence:
#
# PCOD9116959 Si02
#       7
#     2   2   2   2   2   2   2
#     4  10  22  42  66  97 138 178 243 286 350 434
#     4  10  23  41  73  95 141 180 240 308 359 433
#     4  10  23  46  64 107 134 183 246 301 365 421
#     4  12  26  46  76 104 158 195 252 309 377 455
#     4  11  24  43  71 103 140 199 239 307 369 447
#     4  12  29  50  78 109 149 201 252 310 375 454
#     4  11  25  46  68 111 146 198 244 303 379 444
#
# _framework density 24.368105
#
# number of rings (size 3 to 8) (size 9 to 14) (size 15 to 20)
#    0.000    1.143    2.857    1.714    8.000    1.143 
#    7.714    0.000    0.000    0.000    0.000    0.000 
#    0.000    0.000    0.000    0.000    0.000    0.000 
#
# Total GULP energy -78216.868733 kJ/mol
# GULP energy per Si atom -5586.919195 kJ/mol
# Density = 2.431264 g / cm^3
# Si number density = 24.368105 Si / 1000 Ang^3
#
#
#
# Elastic Constant Matrix: (Units=GPa)
#
#
# Indices 1 2 3 4 5 6 
#
# 1 109.6873 11.9514 24.2888 0.0000 2.0176 0.0000
# 2 11.9514 93.7131 8.3321 0.0000 3.6667 0.0000
# 3 24.2888 8.3321 64.8365 0.0000 11.9755 0.0000
# 4 0.0000 0.0000 0.0000 25.6697 0.0000 7.3242
# 5 2.0176 3.6667 11.9755 0.0000 29.3981 0.0000
# 6 0.0000 0.0000 0.0000 7.3242 0.0000 28.5830
#
#
#
# Elastic Compliance Matrix: (Units=1/GPa)
#
#
# Indices 1 2 3 4 5 6 
#
# 1 0.010052 -0.000981 -0.003822 0.000000 0.000990 0.000000
# 2 -0.000981 0.010909 -0.000860 0.000000 -0.000943 0.000000
# 3 -0.003822 -0.000860 0.018272 0.000000 -0.007074 0.000000
# 4 0.000000 0.000000 0.000000 0.042029 0.000000 -0.010770
# 5 0.000990 -0.000943 -0.007074 0.000000 0.036947 0.000000
# 6 0.000000 0.000000 0.000000 -0.010770 0.000000 0.037746
#
#
# Mechanical properties :
#
#
# Convention : Reuss Voigt Hill
#
# Bulk Modulus (GPa) = 35.83374 39.70905 37.77139
# Shear Modulus (GPa) = 28.31500 31.64113 29.97806
#
# Velocity S-wave (km/s) = 3.41247 3.60733 3.51125
# Velocity P-wave (km/s) = 5.50124 5.80356 5.65442
#
# Compressibility (1/GPa) = 0.02790666
#
# Stress axis : x y z
#
# Youngs Moduli (GPa) = 99.48375 91.66455 54.72722
#
# Poissons Ratio (x) = 0.08990 0.20919
# Poissons Ratio (y) = 0.09757 0.04709
# Poissons Ratio (z) = 0.38026 0.07887
#
# Static dielectric constant tensor:
#      x y z
#    x 1.973360 0.000000 -0.000330 
#    y 0.000000 2.023460 0.000000 
#    z -0.000330 0.000000 2.013270 
# 
# From -- ./inp_files/7134.got.cif
#   From: 2010.05.17/outbox.cif.g08.bks.cpg/sg4_4_cif.got.tgz:7134.got - 2010.06.03 18:43:04.
