data_PCOD9116690
_publ_section_title
;
Structure prediction by ZEFSAII (Michael W. Deem and Ramdas Pophale) SiO2 
 PCOD9116690
Probable space group: P 21
;
_chemical_formula_sum "Si O2"
_cell_formula_units_Z 16
_cell_length_a 5.097286
_cell_length_b 4.920958
_cell_length_c 22.278549
_cell_angle_alpha 90.000000
_cell_angle_beta 83.650459
_cell_angle_gamma 90.000000
_cell_volume 555.396662
_symmetry_space_group_name_H-M "P 21"
_symmetry_group_IT_number 4
_symmetry_cell_setting 'monoclinic'
loop_
_space_group_symop_operation_xyz
x,y,z
-x,1/2+y,-z
loop_
_atom_site_type_symbol
_atom_site_label
_atom_site_fract_x
_atom_site_fract_y
_atom_site_fract_z
Si Si1 0.868597 0.510280 0.244573
Si Si2 0.563213 0.412964 0.038180
Si Si3 0.884593 0.676954 0.117906
Si Si4 0.183457 0.709325 0.389851
Si Si5 0.634371 0.555554 0.856704
Si Si6 0.704904 0.346812 0.364178
Si Si7 0.329896 0.601364 0.512612
Si Si8 0.356268 0.881756 0.269397
O O1 0.875995 0.462164 0.173465
O O2 0.783184 0.276595 0.293760
O O3 0.635139 0.730688 0.259187
O O4 0.139359 0.656086 0.255713
O O5 0.841285 0.519756 0.056856
O O6 0.404234 0.318688 0.101436
O O7 0.872708 0.376118 0.876622
O O8 0.569380 0.151591 0.996051
O O9 0.627570 0.872007 0.128937
O O10 0.420483 0.488734 0.376018
O O11 0.166834 0.737460 0.462261
O O12 0.281857 0.942261 0.340830
O O13 0.914012 0.581926 0.374593
O O14 0.666414 0.597427 0.784118
O O15 0.755786 0.135540 0.416481
O O16 0.589330 0.794765 0.502521
#
# Coordination Sequence:
#
# PCOD9116690 Si02
#       8
#     2   2   2   2   2   2   2   2
#     4   8  15  32  62  92 127 169 223 279 340 404
#     4  12  26  52  74 114 148 198 242 302 368 448
#     4  10  22  45  72 104 142 187 238 296 358 426
#     4   9  18  34  58  90 126 170 220 277 337 404
#     4  10  22  45  72 104 142 187 238 296 358 426
#     4   9  18  34  58  90 126 170 220 277 337 404
#     4  10  22  40  60  90 130 176 224 276 342 406
#     4   8  15  32  62  92 127 169 223 279 340 404
#
# _framework density 28.808239
#
# number of rings (size 3 to 8) (size 9 to 14) (size 15 to 20)
#    0.000    2.500    1.250    0.000    0.000    5.000 
#    6.750    0.000    0.000    0.000    0.000    0.000 
#    0.000    0.000    0.000    0.000    0.000    0.000 
#
# Total GULP energy -89755.970574 kJ/mol
# GULP energy per Si atom -5609.748161 kJ/mol
# Density = 2.874267 g / cm^3
# Si number density = 28.808239 Si / 1000 Ang^3
#
#
#
# Elastic Constant Matrix: (Units=GPa)
#
#
# Indices 1 2 3 4 5 6 
#
# 1 162.7992 56.7872 43.4746 0.0000 9.6381 0.0000
# 2 56.7872 126.6565 57.3657 0.0000 5.9017 0.0000
# 3 43.4746 57.3657 169.3224 0.0000 25.1487 0.0000
# 4 0.0000 0.0000 0.0000 49.7081 0.0000 6.5121
# 5 9.6381 5.9017 25.1487 0.0000 48.2811 0.0000
# 6 0.0000 0.0000 0.0000 6.5121 0.0000 20.7924
#
#
#
# Elastic Compliance Matrix: (Units=1/GPa)
#
#
# Indices 1 2 3 4 5 6 
#
# 1 0.007422 -0.002928 -0.000809 0.000000 -0.000702 0.000000
# 2 -0.002928 0.010495 -0.002927 0.000000 0.000826 0.000000
# 3 -0.000809 -0.002927 0.007617 0.000000 -0.003448 0.000000
# 4 0.000000 0.000000 0.000000 0.020978 0.000000 -0.006570
# 5 -0.000702 0.000826 -0.003448 0.000000 0.022547 0.000000
# 6 0.000000 0.000000 0.000000 -0.006570 0.000000 0.050152
#
#
# Mechanical properties :
#
#
# Convention : Reuss Voigt Hill
#
# Bulk Modulus (GPa) = 81.92598 86.00370 83.96484
# Shear Modulus (GPa) = 36.60075 43.83302 40.21688
#
# Velocity S-wave (km/s) = 3.56827 3.90493 3.74039
# Velocity P-wave (km/s) = 6.74365 7.08872 6.91834
#
# Compressibility (1/GPa) = 0.01220614
#
# Stress axis : x y z
#
# Youngs Moduli (GPa) = 134.74115 95.28036 131.27920
#
# Poissons Ratio (x) = 0.27901 0.10623
# Poissons Ratio (y) = 0.39457 0.38420
# Poissons Ratio (z) = 0.10903 0.27885
#
# Static dielectric constant tensor:
#      x y z
#    x 2.236760 0.000000 -0.023840 
#    y 0.000000 2.144630 0.000000 
#    z -0.023840 0.000000 2.375290 
# 
# From -- ./inp_files/15486.got.cif
#   From: 2010.05.17/outbox.cif.g08.bks.cpg/sg4_8_cif.got.tgz:15486.got - 2010.06.03 18:43:04.
