data_PCOD9116559
_publ_section_title
;
Structure prediction by ZEFSAII (Michael W. Deem and Ramdas Pophale) SiO2 
 PCOD9116559
Probable space group: P 21
;
_chemical_formula_sum "Si O2"
_cell_formula_units_Z 14
_cell_length_a 12.701162
_cell_length_b 5.248007
_cell_length_c 15.898638
_cell_angle_alpha 90.000000
_cell_angle_beta 38.790793
_cell_angle_gamma 90.000000
_cell_volume 663.902037
_symmetry_space_group_name_H-M "P 21"
_symmetry_group_IT_number 4
_symmetry_cell_setting 'monoclinic'
loop_
_space_group_symop_operation_xyz
x,y,z
-x,1/2+y,-z
loop_
_atom_site_type_symbol
_atom_site_label
_atom_site_fract_x
_atom_site_fract_y
_atom_site_fract_z
Si Si1 0.352007 0.519430 0.132347
Si Si2 0.052910 0.348132 0.691469
Si Si3 0.714918 0.344149 0.678370
Si Si4 0.695334 0.307483 0.989919
Si Si5 0.993606 0.836987 0.619391
Si Si6 0.427973 0.295264 0.502284
Si Si7 0.530113 0.840630 0.721983
O O1 0.304355 0.779445 0.211493
O O2 0.540595 0.456513 0.041279
O O3 0.208222 0.333072 0.257599
O O4 0.326268 0.542458 0.048490
O O5 0.060294 0.591574 0.626537
O O6 0.226655 0.326710 0.633093
O O7 0.036088 0.090307 0.646861
O O8 0.885010 0.383671 0.851660
O O9 0.908292 0.348764 0.529303
O O10 0.630747 0.597528 0.695293
O O11 0.621874 0.102600 0.692006
O O12 0.645796 0.320232 0.117944
O O13 0.516162 0.520986 0.498746
O O14 0.475856 0.322354 0.374173
#
# Coordination Sequence:
#
# PCOD9116559 Si02
#       7
#     2   2   2   2   2   2   2
#     4  10  22  34  62  94 132 184 220 248 280 374
#     4  11  23  42  66  91 128 168 204 267 329 372
#     4  11  21  38  61  92 135 171 219 256 301 360
#     4  10  22  40  60  92 134 176 210 246 312 372
#     4  11  21  38  61  92 135 171 219 256 301 360
#     4  12  24  44  72  98 116 154 218 274 336 398
#     4  11  23  42  66  91 128 168 204 267 329 372
#
# _framework density 21.087446
#
# number of rings (size 3 to 8) (size 9 to 14) (size 15 to 20)
#    0.000    1.143    2.857    3.429    0.000   11.429 
#    0.000    1.429    0.000    0.000    0.000    0.000 
#    0.000    0.000    0.000    0.000    0.000    0.000 
#
# Total GULP energy -78273.751782 kJ/mol
# GULP energy per Si atom -5590.982270 kJ/mol
# Density = 2.103945 g / cm^3
# Si number density = 21.087446 Si / 1000 Ang^3
#
#
#
# Elastic Constant Matrix: (Units=GPa)
#
#
# Indices 1 2 3 4 5 6 
#
# 1 53.2908 -0.2279 23.7534 0.0000 -6.4762 0.0000
# 2 -0.2279 104.9217 -3.0052 0.0000 -4.3190 0.0000
# 3 23.7534 -3.0052 174.2809 0.0000 -18.1603 0.0000
# 4 0.0000 0.0000 0.0000 14.4099 0.0000 0.9570
# 5 -6.4762 -4.3190 -18.1603 0.0000 41.1217 0.0000
# 6 0.0000 0.0000 0.0000 0.9570 0.0000 40.3961
#
#
#
# Elastic Compliance Matrix: (Units=1/GPa)
#
#
# Indices 1 2 3 4 5 6 
#
# 1 0.020143 0.000056 -0.002530 0.000000 0.002061 0.000000
# 2 0.000056 0.009586 0.000276 0.000000 0.001138 0.000000
# 3 -0.002530 0.000276 0.006341 0.000000 0.002431 0.000000
# 4 0.000000 0.000000 0.000000 0.069506 0.000000 -0.001647
# 5 0.002061 0.001138 0.002431 0.000000 0.025836 0.000000
# 6 0.000000 0.000000 0.000000 -0.001647 0.000000 0.024794
#
#
# Mechanical properties :
#
#
# Convention : Reuss Voigt Hill
#
# Bulk Modulus (GPa) = 31.57060 41.50377 36.53719
# Shear Modulus (GPa) = 29.21270 39.98374 34.59822
#
# Velocity S-wave (km/s) = 3.72602 4.35914 4.05495
# Velocity P-wave (km/s) = 5.78919 6.71272 6.26799
#
# Compressibility (1/GPa) = 0.03167504
#
# Stress axis : x y z
#
# Youngs Moduli (GPa) = 49.64445 104.32122 157.71140
#
# Poissons Ratio (x) = -0.00586 0.39896
# Poissons Ratio (y) = -0.00279 -0.04356
# Poissons Ratio (z) = 0.12558 -0.02881
#
# Static dielectric constant tensor:
#      x y z
#    x 1.732270 0.000000 -0.008130 
#    y 0.000000 1.835770 0.000000 
#    z -0.008130 0.000000 1.825900 
# 
# From -- ./inp_files/8951.got.cif
#   From: 2010.05.17/outbox.cif.g08.bks.cpg/sg4_5_cif.got.tgz:8951.got - 2010.06.03 18:43:04.
