data_PCOD9116788
_publ_section_title
;
Structure prediction by ZEFSAII (Michael W. Deem and Ramdas Pophale) SiO2 
 PCOD9116788
Probable space group: P 21
;
_chemical_formula_sum "Si O2"
_cell_formula_units_Z 14
_cell_length_a 10.005073
_cell_length_b 10.949244
_cell_length_c 5.167847
_cell_angle_alpha 90.000000
_cell_angle_beta 82.548630
_cell_angle_gamma 90.000000
_cell_volume 561.346447
_symmetry_space_group_name_H-M "P 21"
_symmetry_group_IT_number 4
_symmetry_cell_setting 'monoclinic'
loop_
_space_group_symop_operation_xyz
x,y,z
-x,1/2+y,-z
loop_
_atom_site_type_symbol
_atom_site_label
_atom_site_fract_x
_atom_site_fract_y
_atom_site_fract_z
Si Si1 0.474299 0.916990 0.462691
Si Si2 0.281021 0.139987 0.410033
Si Si3 0.105554 0.645445 0.066981
Si Si4 0.868450 0.832426 0.192477
Si Si5 0.762573 0.237585 0.454229
Si Si6 0.046555 0.971487 0.538145
Si Si7 0.634138 0.862359 0.907810
O O1 0.768644 0.737861 0.365045
O O2 0.384081 0.796652 0.543532
O O3 0.586242 0.926557 0.657124
O O4 0.532676 0.896533 0.162217
O O5 0.351565 0.219023 0.169861
O O6 0.139069 0.855713 0.575713
O O7 0.380989 0.036618 0.488063
O O8 0.143300 0.069382 0.367995
O O9 0.996983 0.755926 0.066217
O O10 0.206242 0.677085 0.278318
O O11 0.008949 0.538038 0.194084
O O12 0.927417 0.924805 0.387468
O O13 0.780638 0.890546 0.986913
O O14 0.806722 0.149237 0.213111
#
# Coordination Sequence:
#
# PCOD9116788 Si02
#       7
#     2   2   2   2   2   2   2
#     4  11  26  47  75 102 141 207 245 290 361 425
#     4  10  24  50  77 106 149 198 239 304 368 427
#     4  10  22  40  70 104 147 181 232 308 373 429
#     4  10  23  45  73 113 147 182 245 306 367 442
#     4  10  22  44  66 103 140 188 246 296 348 447
#     4   9  22  45  74 109 142 191 235 304 385 432
#     4  12  25  47  75 107 150 189 254 300 346 448
#
# _framework density 24.940033
#
# number of rings (size 3 to 8) (size 9 to 14) (size 15 to 20)
#    0.000    1.714    1.429    0.857    8.000    2.286 
#   10.286    1.429    0.000    0.000    0.000    0.000 
#    0.000    0.000    0.000    0.000    0.000    0.000 
#
# Total GULP energy -78434.570190 kJ/mol
# GULP energy per Si atom -5602.469299 kJ/mol
# Density = 2.488327 g / cm^3
# Si number density = 24.940033 Si / 1000 Ang^3
#
#
#
# Elastic Constant Matrix: (Units=GPa)
#
#
# Indices 1 2 3 4 5 6 
#
# 1 98.2331 33.0695 51.0176 0.0000 12.8449 0.0000
# 2 33.0695 90.3850 34.4159 0.0000 -2.0204 0.0000
# 3 51.0176 34.4159 137.5104 0.0000 2.6294 0.0000
# 4 0.0000 0.0000 0.0000 28.2620 0.0000 -8.8439
# 5 12.8449 -2.0204 2.6294 0.0000 33.5731 0.0000
# 6 0.0000 0.0000 0.0000 -8.8439 0.0000 60.2886
#
#
#
# Elastic Compliance Matrix: (Units=1/GPa)
#
#
# Indices 1 2 3 4 5 6 
#
# 1 0.014375 -0.003745 -0.004293 0.000000 -0.005389 0.000000
# 2 -0.003745 0.013237 -0.001969 0.000000 0.002384 0.000000
# 3 -0.004293 -0.001969 0.009342 0.000000 0.000792 0.000000
# 4 0.000000 0.000000 0.000000 0.037086 0.000000 0.005440
# 5 -0.005389 0.002384 0.000792 0.000000 0.031929 0.000000
# 6 0.000000 0.000000 0.000000 0.005440 0.000000 0.017385
#
#
# Mechanical properties :
#
#
# Convention : Reuss Voigt Hill
#
# Bulk Modulus (GPa) = 59.03089 62.57049 60.80069
# Shear Modulus (GPa) = 33.55372 38.26643 35.91008
#
# Velocity S-wave (km/s) = 3.67192 3.92131 3.79866
# Velocity P-wave (km/s) = 6.45738 6.75611 6.60844
#
# Compressibility (1/GPa) = 0.01694028
#
# Stress axis : x y z
#
# Youngs Moduli (GPa) = 69.56620 75.54521 107.03778
#
# Poissons Ratio (x) = 0.28294 0.45949
# Poissons Ratio (y) = 0.26054 0.21076
# Poissons Ratio (z) = 0.29863 0.14875
#
# Static dielectric constant tensor:
#      x y z
#    x 1.959680 0.000000 -0.005890 
#    y 0.000000 2.031000 0.000000 
#    z -0.005890 0.000000 1.944700 
# 
# From -- ./inp_files/1441.got.cif
#   From: 2010.05.17/outbox.cif.g08.bks.cpg/sg4_1_cif.got.tgz:1441.got - 2010.06.03 18:43:04.
