data_PCOD9116701
_publ_section_title
;
Structure prediction by ZEFSAII (Michael W. Deem and Ramdas Pophale) SiO2 
 PCOD9116701
Probable space group: P 21
;
_chemical_formula_sum "Si O2"
_cell_formula_units_Z 16
_cell_length_a 7.992452
_cell_length_b 8.516150
_cell_length_c 11.861231
_cell_angle_alpha 90.000000
_cell_angle_beta 126.218218
_cell_angle_gamma 90.000000
_cell_volume 651.334644
_symmetry_space_group_name_H-M "P 21"
_symmetry_group_IT_number 4
_symmetry_cell_setting 'monoclinic'
loop_
_space_group_symop_operation_xyz
x,y,z
-x,1/2+y,-z
loop_
_atom_site_type_symbol
_atom_site_label
_atom_site_fract_x
_atom_site_fract_y
_atom_site_fract_z
Si Si1 0.880142 0.423690 0.974055
Si Si2 0.393245 0.077210 0.798720
Si Si3 0.101774 0.874135 0.559689
Si Si4 0.593684 0.286080 0.520212
Si Si5 0.867859 0.053518 0.295911
Si Si6 0.261629 0.071227 0.294938
Si Si7 0.482299 0.379590 0.960259
Si Si8 0.224057 0.628986 0.207437
O O1 0.782883 0.559179 0.854903
O O2 0.712650 0.375925 0.000769
O O3 0.897130 0.278206 0.894423
O O4 0.087314 0.481185 0.116710
O O5 0.376000 0.216700 0.882582
O O6 0.552721 0.126720 0.765145
O O7 0.177016 0.022794 0.662015
O O8 0.495583 0.927742 0.902031
O O9 0.280550 0.843037 0.538235
O O10 0.096686 0.722052 0.634576
O O11 0.904189 0.924555 0.408372
O O12 0.375345 0.222214 0.390207
O O13 0.587719 0.428536 0.606778
O O14 0.726682 0.156430 0.642235
O O15 0.044667 0.040414 0.271317
O O16 0.650337 0.016517 0.152423
#
# Coordination Sequence:
#
# PCOD9116701 Si02
#       8
#     2   2   2   2   2   2   2   2
#     4  10  23  39  61  90 123 163 210 260 313 372
#     4  11  24  44  66  93 129 169 213 266 320 380
#     4  11  24  41  64  94 127 170 213 264 322 379
#     4  10  22  41  63  91 124 165 210 260 316 371
#     4  11  23  40  63  94 130 169 214 264 317 381
#     4  10  22  40  62  90 124 163 210 262 312 373
#     4  11  24  42  64  93 130 169 211 261 319 382
#     4  10  22  41  63  91 125 164 213 263 313 374
#
# _framework density 24.564947
#
# number of rings (size 3 to 8) (size 9 to 14) (size 15 to 20)
#    0.000    1.500    0.000    4.500    0.000   12.000 
#    0.000    0.000    0.000    0.000    0.000    0.000 
#    0.000    0.000    0.000    0.000    0.000    0.000 
#
# Total GULP energy -89595.946466 kJ/mol
# GULP energy per Si atom -5599.746654 kJ/mol
# Density = 2.450904 g / cm^3
# Si number density = 24.564947 Si / 1000 Ang^3
#
#
#
# Elastic Constant Matrix: (Units=GPa)
#
#
# Indices 1 2 3 4 5 6 
#
# 1 26.4427 4.9825 -0.9536 0.0000 -5.9121 0.0000
# 2 4.9825 53.9978 17.7533 0.0000 -5.2389 0.0000
# 3 -0.9536 17.7533 95.9237 0.0000 -0.6463 0.0000
# 4 0.0000 0.0000 0.0000 56.2089 0.0000 5.5491
# 5 -5.9121 -5.2389 -0.6463 0.0000 26.0492 0.0000
# 6 0.0000 0.0000 0.0000 5.5491 0.0000 25.2267
#
#
#
# Elastic Compliance Matrix: (Units=1/GPa)
#
#
# Indices 1 2 3 4 5 6 
#
# 1 0.040376 -0.003246 0.001060 0.000000 0.008537 0.000000
# 2 -0.003246 0.020379 -0.003782 0.000000 0.003268 0.000000
# 3 0.001060 -0.003782 0.011134 0.000000 -0.000244 0.000000
# 4 0.000000 0.000000 0.000000 0.018186 0.000000 -0.004000
# 5 0.008537 0.003268 -0.000244 0.000000 0.040978 0.000000
# 6 0.000000 0.000000 0.000000 -0.004000 0.000000 0.040521
#
#
# Mechanical properties :
#
#
# Convention : Reuss Voigt Hill
#
# Bulk Modulus (GPa) = 16.67970 24.43650 20.55810
# Shear Modulus (GPa) = 24.57079 31.80242 28.18661
#
# Velocity S-wave (km/s) = 3.16608 3.60199 3.39105
# Velocity P-wave (km/s) = 4.49113 5.22192 4.87025
#
# Compressibility (1/GPa) = 0.05995310
#
# Stress axis : x y z
#
# Youngs Moduli (GPa) = 24.76712 49.06945 89.81662
#
# Poissons Ratio (x) = 0.15926 -0.09517
# Poissons Ratio (y) = 0.08039 0.33968
# Poissons Ratio (z) = -0.02624 0.18558
#
# Static dielectric constant tensor:
#      x y z
#    x 1.862030 0.000000 -0.004130 
#    y 0.000000 2.034190 0.000000 
#    z -0.004130 0.000000 1.902550 
# 
# From -- ./inp_files/5586.got.cif
#   From: 2010.05.17/outbox.cif.g08.bks.cpg/sg4_3_cif.got.tgz:5586.got - 2010.06.03 18:43:04.
