data_PCOD9116826
_publ_section_title
;
Structure prediction by ZEFSAII (Michael W. Deem and Ramdas Pophale) SiO2 
 PCOD9116826
Probable space group: P 21
;
_chemical_formula_sum "Si O2"
_cell_formula_units_Z 16
_cell_length_a 5.641191
_cell_length_b 9.031154
_cell_length_c 12.067118
_cell_angle_alpha 90.000000
_cell_angle_beta 95.317143
_cell_angle_gamma 90.000000
_cell_volume 612.131625
_symmetry_space_group_name_H-M "P 21"
_symmetry_group_IT_number 4
_symmetry_cell_setting 'monoclinic'
loop_
_space_group_symop_operation_xyz
x,y,z
-x,1/2+y,-z
loop_
_atom_site_type_symbol
_atom_site_label
_atom_site_fract_x
_atom_site_fract_y
_atom_site_fract_z
Si Si1 0.396158 0.351080 0.457020
Si Si2 0.535989 0.722980 0.771614
Si Si3 0.707594 0.406514 0.067979
Si Si4 0.032219 0.123939 0.055487
Si Si5 0.428392 0.186335 0.693999
Si Si6 0.078128 0.672834 0.374416
Si Si7 0.331253 0.435605 0.859632
Si Si8 0.915277 0.464987 0.510998
O O1 0.422257 0.243069 0.355286
O O2 0.414621 0.279746 0.578545
O O3 0.127245 0.410129 0.438062
O O4 0.635155 0.454571 0.466757
O O5 0.396449 0.863297 0.816875
O O6 0.767176 0.697356 0.858241
O O7 0.391111 0.573477 0.783580
O O8 0.836355 0.252661 0.036262
O O9 0.868615 0.551384 0.053076
O O10 0.485409 0.438525 0.978077
O O11 0.933625 0.976932 0.113858
O O12 0.166317 0.115559 0.687595
O O13 0.414835 0.292091 0.798987
O O14 0.693087 0.123483 0.686712
O O15 0.073256 0.854526 0.382868
O O16 0.031339 0.629779 0.504832
#
# Coordination Sequence:
#
# PCOD9116826 Si02
#       8
#     2   2   2   2   2   2   2   2
#     4  10  23  41  65 100 139 181 233 289 344 416
#     4  10  23  42  71 102 137 188 239 288 358 431
#     4  10  22  44  70 110 134 184 234 302 358 440
#     4  10  22  44  74 102 144 180 240 294 368 432
#     4  10  23  41  65 100 139 181 233 289 344 416
#     4  10  22  41  63  93 133 181 232 288 350 415
#     4  10  23  42  71 102 137 188 239 288 358 431
#     4  10  22  41  63  93 133 181 232 288 350 415
#
# _framework density 26.138166999999999
#
# number of rings (size 3 to 8) (size 9 to 14) (size 15 to 20)
#    0.000    2.000    0.000    1.500    7.000    8.000 
#    4.500    7.500    0.000    0.000    0.000    0.000 
#    0.000    0.000    0.000    0.000    0.000    0.000 
#
# Total GULP energy -89154.848082 kJ/mol
# GULP energy per Si atom -5572.178005 kJ/mol
# Density = 2.607868 g / cm^3
# Si number density = 26.138167 Si / 1000 Ang^3
#
#
#
# Elastic Constant Matrix: (Units=GPa)
#
#
# Indices 1 2 3 4 5 6 
#
# 1 182.0933 42.8854 29.1917 0.0000 -22.0333 0.0000
# 2 42.8854 45.7222 13.5668 0.0000 -3.4671 0.0000
# 3 29.1917 13.5668 60.7469 0.0000 -21.5248 0.0000
# 4 0.0000 0.0000 0.0000 46.9798 0.0000 -12.4192
# 5 -22.0333 -3.4671 -21.5248 0.0000 19.0518 0.0000
# 6 0.0000 0.0000 0.0000 -12.4192 0.0000 56.8794
#
#
#
# Elastic Compliance Matrix: (Units=1/GPa)
#
#
# Indices 1 2 3 4 5 6 
#
# 1 0.008155 -0.007235 0.000954 0.000000 0.009193 0.000000
# 2 -0.007235 0.029929 -0.007074 0.000000 -0.010913 0.000000
# 3 0.000954 -0.007074 0.029213 0.000000 0.032821 0.000000
# 4 0.000000 0.000000 0.000000 0.022590 0.000000 0.004932
# 5 0.009193 -0.010913 0.032821 0.000000 0.098215 0.000000
# 6 0.000000 0.000000 0.000000 0.004932 0.000000 0.018658
#
#
# Mechanical properties :
#
#
# Convention : Reuss Voigt Hill
#
# Bulk Modulus (GPa) = 24.63876 51.09447 37.86662
# Shear Modulus (GPa) = 20.24304 38.11011 29.17658
#
# Velocity S-wave (km/s) = 2.78594 3.82255 3.34465
# Velocity P-wave (km/s) = 4.44920 6.25083 5.42532
#
# Compressibility (1/GPa) = 0.04058645
#
# Stress axis : x y z
#
# Youngs Moduli (GPa) = 122.62429 33.41241 34.23163
#
# Poissons Ratio (x) = 0.24174 -0.03267
# Poissons Ratio (y) = 0.88720 0.24217
# Poissons Ratio (z) = -0.11702 0.23637
#
# Static dielectric constant tensor:
#      x y z
#    x 2.121380 0.000000 -0.007640 
#    y 0.000000 2.486780 0.000000 
#    z -0.007640 0.000000 2.007110 
# 
# From -- ./inp_files/10528.got.cif
#   From: 2010.05.17/outbox.cif.g08.bks.cpg/sg4_6_cif.got.tgz:10528.got - 2010.06.03 18:43:04.
