data_PCOD9116575
_publ_section_title
;
Structure prediction by ZEFSAII (Michael W. Deem and Ramdas Pophale) SiO2 
 PCOD9116575
Probable space group: P 21
;
_chemical_formula_sum "Si O2"
_cell_formula_units_Z 14
_cell_length_a 7.134045
_cell_length_b 8.485795
_cell_length_c 18.946254
_cell_angle_alpha 90.000000
_cell_angle_beta 139.369613
_cell_angle_gamma 90.000000
_cell_volume 746.879707
_symmetry_space_group_name_H-M "P 21"
_symmetry_group_IT_number 4
_symmetry_cell_setting 'monoclinic'
loop_
_space_group_symop_operation_xyz
x,y,z
-x,1/2+y,-z
loop_
_atom_site_type_symbol
_atom_site_label
_atom_site_fract_x
_atom_site_fract_y
_atom_site_fract_z
Si Si1 0.825086 0.546410 0.099310
Si Si2 0.758622 0.240630 0.515291
Si Si3 0.234098 0.747057 0.316589
Si Si4 0.203940 0.117630 0.286099
Si Si5 0.573838 0.258817 0.112859
Si Si6 0.645107 0.839726 0.795431
Si Si7 0.233877 0.035463 0.576759
O O1 0.636958 0.419235 0.088113
O O2 0.990770 0.656884 0.202531
O O3 0.072763 0.449599 0.128933
O O4 0.633401 0.648659 0.992233
O O5 0.816573 0.228733 0.614506
O O6 0.427092 0.199781 0.403660
O O7 0.822776 0.414234 0.503085
O O8 0.953124 0.118316 0.527241
O O9 0.536540 0.665603 0.382944
O O10 0.235001 0.931079 0.298751
O O11 0.286930 0.187483 0.233241
O O12 0.881177 0.173047 0.210034
O O13 0.439614 0.296958 0.150116
O O14 0.389808 0.933452 0.682532
#
# Coordination Sequence:
#
# PCOD9116575 Si02
#       7
#     2   2   2   2   2   2   2
#     4  10  23  39  61  90 115 152 201 236 287 357
#     4  11  22  38  60  87 121 158 194 242 292 341
#     4  11  22  39  59  86 121 155 195 243 290 342
#     4  10  23  38  60  91 116 152 202 235 286 357
#     4  11  22  42  63  85 120 153 189 245 294 339
#     4   9  22  41  60  86 119 154 193 243 291 342
#     4  10  22  37  57  87 120 156 200 238 286 352
#
# _framework density 18.744651000000001
#
# number of rings (size 3 to 8) (size 9 to 14) (size 15 to 20)
#    0.000    1.714    0.000    4.286    0.000   10.286 
#    0.000    2.857    0.000    0.000    0.000    0.000 
#    0.000    0.000    0.000    0.000    0.000    0.000 
#
# Total GULP energy -78272.810057 kJ/mol
# GULP energy per Si atom -5590.915004 kJ/mol
# Density = 1.870199 g / cm^3
# Si number density = 18.744651 Si / 1000 Ang^3
#
#
#
# Elastic Constant Matrix: (Units=GPa)
#
#
# Indices 1 2 3 4 5 6 
#
# 1 128.9023 42.9631 99.3457 0.0000 -30.7300 0.0000
# 2 42.9631 53.9191 88.4496 0.0000 -40.8963 0.0000
# 3 99.3457 88.4496 73.9640 0.0000 13.3880 0.0000
# 4 0.0000 0.0000 0.0000 28.6000 0.0000 2.5438
# 5 -30.7300 -40.8963 13.3880 0.0000 7.5373 0.0000
# 6 0.0000 0.0000 0.0000 2.5438 0.0000 8.4957
#
#
#
# Elastic Compliance Matrix: (Units=1/GPa)
#
#
# Indices 1 2 3 4 5 6 
#
# 1 0.011267 -0.010162 -0.001940 0.000000 -0.005756 0.000000
# 2 -0.010162 0.007706 0.006435 0.000000 -0.011051 0.000000
# 3 -0.001940 0.006435 0.005220 0.000000 0.017736 0.000000
# 4 0.000000 0.000000 0.000000 0.035922 0.000000 -0.010756
# 5 -0.005756 -0.011051 0.017736 0.000000 0.017741 0.000000
# 6 0.000000 0.000000 0.000000 -0.010756 0.000000 0.120927
#
#
# Mechanical properties :
#
#
# Convention : Reuss Voigt Hill
#
# Bulk Modulus (GPa) = 77.76526 79.81134 78.78830
# Shear Modulus (GPa) = 23.32054 10.66173 16.99114
#
# Velocity S-wave (km/s) = 3.53103 2.38752 3.01400
# Velocity P-wave (km/s) = 7.62895 7.09020 7.36451
#
# Compressibility (1/GPa) = 0.01285921
#
# Stress axis : x y z
#
# Youngs Moduli (GPa) = 88.75143 129.77062 191.57959
#
# Poissons Ratio (x) = 1.31877 0.37157
# Poissons Ratio (y) = 0.90192 -1.23279
# Poissons Ratio (z) = 0.17213 -0.83506
#
# Static dielectric constant tensor:
#      x y z
#    x 1.610810 0.000000 0.010950 
#    y 0.000000 1.633920 0.000000 
#    z 0.010950 0.000000 1.633900 
# 
# From -- ./inp_files/2402.got.cif
#   From: 2010.05.17/outbox.cif.g08.bks.cpg/sg4_2_cif.got.tgz:2402.got - 2010.06.03 18:43:04.
