data_PCOD9116431
_publ_section_title
;
Structure prediction by ZEFSAII (Michael W. Deem and Ramdas Pophale) SiO2 
 PCOD9116431
Probable space group: P 21
;
_chemical_formula_sum "Si O2"
_cell_formula_units_Z 14
_cell_length_a 17.624199
_cell_length_b 5.454675
_cell_length_c 17.067875
_cell_angle_alpha 90.000000
_cell_angle_beta 25.581599
_cell_angle_gamma 90.000000
_cell_volume 708.494417
_symmetry_space_group_name_H-M "P 21"
_symmetry_group_IT_number 4
_symmetry_cell_setting 'monoclinic'
loop_
_space_group_symop_operation_xyz
x,y,z
-x,1/2+y,-z
loop_
_atom_site_type_symbol
_atom_site_label
_atom_site_fract_x
_atom_site_fract_y
_atom_site_fract_z
Si Si1 0.606224 0.271350 0.403447
Si Si2 0.856472 0.955294 0.875401
Si Si3 0.358095 0.162943 0.030540
Si Si4 0.115929 0.705290 0.992900
Si Si5 0.934091 0.275073 0.658790
Si Si6 0.932056 0.214737 0.193034
Si Si7 0.280387 0.466674 0.259310
O O1 0.527472 0.543799 0.475320
O O2 0.731633 0.240233 0.211348
O O3 0.726504 0.235189 0.368541
O O4 0.939878 0.068348 0.719810
O O5 0.678421 0.833787 0.009889
O O6 0.821009 0.153792 0.976529
O O7 0.991121 0.768597 0.792246
O O8 0.348331 0.308235 0.122060
O O9 0.188986 0.986201 0.191080
O O10 0.547192 0.037427 0.853177
O O11 0.014491 0.449174 0.069531
O O12 0.998243 0.949068 0.104787
O O13 0.824337 0.189007 0.684719
O O14 0.129324 0.339520 0.450560
#
# Coordination Sequence:
#
# PCOD9116431 Si02
#       7
#     2   2   2   2   2   2   2
#     4  12  24  40  70 108 138 166 224 288 330 396
#     4   9  24  40  68  88 134 176 232 268 344 408
#     4  11  21  40  62  98 128 176 226 287 338 405
#     4  10  21  43  70  94 128 185 219 268 333 413
#     4  11  21  40  62  98 128 176 226 287 338 405
#     4  10  21  43  70  94 128 185 219 268 333 413
#     4  11  22  36  68  90 130 168 234 280 342 402
#
# _framework density 19.760213
#
# number of rings (size 3 to 8) (size 9 to 14) (size 15 to 20)
#    0.857    0.571    2.857    3.429    0.000    0.000 
#    0.000    5.714    0.000    0.000    0.000    0.000 
#    0.000    0.000    0.000    0.000    0.000    0.000 
#
# Total GULP energy -78051.031747 kJ/mol
# GULP energy per Si atom -5575.073696 kJ/mol
# Density = 1.971524 g / cm^3
# Si number density = 19.760213 Si / 1000 Ang^3
#
#
#
# Elastic Constant Matrix: (Units=GPa)
#
#
# Indices 1 2 3 4 5 6 
#
# 1 104.2272 7.6385 11.4335 0.0000 -16.7182 0.0000
# 2 7.6385 54.8763 -6.3911 0.0000 -4.3839 0.0000
# 3 11.4335 -6.3911 42.2243 0.0000 -18.1167 0.0000
# 4 0.0000 0.0000 0.0000 42.6499 0.0000 -12.5102
# 5 -16.7182 -4.3839 -18.1167 0.0000 18.7347 0.0000
# 6 0.0000 0.0000 0.0000 -12.5102 0.0000 -3.9567
#
#
#
# Elastic Compliance Matrix: (Units=1/GPa)
#
#
# Indices 1 2 3 4 5 6 
#
# 1 0.011319 -0.000388 0.002002 0.000000 0.011946 0.000000
# 2 -0.000388 0.020307 0.008664 0.000000 0.012783 0.000000
# 3 0.002002 0.008664 0.044589 0.000000 0.046931 0.000000
# 4 0.000000 0.000000 0.000000 0.012165 0.000000 -0.038463
# 5 0.011946 0.012783 0.046931 0.000000 0.112412 0.000000
# 6 0.000000 0.000000 0.000000 -0.038463 0.000000 -0.131128
#
#
# Mechanical properties :
#
#
# Convention : Reuss Voigt Hill
#
# Bulk Modulus (GPa) = 10.33386 25.18775 17.76080
# Shear Modulus (GPa) = 61.45051 24.06206 42.75628
#
# Velocity S-wave (km/s) = 5.58262 3.49334 4.65667
# Velocity P-wave (km/s) = 6.84070 5.38940 6.15795
#
# Compressibility (1/GPa) = 0.09676929
#
# Stress axis : x y z
#
# Youngs Moduli (GPa) = 88.34361 49.24403 22.42722
#
# Poissons Ratio (x) = 0.01911 -0.04489
# Poissons Ratio (y) = 0.03429 -0.19430
# Poissons Ratio (z) = -0.17683 -0.42663
#
# Static dielectric constant tensor:
#      x y z
#    x 1.700990 0.000000 0.001910 
#    y 0.000000 1.778800 0.000000 
#    z 0.001910 0.000000 1.609080 
# 
# From -- ./inp_files/14655.got.cif
#   From: 2010.05.17/outbox.cif.g08.bks.cpg/sg4_8_cif.got.tgz:14655.got - 2010.06.03 18:43:04.
