data_PCOD9116324
_publ_section_title
;
Structure prediction by ZEFSAII (Michael W. Deem and Ramdas Pophale) SiO2 
 PCOD9116324
Probable space group: P 21
;
_chemical_formula_sum "Si O2"
_cell_formula_units_Z 16
_cell_length_a 11.701958
_cell_length_b 10.720633
_cell_length_c 5.233265
_cell_angle_alpha 90.000000
_cell_angle_beta 82.774103
_cell_angle_gamma 90.000000
_cell_volume 651.311480
_symmetry_space_group_name_H-M "P 21"
_symmetry_group_IT_number 4
_symmetry_cell_setting 'monoclinic'
loop_
_space_group_symop_operation_xyz
x,y,z
-x,1/2+y,-z
loop_
_atom_site_type_symbol
_atom_site_label
_atom_site_fract_x
_atom_site_fract_y
_atom_site_fract_z
Si Si1 0.702883 0.389740 0.325607
Si Si2 0.834672 0.168770 0.302475
Si Si3 0.515316 0.886576 0.338225
Si Si4 0.069206 0.881795 0.469758
Si Si5 0.708628 0.804466 0.948262
Si Si6 0.364567 0.557795 0.319236
Si Si7 0.407559 0.072128 0.002648
Si Si8 0.065234 0.432230 0.004242
O O1 0.770035 0.278470 0.162261
O O2 0.579579 0.333601 0.444418
O O3 0.796145 0.413527 0.525246
O O4 0.673805 0.518946 0.198695
O O5 0.745709 0.129133 0.548794
O O6 0.869071 0.054232 0.118834
O O7 0.937281 0.239568 0.420034
O O8 0.624088 0.808463 0.218036
O O9 0.568242 0.009751 0.451477
O O10 0.439739 0.943188 0.132629
O O11 0.021647 0.899191 0.201351
O O12 0.995789 0.954407 0.706946
O O13 0.664313 0.677798 0.831340
O O14 0.840314 0.822787 0.986765
O O15 0.676635 0.929541 0.803385
O O16 0.465016 0.619512 0.121486
#
# Coordination Sequence:
#
# PCOD9116324 Si02
#       8
#     2   2   2   2   2   2   2   2
#     4   9  23  44  69 105 137 194 239 306 374 440
#     4  10  23  47  75  97 147 196 246 311 360 471
#     4  10  21  42  67 105 141 186 246 293 376 449
#     4  10  28  46  74 106 139 200 250 308 364 442
#     4  11  24  40  71 103 150 188 241 316 377 445
#     4  10  21  43  66 107 141 198 243 294 388 445
#     4  10  23  40  68 110 150 186 242 315 374 457
#     4  12  25  50  70 111 143 194 257 307 377 435
#
# _framework density 24.565819999999999
#
# number of rings (size 3 to 8) (size 9 to 14) (size 15 to 20)
#    0.750    1.000    1.250    1.500    1.750    9.000 
#    4.500    0.000    0.000    0.000    0.000    0.000 
#    0.000    0.000    0.000    0.000    0.000    0.000 
#
# Total GULP energy -89301.188833 kJ/mol
# GULP energy per Si atom -5581.324302 kJ/mol
# Density = 2.450991 g / cm^3
# Si number density = 24.565820 Si / 1000 Ang^3
#
#
#
# Elastic Constant Matrix: (Units=GPa)
#
#
# Indices 1 2 3 4 5 6 
#
# 1 113.8987 26.8493 32.6661 0.0000 2.2958 0.0000
# 2 26.8493 77.9938 13.0189 0.0000 -12.0538 0.0000
# 3 32.6661 13.0189 65.4950 0.0000 -2.5225 0.0000
# 4 0.0000 0.0000 0.0000 25.2273 0.0000 -3.7906
# 5 2.2958 -12.0538 -2.5225 0.0000 36.3262 0.0000
# 6 0.0000 0.0000 0.0000 -3.7906 0.0000 45.8473
#
#
#
# Elastic Compliance Matrix: (Units=1/GPa)
#
#
# Indices 1 2 3 4 5 6 
#
# 1 0.011011 -0.003299 -0.004918 0.000000 -0.002132 0.000000
# 2 -0.003299 0.014931 -0.001127 0.000000 0.005085 0.000000
# 3 -0.004918 -0.001127 0.017991 0.000000 0.001186 0.000000
# 4 0.000000 0.000000 0.000000 0.040138 0.000000 0.003319
# 5 -0.002132 0.005085 0.001186 0.000000 0.029433 0.000000
# 6 0.000000 0.000000 0.000000 0.003319 0.000000 0.022086
#
#
# Mechanical properties :
#
#
# Convention : Reuss Voigt Hill
#
# Bulk Modulus (GPa) = 39.61144 44.71734 42.16439
# Shear Modulus (GPa) = 30.73280 33.80370 32.26825
#
# Velocity S-wave (km/s) = 3.54084 3.71353 3.62821
# Velocity P-wave (km/s) = 5.73379 6.05225 5.89517
#
# Compressibility (1/GPa) = 0.02524523
#
# Stress axis : x y z
#
# Youngs Moduli (GPa) = 90.81908 66.97408 55.58361
#
# Poissons Ratio (x) = 0.22095 0.27337
# Poissons Ratio (y) = 0.29962 0.06263
# Poissons Ratio (z) = 0.44666 0.07546
#
# Static dielectric constant tensor:
#      x y z
#    x 1.941550 0.000000 0.006410 
#    y 0.000000 2.043440 0.000000 
#    z 0.006410 0.000000 2.021660 
# 
# From -- ./inp_files/2940.got.cif
#   From: 2010.05.17/outbox.cif.g08.bks.cpg/sg4_2_cif.got.tgz:2940.got - 2010.06.03 18:43:04.
