data_PCOD9116453
_publ_section_title
;
Structure prediction by ZEFSAII (Michael W. Deem and Ramdas Pophale) SiO2 
 PCOD9116453
Probable space group: P 21
;
_chemical_formula_sum "Si O2"
_cell_formula_units_Z 16
_cell_length_a 8.194976
_cell_length_b 11.240516
_cell_length_c 8.509356
_cell_angle_alpha 90.000000
_cell_angle_beta 123.469886
_cell_angle_gamma 90.000000
_cell_volume 653.865184
_symmetry_space_group_name_H-M "P 21"
_symmetry_group_IT_number 4
_symmetry_cell_setting 'monoclinic'
loop_
_space_group_symop_operation_xyz
x,y,z
-x,1/2+y,-z
loop_
_atom_site_type_symbol
_atom_site_label
_atom_site_fract_x
_atom_site_fract_y
_atom_site_fract_z
Si Si1 0.720362 0.791940 0.281687
Si Si2 0.687235 0.107832 0.725847
Si Si3 0.304586 0.872737 0.337882
Si Si4 0.650264 0.734583 0.597045
Si Si5 0.958849 0.007203 0.322928
Si Si6 0.045496 0.068615 0.712346
Si Si7 0.648440 0.148802 0.039745
Si Si8 0.348979 0.071092 0.133483
O O1 0.744511 0.781564 0.484900
O O2 0.879059 0.701892 0.287970
O O3 0.775854 0.918556 0.241547
O O4 0.504183 0.746797 0.113782
O O5 0.763177 0.246145 0.770461
O O6 0.474315 0.122426 0.538502
O O7 0.836544 0.051063 0.683952
O O8 0.667696 0.065182 0.893370
O O9 0.478112 0.829637 0.547079
O O10 0.401853 0.955639 0.260123
O O11 0.122508 0.947077 0.303157
O O12 0.737926 0.676560 0.800426
O O13 0.873756 0.134606 0.219458
O O14 0.048031 0.010584 0.544086
O O15 0.197622 0.026532 0.922731
O O16 0.531920 0.121432 0.137048
#
# Coordination Sequence:
#
# PCOD9116453 Si02
#       8
#     2   2   2   2   2   2   2   2
#     4  10  21  44  63 101 133 177 233 280 338 412
#     4   9  20  43  63  95 138 168 221 288 330 401
#     4  10  22  42  69  96 133 175 231 278 342 410
#     4   9  20  40  66  88 133 171 215 286 328 392
#     4  12  23  43  72  97 140 185 223 281 352 406
#     4  11  23  42  65 100 139 175 225 279 340 408
#     4  10  23  39  71  95 135 180 223 285 335 400
#     4  11  22  43  65 100 135 177 225 279 333 411
#
# _framework density 24.469878000000001
#
# number of rings (size 3 to 8) (size 9 to 14) (size 15 to 20)
#    0.750    1.000    1.250    3.000    0.000    0.000 
#    6.750    7.500    0.000    0.000    0.000    0.000 
#    0.000    0.000    0.000    0.000    0.000    0.000 
#
# Total GULP energy -89083.114891 kJ/mol
# GULP energy per Si atom -5567.694681 kJ/mol
# Density = 2.441418 g / cm^3
# Si number density = 24.469878 Si / 1000 Ang^3
#
#
#
# Elastic Constant Matrix: (Units=GPa)
#
#
# Indices 1 2 3 4 5 6 
#
# 1 108.5769 18.7458 16.1256 0.0000 -17.6606 0.0000
# 2 18.7458 63.5436 27.1175 0.0000 -3.6859 0.0000
# 3 16.1256 27.1175 104.5157 0.0000 -9.5469 0.0000
# 4 0.0000 0.0000 0.0000 14.3956 0.0000 0.1746
# 5 -17.6606 -3.6859 -9.5469 0.0000 32.7314 0.0000
# 6 0.0000 0.0000 0.0000 0.1746 0.0000 37.6205
#
#
#
# Elastic Compliance Matrix: (Units=1/GPa)
#
#
# Indices 1 2 3 4 5 6 
#
# 1 0.010591 -0.002616 -0.000473 0.000000 0.005282 0.000000
# 2 -0.002616 0.018357 -0.004417 0.000000 -0.000633 0.000000
# 3 -0.000473 -0.004417 0.011012 0.000000 0.002459 0.000000
# 4 0.000000 0.000000 0.000000 0.069470 0.000000 -0.000322
# 5 0.005282 -0.000633 0.002459 0.000000 0.034048 0.000000
# 6 0.000000 0.000000 0.000000 -0.000322 0.000000 0.026583
#
#
# Mechanical properties :
#
#
# Convention : Reuss Voigt Hill
#
# Bulk Modulus (GPa) = 40.08390 44.51268 42.29829
# Shear Modulus (GPa) = 25.85469 31.25932 28.55701
#
# Velocity S-wave (km/s) = 3.25405 3.57804 3.41988
# Velocity P-wave (km/s) = 5.52585 5.94139 5.73738
#
# Compressibility (1/GPa) = 0.02494767
#
# Stress axis : x y z
#
# Youngs Moduli (GPa) = 94.41862 54.47399 90.81339
#
# Poissons Ratio (x) = 0.14252 0.04293
# Poissons Ratio (y) = 0.24703 0.40113
# Poissons Ratio (z) = 0.04464 0.24062
#
# Static dielectric constant tensor:
#      x y z
#    x 1.965020 0.000000 0.025880 
#    y 0.000000 2.039980 0.000000 
#    z 0.025880 0.000000 1.986650 
# 
# From -- ./inp_files/6423.got.cif
#   From: 2010.05.17/outbox.cif.g08.bks.cpg/sg4_4_cif.got.tgz:6423.got - 2010.06.03 18:43:04.
