data_PCOD9116922
_publ_section_title
;
Structure prediction by ZEFSAII (Michael W. Deem and Ramdas Pophale) SiO2 
 PCOD9116922
Probable space group: P 21
;
_chemical_formula_sum "Si O2"
_cell_formula_units_Z 14
_cell_length_a 11.129801
_cell_length_b 5.134578
_cell_length_c 13.003960
_cell_angle_alpha 90.000000
_cell_angle_beta 136.846501
_cell_angle_gamma 90.000000
_cell_volume 508.271161
_symmetry_space_group_name_H-M "P 21"
_symmetry_group_IT_number 4
_symmetry_cell_setting 'monoclinic'
loop_
_space_group_symop_operation_xyz
x,y,z
-x,1/2+y,-z
loop_
_atom_site_type_symbol
_atom_site_label
_atom_site_fract_x
_atom_site_fract_y
_atom_site_fract_z
Si Si1 0.299699 0.131810 0.923584
Si Si2 0.102482 0.461278 0.526214
Si Si3 0.788190 0.130296 0.630737
Si Si4 0.365215 0.955388 0.193220
Si Si5 0.990572 0.169851 0.960169
Si Si6 0.503759 0.461740 0.391439
Si Si7 0.298341 0.631885 0.834641
O O1 0.216718 0.414835 0.858018
O O2 0.214074 0.913096 0.798928
O O3 0.499755 0.184430 0.010932
O O4 0.330556 0.010974 0.053406
O O5 0.156297 0.509603 0.442537
O O6 0.271974 0.524342 0.704238
O O7 0.967269 0.676588 0.487856
O O8 0.946336 0.131815 0.811440
O O9 0.703008 0.415296 0.554872
O O10 0.627995 0.995790 0.594263
O O11 0.469805 0.701759 0.294357
O O12 0.457728 0.196773 0.304282
O O13 0.158007 0.925490 0.099498
O O14 0.120954 0.424316 0.057052
#
# Coordination Sequence:
#
# PCOD9116922 Si02
#       7
#     2   2   2   2   2   2   2
#     4  10  22  41  74  99 140 185 246 323 371 444
#     4  12  30  50  74 107 158 211 260 314 389 476
#     4  12  29  52  80 116 162 209 266 333 402 473
#     4  12  24  46  74 115 148 201 250 325 397 477
#     4  12  26  48  74 115 156 201 257 324 407 487
#     4  12  27  48  79 115 154 202 263 321 399 471
#     4  10  22  43  65 103 136 189 256 304 371 444
#
# _framework density 27.544350000000001
#
# number of rings (size 3 to 8) (size 9 to 14) (size 15 to 20)
#    0.000    0.571    2.857    3.429    4.000    9.143 
#    0.000    0.000    0.000    0.000    0.000    0.000 
#    0.000    0.000    0.000    0.000    0.000    0.000 
#
# Total GULP energy -78336.689379 kJ/mol
# GULP energy per Si atom -5595.477813 kJ/mol
# Density = 2.748166 g / cm^3
# Si number density = 27.544350 Si / 1000 Ang^3
#
#
#
# Elastic Constant Matrix: (Units=GPa)
#
#
# Indices 1 2 3 4 5 6 
#
# 1 98.9642 26.9032 35.2487 0.0000 -28.6675 0.0000
# 2 26.9032 215.6059 58.7689 0.0000 -5.2785 0.0000
# 3 35.2487 58.7689 173.9188 0.0000 -24.3860 0.0000
# 4 0.0000 0.0000 0.0000 62.3645 0.0000 0.8230
# 5 -28.6675 -5.2785 -24.3860 0.0000 61.8753 0.0000
# 6 0.0000 0.0000 0.0000 0.8230 0.0000 37.2292
#
#
#
# Elastic Compliance Matrix: (Units=1/GPa)
#
#
# Indices 1 2 3 4 5 6 
#
# 1 0.012369 -0.001024 -0.001450 0.000000 0.005072 0.000000
# 2 -0.001024 0.005197 -0.001644 0.000000 -0.000679 0.000000
# 3 -0.001450 -0.001644 0.006865 0.000000 0.001894 0.000000
# 4 0.000000 0.000000 0.000000 0.016039 0.000000 -0.000355
# 5 0.005072 -0.000679 0.001894 0.000000 0.019200 0.000000
# 6 0.000000 0.000000 0.000000 -0.000355 0.000000 0.026869
#
#
# Mechanical properties :
#
#
# Convention : Reuss Voigt Hill
#
# Bulk Modulus (GPa) = 61.74579 81.14782 71.44681
# Shear Modulus (GPa) = 49.91430 56.79833 53.35631
#
# Velocity S-wave (km/s) = 4.26155 4.54593 4.40603
# Velocity P-wave (km/s) = 6.83227 7.55504 7.20273
#
# Compressibility (1/GPa) = 0.01619544
#
# Stress axis : x y z
#
# Youngs Moduli (GPa) = 80.85020 192.40643 145.67501
#
# Poissons Ratio (x) = 0.19703 0.21117
# Poissons Ratio (y) = 0.08279 0.23947
# Poissons Ratio (z) = 0.11720 0.31629
#
# Static dielectric constant tensor:
#      x y z
#    x 2.207220 0.000000 0.092920 
#    y 0.000000 2.288600 0.000000 
#    z 0.092920 0.000000 2.316830 
# 
# From -- ./inp_files/11539.got.cif
#   From: 2010.05.17/outbox.cif.g08.bks.cpg/sg4_6_cif.got.tgz:11539.got - 2010.06.03 18:43:04.
