data_PCOD9116274
_publ_section_title
;
Structure prediction by ZEFSAII (Michael W. Deem and Ramdas Pophale) SiO2 
 PCOD9116274
Probable space group: P 21
;
_chemical_formula_sum "Si O2"
_cell_formula_units_Z 16
_cell_length_a 10.449632
_cell_length_b 4.983486
_cell_length_c 25.749358
_cell_angle_alpha 90.000000
_cell_angle_beta 145.855040
_cell_angle_gamma 90.000000
_cell_volume 752.639256
_symmetry_space_group_name_H-M "P 21"
_symmetry_group_IT_number 4
_symmetry_cell_setting 'monoclinic'
loop_
_space_group_symop_operation_xyz
x,y,z
-x,1/2+y,-z
loop_
_atom_site_type_symbol
_atom_site_label
_atom_site_fract_x
_atom_site_fract_y
_atom_site_fract_z
Si Si1 0.327218 0.466970 0.270707
Si Si2 0.853452 0.500248 0.433608
Si Si3 0.793950 0.835300 0.229794
Si Si4 0.211059 0.221542 0.121383
Si Si5 0.929724 0.333295 0.343524
Si Si6 0.544807 0.885975 0.482786
Si Si7 0.165777 0.949365 0.271173
Si Si8 0.701398 0.220446 0.915320
O O1 0.597820 0.505728 0.370052
O O2 0.295053 0.327625 0.204307
O O3 0.194617 0.748013 0.232439
O O4 0.217428 0.254478 0.273637
O O5 0.829458 0.420930 0.365023
O O6 0.987476 0.779081 0.485116
O O7 0.831303 0.063035 0.286023
O O8 0.891005 0.563721 0.287831
O O9 0.526311 0.794259 0.130802
O O10 0.935578 0.913662 0.226399
O O11 0.310639 0.420496 0.110927
O O12 0.277972 0.922447 0.126903
O O13 0.936675 0.248220 0.025542
O O14 0.199165 0.302491 0.443651
O O15 0.461302 0.693164 0.500868
O O16 0.368721 0.856347 0.377363
#
# Coordination Sequence:
#
# PCOD9116274 Si02
#       8
#     2   2   2   2   2   2   2   2
#     4  12  24  42  61  87 127 166 198 240 312 370
#     4  12  25  41  59  87 121 157 202 254 301 356
#     4  12  23  40  61  94 118 156 205 255 301 348
#     4  10  22  42  67  95 118 160 197 249 316 366
#     4  12  23  39  63  88 119 158 207 254 304 350
#     4  12  21  39  57  83 119 159 204 246 288 345
#     4  12  25  40  59  88 126 165 203 246 293 370
#     4  10  21  41  69  94 122 147 204 262 301 359
#
# _framework density 21.258524999999999
#
# number of rings (size 3 to 8) (size 9 to 14) (size 15 to 20)
#    0.000    0.500    2.500    7.500    0.000    0.000 
#    0.000    1.250    0.000    0.000    0.000    0.000 
#    0.000    0.000    0.000    0.000    0.000    0.000 
#
# Total GULP energy -89568.947412 kJ/mol
# GULP energy per Si atom -5598.059213 kJ/mol
# Density = 2.121014 g / cm^3
# Si number density = 21.258525 Si / 1000 Ang^3
#
#
#
# Elastic Constant Matrix: (Units=GPa)
#
#
# Indices 1 2 3 4 5 6 
#
# 1 76.5440 -6.6807 29.3848 0.0000 31.9553 0.0000
# 2 -6.6807 60.1030 -9.0662 0.0000 9.3916 0.0000
# 3 29.3848 -9.0662 52.0337 0.0000 23.8609 0.0000
# 4 0.0000 0.0000 0.0000 23.1575 0.0000 -1.2112
# 5 31.9553 9.3916 23.8609 0.0000 39.9150 0.0000
# 6 0.0000 0.0000 0.0000 -1.2112 0.0000 30.1165
#
#
#
# Elastic Compliance Matrix: (Units=1/GPa)
#
#
# Indices 1 2 3 4 5 6 
#
# 1 0.021660 0.004235 -0.004251 0.000000 -0.015796 0.000000
# 2 0.004235 0.019990 0.006617 0.000000 -0.012049 0.000000
# 3 -0.004251 0.006617 0.030205 0.000000 -0.016210 0.000000
# 4 0.000000 0.000000 0.000000 0.043274 0.000000 0.001740
# 5 -0.015796 -0.012049 -0.016210 0.000000 0.050225 0.000000
# 6 0.000000 0.000000 0.000000 0.001740 0.000000 0.033274
#
#
# Mechanical properties :
#
#
# Convention : Reuss Voigt Hill
#
# Bulk Modulus (GPa) = 11.75683 23.99517 17.87600
# Shear Modulus (GPa) = 23.38867 30.30733 26.84800
#
# Velocity S-wave (km/s) = 3.32053 3.77988 3.55763
# Velocity P-wave (km/s) = 4.49929 5.51016 5.03018
#
# Compressibility (1/GPa) = 0.08505693
#
# Stress axis : x y z
#
# Youngs Moduli (GPa) = 46.16717 50.02574 33.10698
#
# Poissons Ratio (x) = -0.21185 0.14073
# Poissons Ratio (y) = -0.19551 -0.21906
# Poissons Ratio (z) = 0.19624 -0.33101
#
# Static dielectric constant tensor:
#      x y z
#    x 1.783010 0.000000 0.008940 
#    y 0.000000 1.751580 0.000000 
#    z 0.008940 0.000000 1.743370 
# 
# From -- ./inp_files/10191.got.cif
#   From: 2010.05.17/outbox.cif.g08.bks.cpg/sg4_6_cif.got.tgz:10191.got - 2010.06.03 18:43:04.
