data_PCOD9116071
_publ_section_title
;
Structure prediction by ZEFSAII (Michael W. Deem and Ramdas Pophale) SiO2 
 PCOD9116071
Probable space group: P 21
;
_chemical_formula_sum "Si O2"
_cell_formula_units_Z 14
_cell_length_a 10.019896
_cell_length_b 6.969978
_cell_length_c 12.121338
_cell_angle_alpha 90.000000
_cell_angle_beta 40.834591
_cell_angle_gamma 90.000000
_cell_volume 553.530529
_symmetry_space_group_name_H-M "P 21"
_symmetry_group_IT_number 4
_symmetry_cell_setting 'monoclinic'
loop_
_space_group_symop_operation_xyz
x,y,z
-x,1/2+y,-z
loop_
_atom_site_type_symbol
_atom_site_label
_atom_site_fract_x
_atom_site_fract_y
_atom_site_fract_z
Si Si1 0.587276 0.863420 0.144412
Si Si2 0.259362 0.270910 0.401259
Si Si3 0.803341 0.277880 0.740646
Si Si4 0.636509 0.507051 0.243194
Si Si5 0.161787 0.321797 0.228372
Si Si6 0.170263 0.745743 0.035818
Si Si7 0.204013 0.996304 0.632225
O O1 0.356266 0.832700 0.251673
O O2 0.639355 0.732219 0.215887
O O3 0.673446 0.078135 0.098316
O O4 0.705776 0.784911 0.961856
O O5 0.435023 0.424581 0.310632
O O6 0.236373 0.209276 0.288166
O O7 0.292487 0.108070 0.472859
O O8 0.030925 0.345485 0.570308
O O9 0.810677 0.044945 0.749656
O O10 0.751593 0.339459 0.898271
O O11 0.825481 0.401839 0.063036
O O12 0.639216 0.452129 0.369479
O O13 0.927943 0.319737 0.333251
O O14 0.960886 0.637627 0.201387
#
# Coordination Sequence:
#
# PCOD9116071 Si02
#       7
#     2   2   2   2   2   2   2
#     4  10  21  39  70 101 133 175 229 288 340 406
#     4  10  21  43  66  93 141 177 223 286 328 413
#     4   9  19  39  64 100 139 170 228 281 339 400
#     4  12  23  44  70  99 137 183 230 280 354 408
#     4   9  19  42  65  97 132 178 229 278 341 400
#     4   9  23  41  67  99 135 173 228 291 336 402
#     4   9  24  44  64  97 143 174 229 282 344 419
#
# _framework density 25.292190000000002
#
# number of rings (size 3 to 8) (size 9 to 14) (size 15 to 20)
#    0.000    2.857    1.429    0.857    6.000    2.286 
#   15.429    0.000    0.000    0.000    0.000    0.000 
#    0.000    0.000    0.000    0.000    0.000    0.000 
#
# Total GULP energy -78328.061579 kJ/mol
# GULP energy per Si atom -5594.861541 kJ/mol
# Density = 2.523462 g / cm^3
# Si number density = 25.292190 Si / 1000 Ang^3
#
#
#
# Elastic Constant Matrix: (Units=GPa)
#
#
# Indices 1 2 3 4 5 6 
#
# 1 156.1180 11.9209 6.8412 0.0000 15.8351 0.0000
# 2 11.9209 70.0072 0.0850 0.0000 -0.1484 0.0000
# 3 6.8412 0.0850 74.5025 0.0000 7.0757 0.0000
# 4 0.0000 0.0000 0.0000 13.5138 0.0000 8.1837
# 5 15.8351 -0.1484 7.0757 0.0000 36.1668 0.0000
# 6 0.0000 0.0000 0.0000 8.1837 0.0000 27.0286
#
#
#
# Elastic Compliance Matrix: (Units=1/GPa)
#
#
# Indices 1 2 3 4 5 6 
#
# 1 0.006805 -0.001165 -0.000347 0.000000 -0.002917 0.000000
# 2 -0.001165 0.014484 0.000037 0.000000 0.000562 0.000000
# 3 -0.000347 0.000037 0.013694 0.000000 -0.002527 0.000000
# 4 0.000000 0.000000 0.000000 0.090613 0.000000 -0.027436
# 5 -0.002917 0.000562 -0.002527 0.000000 0.029423 0.000000
# 6 0.000000 0.000000 0.000000 -0.027436 0.000000 0.045305
#
#
# Mechanical properties :
#
#
# Convention : Reuss Voigt Hill
#
# Bulk Modulus (GPa) = 31.21590 37.59133 34.40361
# Shear Modulus (GPa) = 23.36978 34.12722 28.74850
#
# Velocity S-wave (km/s) = 3.04302 3.67729 3.37509
# Velocity P-wave (km/s) = 4.97147 5.73804 5.36845
#
# Compressibility (1/GPa) = 0.03203496
#
# Stress axis : x y z
#
# Youngs Moduli (GPa) = 146.94307 69.04316 73.02379
#
# Poissons Ratio (x) = 0.08041 0.02531
# Poissons Ratio (y) = 0.17113 -0.00270
# Poissons Ratio (z) = 0.05093 -0.00256
#
# Static dielectric constant tensor:
#      x y z
#    x 1.983180 0.000000 -0.013960 
#    y 0.000000 2.039720 0.000000 
#    z -0.013960 0.000000 2.025150 
# 
# From -- ./inp_files/15116.got.cif
#   From: 2010.05.17/outbox.cif.g08.bks.cpg/sg4_8_cif.got.tgz:15116.got - 2010.06.03 18:43:04.
