data_PCOD9116174
_publ_section_title
;
Structure prediction by ZEFSAII (Michael W. Deem and Ramdas Pophale) SiO2 
 PCOD9116174
Probable space group: P 21
;
_chemical_formula_sum "Si O2"
_cell_formula_units_Z 16
_cell_length_a 9.690581
_cell_length_b 12.741163
_cell_length_c 5.727993
_cell_angle_alpha 90.000000
_cell_angle_beta 118.575025
_cell_angle_gamma 90.000000
_cell_volume 621.084400
_symmetry_space_group_name_H-M "P 21"
_symmetry_group_IT_number 4
_symmetry_cell_setting 'monoclinic'
loop_
_space_group_symop_operation_xyz
x,y,z
-x,1/2+y,-z
loop_
_atom_site_type_symbol
_atom_site_label
_atom_site_fract_x
_atom_site_fract_y
_atom_site_fract_z
Si Si1 0.849613 0.381720 0.625948
Si Si2 0.522012 0.199544 0.880058
Si Si3 0.559226 0.694014 0.690121
Si Si4 0.452457 0.953494 0.843417
Si Si5 0.048878 0.421599 0.404261
Si Si6 0.598207 0.967845 0.458352
Si Si7 0.878887 0.574096 0.966667
Si Si8 0.126150 0.723824 0.975775
O O1 0.719427 0.404651 0.328401
O O2 0.815049 0.470760 0.787431
O O3 0.834659 0.270560 0.736135
O O4 0.021166 0.398923 0.654485
O O5 0.457160 0.243332 0.580896
O O6 0.710738 0.195840 0.013615
O O7 0.448624 0.082118 0.836028
O O8 0.480831 0.249241 0.097601
O O9 0.442098 0.593147 0.577608
O O10 0.737023 0.654325 0.867346
O O11 0.548664 0.933590 0.679685
O O12 0.508204 0.930786 0.151353
O O13 0.221729 0.441014 0.449359
O O14 0.954951 0.528082 0.262142
O O15 0.972385 0.317996 0.223628
O O16 0.014752 0.625201 0.921211
#
# Coordination Sequence:
#
# PCOD9116174 Si02
#       8
#     2   2   2   2   2   2   2   2
#     4  11  25  46  72 107 144 198 243 308 371 446
#     4  10  21  42  68 100 138 183 239 293 362 426
#     4  10  21  41  72 105 129 190 244 292 356 436
#     4  10  21  43  73  99 134 188 247 292 362 433
#     4  11  26  44  72 104 148 195 244 307 379 447
#     4  10  21  40  70 103 135 183 243 294 359 434
#     4  11  23  47  74 101 149 194 245 306 376 446
#     4  11  28  45  69 109 151 191 247 310 375 446
#
# _framework density 25.761395
#
# number of rings (size 3 to 8) (size 9 to 14) (size 15 to 20)
#    0.000    1.500    2.500    3.000   10.500    1.000 
#    2.250    0.000    0.000    0.000    0.000    0.000 
#    0.000    0.000    0.000    0.000    0.000    0.000 
#
# Total GULP energy -89583.181387 kJ/mol
# GULP energy per Si atom -5598.948837 kJ/mol
# Density = 2.570276 g / cm^3
# Si number density = 25.761395 Si / 1000 Ang^3
#
#
#
# Elastic Constant Matrix: (Units=GPa)
#
#
# Indices 1 2 3 4 5 6 
#
# 1 122.2209 1.9850 43.6833 0.0000 -22.6054 0.0000
# 2 1.9850 65.1146 36.4440 0.0000 -9.0583 0.0000
# 3 43.6833 36.4440 136.5687 0.0000 -34.1539 0.0000
# 4 0.0000 0.0000 0.0000 44.7740 0.0000 -9.3896
# 5 -22.6054 -9.0583 -34.1539 0.0000 51.4558 0.0000
# 6 0.0000 0.0000 0.0000 -9.3896 0.0000 36.0433
#
#
#
# Elastic Compliance Matrix: (Units=1/GPa)
#
#
# Indices 1 2 3 4 5 6 
#
# 1 0.009673 0.001686 -0.002886 0.000000 0.002631 0.000000
# 2 0.001686 0.018348 -0.005327 0.000000 0.000435 0.000000
# 3 -0.002886 -0.005327 0.010930 0.000000 0.005049 0.000000
# 4 0.000000 0.000000 0.000000 0.023625 0.000000 0.006155
# 5 0.002631 0.000435 0.005049 0.000000 0.024018 0.000000
# 6 0.000000 0.000000 0.000000 0.006155 0.000000 0.029348
#
#
# Mechanical properties :
#
#
# Convention : Reuss Voigt Hill
#
# Bulk Modulus (GPa) = 38.61423 54.23653 46.42538
# Shear Modulus (GPa) = 36.33031 42.57409 39.45220
#
# Velocity S-wave (km/s) = 3.75942 4.06967 3.91762
# Velocity P-wave (km/s) = 5.81945 6.57130 6.20677
#
# Compressibility (1/GPa) = 0.02589719
#
# Stress axis : x y z
#
# Youngs Moduli (GPa) = 103.38512 54.50172 91.49450
#
# Poissons Ratio (x) = -0.09191 0.26406
# Poissons Ratio (y) = -0.17435 0.48738
# Poissons Ratio (z) = 0.29837 0.29032
#
# Static dielectric constant tensor:
#      x y z
#    x 1.976280 0.000000 -0.015210 
#    y 0.000000 2.062850 0.000000 
#    z -0.015210 0.000000 2.101230 
# 
# From -- ./inp_files/1727.got.cif
#   From: 2010.05.17/outbox.cif.g08.bks.cpg/sg4_1_cif.got.tgz:1727.got - 2010.06.03 18:43:04.
