data_PCOD9116483
_publ_section_title
;
Structure prediction by ZEFSAII (Michael W. Deem and Ramdas Pophale) SiO2 
 PCOD9116483
Probable space group: P 21
;
_chemical_formula_sum "Si O2"
_cell_formula_units_Z 14
_cell_length_a 14.007828
_cell_length_b 7.840172
_cell_length_c 4.978715
_cell_angle_alpha 90.000000
_cell_angle_beta 64.356387
_cell_angle_gamma 90.000000
_cell_volume 492.925187
_symmetry_space_group_name_H-M "P 21"
_symmetry_group_IT_number 4
_symmetry_cell_setting 'monoclinic'
loop_
_space_group_symop_operation_xyz
x,y,z
-x,1/2+y,-z
loop_
_atom_site_type_symbol
_atom_site_label
_atom_site_fract_x
_atom_site_fract_y
_atom_site_fract_z
Si Si1 0.873627 0.356760 0.940991
Si Si2 0.399392 0.809191 0.099551
Si Si3 0.661765 0.503278 0.334916
Si Si4 0.615603 0.831747 0.154918
Si Si5 0.833565 0.784957 0.606928
Si Si6 0.734814 0.065518 0.389437
Si Si7 0.977570 0.068619 0.517908
O O1 0.780486 0.492824 0.081053
O O2 0.976135 0.482500 0.813267
O O3 0.904569 0.237191 0.644560
O O4 0.819490 0.208285 0.190031
O O5 0.516254 0.826495 0.079372
O O6 0.336199 0.640734 0.277400
O O7 0.393404 0.866795 0.799205
O O8 0.338377 0.948065 0.357640
O O9 0.601372 0.679190 0.384507
O O10 0.649968 0.000627 0.273076
O O11 0.719431 0.769143 0.873910
O O12 0.912977 0.626690 0.469578
O O13 0.801251 0.899833 0.392207
O O14 0.903501 0.914749 0.705907
#
# Coordination Sequence:
#
# PCOD9116483 Si02
#       7
#     2   2   2   2   2   2   2
#     4  10  21  44  71 106 145 187 254 304 386 444
#     4  11  28  46  78 106 162 201 261 306 399 446
#     4  11  26  48  72 115 151 207 250 325 373 475
#     4  12  26  45  75 112 149 198 258 312 381 467
#     4  11  24  46  75 103 152 187 256 311 388 449
#     4  11  26  48  73 111 148 204 249 329 376 472
#     4  10  21  45  72  99 143 192 236 317 371 459
#
# _framework density 28.401873999999999
#
# number of rings (size 3 to 8) (size 9 to 14) (size 15 to 20)
#    0.000    1.143    2.857    1.714    8.000    0.000 
#    5.143    5.714    0.000    0.000    0.000    0.000 
#    0.000    0.000    0.000    0.000    0.000    0.000 
#
# Total GULP energy -78138.934823 kJ/mol
# GULP energy per Si atom -5581.352487 kJ/mol
# Density = 2.833723 g / cm^3
# Si number density = 28.401874 Si / 1000 Ang^3
#
#
#
# Elastic Constant Matrix: (Units=GPa)
#
#
# Indices 1 2 3 4 5 6 
#
# 1 126.3078 28.5445 42.5649 0.0000 -26.8765 0.0000
# 2 28.5445 91.9097 50.0564 0.0000 6.1028 0.0000
# 3 42.5649 50.0564 98.8387 0.0000 -11.7200 0.0000
# 4 0.0000 0.0000 0.0000 26.7182 0.0000 2.4112
# 5 -26.8765 6.1028 -11.7200 0.0000 50.9907 0.0000
# 6 0.0000 0.0000 0.0000 2.4112 0.0000 52.2298
#
#
#
# Elastic Compliance Matrix: (Units=1/GPa)
#
#
# Indices 1 2 3 4 5 6 
#
# 1 0.010417 -0.002011 -0.002866 0.000000 0.005073 0.000000
# 2 -0.002011 0.016102 -0.007857 0.000000 -0.004793 0.000000
# 3 -0.002866 -0.007857 0.015691 0.000000 0.003036 0.000000
# 4 0.000000 0.000000 0.000000 0.037584 0.000000 -0.001735
# 5 0.005073 -0.004793 0.003036 0.000000 0.023557 0.000000
# 6 0.000000 0.000000 0.000000 -0.001735 0.000000 0.019226
#
#
# Mechanical properties :
#
#
# Convention : Reuss Voigt Hill
#
# Bulk Modulus (GPa) = 59.73168 62.15421 60.94295
# Shear Modulus (GPa) = 32.54643 39.04708 35.79675
#
# Velocity S-wave (km/s) = 3.38882 3.71186 3.55401
# Velocity P-wave (km/s) = 6.03231 6.34838 6.19236
#
# Compressibility (1/GPa) = 0.01674153
#
# Stress axis : x y z
#
# Youngs Moduli (GPa) = 95.99837 62.10264 63.73053
#
# Poissons Ratio (x) = 0.12489 0.18265
# Poissons Ratio (y) = 0.19306 0.50075
# Poissons Ratio (z) = 0.27513 0.48796
#
# Static dielectric constant tensor:
#      x y z
#    x 2.216890 0.000000 0.022800 
#    y 0.000000 2.345290 0.000000 
#    z 0.022800 0.000000 2.229960 
# 
# From -- ./inp_files/3388.got.cif
#   From: 2010.05.17/outbox.cif.g08.bks.cpg/sg4_2_cif.got.tgz:3388.got - 2010.06.03 18:43:04.
