data_PCOD9116311
_publ_section_title
;
Structure prediction by ZEFSAII (Michael W. Deem and Ramdas Pophale) SiO2 
 PCOD9116311
Probable space group: P 21
;
_chemical_formula_sum "Si O2"
_cell_formula_units_Z 16
_cell_length_a 7.372785
_cell_length_b 9.142413
_cell_length_c 11.862650
_cell_angle_alpha 90.000000
_cell_angle_beta 50.185622
_cell_angle_gamma 90.000000
_cell_volume 614.192937
_symmetry_space_group_name_H-M "P 21"
_symmetry_group_IT_number 4
_symmetry_cell_setting 'monoclinic'
loop_
_space_group_symop_operation_xyz
x,y,z
-x,1/2+y,-z
loop_
_atom_site_type_symbol
_atom_site_label
_atom_site_fract_x
_atom_site_fract_y
_atom_site_fract_z
Si Si1 0.857289 0.208680 0.491046
Si Si2 0.124053 0.944290 0.350883
Si Si3 0.218031 0.917237 0.828617
Si Si4 0.324449 0.211173 0.659370
Si Si5 0.456989 0.167352 0.360220
Si Si6 0.804884 0.826202 0.834241
Si Si7 0.841837 0.978943 0.138167
Si Si8 0.504776 0.044302 0.051320
O O1 0.891869 0.281905 0.598334
O O2 0.593673 0.254872 0.572013
O O3 0.041652 0.289258 0.335679
O O4 0.885923 0.036961 0.456492
O O5 0.268331 0.952926 0.177686
O O6 0.283583 0.054502 0.366105
O O7 0.440456 0.808342 0.747462
O O8 0.994968 0.830997 0.860961
O O9 0.277047 0.047972 0.720740
O O10 0.108124 0.987225 0.985761
O O11 0.323203 0.214043 0.525721
O O12 0.178096 0.319862 0.796967
O O13 0.703278 0.079307 0.283978
O O14 0.603559 0.702824 0.927831
O O15 0.664455 0.978506 0.889421
O O16 0.680515 0.021092 0.090756
#
# Coordination Sequence:
#
# PCOD9116311 Si02
#       8
#     2   2   2   2   2   2   2   2
#     4  11  22  42  63  96 127 172 222 274 334 392
#     4  10  23  41  64  91 133 171 220 275 329 400
#     4  11  23  38  66  97 132 171 227 275 339 404
#     4  12  22  41  70  94 130 176 222 282 335 395
#     4  11  21  41  64  96 131 170 221 280 330 398
#     4  10  21  42  65  97 131 175 221 277 329 403
#     4  10  22  44  63  92 132 178 222 275 337 401
#     4   9  20  41  67  89 136 175 219 272 329 403
#
# _framework density 26.050446000000001
#
# number of rings (size 3 to 8) (size 9 to 14) (size 15 to 20)
#    0.000    1.500    3.750    2.250    1.750    1.000 
#    0.000    6.250    0.000    0.000    0.000    0.000 
#    0.000    0.000    0.000    0.000    0.000    0.000 
#
# Total GULP energy -89361.424078 kJ/mol
# GULP energy per Si atom -5585.089005 kJ/mol
# Density = 2.599115 g / cm^3
# Si number density = 26.050446 Si / 1000 Ang^3
#
#
#
# Elastic Constant Matrix: (Units=GPa)
#
#
# Indices 1 2 3 4 5 6 
#
# 1 81.6533 33.0805 28.9570 0.0000 -8.4574 0.0000
# 2 33.0805 79.5509 31.9172 0.0000 -3.4228 0.0000
# 3 28.9570 31.9172 105.7746 0.0000 -17.5279 0.0000
# 4 0.0000 0.0000 0.0000 65.1060 0.0000 -16.6383
# 5 -8.4574 -3.4228 -17.5279 0.0000 13.7412 0.0000
# 6 0.0000 0.0000 0.0000 -16.6383 0.0000 40.8611
#
#
#
# Elastic Compliance Matrix: (Units=1/GPa)
#
#
# Indices 1 2 3 4 5 6 
#
# 1 0.015741 -0.005648 -0.001563 0.000000 0.006287 0.000000
# 2 -0.005648 0.016395 -0.004185 0.000000 -0.004730 0.000000
# 3 -0.001563 -0.004185 0.013711 0.000000 0.015485 0.000000
# 4 0.000000 0.000000 0.000000 0.017144 0.000000 0.006981
# 5 0.006287 -0.004730 0.015485 0.000000 0.095217 0.000000
# 6 0.000000 0.000000 0.000000 0.006981 0.000000 0.027316
#
#
# Mechanical properties :
#
#
# Convention : Reuss Voigt Hill
#
# Bulk Modulus (GPa) = 43.37543 50.54311 46.95927
# Shear Modulus (GPa) = 23.14835 35.47661 29.31248
#
# Velocity S-wave (km/s) = 2.98417 3.69432 3.35807
# Velocity P-wave (km/s) = 5.34419 6.13526 5.75334
#
# Compressibility (1/GPa) = 0.02305452
#
# Stress axis : x y z
#
# Youngs Moduli (GPa) = 63.52995 60.99548 72.93614
#
# Poissons Ratio (x) = 0.34450 0.11400
# Poissons Ratio (y) = 0.35881 0.30522
# Poissons Ratio (z) = 0.09930 0.25525
#
# Static dielectric constant tensor:
#      x y z
#    x 2.200420 0.000000 -0.019550 
#    y 0.000000 2.066130 0.000000 
#    z -0.019550 0.000000 1.986680 
# 
# From -- ./inp_files/13651.got.cif
#   From: 2010.05.17/outbox.cif.g08.bks.cpg/sg4_7_cif.got.tgz:13651.got - 2010.06.03 18:43:04.
