data_PCOD9116491
_publ_section_title
;
Structure prediction by ZEFSAII (Michael W. Deem and Ramdas Pophale) SiO2 
 PCOD9116491
Probable space group: P 21
;
_chemical_formula_sum "Si O2"
_cell_formula_units_Z 16
_cell_length_a 5.777830
_cell_length_b 19.628352
_cell_length_c 5.537420
_cell_angle_alpha 90.000000
_cell_angle_beta 104.947984
_cell_angle_gamma 90.000000
_cell_volume 606.743726
_symmetry_space_group_name_H-M "P 21"
_symmetry_group_IT_number 4
_symmetry_cell_setting 'monoclinic'
loop_
_space_group_symop_operation_xyz
x,y,z
-x,1/2+y,-z
loop_
_atom_site_type_symbol
_atom_site_label
_atom_site_fract_x
_atom_site_fract_y
_atom_site_fract_z
Si Si1 0.017191 0.787500 0.896234
Si Si2 0.832194 0.559609 0.300403
Si Si3 0.434329 0.827370 0.327532
Si Si4 0.733541 0.883775 0.040927
Si Si5 0.126572 0.904866 0.557949
Si Si6 0.415932 0.187281 0.644950
Si Si7 0.290771 0.663507 0.771617
Si Si8 0.261537 0.538850 0.048468
O O1 0.201494 0.786670 0.171981
O O2 0.760300 0.808122 0.933262
O O3 0.056318 0.858437 0.763904
O O4 0.092097 0.722248 0.763724
O O5 0.878088 0.485671 0.427405
O O6 0.800638 0.633275 0.416133
O O7 0.548007 0.548561 0.159540
O O8 0.047739 0.566753 0.163901
O O9 0.495939 0.880863 0.136412
O O10 0.379913 0.872794 0.543843
O O11 0.629372 0.767906 0.401889
O O12 0.941860 0.887799 0.297786
O O13 0.759286 0.957630 0.931572
O O14 0.580999 0.170040 0.453735
O O15 0.533978 0.178296 0.946258
O O16 0.218589 0.584236 0.795493
#
# Coordination Sequence:
#
# PCOD9116491 Si02
#       8
#     2   2   2   2   2   2   2   2
#     4  10  21  45  65  96 141 183 237 302 360 434
#     4  11  26  46  74 103 147 189 246 297 371 431
#     4  10  23  41  69  98 141 186 244 297 369 429
#     4  11  25  39  69 103 140 187 247 296 367 429
#     4  11  23  41  68 100 139 186 239 301 358 434
#     4  10  23  46  71 106 140 196 241 305 364 439
#     4  10  23  45  74 100 148 188 247 299 371 432
#     4  11  26  47  72 106 144 193 241 303 364 438
#
# _framework density 26.370277000000002
#
# number of rings (size 3 to 8) (size 9 to 14) (size 15 to 20)
#    0.000    1.500    2.500    0.750    7.000    3.000 
#    0.000    1.250    0.000    0.000    0.000    0.000 
#    0.000    0.000    0.000    0.000    0.000    0.000 
#
# Total GULP energy -89169.570625 kJ/mol
# GULP energy per Si atom -5573.098164 kJ/mol
# Density = 2.631026 g / cm^3
# Si number density = 26.370277 Si / 1000 Ang^3
#
#
#
# Elastic Constant Matrix: (Units=GPa)
#
#
# Indices 1 2 3 4 5 6 
#
# 1 81.0392 25.6734 34.3106 0.0000 -14.2515 0.0000
# 2 25.6734 182.1812 41.0202 0.0000 -14.6874 0.0000
# 3 34.3106 41.0202 86.4907 0.0000 -16.0889 0.0000
# 4 0.0000 0.0000 0.0000 58.1687 0.0000 -6.9052
# 5 -14.2515 -14.6874 -16.0889 0.0000 61.9478 0.0000
# 6 0.0000 0.0000 0.0000 -6.9052 0.0000 46.9413
#
#
#
# Elastic Compliance Matrix: (Units=1/GPa)
#
#
# Indices 1 2 3 4 5 6 
#
# 1 0.015166 -0.000792 -0.005282 0.000000 0.001929 0.000000
# 2 -0.000792 0.006219 -0.002516 0.000000 0.000639 0.000000
# 3 -0.005282 -0.002516 0.015250 0.000000 0.002149 0.000000
# 4 0.000000 0.000000 0.000000 0.017497 0.000000 0.002574
# 5 0.001929 0.000639 0.002149 0.000000 0.017296 0.000000
# 6 0.000000 0.000000 0.000000 0.002574 0.000000 0.021682
#
#
# Mechanical properties :
#
#
# Convention : Reuss Voigt Hill
#
# Bulk Modulus (GPa) = 51.40164 61.30214 56.35189
# Shear Modulus (GPa) = 42.81717 49.99204 46.40460
#
# Velocity S-wave (km/s) = 4.03388 4.35877 4.19947
# Velocity P-wave (km/s) = 6.42112 6.97345 6.70298
#
# Compressibility (1/GPa) = 0.01945463
#
# Stress axis : x y z
#
# Youngs Moduli (GPa) = 65.93593 160.80383 65.57257
#
# Poissons Ratio (x) = 0.12744 0.34633
# Poissons Ratio (y) = 0.05225 0.16499
# Poissons Ratio (z) = 0.34825 0.40462
#
# Static dielectric constant tensor:
#      x y z
#    x 2.315950 0.000000 0.110050 
#    y 0.000000 2.076950 0.000000 
#    z 0.110050 0.000000 2.142830 
# 
# From -- ./inp_files/539.got.cif
#   From: 2010.05.17/outbox.cif.g08.bks.cpg/sg4_1_cif.got.tgz:539.got - 2010.06.03 18:43:04.
