data_PCOD9116344
_publ_section_title
;
Structure prediction by ZEFSAII (Michael W. Deem and Ramdas Pophale) SiO2 
 PCOD9116344
Probable space group: P 21
;
_chemical_formula_sum "Si O2"
_cell_formula_units_Z 14
_cell_length_a 9.055073
_cell_length_b 10.353646
_cell_length_c 11.797001
_cell_angle_alpha 90.000000
_cell_angle_beta 35.606565
_cell_angle_gamma 90.000000
_cell_volume 643.933647
_symmetry_space_group_name_H-M "P 21"
_symmetry_group_IT_number 4
_symmetry_cell_setting 'monoclinic'
loop_
_space_group_symop_operation_xyz
x,y,z
-x,1/2+y,-z
loop_
_atom_site_type_symbol
_atom_site_label
_atom_site_fract_x
_atom_site_fract_y
_atom_site_fract_z
Si Si1 0.179553 0.327320 0.668066
Si Si2 0.293104 0.661485 0.055189
Si Si3 0.525883 0.697755 0.152005
Si Si4 0.981200 0.042737 0.094867
Si Si5 0.522396 0.640831 0.681798
Si Si6 0.374975 0.839608 0.446940
Si Si7 0.949259 0.907065 0.880494
O O1 0.313872 0.252377 0.480553
O O2 0.361683 0.291904 0.660286
O O3 0.890269 0.282267 0.849291
O O4 0.147117 0.480240 0.712547
O O5 0.396542 0.657068 0.116879
O O6 0.109341 0.541873 0.143751
O O7 0.509885 0.659050 0.824481
O O8 0.330182 0.742826 0.371048
O O9 0.741573 0.597430 0.055374
O O10 0.692698 0.826605 0.030896
O O11 0.771547 0.142450 0.177300
O O12 0.007511 0.940600 0.974618
O O13 0.602284 0.491600 0.603907
O O14 0.167020 0.837770 0.674391
#
# Coordination Sequence:
#
# PCOD9116344 Si02
#       7
#     2   2   2   2   2   2   2
#     4  11  22  41  70 100 130 172 232 282 339 407
#     4  11  25  42  67  94 144 184 215 286 353 409
#     4  12  25  45  66  99 143 181 227 277 351 423
#     4  10  24  43  72 103 134 179 233 291 342 402
#     4  10  21  42  69  95 134 175 229 289 339 399
#     4  11  22  40  72  96 129 178 232 291 334 397
#     4  11  23  45  68  97 138 177 234 288 338 405
#
# _framework density 21.74137
#
# number of rings (size 3 to 8) (size 9 to 14) (size 15 to 20)
#    0.000    1.143    5.714    2.571    4.000    1.143 
#    0.000    1.429    0.000    0.000    0.000    0.000 
#    0.000    0.000    0.000    0.000    0.000    0.000 
#
# Total GULP energy -78110.229927 kJ/mol
# GULP energy per Si atom -5579.302138 kJ/mol
# Density = 2.169189 g / cm^3
# Si number density = 21.741370 Si / 1000 Ang^3
#
#
#
# Elastic Constant Matrix: (Units=GPa)
#
#
# Indices 1 2 3 4 5 6 
#
# 1 46.3809 15.4782 16.1508 0.0000 20.2317 0.0000
# 2 15.4782 39.6531 22.6851 0.0000 11.5278 0.0000
# 3 16.1508 22.6851 109.5879 0.0000 31.7667 0.0000
# 4 0.0000 0.0000 0.0000 21.9533 0.0000 -15.9658
# 5 20.2317 11.5278 31.7667 0.0000 28.6264 0.0000
# 6 0.0000 0.0000 0.0000 -15.9658 0.0000 3.7314
#
#
#
# Elastic Compliance Matrix: (Units=1/GPa)
#
#
# Indices 1 2 3 4 5 6 
#
# 1 0.033821 -0.008200 0.003958 0.000000 -0.024993 0.000000
# 2 -0.008200 0.031667 -0.004909 0.000000 -0.001509 0.000000
# 3 0.003958 -0.004909 0.014441 0.000000 -0.016845 0.000000
# 4 0.000000 0.000000 0.000000 -0.021570 0.000000 -0.092293
# 5 -0.024993 -0.001509 -0.016845 0.000000 0.071897 0.000000
# 6 0.000000 0.000000 0.000000 -0.092293 0.000000 -0.126905
#
#
# Mechanical properties :
#
#
# Convention : Reuss Voigt Hill
#
# Bulk Modulus (GPa) = 16.22699 33.80556 25.01627
# Shear Modulus (GPa) = 118.49404 20.28274 69.38839
#
# Velocity S-wave (km/s) = 7.39053 3.05767 5.65550
# Velocity P-wave (km/s) = 8.96139 5.29608 7.36054
#
# Compressibility (1/GPa) = 0.06162574
#
# Stress axis : x y z
#
# Youngs Moduli (GPa) = 29.56745 31.57886 69.24674
#
# Poissons Ratio (x) = 0.25895 -0.27406
# Poissons Ratio (y) = 0.24246 0.33995
# Poissons Ratio (z) = -0.11702 0.15503
#
# Static dielectric constant tensor:
#      x y z
#    x 1.752330 0.000000 0.009290 
#    y 0.000000 1.866680 0.000000 
#    z 0.009290 0.000000 1.864900 
# 
# From -- ./inp_files/11128.got.cif
#   From: 2010.05.17/outbox.cif.g08.bks.cpg/sg4_6_cif.got.tgz:11128.got - 2010.06.03 18:43:04.
