data_PCOD9116285
_publ_section_title
;
Structure prediction by ZEFSAII (Michael W. Deem and Ramdas Pophale) SiO2 
 PCOD9116285
Probable space group: P 21
;
_chemical_formula_sum "Si O2"
_cell_formula_units_Z 16
_cell_length_a 19.799337
_cell_length_b 5.024411
_cell_length_c 7.195528
_cell_angle_alpha 90.000000
_cell_angle_beta 59.044652
_cell_angle_gamma 90.000000
_cell_volume 613.857058
_symmetry_space_group_name_H-M "P 21"
_symmetry_group_IT_number 4
_symmetry_cell_setting 'monoclinic'
loop_
_space_group_symop_operation_xyz
x,y,z
-x,1/2+y,-z
loop_
_atom_site_type_symbol
_atom_site_label
_atom_site_fract_x
_atom_site_fract_y
_atom_site_fract_z
Si Si1 0.522568 0.506080 0.251916
Si Si2 0.265228 0.600283 0.560508
Si Si3 0.173900 0.035800 0.215203
Si Si4 0.684606 0.826732 0.846340
Si Si5 0.627856 0.818786 0.310312
Si Si6 0.133790 0.545081 0.025705
Si Si7 0.416284 0.931169 0.221572
Si Si8 0.980276 0.650548 0.408592
O O1 0.599746 0.535452 0.269599
O O2 0.451333 0.384055 0.465835
O O3 0.484913 0.795740 0.248518
O O4 0.549593 0.348140 0.030540
O O5 0.258536 0.498509 0.361149
O O6 0.302690 0.380410 0.647701
O O7 0.336320 0.813546 0.429777
O O8 0.181384 0.639688 0.776437
O O9 0.261307 0.086112 0.160949
O O10 0.153679 0.253213 0.081177
O O11 0.111881 0.087646 0.469149
O O12 0.162173 0.749045 0.144691
O O13 0.616295 0.720230 0.804298
O O14 0.651881 0.953493 0.081070
O O15 0.039226 0.584349 0.157457
O O16 0.008126 0.450991 0.535974
#
# Coordination Sequence:
#
# PCOD9116285 Si02
#       8
#     2   2   2   2   2   2   2   2
#     4  10  24  42  68  86 128 168 224 280 344 406
#     4  11  25  43  68  96 136 172 225 279 345 406
#     4  10  21  41  71 103 138 183 229 274 333 405
#     4  11  25  43  68  96 136 172 225 279 345 406
#     4  10  24  42  64  94 122 172 226 270 342 410
#     4  10  21  41  71 103 138 183 229 274 333 405
#     4  10  26  42  62  94 130 168 218 286 346 398
#     4   8  16  34  66 102 134 176 228 272 322 394
#
# _framework density 26.064702
#
# number of rings (size 3 to 8) (size 9 to 14) (size 15 to 20)
#    0.000    2.000    1.250    0.000   14.000    0.000 
#    4.500    0.000    2.750    0.000    0.000    0.000 
#    0.000    0.000    0.000    0.000    0.000    0.000 
#
# Total GULP energy -89207.577582 kJ/mol
# GULP energy per Si atom -5575.473599 kJ/mol
# Density = 2.600538 g / cm^3
# Si number density = 26.064702 Si / 1000 Ang^3
#
#
#
# Elastic Constant Matrix: (Units=GPa)
#
#
# Indices 1 2 3 4 5 6 
#
# 1 44.5999 3.0540 58.0605 0.0000 -28.0275 0.0000
# 2 3.0540 70.7960 16.1928 0.0000 9.1241 0.0000
# 3 58.0605 16.1928 233.9804 0.0000 -47.6849 0.0000
# 4 0.0000 0.0000 0.0000 31.7732 0.0000 1.8503
# 5 -28.0275 9.1241 -47.6849 0.0000 60.9868 0.0000
# 6 0.0000 0.0000 0.0000 1.8503 0.0000 25.9573
#
#
#
# Elastic Compliance Matrix: (Units=1/GPa)
#
#
# Indices 1 2 3 4 5 6 
#
# 1 0.040087 -0.001780 -0.007156 0.000000 0.013094 0.000000
# 2 -0.001780 0.015080 -0.001461 0.000000 -0.004217 0.000000
# 3 -0.007156 -0.001461 0.006572 0.000000 0.002069 0.000000
# 4 0.000000 0.000000 0.000000 0.031604 0.000000 -0.002253
# 5 0.013094 -0.004217 0.002069 0.000000 0.024663 0.000000
# 6 0.000000 0.000000 0.000000 -0.002253 0.000000 0.038685
#
#
# Mechanical properties :
#
#
# Convention : Reuss Voigt Hill
#
# Bulk Modulus (GPa) = 24.42286 55.99899 40.21092
# Shear Modulus (GPa) = 26.15959 41.88140 34.02050
#
# Velocity S-wave (km/s) = 3.17147 4.01287 3.61672
# Velocity P-wave (km/s) = 4.77508 6.55760 5.73600
#
# Compressibility (1/GPa) = 0.04094525
#
# Stress axis : x y z
#
# Youngs Moduli (GPa) = 24.94543 66.31506 152.15536
#
# Poissons Ratio (x) = 0.11805 1.08876
# Poissons Ratio (y) = 0.04441 0.22233
# Poissons Ratio (z) = 0.17850 0.09690
#
# Static dielectric constant tensor:
#      x y z
#    x 2.037340 0.000000 -0.042780 
#    y 0.000000 2.168350 0.000000 
#    z -0.042780 0.000000 2.076450 
# 
# From -- ./inp_files/4390.got.cif
#   From: 2010.05.17/outbox.cif.g08.bks.cpg/sg4_3_cif.got.tgz:4390.got - 2010.06.03 18:43:04.
