data_PCOD9116106
_publ_section_title
;
Structure prediction by ZEFSAII (Michael W. Deem and Ramdas Pophale) SiO2 
 PCOD9116106
Probable space group: P 21
;
_chemical_formula_sum "Si O2"
_cell_formula_units_Z 16
_cell_length_a 6.281455
_cell_length_b 8.687544
_cell_length_c 15.915276
_cell_angle_alpha 90.000000
_cell_angle_beta 118.781620
_cell_angle_gamma 90.000000
_cell_volume 761.209375
_symmetry_space_group_name_H-M "P 21"
_symmetry_group_IT_number 4
_symmetry_cell_setting 'monoclinic'
loop_
_space_group_symop_operation_xyz
x,y,z
-x,1/2+y,-z
loop_
_atom_site_type_symbol
_atom_site_label
_atom_site_fract_x
_atom_site_fract_y
_atom_site_fract_z
Si Si1 0.513270 0.811270 0.299919
Si Si2 0.469318 0.879780 0.610531
Si Si3 0.102394 0.567104 0.230696
Si Si4 0.096147 0.052357 0.623853
Si Si5 0.451098 0.547684 0.543491
Si Si6 0.484886 0.402004 0.885516
Si Si7 0.710801 0.115068 0.009200
Si Si8 0.991435 0.412544 0.044163
O O1 0.255105 0.722427 0.242270
O O2 0.716780 0.686845 0.364150
O O3 0.589672 0.881031 0.224650
O O4 0.497642 0.932608 0.371141
O O5 0.534718 0.714775 0.587208
O O6 0.687801 0.943244 0.708250
O O7 0.228057 0.895471 0.620484
O O8 0.436606 0.985765 0.521641
O O9 0.960620 0.508662 0.123278
O O10 0.945195 0.571109 0.284756
O O11 0.836206 0.061775 0.530709
O O12 0.346318 0.527595 0.915240
O O13 0.503050 0.234400 0.936278
O O14 0.768411 0.448767 0.939946
O O15 0.941585 0.233122 0.055069
O O16 0.767628 0.979334 0.953158
#
# Coordination Sequence:
#
# PCOD9116106 Si02
#       8
#     2   2   2   2   2   2   2   2
#     4  11  23  41  65  94 129 169 219 266 329 391
#     4  10  22  38  60  88 122 164 209 266 324 387
#     4  10  21  40  62  93 122 173 205 267 323 392
#     4  10  22  38  66  88 122 168 210 260 332 383
#     4  11  22  41  60  89 127 163 215 267 328 388
#     4  10  25  41  66  99 128 181 221 279 332 399
#     4  10  24  40  67  90 136 172 222 275 335 386
#     4  10  23  41  64  91 132 172 219 272 333 396
#
# _framework density 21.019183000000002
#
# number of rings (size 3 to 8) (size 9 to 14) (size 15 to 20)
#    0.750    1.000    1.250    3.000    3.500    4.000 
#    0.000    1.250    0.000    0.000    0.000    0.000 
#    0.000    0.000    0.000    0.000    0.000    0.000 
#
# Total GULP energy -89239.896825 kJ/mol
# GULP energy per Si atom -5577.493552 kJ/mol
# Density = 2.097134 g / cm^3
# Si number density = 21.019183 Si / 1000 Ang^3
#
#
#
# Elastic Constant Matrix: (Units=GPa)
#
#
# Indices 1 2 3 4 5 6 
#
# 1 39.6374 24.1463 3.2174 0.0000 -23.3401 0.0000
# 2 24.1463 60.9482 25.6746 0.0000 -12.7234 0.0000
# 3 3.2174 25.6746 84.1726 0.0000 -6.6927 0.0000
# 4 0.0000 0.0000 0.0000 9.8206 0.0000 -12.9370
# 5 -23.3401 -12.7234 -6.6927 0.0000 21.8722 0.0000
# 6 0.0000 0.0000 0.0000 -12.9370 0.0000 28.0126
#
#
#
# Elastic Compliance Matrix: (Units=1/GPa)
#
#
# Indices 1 2 3 4 5 6 
#
# 1 0.085312 -0.020734 0.009576 0.000000 0.081906 0.000000
# 2 -0.020734 0.025973 -0.007879 0.000000 -0.009428 0.000000
# 3 0.009576 -0.007879 0.014724 0.000000 0.010140 0.000000
# 4 0.000000 0.000000 0.000000 0.260015 0.000000 0.120082
# 5 0.081906 -0.009428 0.010140 0.000000 0.130742 0.000000
# 6 0.000000 0.000000 0.000000 0.120082 0.000000 0.091155
#
#
# Mechanical properties :
#
#
# Convention : Reuss Voigt Hill
#
# Bulk Modulus (GPa) = 11.37220 32.31498 21.84359
# Shear Modulus (GPa) = 7.40403 20.72240 14.06321
#
# Velocity S-wave (km/s) = 1.87887 3.14328 2.58944
# Velocity P-wave (km/s) = 3.18261 5.34612 4.39943
#
# Compressibility (1/GPa) = 0.08793371
#
# Stress axis : x y z
#
# Youngs Moduli (GPa) = 11.72168 38.50176 67.91641
#
# Poissons Ratio (x) = 0.79830 -0.65036
# Poissons Ratio (y) = 0.24304 0.53514
# Poissons Ratio (z) = -0.11225 0.30337
#
# Static dielectric constant tensor:
#      x y z
#    x 2.026880 0.000000 0.027970 
#    y 0.000000 1.787440 0.000000 
#    z 0.027970 0.000000 1.712310 
# 
# From -- ./inp_files/13262.got.cif
#   From: 2010.05.17/outbox.cif.g08.bks.cpg/sg4_7_cif.got.tgz:13262.got - 2010.06.03 18:43:04.
