data_PCOD9116385
_publ_section_title
;
Structure prediction by ZEFSAII (Michael W. Deem and Ramdas Pophale) SiO2 
 PCOD9116385
Probable space group: P 21
;
_chemical_formula_sum "Si O2"
_cell_formula_units_Z 16
_cell_length_a 6.911100
_cell_length_b 9.213444
_cell_length_c 13.472037
_cell_angle_alpha 90.000000
_cell_angle_beta 75.296549
_cell_angle_gamma 90.000000
_cell_volume 829.740503
_symmetry_space_group_name_H-M "P 21"
_symmetry_group_IT_number 4
_symmetry_cell_setting 'monoclinic'
loop_
_space_group_symop_operation_xyz
x,y,z
-x,1/2+y,-z
loop_
_atom_site_type_symbol
_atom_site_label
_atom_site_fract_x
_atom_site_fract_y
_atom_site_fract_z
Si Si1 0.332104 0.996010 0.724842
Si Si2 0.957640 0.074873 0.901736
Si Si3 0.245353 0.105692 0.219934
Si Si4 0.831366 0.405131 0.947017
Si Si5 0.850633 0.215689 0.358299
Si Si6 0.464597 0.708386 0.454768
Si Si7 0.574280 0.889796 0.884569
Si Si8 0.488447 0.526892 0.634063
O O1 0.241334 0.863964 0.672428
O O2 0.471737 0.934722 0.794055
O O3 0.463110 0.102551 0.640598
O O4 0.140941 0.072198 0.800034
O O5 0.900135 0.239139 0.933559
O O6 0.765992 0.987966 0.884944
O O7 0.039869 0.991151 0.987853
O O8 0.358349 0.223412 0.137193
O O9 0.079694 0.195501 0.303333
O O10 0.153602 0.985837 0.159645
O O11 0.387638 0.031480 0.282068
O O12 0.599447 0.407010 0.011541
O O13 0.769842 0.201649 0.481783
O O14 0.734449 0.084912 0.317883
O O15 0.564765 0.646520 0.543250
O O16 0.512683 0.871686 0.418209
#
# Coordination Sequence:
#
# PCOD9116385 Si02
#       8
#     2   2   2   2   2   2   2   2
#     4  11  22  43  68  94 132 169 219 263 327 387
#     4  11  25  44  67  95 130 175 215 273 327 391
#     4  12  24  42  69  98 130 175 221 265 331 392
#     4  11  27  43  65 100 130 171 222 270 329 390
#     4  10  21  43  64  93 130 175 210 264 327 381
#     4  10  21  45  63  96 135 171 209 274 322 379
#     4  11  23  44  69  93 129 176 213 274 326 383
#     4  10  23  42  65  95 136 172 217 267 323 389
#
# _framework density 19.283138000000001
#
# number of rings (size 3 to 8) (size 9 to 14) (size 15 to 20)
#    0.750    0.500    3.750    1.500    5.250    2.000 
#    6.750    0.000    0.000    0.000    0.000    0.000 
#    0.000    0.000    0.000    0.000    0.000    0.000 
#
# Total GULP energy -89256.804216 kJ/mol
# GULP energy per Si atom -5578.550264 kJ/mol
# Density = 1.923925 g / cm^3
# Si number density = 19.283138 Si / 1000 Ang^3
#
#
#
# Elastic Constant Matrix: (Units=GPa)
#
#
# Indices 1 2 3 4 5 6 
#
# 1 48.4512 26.6750 5.9438 0.0000 -6.0932 0.0000
# 2 26.6750 119.0565 38.4824 0.0000 1.0919 0.0000
# 3 5.9438 38.4824 60.1099 0.0000 -4.8241 0.0000
# 4 0.0000 0.0000 0.0000 29.5706 0.0000 -3.0099
# 5 -6.0932 1.0919 -4.8241 0.0000 20.8492 0.0000
# 6 0.0000 0.0000 0.0000 -3.0099 0.0000 19.5177
#
#
#
# Elastic Compliance Matrix: (Units=1/GPa)
#
#
# Indices 1 2 3 4 5 6 
#
# 1 0.024902 -0.006392 0.002283 0.000000 0.008141 0.000000
# 2 -0.006392 0.012328 -0.007604 0.000000 -0.004273 0.000000
# 3 0.002283 -0.007604 0.021768 0.000000 0.006102 0.000000
# 4 0.000000 0.000000 0.000000 0.034357 0.000000 0.005298
# 5 0.008141 -0.004273 0.006102 0.000000 0.051978 0.000000
# 6 0.000000 0.000000 0.000000 0.005298 0.000000 0.052053
#
#
# Mechanical properties :
#
#
# Convention : Reuss Voigt Hill
#
# Bulk Modulus (GPa) = 28.11066 41.09111 34.60089
# Shear Modulus (GPa) = 21.48976 24.42193 22.95584
#
# Velocity S-wave (km/s) = 3.34193 3.56264 3.45405
# Velocity P-wave (km/s) = 5.43147 6.18699 5.82150
#
# Compressibility (1/GPa) = 0.03557369
#
# Stress axis : x y z
#
# Youngs Moduli (GPa) = 40.15714 81.11356 45.93907
#
# Poissons Ratio (x) = 0.51848 -0.10489
# Poissons Ratio (y) = 0.25669 0.34930
# Poissons Ratio (z) = -0.09169 0.61675
#
# Static dielectric constant tensor:
#      x y z
#    x 1.656170 0.000000 -0.017170 
#    y 0.000000 1.658350 0.000000 
#    z -0.017170 0.000000 1.678620 
# 
# From -- ./inp_files/13246.got.cif
#   From: 2010.05.17/outbox.cif.g08.bks.cpg/sg4_7_cif.got.tgz:13246.got - 2010.06.03 18:43:04.
