data_PCOD9116214
_publ_section_title
;
Structure prediction by ZEFSAII (Michael W. Deem and Ramdas Pophale) SiO2 
 PCOD9116214
Probable space group: P 21
;
_chemical_formula_sum "Si O2"
_cell_formula_units_Z 14
_cell_length_a 22.148954
_cell_length_b 5.623280
_cell_length_c 16.279951
_cell_angle_alpha 90.000000
_cell_angle_beta 14.177618
_cell_angle_gamma 90.000000
_cell_volume 496.633071
_symmetry_space_group_name_H-M "P 21"
_symmetry_group_IT_number 4
_symmetry_cell_setting 'monoclinic'
loop_
_space_group_symop_operation_xyz
x,y,z
-x,1/2+y,-z
loop_
_atom_site_type_symbol
_atom_site_label
_atom_site_fract_x
_atom_site_fract_y
_atom_site_fract_z
Si Si1 0.286229 0.338310 0.975054
Si Si2 0.202629 0.838620 0.950255
Si Si3 0.611909 0.587897 0.661416
Si Si4 0.806051 0.589804 0.573651
Si Si5 0.673608 0.078994 0.367273
Si Si6 0.874555 0.087868 0.271904
Si Si7 0.854623 0.583590 0.690645
O O1 0.373607 0.552232 0.918900
O O2 0.491296 0.293157 0.636417
O O3 0.012154 0.379295 0.303143
O O4 0.289561 0.118707 0.034297
O O5 0.216159 0.626439 0.866720
O O6 0.472798 0.871314 0.630042
O O7 0.992225 0.796875 0.295711
O O8 0.123525 0.055618 0.995300
O O9 0.731405 0.843891 0.486049
O O10 0.596793 0.575005 0.780674
O O11 0.759161 0.343360 0.445702
O O12 0.715910 0.602905 0.786006
O O13 0.877167 0.065853 0.169746
O O14 0.983153 0.326987 0.521889
#
# Coordination Sequence:
#
# PCOD9116214 Si02
#       7
#     2   2   2   2   2   2   2
#     4  10  21  41  64  91 127 162 208 258 307 370
#     4  11  23  38  63  94 126 166 209 255 311 368
#     4  10  22  41  67  94 122 166 209 253 314 364
#     4  10  21  41  64  91 127 162 208 258 307 370
#     4  11  23  38  63  94 126 166 209 255 311 368
#     4  10  24  43  63  92 130 166 205 255 310 370
#     4  10  22  40  66  92 122 168 206 252 316 364
#
# _framework density 28.189824000000002
#
# number of rings (size 3 to 8) (size 9 to 14) (size 15 to 20)
#    0.000    1.714    0.000    3.429    0.000   14.857 
#    0.000   11.429    0.000    0.000    0.000    0.000 
#    0.000    0.000    0.000    0.000    0.000    0.000 
#
# Total GULP energy -78284.813181 kJ/mol
# GULP energy per Si atom -5591.772370 kJ/mol
# Density = 2.812566 g / cm^3
# Si number density = 28.189824 Si / 1000 Ang^3
#
#
#
# Elastic Constant Matrix: (Units=GPa)
#
#
# Indices 1 2 3 4 5 6 
#
# 1 168.3974 36.2729 -0.5113 0.0000 13.3907 0.0000
# 2 36.2729 171.3611 49.8868 0.0000 1.0003 0.0000
# 3 -0.5113 49.8868 57.2825 0.0000 -1.1631 0.0000
# 4 0.0000 0.0000 0.0000 67.7115 0.0000 -6.4493
# 5 13.3907 1.0003 -1.1631 0.0000 16.2845 0.0000
# 6 0.0000 0.0000 0.0000 -6.4493 0.0000 53.1427
#
#
#
# Elastic Compliance Matrix: (Units=1/GPa)
#
#
# Indices 1 2 3 4 5 6 
#
# 1 0.006768 -0.001859 0.001571 0.000000 -0.005339 0.000000
# 2 -0.001859 0.008343 -0.007273 0.000000 0.000497 0.000000
# 3 0.001571 -0.007273 0.023822 0.000000 0.000857 0.000000
# 4 0.000000 0.000000 0.000000 0.014941 0.000000 0.001813
# 5 -0.005339 0.000497 0.000857 0.000000 0.065829 0.000000
# 6 0.000000 0.000000 0.000000 0.001813 0.000000 0.019037
#
#
# Mechanical properties :
#
#
# Convention : Reuss Voigt Hill
#
# Bulk Modulus (GPa) = 41.99464 63.14863 52.57164
# Shear Modulus (GPa) = 30.90227 48.18724 39.54476
#
# Velocity S-wave (km/s) = 3.31451 4.13896 3.74946
# Velocity P-wave (km/s) = 5.43851 6.72987 6.11836
#
# Compressibility (1/GPa) = 0.02381256
#
# Stress axis : x y z
#
# Youngs Moduli (GPa) = 147.75358 119.85493 41.97713
#
# Poissons Ratio (x) = 0.22278 -0.06594
# Poissons Ratio (y) = 0.27464 0.30529
# Poissons Ratio (z) = -0.23209 0.87167
#
# Static dielectric constant tensor:
#      x y z
#    x 2.184140 0.000000 -0.049580 
#    y 0.000000 2.227180 0.000000 
#    z -0.049580 0.000000 2.237970 
# 
# From -- ./inp_files/9764.got.cif
#   From: 2010.05.17/outbox.cif.g08.bks.cpg/sg4_5_cif.got.tgz:9764.got - 2010.06.03 18:43:04.
