data_PCOD9116785
_publ_section_title
;
Structure prediction by ZEFSAII (Michael W. Deem and Ramdas Pophale) SiO2 
 PCOD9116785
Probable space group: P 21
;
_chemical_formula_sum "Si O2"
_cell_formula_units_Z 14
_cell_length_a 9.812798
_cell_length_b 9.708510
_cell_length_c 5.555289
_cell_angle_alpha 90.000000
_cell_angle_beta 103.470219
_cell_angle_gamma 90.000000
_cell_volume 514.680538
_symmetry_space_group_name_H-M "P 21"
_symmetry_group_IT_number 4
_symmetry_cell_setting 'monoclinic'
loop_
_space_group_symop_operation_xyz
x,y,z
-x,1/2+y,-z
loop_
_atom_site_type_symbol
_atom_site_label
_atom_site_fract_x
_atom_site_fract_y
_atom_site_fract_z
Si Si1 0.003392 0.410250 0.206214
Si Si2 0.239816 0.754728 0.128202
Si Si3 0.240942 0.265436 0.099297
Si Si4 0.341109 0.578651 0.561951
Si Si5 0.545274 0.348206 0.157047
Si Si6 0.644124 0.498337 0.587060
Si Si7 0.084932 0.460411 0.739114
O O1 0.154239 0.334503 0.280672
O O2 0.015771 0.502460 0.967562
O O3 0.885845 0.295960 0.100829
O O4 0.989019 0.474194 0.463353
O O5 0.257708 0.614564 0.281996
O O6 0.243118 0.878626 0.321674
O O7 0.382184 0.791058 0.048822
O O8 0.132945 0.302854 0.835981
O O9 0.379794 0.348265 0.083646
O O10 0.294452 0.122111 0.228388
O O11 0.414898 0.724520 0.646176
O O12 0.478150 0.482490 0.596675
O O13 0.226806 0.539600 0.715576
O O14 0.615862 0.489122 0.285755
#
# Coordination Sequence:
#
# PCOD9116785 Si02
#       7
#     2   2   2   2   2   2   2
#     4  10  25  44  70 103 144 189 246 298 376 443
#     4  11  25  41  68 109 146 192 248 315 367 460
#     4   9  22  42  70 104 143 196 243 309 370 453
#     4  10  23  42  73 103 141 194 250 305 379 440
#     4  10  22  40  69 101 147 186 251 307 373 447
#     4  10  22  42  68 106 141 191 243 313 372 442
#     4  10  23  45  72 100 140 190 243 299 367 447
#
# _framework density 27.201338
#
# number of rings (size 3 to 8) (size 9 to 14) (size 15 to 20)
#    0.857    1.143    0.000    1.714    6.000    6.857 
#    0.000    0.000    0.000    0.000    0.000    0.000 
#    0.000    0.000    0.000    0.000    0.000    0.000 
#
# Total GULP energy -77994.618213 kJ/mol
# GULP energy per Si atom -5571.044158 kJ/mol
# Density = 2.713943 g / cm^3
# Si number density = 27.201338 Si / 1000 Ang^3
#
#
#
# Elastic Constant Matrix: (Units=GPa)
#
#
# Indices 1 2 3 4 5 6 
#
# 1 73.9761 33.0123 19.5327 0.0000 -0.7833 0.0000
# 2 33.0123 74.1405 43.8288 0.0000 13.4928 0.0000
# 3 19.5327 43.8288 146.9217 0.0000 -5.0996 0.0000
# 4 0.0000 0.0000 0.0000 50.2892 0.0000 2.7046
# 5 -0.7833 13.4928 -5.0996 0.0000 43.6504 0.0000
# 6 0.0000 0.0000 0.0000 2.7046 0.0000 33.1188
#
#
#
# Elastic Compliance Matrix: (Units=1/GPa)
#
#
# Indices 1 2 3 4 5 6 
#
# 1 0.017206 -0.008382 0.000315 0.000000 0.002937 0.000000
# 2 -0.008382 0.021979 -0.005706 0.000000 -0.007611 0.000000
# 3 0.000315 -0.005706 0.008563 0.000000 0.002770 0.000000
# 4 0.000000 0.000000 0.000000 0.019973 0.000000 -0.001631
# 5 0.002937 -0.007611 0.002770 0.000000 0.025638 0.000000
# 6 0.000000 0.000000 0.000000 -0.001631 0.000000 0.030328
#
#
# Mechanical properties :
#
#
# Convention : Reuss Voigt Hill
#
# Bulk Modulus (GPa) = 49.50265 54.19845 51.85055
# Shear Modulus (GPa) = 31.65220 38.65596 35.15408
#
# Velocity S-wave (km/s) = 3.41490 3.77384 3.59885
# Velocity P-wave (km/s) = 5.81264 6.24158 6.03093
#
# Compressibility (1/GPa) = 0.02020094
#
# Stress axis : x y z
#
# Youngs Moduli (GPa) = 58.11808 45.49884 116.78269
#
# Poissons Ratio (x) = 0.38137 -0.03677
# Poissons Ratio (y) = 0.48714 0.66640
# Poissons Ratio (z) = -0.01830 0.25963
#
# Static dielectric constant tensor:
#      x y z
#    x 2.102370 0.000000 0.010120 
#    y 0.000000 2.269270 0.000000 
#    z 0.010120 0.000000 2.287950 
# 
# From -- ./inp_files/2854.got.cif
#   From: 2010.05.17/outbox.cif.g08.bks.cpg/sg4_2_cif.got.tgz:2854.got - 2010.06.03 18:43:04.
