data_PCOD9116584
_publ_section_title
;
Structure prediction by ZEFSAII (Michael W. Deem and Ramdas Pophale) SiO2 
 PCOD9116584
Probable space group: P 21
;
_chemical_formula_sum "Si O2"
_cell_formula_units_Z 16
_cell_length_a 11.193167
_cell_length_b 9.340684
_cell_length_c 13.250923
_cell_angle_alpha 90.000000
_cell_angle_beta 31.457680
_cell_angle_gamma 90.000000
_cell_volume 723.001163
_symmetry_space_group_name_H-M "P 21"
_symmetry_group_IT_number 4
_symmetry_cell_setting 'monoclinic'
loop_
_space_group_symop_operation_xyz
x,y,z
-x,1/2+y,-z
loop_
_atom_site_type_symbol
_atom_site_label
_atom_site_fract_x
_atom_site_fract_y
_atom_site_fract_z
Si Si1 0.773162 0.815930 0.106234
Si Si2 0.485382 0.590319 0.774477
Si Si3 0.745594 0.363203 0.143505
Si Si4 0.555361 0.084018 0.578647
Si Si5 0.920295 0.583361 0.849820
Si Si6 0.810119 0.373302 0.613513
Si Si7 0.427146 0.039667 0.069240
Si Si8 0.243234 0.545734 0.356354
O O1 0.012346 0.804563 0.990793
O O2 0.810283 0.722867 0.979334
O O3 0.570836 0.735641 0.314294
O O4 0.704891 0.975153 0.122918
O O5 0.427257 0.733117 0.756156
O O6 0.715865 0.490748 0.600516
O O7 0.498576 0.629129 0.884937
O O8 0.639854 0.467904 0.306843
O O9 0.830227 0.452102 0.983386
O O10 0.802439 0.088919 0.348183
O O11 0.613122 0.018201 0.647446
O O12 0.807754 0.575349 0.820242
O O13 0.622436 0.389024 0.838347
O O14 0.831101 0.209829 0.571640
O O15 0.044732 0.432812 0.485811
O O16 0.613567 0.038200 0.849040
#
# Coordination Sequence:
#
# PCOD9116584 Si02
#       8
#     2   2   2   2   2   2   2   2
#     4  11  23  47  64  89 129 176 214 261 316 370
#     4  10  22  41  62  96 131 163 214 267 312 378
#     4  11  25  42  68  91 127 172 220 263 308 374
#     4  11  22  42  68  91 128 169 211 262 324 371
#     4  11  23  41  68  93 124 167 211 263 323 383
#     4  10  25  36  62  95 131 161 211 254 322 384
#     4  10  22  37  63  94 128 163 205 255 325 380
#     4  12  22  40  63  95 132 171 198 261 332 384
#
# _framework density 22.129978999999999
#
# number of rings (size 3 to 8) (size 9 to 14) (size 15 to 20)
#    0.750    0.500    5.000    1.500    3.500    3.000 
#    0.000    0.000    0.000    0.000    0.000    0.000 
#    0.000    0.000    0.000    0.000    0.000    0.000 
#
# Total GULP energy -89143.749396 kJ/mol
# GULP energy per Si atom -5571.484337 kJ/mol
# Density = 2.207961 g / cm^3
# Si number density = 22.129979 Si / 1000 Ang^3
#
#
#
# Elastic Constant Matrix: (Units=GPa)
#
#
# Indices 1 2 3 4 5 6 
#
# 1 33.0106 2.4000 -18.3845 0.0000 -7.6494 0.0000
# 2 2.4000 111.1308 18.2450 0.0000 2.4153 0.0000
# 3 -18.3845 18.2450 91.4455 0.0000 -8.5400 0.0000
# 4 0.0000 0.0000 0.0000 28.5170 0.0000 -12.0413
# 5 -7.6494 2.4153 -8.5400 0.0000 21.6829 0.0000
# 6 0.0000 0.0000 0.0000 -12.0413 0.0000 18.7549
#
#
#
# Elastic Compliance Matrix: (Units=1/GPa)
#
#
# Indices 1 2 3 4 5 6 
#
# 1 0.040772 -0.003025 0.010564 0.000000 0.018881 0.000000
# 2 -0.003025 0.009598 -0.002827 0.000000 -0.003250 0.000000
# 3 0.010564 -0.002827 0.014535 0.000000 0.009767 0.000000
# 4 0.000000 0.000000 0.000000 0.048109 0.000000 0.030888
# 5 0.018881 -0.003250 0.009767 0.000000 0.056989 0.000000
# 6 0.000000 0.000000 0.000000 0.030888 0.000000 0.073151
#
#
# Mechanical properties :
#
#
# Convention : Reuss Voigt Hill
#
# Bulk Modulus (GPa) = 13.45366 26.67865 20.06616
# Shear Modulus (GPa) = 19.34184 29.34606 24.34395
#
# Velocity S-wave (km/s) = 2.95957 3.64548 3.32029
# Velocity P-wave (km/s) = 4.21561 5.45903 4.87711
#
# Compressibility (1/GPa) = 0.07432919
#
# Stress axis : x y z
#
# Youngs Moduli (GPa) = 24.52680 104.18345 68.79785
#
# Poissons Ratio (x) = 0.31518 -0.72677
# Poissons Ratio (y) = 0.07420 0.19447
# Poissons Ratio (z) = -0.25910 0.29450
#
# Static dielectric constant tensor:
#      x y z
#    x 1.876910 0.000000 -0.015810 
#    y 0.000000 1.805570 0.000000 
#    z -0.015810 0.000000 1.872350 
# 
# From -- ./inp_files/13932.got.cif
#   From: 2010.05.17/outbox.cif.g08.bks.cpg/sg4_7_cif.got.tgz:13932.got - 2010.06.03 18:43:04.
