data_PCOD9116496
_publ_section_title
;
Structure prediction by ZEFSAII (Michael W. Deem and Ramdas Pophale) SiO2 
 PCOD9116496
Probable space group: P 21
;
_chemical_formula_sum "Si O2"
_cell_formula_units_Z 16
_cell_length_a 6.285649
_cell_length_b 12.337741
_cell_length_c 13.075233
_cell_angle_alpha 90.000000
_cell_angle_beta 135.874520
_cell_angle_gamma 90.000000
_cell_volume 705.974875
_symmetry_space_group_name_H-M "P 21"
_symmetry_group_IT_number 4
_symmetry_cell_setting 'monoclinic'
loop_
_space_group_symop_operation_xyz
x,y,z
-x,1/2+y,-z
loop_
_atom_site_type_symbol
_atom_site_label
_atom_site_fract_x
_atom_site_fract_y
_atom_site_fract_z
Si Si1 0.807776 0.986900 0.325557
Si Si2 0.156198 0.116604 0.619056
Si Si3 0.246286 0.497267 0.126490
Si Si4 0.240622 0.596653 0.910742
Si Si5 0.731657 0.762510 0.799579
Si Si6 0.737610 0.284822 0.538489
Si Si7 0.426223 0.818581 0.304457
Si Si8 0.166804 0.192166 0.941417
O O1 0.519252 0.930355 0.282362
O O2 0.036100 0.886069 0.389395
O O3 0.744780 0.037981 0.193319
O O4 0.968679 0.071898 0.457175
O O5 0.393432 0.022853 0.731893
O O6 0.371063 0.220088 0.669204
O O7 0.912398 0.169627 0.613661
O O8 0.148924 0.383301 0.139120
O O9 0.044326 0.587952 0.112303
O O10 0.202527 0.513309 0.990563
O O11 0.968050 0.682867 0.825776
O O12 0.555056 0.663521 0.036437
O O13 0.436612 0.772363 0.627882
O O14 0.681746 0.718955 0.896608
O O15 0.513893 0.314814 0.553776
O O16 0.071038 0.786170 0.169737
#
# Coordination Sequence:
#
# PCOD9116496 Si02
#       8
#     2   2   2   2   2   2   2   2
#     4  11  24  42  69 104 136 178 228 281 346 412
#     4  10  21  45  67  96 139 172 227 286 340 411
#     4  10  23  45  68 100 137 178 228 285 345 407
#     4  11  25  44  72 102 135 186 228 282 351 405
#     4  11  24  44  70 103 139 177 231 283 342 415
#     4  11  23  42  69  99 136 179 221 283 348 407
#     4  10  24  42  68 100 135 178 230 282 344 408
#     4  10  24  44  67  98 141 174 231 294 328 417
#
# _framework density 22.663695000000001
#
# number of rings (size 3 to 8) (size 9 to 14) (size 15 to 20)
#    0.000    1.500    1.250    2.250    3.500    6.000 
#    2.250    0.000    0.000    0.000    0.000    0.000 
#    0.000    0.000    0.000    0.000    0.000    0.000 
#
# Total GULP energy -89455.000858 kJ/mol
# GULP energy per Si atom -5590.937554 kJ/mol
# Density = 2.261211 g / cm^3
# Si number density = 22.663695 Si / 1000 Ang^3
#
#
#
# Elastic Constant Matrix: (Units=GPa)
#
#
# Indices 1 2 3 4 5 6 
#
# 1 36.4392 15.5444 7.8183 0.0000 -3.9486 0.0000
# 2 15.5444 92.7433 39.7387 0.0000 -1.2346 0.0000
# 3 7.8183 39.7387 89.0189 0.0000 4.5235 0.0000
# 4 0.0000 0.0000 0.0000 32.0531 0.0000 -4.5391
# 5 -3.9486 -1.2346 4.5235 0.0000 25.2445 0.0000
# 6 0.0000 0.0000 0.0000 -4.5391 0.0000 27.3422
#
#
#
# Elastic Compliance Matrix: (Units=1/GPa)
#
#
# Indices 1 2 3 4 5 6 
#
# 1 0.030095 -0.004636 -0.000809 0.000000 0.004625 0.000000
# 2 -0.004636 0.014123 -0.005950 0.000000 0.001032 0.000000
# 3 -0.000809 -0.005950 0.014110 0.000000 -0.002946 0.000000
# 4 0.000000 0.000000 0.000000 0.031949 0.000000 0.005304
# 5 0.004625 0.001032 -0.002946 0.000000 0.040914 0.000000
# 6 0.000000 0.000000 0.000000 0.005304 0.000000 0.037454
#
#
# Mechanical properties :
#
#
# Convention : Reuss Voigt Hill
#
# Bulk Modulus (GPa) = 28.13783 38.26714 33.20248
# Shear Modulus (GPa) = 24.59647 27.26796 25.93221
#
# Velocity S-wave (km/s) = 3.29793 3.47242 3.38630
# Velocity P-wave (km/s) = 5.19078 5.74442 5.47460
#
# Compressibility (1/GPa) = 0.03553935
#
# Stress axis : x y z
#
# Youngs Moduli (GPa) = 33.22766 70.80875 70.87041
#
# Poissons Ratio (x) = 0.32828 0.05731
# Poissons Ratio (y) = 0.15405 0.42165
# Poissons Ratio (z) = 0.02687 0.42129
#
# Static dielectric constant tensor:
#      x y z
#    x 1.840700 0.000000 0.013600 
#    y 0.000000 1.833970 0.000000 
#    z 0.013600 0.000000 1.870440 
# 
# From -- ./inp_files/1401.got.cif
#   From: 2010.05.17/outbox.cif.g08.bks.cpg/sg4_1_cif.got.tgz:1401.got - 2010.06.03 18:43:04.
