data_PCOD9116044
_publ_section_title
;
Structure prediction by ZEFSAII (Michael W. Deem and Ramdas Pophale) SiO2 
 PCOD9116044
Probable space group: P 21
;
_chemical_formula_sum "Si O2"
_cell_formula_units_Z 14
_cell_length_a 11.458902
_cell_length_b 9.400222
_cell_length_c 10.505550
_cell_angle_alpha 90.000000
_cell_angle_beta 26.414439
_cell_angle_gamma 90.000000
_cell_volume 503.412665
_symmetry_space_group_name_H-M "P 21"
_symmetry_group_IT_number 4
_symmetry_cell_setting 'monoclinic'
loop_
_space_group_symop_operation_xyz
x,y,z
-x,1/2+y,-z
loop_
_atom_site_type_symbol
_atom_site_label
_atom_site_fract_x
_atom_site_fract_y
_atom_site_fract_z
Si Si1 0.568431 0.815320 0.502075
Si Si2 0.529267 0.639214 0.794124
Si Si3 0.815786 0.250590 0.338661
Si Si4 0.818990 0.872742 0.856533
Si Si5 0.895322 0.869816 0.505963
Si Si6 0.434911 0.635180 0.166976
Si Si7 0.910265 0.468286 0.946371
O O1 0.440276 0.774244 0.493905
O O2 0.872280 0.858017 0.209907
O O3 0.493566 0.705427 0.688618
O O4 0.384749 0.949387 0.719439
O O5 0.429537 0.477453 0.883851
O O6 0.383620 0.680491 0.070612
O O7 0.812261 0.708320 0.553385
O O8 0.747942 0.195982 0.545356
O O9 0.999127 0.383277 0.197172
O O10 0.985596 0.122039 0.117121
O O11 0.974595 0.901706 0.572860
O O12 0.702143 0.714759 0.945546
O O13 0.070675 0.929919 0.221755
O O14 0.626447 0.967018 0.763653
#
# Coordination Sequence:
#
# PCOD9116044 Si02
#       7
#     2   2   2   2   2   2   2
#     4  11  26  44  70  97 135 182 226 282 337 410
#     4   9  20  41  64  97 133 176 231 277 339 400
#     4  11  26  39  68  98 132 181 224 288 339 407
#     4  10  21  39  66 101 134 172 230 288 338 394
#     4   8  18  42  67  98 130 186 222 282 334 414
#     4   9  20  41  65  92 136 174 230 274 344 400
#     4  10  25  46  70  95 138 181 231 269 347 409
#
# _framework density 27.810186999999999
#
# number of rings (size 3 to 8) (size 9 to 14) (size 15 to 20)
#    0.000    2.286    0.000    0.000   12.000    0.000 
#    5.143    0.000    0.000    0.000    0.000    0.000 
#    0.000    0.000    0.000    0.000    0.000    0.000 
#
# Total GULP energy -78222.873788 kJ/mol
# GULP energy per Si atom -5587.348128 kJ/mol
# Density = 2.774689 g / cm^3
# Si number density = 27.810187 Si / 1000 Ang^3
#
#
#
# Elastic Constant Matrix: (Units=GPa)
#
#
# Indices 1 2 3 4 5 6 
#
# 1 185.9062 49.7193 36.4338 0.0000 -8.3403 0.0000
# 2 49.7193 102.4512 9.8735 0.0000 -0.7241 0.0000
# 3 36.4338 9.8735 50.2001 0.0000 0.4789 0.0000
# 4 0.0000 0.0000 0.0000 36.9791 0.0000 -2.5130
# 5 -8.3403 -0.7241 0.4789 0.0000 37.0434 0.0000
# 6 0.0000 0.0000 0.0000 -2.5130 0.0000 29.8735
#
#
#
# Elastic Compliance Matrix: (Units=1/GPa)
#
#
# Indices 1 2 3 4 5 6 
#
# 1 0.007165 -0.003020 -0.004621 0.000000 0.001614 0.000000
# 2 -0.003020 0.011224 -0.000011 0.000000 -0.000460 0.000000
# 3 -0.004621 -0.000011 0.023289 0.000000 -0.001342 0.000000
# 4 0.000000 0.000000 0.000000 0.027198 0.000000 0.002288
# 5 0.001614 -0.000460 -0.001342 0.000000 0.027367 0.000000
# 6 0.000000 0.000000 0.000000 0.002288 0.000000 0.033667
#
#
# Mechanical properties :
#
#
# Convention : Reuss Voigt Hill
#
# Bulk Modulus (GPa) = 37.91794 58.95674 48.43734
# Shear Modulus (GPa) = 32.46599 36.94792 34.70696
#
# Velocity S-wave (km/s) = 3.42045 3.64892 3.53653
# Velocity P-wave (km/s) = 5.40957 6.24488 5.84217
#
# Compressibility (1/GPa) = 0.02637274
#
# Stress axis : x y z
#
# Youngs Moduli (GPa) = 139.56854 89.09223 42.93801
#
# Poissons Ratio (x) = 0.26909 0.19844
# Poissons Ratio (y) = 0.42154 0.00048
# Poissons Ratio (z) = 0.64501 0.00099
#
# Static dielectric constant tensor:
#      x y z
#    x 2.150990 0.000000 0.026420 
#    y 0.000000 2.223430 0.000000 
#    z 0.026420 0.000000 2.176760 
# 
# From -- ./inp_files/11815.got.cif
#   From: 2010.05.17/outbox.cif.g08.bks.cpg/sg4_6_cif.got.tgz:11815.got - 2010.06.03 18:43:04.
