data_PCOD9116115
_publ_section_title
;
Structure prediction by ZEFSAII (Michael W. Deem and Ramdas Pophale) SiO2 
 PCOD9116115
Probable space group: P 21
;
_chemical_formula_sum "Si O2"
_cell_formula_units_Z 12
_cell_length_a 4.969535
_cell_length_b 10.379076
_cell_length_c 8.089875
_cell_angle_alpha 90.000000
_cell_angle_beta 86.071905
_cell_angle_gamma 90.000000
_cell_volume 416.288885
_symmetry_space_group_name_H-M "P 21"
_symmetry_group_IT_number 4
_symmetry_cell_setting 'monoclinic'
loop_
_space_group_symop_operation_xyz
x,y,z
-x,1/2+y,-z
loop_
_atom_site_type_symbol
_atom_site_label
_atom_site_fract_x
_atom_site_fract_y
_atom_site_fract_z
Si Si1 0.452847 0.179570 0.944879
Si Si2 0.941818 0.304633 0.084478
Si Si3 0.929708 0.480070 0.762501
Si Si4 0.564935 0.088595 0.391170
Si Si5 0.795346 0.006950 0.714291
Si Si6 0.212890 0.241673 0.622512
O O1 0.153317 0.191074 0.029216
O O2 0.413882 0.252111 0.771097
O O3 0.643250 0.252541 0.065370
O O4 0.601653 0.051103 0.875368
O O5 0.963426 0.413352 0.937746
O O6 0.040119 0.381029 0.240301
O O7 0.140762 0.591801 0.701093
O O8 0.022320 0.364664 0.634644
O O9 0.630349 0.520764 0.730123
O O10 0.605066 0.010130 0.561277
O O11 0.403967 0.212983 0.460041
O O12 0.016319 0.119601 0.667819
#
# Coordination Sequence:
#
# PCOD9116115 Si02
#       6
#     2   2   2   2   2   2
#     4  10  21  40  63  96 122 170 210 254 315 386
#     4  11  24  39  70  95 126 169 217 263 313 381
#     4  11  22  42  66  93 128 166 216 263 316 380
#     4  11  24  40  66  98 124 172 215 261 313 384
#     4  11  23  44  70  93 130 171 217 256 324 385
#     4  10  22  43  69  91 128 180 209 249 335 388
#
# _framework density 28.826139000000001
#
# number of rings (size 3 to 8) (size 9 to 14) (size 15 to 20)
#    0.000    1.333    5.000    2.000    7.000    0.000 
#    0.000    5.000    0.000    0.000    0.000    0.000 
#    0.000    0.000    0.000    0.000    0.000    0.000 
#
# Total GULP energy -67315.656150 kJ/mol
# GULP energy per Si atom -5609.638013 kJ/mol
# Density = 2.876053 g / cm^3
# Si number density = 28.826139 Si / 1000 Ang^3
#
#
#
# Elastic Constant Matrix: (Units=GPa)
#
#
# Indices 1 2 3 4 5 6 
#
# 1 181.9710 34.9080 38.1366 0.0000 -0.6659 0.0000
# 2 34.9080 85.9133 11.8769 0.0000 4.6182 0.0000
# 3 38.1366 11.8769 141.9993 0.0000 22.0422 0.0000
# 4 0.0000 0.0000 0.0000 45.0429 0.0000 -8.7357
# 5 -0.6659 4.6182 22.0422 0.0000 70.1799 0.0000
# 6 0.0000 0.0000 0.0000 -8.7357 0.0000 53.9720
#
#
#
# Elastic Compliance Matrix: (Units=1/GPa)
#
#
# Indices 1 2 3 4 5 6 
#
# 1 0.006289 -0.002372 -0.001602 0.000000 0.000719 0.000000
# 2 -0.002372 0.012687 -0.000306 0.000000 -0.000761 0.000000
# 3 -0.001602 -0.000306 0.007882 0.000000 -0.002471 0.000000
# 4 0.000000 0.000000 0.000000 0.022921 0.000000 0.003710
# 5 0.000719 -0.000761 -0.002471 0.000000 0.015082 0.000000
# 6 0.000000 0.000000 0.000000 0.003710 0.000000 0.019129
#
#
# Mechanical properties :
#
#
# Convention : Reuss Voigt Hill
#
# Bulk Modulus (GPa) = 54.65516 64.41408 59.53462
# Shear Modulus (GPa) = 50.68517 55.50307 53.09412
#
# Velocity S-wave (km/s) = 4.19777 4.39275 4.29636
# Velocity P-wave (km/s) = 6.51893 6.93704 6.73123
#
# Compressibility (1/GPa) = 0.01829653
#
# Stress axis : x y z
#
# Youngs Moduli (GPa) = 159.01026 78.82205 126.87683
#
# Poissons Ratio (x) = 0.18700 0.20328
# Poissons Ratio (y) = 0.37724 0.03880
# Poissons Ratio (z) = 0.25476 0.02410
#
# Static dielectric constant tensor:
#      x y z
#    x 2.137550 0.000000 -0.074960 
#    y 0.000000 2.355310 0.000000 
#    z -0.074960 0.000000 2.267830 
# 
# From -- ./inp_files/1152.got.cif
#   From: 2010.05.17/outbox.cif.g08.bks.cpg/sg4_1_cif.got.tgz:1152.got - 2010.06.03 18:43:04.
