data_PCOD9116652
_publ_section_title
;
Structure prediction by ZEFSAII (Michael W. Deem and Ramdas Pophale) SiO2 
 PCOD9116652
Probable space group: P 21
;
_chemical_formula_sum "Si O2"
_cell_formula_units_Z 14
_cell_length_a 11.546714
_cell_length_b 5.044402
_cell_length_c 14.765674
_cell_angle_alpha 90.000000
_cell_angle_beta 38.558542
_cell_angle_gamma 90.000000
_cell_volume 536.078284
_symmetry_space_group_name_H-M "P 21"
_symmetry_group_IT_number 4
_symmetry_cell_setting 'monoclinic'
loop_
_space_group_symop_operation_xyz
x,y,z
-x,1/2+y,-z
loop_
_atom_site_type_symbol
_atom_site_label
_atom_site_fract_x
_atom_site_fract_y
_atom_site_fract_z
Si Si1 0.564082 0.939670 0.917446
Si Si2 0.235713 0.825752 0.995874
Si Si3 0.074308 0.182788 0.250002
Si Si4 0.302816 0.682726 0.750013
Si Si5 0.101013 0.925857 0.417439
Si Si6 0.853898 0.682734 0.250021
Si Si7 0.272575 0.039782 0.495827
O O1 0.780561 0.900714 0.800416
O O2 0.486913 0.746104 0.043971
O O3 0.444496 0.818512 0.907922
O O4 0.072236 0.610058 0.113254
O O5 0.142618 0.061150 0.113129
O O6 0.257229 0.811027 0.875265
O O7 0.118550 0.964750 0.300427
O O8 0.868888 0.304451 0.386876
O O9 0.177554 0.432497 0.796805
O O10 0.507726 0.554425 0.624793
O O11 0.271163 0.932948 0.703195
O O12 0.239672 0.047033 0.407887
O O13 0.925157 0.119442 0.543956
O O14 0.798629 0.755482 0.386822
#
# Coordination Sequence:
#
# PCOD9116652 Si02
#       7
#     2   2   2   2   2   2   2
#     4  10  22  39  64 101 139 182 240 299 369 462
#     4  11  24  46  75 107 151 204 255 325 395 461
#     4  10  22  44  74 112 154 202 256 316 402 494
#     4  12  28  46  70 106 146 194 262 326 380 452
#     4  10  22  39  64 101 139 182 240 299 369 462
#     4  12  26  46  70 102 144 202 264 318 382 458
#     4  11  24  46  75 107 151 204 255 325 395 461
#
# _framework density 26.115587000000001
#
# number of rings (size 3 to 8) (size 9 to 14) (size 15 to 20)
#    0.000    1.143    0.000    5.143    0.000   12.571 
#    0.000    0.000    0.000    0.000    0.000    0.000 
#    0.000    0.000    0.000    0.000    0.000    0.000 
#
# Total GULP energy -78055.703747 kJ/mol
# GULP energy per Si atom -5575.407411 kJ/mol
# Density = 2.605615 g / cm^3
# Si number density = 26.115587 Si / 1000 Ang^3
#
#
#
# Elastic Constant Matrix: (Units=GPa)
#
#
# Indices 1 2 3 4 5 6 
#
# 1 211.6420 54.2746 74.2126 0.0000 2.3592 0.0000
# 2 54.2746 150.3930 51.4073 0.0000 0.0210 0.0000
# 3 74.2126 51.4073 134.1685 0.0000 -0.4418 0.0000
# 4 0.0000 0.0000 0.0000 42.9499 0.0000 -0.5044
# 5 2.3592 0.0210 -0.4418 0.0000 22.9082 0.0000
# 6 0.0000 0.0000 0.0000 -0.5044 0.0000 24.5800
#
#
#
# Elastic Compliance Matrix: (Units=1/GPa)
#
#
# Indices 1 2 3 4 5 6 
#
# 1 0.006053 -0.001196 -0.002892 0.000000 -0.000678 0.000000
# 2 -0.001196 0.007888 -0.002361 0.000000 0.000070 0.000000
# 3 -0.002892 -0.002361 0.009959 0.000000 0.000492 0.000000
# 4 0.000000 0.000000 0.000000 0.023289 0.000000 0.000478
# 5 -0.000678 0.000070 0.000492 0.000000 0.043732 0.000000
# 6 0.000000 0.000000 0.000000 0.000478 0.000000 0.040693
#
#
# Mechanical properties :
#
#
# Convention : Reuss Voigt Hill
#
# Bulk Modulus (GPa) = 90.88526 95.11029 92.99778
# Shear Modulus (GPa) = 33.74301 39.17488 36.45894
#
# Velocity S-wave (km/s) = 3.59843 3.87726 3.74044
# Velocity P-wave (km/s) = 7.22092 7.51946 7.37170
#
# Compressibility (1/GPa) = 0.01100288
#
# Stress axis : x y z
#
# Youngs Moduli (GPa) = 165.19651 126.78033 100.40930
#
# Poissons Ratio (x) = 0.15161 0.29042
# Poissons Ratio (y) = 0.19755 0.23702
# Poissons Ratio (z) = 0.47781 0.29927
#
# Static dielectric constant tensor:
#      x y z
#    x 2.098470 0.000000 -0.005210 
#    y 0.000000 2.241160 0.000000 
#    z -0.005210 0.000000 2.297220 
# 
# From -- ./inp_files/13817.got.cif
#   From: 2010.05.17/outbox.cif.g08.bks.cpg/sg4_7_cif.got.tgz:13817.got - 2010.06.03 18:43:04.
