data_PCOD9116208
_publ_section_title
;
Structure prediction by ZEFSAII (Michael W. Deem and Ramdas Pophale) SiO2 
 PCOD9116208
Probable space group: P 21
;
_chemical_formula_sum "Si O2"
_cell_formula_units_Z 14
_cell_length_a 9.849830
_cell_length_b 9.989777
_cell_length_c 10.564195
_cell_angle_alpha 90.000000
_cell_angle_beta 30.054287
_cell_angle_gamma 90.000000
_cell_volume 520.598463
_symmetry_space_group_name_H-M "P 21"
_symmetry_group_IT_number 4
_symmetry_cell_setting 'monoclinic'
loop_
_space_group_symop_operation_xyz
x,y,z
-x,1/2+y,-z
loop_
_atom_site_type_symbol
_atom_site_label
_atom_site_fract_x
_atom_site_fract_y
_atom_site_fract_z
Si Si1 0.743149 0.424960 0.770415
Si Si2 0.605864 0.162287 0.485030
Si Si3 0.803370 0.903334 0.415969
Si Si4 0.495165 0.243154 0.148026
Si Si5 0.998392 0.752332 0.611551
Si Si6 0.031005 0.309653 0.973946
Si Si7 0.771100 0.987510 0.956018
O O1 0.551038 0.462932 0.807879
O O2 0.023472 0.471096 0.609169
O O3 0.830962 0.275590 0.651561
O O4 0.561444 0.389714 0.038390
O O5 0.309083 0.223571 0.737974
O O6 0.805753 0.204689 0.437309
O O7 0.591302 0.002970 0.518764
O O8 0.782776 0.219659 0.225277
O O9 0.663496 0.775737 0.594451
O O10 0.999794 0.873099 0.139188
O O11 0.282475 0.185682 0.211431
O O12 0.751201 0.146281 0.961163
O O13 0.911945 0.901417 0.732065
O O14 0.106283 0.424965 0.015986
#
# Coordination Sequence:
#
# PCOD9116208 Si02
#       7
#     2   2   2   2   2   2   2
#     4  10  21  41  63  98 137 175 231 273 348 405
#     4  11  25  48  73  96 144 181 235 281 346 428
#     4  11  27  42  69 103 134 181 231 292 350 407
#     4  10  23  39  69 103 137 176 236 289 346 409
#     4   9  20  41  64 102 131 189 225 281 352 405
#     4  11  27  45  72 101 136 190 230 279 359 405
#     4  10  21  42  66  97 139 180 230 289 339 423
#
# _framework density 26.892126999999999
#
# number of rings (size 3 to 8) (size 9 to 14) (size 15 to 20)
#    0.000    1.714    1.429    0.857    6.000    5.714 
#    0.000    0.000    0.000    0.000    0.000    0.000 
#    0.000    0.000    0.000    0.000    0.000    0.000 
#
# Total GULP energy -78068.949408 kJ/mol
# GULP energy per Si atom -5576.353529 kJ/mol
# Density = 2.683092 g / cm^3
# Si number density = 26.892127 Si / 1000 Ang^3
#
#
#
# Elastic Constant Matrix: (Units=GPa)
#
#
# Indices 1 2 3 4 5 6 
#
# 1 120.2956 11.3357 2.0337 0.0000 -0.8507 0.0000
# 2 11.3357 28.1268 -8.9177 0.0000 -1.8491 0.0000
# 3 2.0337 -8.9177 80.7147 0.0000 3.6536 0.0000
# 4 0.0000 0.0000 0.0000 17.8237 0.0000 -6.7128
# 5 -0.8507 -1.8491 3.6536 0.0000 50.6481 0.0000
# 6 0.0000 0.0000 0.0000 -6.7128 0.0000 33.6006
#
#
#
# Elastic Compliance Matrix: (Units=1/GPa)
#
#
# Indices 1 2 3 4 5 6 
#
# 1 0.008672 -0.003691 -0.000629 0.000000 0.000056 0.000000
# 2 -0.003691 0.038471 0.004297 0.000000 0.001033 0.000000
# 3 -0.000629 0.004297 0.012915 0.000000 -0.000785 0.000000
# 4 0.000000 0.000000 0.000000 0.060670 0.000000 0.012121
# 5 0.000056 0.001033 -0.000785 0.000000 0.019839 0.000000
# 6 0.000000 0.000000 0.000000 0.012121 0.000000 0.032183
#
#
# Mechanical properties :
#
#
# Convention : Reuss Voigt Hill
#
# Bulk Modulus (GPa) = 16.66318 26.44896 21.55607
# Shear Modulus (GPa) = 25.93366 35.39350 30.66358
#
# Velocity S-wave (km/s) = 3.10878 3.63178 3.38041
# Velocity P-wave (km/s) = 4.36987 5.23861 4.82384
#
# Compressibility (1/GPa) = 0.06001256
#
# Stress axis : x y z
#
# Youngs Moduli (GPa) = 115.31829 25.99373 77.42683
#
# Poissons Ratio (x) = 0.09593 0.04868
# Poissons Ratio (y) = 0.42559 -0.33268
# Poissons Ratio (z) = 0.07251 -0.11169
#
# Static dielectric constant tensor:
#      x y z
#    x 2.109020 0.000000 0.040380 
#    y 0.000000 2.421210 0.000000 
#    z 0.040380 0.000000 2.343050 
# 
# From -- ./inp_files/2786.got.cif
#   From: 2010.05.17/outbox.cif.g08.bks.cpg/sg4_2_cif.got.tgz:2786.got - 2010.06.03 18:43:04.
