data_PCOD9116438
_publ_section_title
;
Structure prediction by ZEFSAII (Michael W. Deem and Ramdas Pophale) SiO2 
 PCOD9116438
Probable space group: P 21
;
_chemical_formula_sum "Si O2"
_cell_formula_units_Z 14
_cell_length_a 15.452958
_cell_length_b 5.160112
_cell_length_c 20.519409
_cell_angle_alpha 90.000000
_cell_angle_beta 161.037922
_cell_angle_gamma 90.000000
_cell_volume 531.669592
_symmetry_space_group_name_H-M "P 21"
_symmetry_group_IT_number 4
_symmetry_cell_setting 'monoclinic'
loop_
_space_group_symop_operation_xyz
x,y,z
-x,1/2+y,-z
loop_
_atom_site_type_symbol
_atom_site_label
_atom_site_fract_x
_atom_site_fract_y
_atom_site_fract_z
Si Si1 0.211122 0.896430 0.451343
Si Si2 0.139948 0.461506 0.681995
Si Si3 0.542626 0.395081 0.727707
Si Si4 0.205439 0.149923 0.980420
Si Si5 0.181485 0.934516 0.200106
Si Si6 0.346434 0.961561 0.768157
Si Si7 0.776168 0.757555 0.656663
O O1 0.360381 0.626936 0.569441
O O2 0.946620 0.898491 0.306396
O O3 0.397795 0.123050 0.614826
O O4 0.176954 0.001008 0.353447
O O5 0.251476 0.749069 0.753348
O O6 0.874423 0.447792 0.447182
O O7 0.336152 0.244587 0.792488
O O8 0.596304 0.452553 0.840990
O O9 0.799056 0.403199 0.862843
O O10 0.379800 0.353320 0.065281
O O11 0.058467 0.291127 0.935764
O O12 0.989188 0.975455 0.789000
O O13 0.469134 0.825849 0.427982
O O14 0.181245 0.210319 0.236248
#
# Coordination Sequence:
#
# PCOD9116438 Si02
#       7
#     2   2   2   2   2   2   2
#     4  11  24  47  75 108 143 197 249 303 384 463
#     4  10  21  43  72 104 142 182 236 305 392 439
#     4  11  27  42  74 110 148 189 256 310 366 446
#     4  12  27  43  71 113 149 194 257 315 369 443
#     4  11  25  45  68  98 149 200 243 296 372 449
#     4  10  23  40  71 108 140 182 237 314 375 439
#     4  11  25  44  73 101 151 206 248 299 378 457
#
# _framework density 26.332144
#
# number of rings (size 3 to 8) (size 9 to 14) (size 15 to 20)
#    0.000    1.143    2.857    1.714   14.000    0.000 
#    0.000    0.000    3.143    0.000    0.000    0.000 
#    0.000    0.000    0.000    0.000    0.000    0.000 
#
# Total GULP energy -78521.257477 kJ/mol
# GULP energy per Si atom -5608.661248 kJ/mol
# Density = 2.627221 g / cm^3
# Si number density = 26.332144 Si / 1000 Ang^3
#
#
#
# Elastic Constant Matrix: (Units=GPa)
#
#
# Indices 1 2 3 4 5 6 
#
# 1 127.6868 5.1765 25.0097 0.0000 12.8563 0.0000
# 2 5.1765 81.3884 14.3226 0.0000 -7.4008 0.0000
# 3 25.0097 14.3226 83.7754 0.0000 -3.3945 0.0000
# 4 0.0000 0.0000 0.0000 44.5227 0.0000 9.1999
# 5 12.8563 -7.4008 -3.3945 0.0000 37.9203 0.0000
# 6 0.0000 0.0000 0.0000 9.1999 0.0000 42.7048
#
#
#
# Elastic Compliance Matrix: (Units=1/GPa)
#
#
# Indices 1 2 3 4 5 6 
#
# 1 0.008697 -0.000381 -0.002663 0.000000 -0.003261 0.000000
# 2 -0.000381 0.012885 -0.001989 0.000000 0.002466 0.000000
# 3 -0.002663 -0.001989 0.013140 0.000000 0.001691 0.000000
# 4 0.000000 0.000000 0.000000 0.023507 0.000000 -0.005064
# 5 -0.003261 0.002466 0.001691 0.000000 0.028110 0.000000
# 6 0.000000 0.000000 0.000000 -0.005064 0.000000 0.024508
#
#
# Mechanical properties :
#
#
# Convention : Reuss Voigt Hill
#
# Bulk Modulus (GPa) = 40.55891 42.42980 41.49435
# Shear Modulus (GPa) = 38.71987 41.58566 40.15276
#
# Velocity S-wave (km/s) = 3.83879 3.97832 3.90918
# Velocity P-wave (km/s) = 5.92323 6.10336 6.01397
#
# Compressibility (1/GPa) = 0.02465550
#
# Stress axis : x y z
#
# Youngs Moduli (GPa) = 114.98009 77.60780 76.10119
#
# Poissons Ratio (x) = 0.02957 0.20269
# Poissons Ratio (y) = 0.04381 0.15138
# Poissons Ratio (z) = 0.30624 0.15438
#
# Static dielectric constant tensor:
#      x y z
#    x 2.052640 0.000000 -0.042710 
#    y 0.000000 2.085830 0.000000 
#    z -0.042710 0.000000 2.085740 
# 
# From -- ./inp_files/10648.got.cif
#   From: 2010.05.17/outbox.cif.g08.bks.cpg/sg4_6_cif.got.tgz:10648.got - 2010.06.03 18:43:04.
