data_PCOD9116530
_publ_section_title
;
Structure prediction by ZEFSAII (Michael W. Deem and Ramdas Pophale) SiO2 
 PCOD9116530
Probable space group: P 21
;
_chemical_formula_sum "Si O2"
_cell_formula_units_Z 14
_cell_length_a 14.274720
_cell_length_b 6.167407
_cell_length_c 15.371354
_cell_angle_alpha 90.000000
_cell_angle_beta 152.223888
_cell_angle_gamma 90.000000
_cell_volume 630.644822
_symmetry_space_group_name_H-M "P 21"
_symmetry_group_IT_number 4
_symmetry_cell_setting 'monoclinic'
loop_
_space_group_symop_operation_xyz
x,y,z
-x,1/2+y,-z
loop_
_atom_site_type_symbol
_atom_site_label
_atom_site_fract_x
_atom_site_fract_y
_atom_site_fract_z
Si Si1 0.034116 0.125000 0.697431
Si Si2 0.033191 0.837882 0.185933
Si Si3 0.621705 0.367349 0.322206
Si Si4 0.692032 0.798807 0.779662
Si Si5 0.442068 0.300206 0.984328
Si Si6 0.384701 0.527403 0.462620
Si Si7 0.861122 0.725569 0.608068
O O1 0.070056 0.177769 0.828934
O O2 0.810865 0.205567 0.489931
O O3 0.203221 0.251684 0.784746
O O4 0.022765 0.866318 0.687672
O O5 0.259452 0.750873 0.366905
O O6 0.914994 0.822973 0.999374
O O7 0.033520 0.064131 0.236987
O O8 0.452275 0.339173 0.256604
O O9 0.524870 0.335921 0.149558
O O10 0.724721 0.597164 0.427762
O O11 0.614369 0.570022 0.677543
O O12 0.652861 0.953055 0.665907
O O13 0.478764 0.548447 0.975124
O O14 0.282664 0.368445 0.448217
#
# Coordination Sequence:
#
# PCOD9116530 Si02
#       7
#     2   2   2   2   2   2   2
#     4  10  23  48  76 106 146 186 245 310 379 461
#     4  10  23  43  65 102 139 194 241 304 363 439
#     4  11  24  48  75 106 144 201 238 303 384 441
#     4  12  23  42  68  97 147 191 250 298 363 439
#     4  12  31  50  79 119 149 191 259 318 388 472
#     4  11  25  41  60 110 145 189 251 306 352 431
#     4  10  21  46  75 100 148 190 246 297 373 445
#
# _framework density 22.199501999999999
#
# number of rings (size 3 to 8) (size 9 to 14) (size 15 to 20)
#    0.000    1.143    5.714    0.857    8.000    1.143 
#    7.714    0.000    0.000    0.000    0.000    0.000 
#    0.000    0.000    0.000    0.000    0.000    0.000 
#
# Total GULP energy -78024.157631 kJ/mol
# GULP energy per Si atom -5573.154116 kJ/mol
# Density = 2.214898 g / cm^3
# Si number density = 22.199502 Si / 1000 Ang^3
#
#
#
# Elastic Constant Matrix: (Units=GPa)
#
#
# Indices 1 2 3 4 5 6 
#
# 1 58.7325 32.2381 23.2955 0.0000 -15.3792 0.0000
# 2 32.2381 110.3754 30.8217 0.0000 -7.6964 0.0000
# 3 23.2955 30.8217 119.2580 0.0000 -14.4411 0.0000
# 4 0.0000 0.0000 0.0000 5.0873 0.0000 4.1548
# 5 -15.3792 -7.6964 -14.4411 0.0000 32.7405 0.0000
# 6 0.0000 0.0000 0.0000 4.1548 0.0000 35.7073
#
#
#
# Elastic Compliance Matrix: (Units=1/GPa)
#
#
# Indices 1 2 3 4 5 6 
#
# 1 0.023175 -0.005597 -0.002030 0.000000 0.008675 0.000000
# 2 -0.005597 0.011165 -0.001894 0.000000 -0.000840 0.000000
# 3 -0.002030 -0.001894 0.009615 0.000000 0.002842 0.000000
# 4 0.000000 0.000000 0.000000 0.217207 0.000000 -0.025273
# 5 0.008675 -0.000840 0.002842 0.000000 0.035674 0.000000
# 6 0.000000 0.000000 0.000000 -0.025273 0.000000 0.030946
#
#
# Mechanical properties :
#
#
# Convention : Reuss Voigt Hill
#
# Bulk Modulus (GPa) = 40.13868 51.23074 45.68471
# Shear Modulus (GPa) = 14.07933 28.17439 21.12686
#
# Velocity S-wave (km/s) = 2.52110 3.56637 3.08828
# Velocity P-wave (km/s) = 5.15701 6.33137 5.77412
#
# Compressibility (1/GPa) = 0.02491363
#
# Stress axis : x y z
#
# Youngs Moduli (GPa) = 43.14921 89.56473 104.00006
#
# Poissons Ratio (x) = 0.50131 0.21112
# Poissons Ratio (y) = 0.24152 0.19697
# Poissons Ratio (z) = 0.08759 0.16963
#
# Static dielectric constant tensor:
#      x y z
#    x 1.865680 0.000000 0.027890 
#    y 0.000000 1.943550 0.000000 
#    z 0.027890 0.000000 1.775640 
# 
# From -- ./inp_files/14096.got.cif
#   From: 2010.05.17/outbox.cif.g08.bks.cpg/sg4_8_cif.got.tgz:14096.got - 2010.06.03 18:43:04.
