data_PCOD9116445
_publ_section_title
;
Structure prediction by ZEFSAII (Michael W. Deem and Ramdas Pophale) SiO2 
 PCOD9116445
Probable space group: P 21
;
_chemical_formula_sum "Si O2"
_cell_formula_units_Z 16
_cell_length_a 17.955428
_cell_length_b 5.210159
_cell_length_c 9.302128
_cell_angle_alpha 90.000000
_cell_angle_beta 48.756309
_cell_angle_gamma 90.000000
_cell_volume 654.329198
_symmetry_space_group_name_H-M "P 21"
_symmetry_group_IT_number 4
_symmetry_cell_setting 'monoclinic'
loop_
_space_group_symop_operation_xyz
x,y,z
-x,1/2+y,-z
loop_
_atom_site_type_symbol
_atom_site_label
_atom_site_fract_x
_atom_site_fract_y
_atom_site_fract_z
Si Si1 0.804840 0.958700 0.502415
Si Si2 0.783585 0.049810 0.193063
Si Si3 0.894554 0.467162 0.533794
Si Si4 0.450844 0.537048 0.502783
Si Si5 0.091276 0.227424 0.198493
Si Si6 0.386196 0.345177 0.076596
Si Si7 0.446535 0.846024 0.908863
Si Si8 0.957634 0.390959 0.985648
O O1 0.804751 0.956029 0.329530
O O2 0.007776 0.111730 0.946314
O O3 0.841160 0.221747 0.531307
O O4 0.694402 0.917730 0.703819
O O5 0.666225 0.062979 0.325763
O O6 0.834003 0.881353 0.001525
O O7 0.841261 0.322237 0.125148
O O8 0.865956 0.544239 0.732671
O O9 0.013048 0.418875 0.373699
O O10 0.864014 0.714035 0.482496
O O11 0.498905 0.313995 0.539376
O O12 0.479161 0.433897 0.308846
O O13 0.025015 0.043673 0.182146
O O14 0.491405 0.312116 0.023239
O O15 0.395530 0.573292 0.950665
O O16 0.367550 0.070923 0.030002
#
# Coordination Sequence:
#
# PCOD9116445 Si02
#       8
#     2   2   2   2   2   2   2   2
#     4  12  28  48  79 121 151 207 269 329 387 484
#     4  12  31  51  83 118 166 205 284 334 400 489
#     4  12  31  48  79 111 165 204 260 322 408 477
#     4  12  29  51  76 114 157 210 261 329 404 471
#     4  12  31  54  77 118 168 213 261 335 407 492
#     4  10  21  43  74 102 145 185 250 314 377 442
#     4  10  21  44  71 104 141 195 244 314 378 449
#     4  12  28  49  83 120 155 211 269 325 407 486
#
# _framework density 24.452522999999999
#
# number of rings (size 3 to 8) (size 9 to 14) (size 15 to 20)
#    0.000    0.500    2.500    3.000   12.250    3.000 
#    0.000    0.000    0.000    0.000    0.000    0.000 
#    0.000    0.000    0.000    0.000    0.000    0.000 
#
# Total GULP energy -89532.098117 kJ/mol
# GULP energy per Si atom -5595.756132 kJ/mol
# Density = 2.439687 g / cm^3
# Si number density = 24.452523 Si / 1000 Ang^3
#
#
#
# Elastic Constant Matrix: (Units=GPa)
#
#
# Indices 1 2 3 4 5 6 
#
# 1 88.7917 50.9226 45.3060 0.0000 3.6351 0.0000
# 2 50.9226 149.6011 43.2715 0.0000 0.2092 0.0000
# 3 45.3060 43.2715 121.4783 0.0000 6.4387 0.0000
# 4 0.0000 0.0000 0.0000 36.7178 0.0000 4.3812
# 5 3.6351 0.2092 6.4387 0.0000 30.2262 0.0000
# 6 0.0000 0.0000 0.0000 4.3812 0.0000 24.7909
#
#
#
# Elastic Compliance Matrix: (Units=1/GPa)
#
#
# Indices 1 2 3 4 5 6 
#
# 1 0.015931 -0.004144 -0.004415 0.000000 -0.000947 0.000000
# 2 -0.004144 0.008538 -0.001536 0.000000 0.000767 0.000000
# 3 -0.004415 -0.001536 0.010516 0.000000 -0.001698 0.000000
# 4 0.000000 0.000000 0.000000 0.027821 0.000000 -0.004917
# 5 -0.000947 0.000767 -0.001698 0.000000 0.033554 0.000000
# 6 0.000000 0.000000 0.000000 -0.004917 0.000000 0.041206
#
#
# Mechanical properties :
#
#
# Convention : Reuss Voigt Hill
#
# Bulk Modulus (GPa) = 67.59760 70.98569 69.29164
# Shear Modulus (GPa) = 30.73340 33.03838 31.88589
#
# Velocity S-wave (km/s) = 3.54907 3.67975 3.61500
# Velocity P-wave (km/s) = 6.67075 6.86638 6.76927
#
# Compressibility (1/GPa) = 0.01479342
#
# Stress axis : x y z
#
# Youngs Moduli (GPa) = 62.77239 117.11732 95.09459
#
# Poissons Ratio (x) = 0.48536 0.41984
# Poissons Ratio (y) = 0.26014 0.14611
# Poissons Ratio (z) = 0.27714 0.17995
#
# Static dielectric constant tensor:
#      x y z
#    x 1.954460 0.000000 0.014800 
#    y 0.000000 1.943510 0.000000 
#    z 0.014800 0.000000 1.962560 
# 
# From -- ./inp_files/9493.got.cif
#   From: 2010.05.17/outbox.cif.g08.bks.cpg/sg4_5_cif.got.tgz:9493.got - 2010.06.03 18:43:04.
