data_PCOD9116004
_publ_section_title
;
Structure prediction by ZEFSAII (Michael W. Deem and Ramdas Pophale) SiO2 
 PCOD9116004
Probable space group: P 21
;
_chemical_formula_sum "Si O2"
_cell_formula_units_Z 16
_cell_length_a 15.215711
_cell_length_b 4.883618
_cell_length_c 24.451873
_cell_angle_alpha 90.000000
_cell_angle_beta 158.919777
_cell_angle_gamma 90.000000
_cell_volume 653.515700
_symmetry_space_group_name_H-M "P 21"
_symmetry_group_IT_number 4
_symmetry_cell_setting 'monoclinic'
loop_
_space_group_symop_operation_xyz
x,y,z
-x,1/2+y,-z
loop_
_atom_site_type_symbol
_atom_site_label
_atom_site_fract_x
_atom_site_fract_y
_atom_site_fract_z
Si Si1 0.037019 0.520210 0.143261
Si Si2 0.837964 0.935210 0.895873
Si Si3 0.428702 0.701387 0.165817
Si Si4 0.101230 0.515280 0.530403
Si Si5 0.146552 0.792807 0.721751
Si Si6 0.059271 0.297711 0.743009
Si Si7 0.352754 0.368573 0.021474
Si Si8 0.654669 0.030170 0.580571
O O1 0.221809 0.541871 0.199903
O O2 0.163623 0.395785 0.269705
O O3 0.872112 0.764422 0.071523
O O4 0.829927 0.335713 0.996926
O O5 0.627078 0.993795 0.817157
O O6 0.073840 0.122572 0.049399
O O7 0.626008 0.919515 0.299114
O O8 0.488245 0.579131 0.140751
O O9 0.056987 0.831986 0.518311
O O10 0.012289 0.417045 0.419634
O O11 0.014269 0.545348 0.675677
O O12 0.412876 0.681625 0.857147
O O13 0.192056 0.045473 0.789818
O O14 0.812669 0.163427 0.624359
O O15 0.219881 0.418186 0.886574
O O16 0.530272 0.286631 0.539748
#
# Coordination Sequence:
#
# PCOD9116004 Si02
#       8
#     2   2   2   2   2   2   2   2
#     4  10  24  42  71  99 138 179 240 296 352 433
#     4  10  21  39  61  99 130 164 230 291 345 404
#     4  11  24  41  72 102 136 193 235 299 360 429
#     4  12  26  46  70 102 145 191 242 291 365 440
#     4  12  25  46  68 106 148 186 236 300 355 429
#     4  11  27  44  72 105 143 185 247 293 354 425
#     4  11  23  42  73  98 141 189 245 289 364 422
#     4  11  26  46  73 101 141 189 233 291 369 432
#
# _framework density 24.482959999999999
#
# number of rings (size 3 to 8) (size 9 to 14) (size 15 to 20)
#    0.000    1.000    2.500    3.000    8.750    2.000 
#    0.000    2.500    0.000    0.000    0.000    0.000 
#    0.000    0.000    0.000    0.000    0.000    0.000 
#
# Total GULP energy -89392.093573 kJ/mol
# GULP energy per Si atom -5587.005848 kJ/mol
# Density = 2.442724 g / cm^3
# Si number density = 24.482960 Si / 1000 Ang^3
#
#
#
# Elastic Constant Matrix: (Units=GPa)
#
#
# Indices 1 2 3 4 5 6 
#
# 1 112.5647 34.3000 31.7517 0.0000 -12.9480 0.0000
# 2 34.3000 73.6789 5.7031 0.0000 -1.6299 0.0000
# 3 31.7517 5.7031 52.9055 0.0000 4.2980 0.0000
# 4 0.0000 0.0000 0.0000 23.4638 0.0000 5.2900
# 5 -12.9480 -1.6299 4.2980 0.0000 30.4053 0.0000
# 6 0.0000 0.0000 0.0000 5.2900 0.0000 38.1679
#
#
#
# Elastic Compliance Matrix: (Units=1/GPa)
#
#
# Indices 1 2 3 4 5 6 
#
# 1 0.013640 -0.005574 -0.008127 0.000000 0.006659 0.000000
# 2 -0.005574 0.015991 0.001765 0.000000 -0.001766 0.000000
# 3 -0.008127 0.001765 0.024139 0.000000 -0.006778 0.000000
# 4 0.000000 0.000000 0.000000 0.043993 0.000000 -0.006097
# 5 0.006659 -0.001766 -0.006778 0.000000 0.036588 0.000000
# 6 0.000000 0.000000 0.000000 -0.006097 0.000000 0.027045
#
#
# Mechanical properties :
#
#
# Convention : Reuss Voigt Hill
#
# Bulk Modulus (GPa) = 33.44465 42.51763 37.98114
# Shear Modulus (GPa) = 25.61009 29.56704 27.58856
#
# Velocity S-wave (km/s) = 3.23776 3.47891 3.36050
# Velocity P-wave (km/s) = 5.25999 5.79146 5.53211
#
# Compressibility (1/GPa) = 0.02990015
#
# Stress axis : x y z
#
# Youngs Moduli (GPa) = 73.31166 62.53323 41.42622
#
# Poissons Ratio (x) = 0.34854 0.33665
# Poissons Ratio (y) = 0.40862 -0.07311
# Poissons Ratio (z) = 0.59577 -0.11035
#
# Static dielectric constant tensor:
#      x y z
#    x 2.105520 0.000000 0.043080 
#    y 0.000000 1.972590 0.000000 
#    z 0.043080 0.000000 1.939800 
# 
# From -- ./inp_files/11686.got.cif
#   From: 2010.05.17/outbox.cif.g08.bks.cpg/sg4_6_cif.got.tgz:11686.got - 2010.06.03 18:43:04.
