data_PCOD9116869
_publ_section_title
;
Structure prediction by ZEFSAII (Michael W. Deem and Ramdas Pophale) SiO2 
 PCOD9116869
Probable space group: P 21
;
_chemical_formula_sum "Si O2"
_cell_formula_units_Z 16
_cell_length_a 10.731706
_cell_length_b 9.262727
_cell_length_c 11.454810
_cell_angle_alpha 90.000000
_cell_angle_beta 36.217759
_cell_angle_gamma 90.000000
_cell_volume 672.786074
_symmetry_space_group_name_H-M "P 21"
_symmetry_group_IT_number 4
_symmetry_cell_setting 'monoclinic'
loop_
_space_group_symop_operation_xyz
x,y,z
-x,1/2+y,-z
loop_
_atom_site_type_symbol
_atom_site_label
_atom_site_fract_x
_atom_site_fract_y
_atom_site_fract_z
Si Si1 0.263540 0.766680 0.602507
Si Si2 0.723174 0.423694 0.773179
Si Si3 0.170800 0.382081 0.445818
Si Si4 0.484897 0.649365 0.810347
Si Si5 0.374206 0.083760 0.563315
Si Si6 0.853016 0.577894 0.920311
Si Si7 0.984945 0.276758 0.834819
Si Si8 0.597998 0.184707 0.733011
O O1 0.424421 0.641764 0.520018
O O2 0.312838 0.793395 0.430238
O O3 0.032523 0.698542 0.784003
O O4 0.317452 0.916103 0.625589
O O5 0.542798 0.515063 0.847133
O O6 0.776293 0.507224 0.853661
O O7 0.638291 0.259483 0.827482
O O8 0.956020 0.411843 0.538040
O O9 0.356098 0.276263 0.266543
O O10 0.275432 0.537364 0.378862
O O11 0.080200 0.312163 0.633977
O O12 0.556664 0.612427 0.623664
O O13 0.241007 0.697394 0.996298
O O14 0.168382 0.179366 0.750499
O O15 0.940042 0.436025 0.920995
O O16 0.640176 0.652000 0.120103
#
# Coordination Sequence:
#
# PCOD9116869 Si02
#       8
#     2   2   2   2   2   2   2   2
#     4  12  26  50  72 109 140 190 248 299 365 429
#     4  11  24  42  65 106 144 183 237 290 352 437
#     4  10  22  41  66  98 137 192 226 289 351 421
#     4  11  23  43  68 102 143 187 237 290 362 427
#     4  11  27  45  78 100 144 188 243 308 355 432
#     4  11  26  44  70 104 148 186 237 300 356 436
#     4  10  22  44  67 105 138 187 236 292 359 424
#     4  12  24  45  70 102 146 191 236 292 362 422
#
# _framework density 23.781704000000001
#
# number of rings (size 3 to 8) (size 9 to 14) (size 15 to 20)
#    0.000    1.000    5.000    1.500    7.000    1.000 
#    0.000    0.000    0.000    0.000    0.000    0.000 
#    0.000    0.000    0.000    0.000    0.000    0.000 
#
# Total GULP energy -89355.858661 kJ/mol
# GULP energy per Si atom -5584.741166 kJ/mol
# Density = 2.372758 g / cm^3
# Si number density = 23.781704 Si / 1000 Ang^3
#
#
#
# Elastic Constant Matrix: (Units=GPa)
#
#
# Indices 1 2 3 4 5 6 
#
# 1 58.0119 31.7149 32.4920 0.0000 -9.0360 0.0000
# 2 31.7149 122.1379 55.5886 0.0000 -17.8106 0.0000
# 3 32.4920 55.5886 158.3881 0.0000 -38.8148 0.0000
# 4 0.0000 0.0000 0.0000 25.9377 0.0000 -22.7254
# 5 -9.0360 -17.8106 -38.8148 0.0000 31.7870 0.0000
# 6 0.0000 0.0000 0.0000 -22.7254 0.0000 33.1059
#
#
#
# Elastic Compliance Matrix: (Units=1/GPa)
#
#
# Indices 1 2 3 4 5 6 
#
# 1 0.021131 -0.004173 -0.002813 0.000000 0.000234 0.000000
# 2 -0.004173 0.010643 -0.002438 0.000000 0.001800 0.000000
# 3 -0.002813 -0.002438 0.010297 0.000000 0.010408 0.000000
# 4 0.000000 0.000000 0.000000 0.096731 0.000000 0.066400
# 5 0.000234 0.001800 0.010408 0.000000 0.045243 0.000000
# 6 0.000000 0.000000 0.000000 0.066400 0.000000 0.075786
#
#
# Mechanical properties :
#
#
# Convention : Reuss Voigt Hill
#
# Bulk Modulus (GPa) = 43.06047 64.23654 53.64851
# Shear Modulus (GPa) = 17.45685 32.74894 25.10290
#
# Velocity S-wave (km/s) = 2.71227 3.71491 3.25246
# Velocity P-wave (km/s) = 5.28719 6.74316 6.05907
#
# Compressibility (1/GPa) = 0.02322315
#
# Stress axis : x y z
#
# Youngs Moduli (GPa) = 47.32389 93.95716 97.11595
#
# Poissons Ratio (x) = 0.39204 0.27320
# Poissons Ratio (y) = 0.19746 0.23680
# Poissons Ratio (z) = 0.13313 0.22910
#
# Static dielectric constant tensor:
#      x y z
#    x 1.997190 0.000000 0.071790 
#    y 0.000000 1.915250 0.000000 
#    z 0.071790 0.000000 1.903300 
# 
# From -- ./inp_files/13896.got.cif
#   From: 2010.05.17/outbox.cif.g08.bks.cpg/sg4_7_cif.got.tgz:13896.got - 2010.06.03 18:43:04.
