data_PCOD9116765
_publ_section_title
;
Structure prediction by ZEFSAII (Michael W. Deem and Ramdas Pophale) SiO2 
 PCOD9116765
Probable space group: P 21
;
_chemical_formula_sum "Si O2"
_cell_formula_units_Z 16
_cell_length_a 5.443946
_cell_length_b 22.881214
_cell_length_c 5.096665
_cell_angle_alpha 90.000000
_cell_angle_beta 86.158048
_cell_angle_gamma 90.000000
_cell_volume 633.434715
_symmetry_space_group_name_H-M "P 21"
_symmetry_group_IT_number 4
_symmetry_cell_setting 'monoclinic'
loop_
_space_group_symop_operation_xyz
x,y,z
-x,1/2+y,-z
loop_
_atom_site_type_symbol
_atom_site_label
_atom_site_fract_x
_atom_site_fract_y
_atom_site_fract_z
Si Si1 0.304659 0.278660 0.376513
Si Si2 0.912083 0.365686 0.416682
Si Si3 0.921802 0.503349 0.379765
Si Si4 0.517169 0.170357 0.547778
Si Si5 0.582136 0.055573 0.842203
Si Si6 0.281349 0.804274 0.081713
Si Si7 0.791184 0.592343 0.761846
Si Si8 0.933947 0.194780 0.094599
O O1 0.426545 0.237045 0.590057
O O2 0.170142 0.336504 0.483890
O O3 0.482326 0.293259 0.119898
O O4 0.097039 0.237845 0.261375
O O5 0.910218 0.434873 0.428144
O O6 0.721832 0.337737 0.641066
O O7 0.867883 0.345009 0.119281
O O8 0.656513 0.524792 0.282408
O O9 0.956518 0.540859 0.642685
O O10 0.166488 0.520175 0.199788
O O11 0.623273 0.122822 0.740932
O O12 0.275674 0.136301 0.464830
O O13 0.704178 0.176564 0.291339
O O14 0.465668 0.063981 0.135305
O O15 0.154646 0.739798 0.121861
O O16 0.910267 0.636037 0.965226
#
# Coordination Sequence:
#
# PCOD9116765 Si02
#       8
#     2   2   2   2   2   2   2   2
#     4   9  21  42  66 100 138 183 230 300 362 429
#     4  11  26  45  71  97 142 188 249 296 360 435
#     4  11  27  45  66 102 139 188 248 298 356 437
#     4   9  19  41  63  98 140 174 233 288 366 433
#     4  11  25  43  70  99 137 189 234 297 368 427
#     4  10  24  45  68 103 135 187 237 300 363 434
#     4  10  22  40  66  98 139 184 229 301 359 436
#     4   9  18  41  64  99 140 173 234 294 364 429
#
# _framework density 25.259111999999998
#
# number of rings (size 3 to 8) (size 9 to 14) (size 15 to 20)
#    0.000    2.000    1.250    0.000    7.000    2.000 
#   18.000    0.000    0.000    0.000    0.000    0.000 
#    0.000    0.000    0.000    0.000    0.000    0.000 
#
# Total GULP energy -89394.044387 kJ/mol
# GULP energy per Si atom -5587.127774 kJ/mol
# Density = 2.520162 g / cm^3
# Si number density = 25.259112 Si / 1000 Ang^3
#
#
#
# Elastic Constant Matrix: (Units=GPa)
#
#
# Indices 1 2 3 4 5 6 
#
# 1 102.7852 52.3715 20.7691 0.0000 -3.8225 0.0000
# 2 52.3715 189.5650 23.1578 0.0000 -25.1450 0.0000
# 3 20.7691 23.1578 80.5461 0.0000 -14.1424 0.0000
# 4 0.0000 0.0000 0.0000 21.2686 0.0000 -11.0476
# 5 -3.8225 -25.1450 -14.1424 0.0000 38.1685 0.0000
# 6 0.0000 0.0000 0.0000 -11.0476 0.0000 36.0831
#
#
#
# Elastic Compliance Matrix: (Units=1/GPa)
#
#
# Indices 1 2 3 4 5 6 
#
# 1 0.011785 -0.003201 -0.002440 0.000000 -0.001833 0.000000
# 2 -0.003201 0.006736 -0.000415 0.000000 0.003963 0.000000
# 3 -0.002440 -0.000415 0.013983 0.000000 0.004663 0.000000
# 4 0.000000 0.000000 0.000000 0.055909 0.000000 0.017118
# 5 -0.001833 0.003963 0.004663 0.000000 0.030355 0.000000
# 6 0.000000 0.000000 0.000000 0.017118 0.000000 0.032955
#
#
# Mechanical properties :
#
#
# Convention : Reuss Voigt Hill
#
# Bulk Modulus (GPa) = 49.04278 62.83257 55.93767
# Shear Modulus (GPa) = 29.30280 37.54388 33.42334
#
# Velocity S-wave (km/s) = 3.40970 3.85950 3.64155
# Velocity P-wave (km/s) = 5.91265 6.69255 6.31465
#
# Compressibility (1/GPa) = 0.02039036
#
# Stress axis : x y z
#
# Youngs Moduli (GPa) = 84.85472 148.45670 71.51722
#
# Poissons Ratio (x) = 0.47518 0.17452
# Poissons Ratio (y) = 0.27160 0.02971
# Poissons Ratio (z) = 0.20707 0.06168
#
# Static dielectric constant tensor:
#      x y z
#    x 2.105640 0.000000 0.086980 
#    y 0.000000 1.947090 0.000000 
#    z 0.086980 0.000000 2.051560 
# 
# From -- ./inp_files/544.got.cif
#   From: 2010.05.17/outbox.cif.g08.bks.cpg/sg4_1_cif.got.tgz:544.got - 2010.06.03 18:43:04.
