data_PCOD9116169
_publ_section_title
;
Structure prediction by ZEFSAII (Michael W. Deem and Ramdas Pophale) SiO2 
 PCOD9116169
Probable space group: P 21
;
_chemical_formula_sum "Si O2"
_cell_formula_units_Z 14
_cell_length_a 16.407534
_cell_length_b 7.254041
_cell_length_c 5.410149
_cell_angle_alpha 90.000000
_cell_angle_beta 108.053224
_cell_angle_gamma 90.000000
_cell_volume 612.220095
_symmetry_space_group_name_H-M "P 21"
_symmetry_group_IT_number 4
_symmetry_cell_setting 'monoclinic'
loop_
_space_group_symop_operation_xyz
x,y,z
-x,1/2+y,-z
loop_
_atom_site_type_symbol
_atom_site_label
_atom_site_fract_x
_atom_site_fract_y
_atom_site_fract_z
Si Si1 0.495683 0.892260 0.674228
Si Si2 0.960781 0.199419 0.659002
Si Si3 0.680359 0.323817 0.299763
Si Si4 0.176344 0.986890 0.248054
Si Si5 0.558163 0.547691 0.886967
Si Si6 0.826704 0.188970 0.150119
Si Si7 0.109119 0.376355 0.078182
O O1 0.572004 0.755818 0.813178
O O2 0.490265 0.956659 0.390124
O O3 0.407288 0.775483 0.641407
O O4 0.489280 0.042629 0.888719
O O5 0.895138 0.357208 0.691492
O O6 0.922785 0.169740 0.351360
O O7 0.052730 0.282266 0.807043
O O8 0.947763 0.008204 0.797213
O O9 0.734355 0.454991 0.529805
O O10 0.749857 0.176288 0.274546
O O11 0.642808 0.432913 0.028727
O O12 0.179810 0.888942 0.983121
O O13 0.149859 0.197966 0.240735
O O14 0.821012 0.020532 0.956145
#
# Coordination Sequence:
#
# PCOD9116169 Si02
#       7
#     2   2   2   2   2   2   2
#     4  10  21  40  69 100 133 172 217 269 328 395
#     4  10  22  38  58  90 124 162 221 279 330 385
#     4   9  22  42  65  87 137 170 208 273 330 399
#     4  10  21  42  62  86 128 170 216 271 333 390
#     4  10  21  40  71  99 133 170 219 269 329 393
#     4  10  23  39  62  90 124 171 217 274 333 390
#     4  11  22  37  63  90 123 169 226 275 333 394
#
# _framework density 22.867591000000001
#
# number of rings (size 3 to 8) (size 9 to 14) (size 15 to 20)
#    0.857    1.143    1.429    1.714    2.000    2.286 
#    0.000    8.571    0.000    0.000    0.000    0.000 
#    0.000    0.000    0.000    0.000    0.000    0.000 
#
# Total GULP energy -78000.094473 kJ/mol
# GULP energy per Si atom -5571.435320 kJ/mol
# Density = 2.281554 g / cm^3
# Si number density = 22.867591 Si / 1000 Ang^3
#
#
#
# Elastic Constant Matrix: (Units=GPa)
#
#
# Indices 1 2 3 4 5 6 
#
# 1 40.3110 20.1780 -2.6767 0.0000 2.3104 0.0000
# 2 20.1780 122.2427 31.3608 0.0000 -1.0874 0.0000
# 3 -2.6767 31.3608 127.0953 0.0000 7.6265 0.0000
# 4 0.0000 0.0000 0.0000 22.7755 0.0000 1.5262
# 5 2.3104 -1.0874 7.6265 0.0000 22.1426 0.0000
# 6 0.0000 0.0000 0.0000 1.5262 0.0000 15.5022
#
#
#
# Elastic Compliance Matrix: (Units=1/GPa)
#
#
# Indices 1 2 3 4 5 6 
#
# 1 0.027745 -0.005150 0.002087 0.000000 -0.003867 0.000000
# 2 -0.005150 0.009720 -0.002622 0.000000 0.001918 0.000000
# 3 0.002087 -0.002622 0.008761 0.000000 -0.003364 0.000000
# 4 0.000000 0.000000 0.000000 0.044198 0.000000 -0.004351
# 5 -0.003867 0.001918 -0.003364 0.000000 0.046818 0.000000
# 6 0.000000 0.000000 0.000000 -0.004351 0.000000 0.064935
#
#
# Mechanical properties :
#
#
# Convention : Reuss Voigt Hill
#
# Bulk Modulus (GPa) = 28.68866 43.04146 35.86506
# Shear Modulus (GPa) = 22.20584 28.13652 25.17118
#
# Velocity S-wave (km/s) = 3.11957 3.51153 3.32133
# Velocity P-wave (km/s) = 5.05454 5.94172 5.51599
#
# Compressibility (1/GPa) = 0.03485698
#
# Stress axis : x y z
#
# Youngs Moduli (GPa) = 36.04263 102.87891 114.14358
#
# Poissons Ratio (x) = 0.52978 -0.23822
# Poissons Ratio (y) = 0.18560 0.29928
# Poissons Ratio (z) = -0.07522 0.26975
#
# Static dielectric constant tensor:
#      x y z
#    x 1.894290 0.000000 -0.055500 
#    y 0.000000 1.865970 0.000000 
#    z -0.055500 0.000000 1.944060 
# 
# From -- ./inp_files/4216.got.cif
#   From: 2010.05.17/outbox.cif.g08.bks.cpg/sg4_3_cif.got.tgz:4216.got - 2010.06.03 18:43:04.
