data_PCOD9116084
_publ_section_title
;
Structure prediction by ZEFSAII (Michael W. Deem and Ramdas Pophale) SiO2 
 PCOD9116084
Probable space group: P 21
;
_chemical_formula_sum "Si O2"
_cell_formula_units_Z 14
_cell_length_a 4.918623
_cell_length_b 19.452437
_cell_length_c 5.518865
_cell_angle_alpha 90.000000
_cell_angle_beta 83.389815
_cell_angle_gamma 90.000000
_cell_volume 524.530365
_symmetry_space_group_name_H-M "P 21"
_symmetry_group_IT_number 4
_symmetry_cell_setting 'monoclinic'
loop_
_space_group_symop_operation_xyz
x,y,z
-x,1/2+y,-z
loop_
_atom_site_type_symbol
_atom_site_label
_atom_site_fract_x
_atom_site_fract_y
_atom_site_fract_z
Si Si1 0.193197 0.438400 0.870294
Si Si2 0.448118 0.712638 0.728304
Si Si3 0.241632 0.822363 0.057231
Si Si4 0.710299 0.743620 0.199317
Si Si5 0.776448 0.562817 0.399051
Si Si6 0.289335 0.470977 0.356111
Si Si7 0.000074 0.597829 0.878454
O O1 0.332687 0.430165 0.596951
O O2 0.129687 0.520778 0.877663
O O3 0.919549 0.393229 0.915800
O O4 0.350405 0.429487 0.107477
O O5 0.303667 0.787416 0.789084
O O6 0.591996 0.710410 0.454316
O O7 0.223435 0.653796 0.782848
O O8 0.649022 0.709257 0.942641
O O9 0.020343 0.767862 0.191878
O O10 0.519534 0.811257 0.175779
O O11 0.477811 0.538293 0.352121
O O12 0.795486 0.590406 0.670091
O O13 0.973709 0.495403 0.382966
O O14 0.895783 0.607708 0.165494
#
# Coordination Sequence:
#
# PCOD9116084 Si02
#       7
#     2   2   2   2   2   2   2
#     4  10  23  41  68  96 135 170 225 275 336 393
#     4  10  24  46  69 100 136 181 226 279 340 404
#     4  10  26  45  69  99 135 182 225 279 340 405
#     4  10  25  43  71  92 136 174 232 273 338 404
#     4  10  21  40  59  93 128 166 210 264 327 385
#     4  10  22  39  60  92 129 167 207 268 325 386
#     4  10  21  44  66 100 131 176 219 280 332 397
#
# _framework density 26.690543999999999
#
# number of rings (size 3 to 8) (size 9 to 14) (size 15 to 20)
#    0.857    1.143    0.000    1.714    4.000    4.571 
#   18.000    0.000    0.000    0.000    0.000    0.000 
#    0.000    0.000    0.000    0.000    0.000    0.000 
#
# Total GULP energy -78354.305153 kJ/mol
# GULP energy per Si atom -5596.736082 kJ/mol
# Density = 2.662979 g / cm^3
# Si number density = 26.690544 Si / 1000 Ang^3
#
#
#
# Elastic Constant Matrix: (Units=GPa)
#
#
# Indices 1 2 3 4 5 6 
#
# 1 50.6923 -12.1840 19.2406 0.0000 -3.8748 0.0000
# 2 -12.1840 78.9467 40.0295 0.0000 1.9710 0.0000
# 3 19.2406 40.0295 257.6300 0.0000 -5.2563 0.0000
# 4 0.0000 0.0000 0.0000 41.8582 0.0000 2.1580
# 5 -3.8748 1.9710 -5.2563 0.0000 40.9199 0.0000
# 6 0.0000 0.0000 0.0000 2.1580 0.0000 54.6862
#
#
#
# Elastic Compliance Matrix: (Units=1/GPa)
#
#
# Indices 1 2 3 4 5 6 
#
# 1 0.021795 0.004488 -0.002293 0.000000 0.001553 0.000000
# 2 0.004488 0.014710 -0.002633 0.000000 -0.000622 0.000000
# 3 -0.002293 -0.002633 0.004472 0.000000 0.000484 0.000000
# 4 0.000000 0.000000 0.000000 0.023939 0.000000 -0.000945
# 5 0.001553 -0.000622 0.000484 0.000000 0.024677 0.000000
# 6 0.000000 0.000000 0.000000 -0.000945 0.000000 0.018323
#
#
# Mechanical properties :
#
#
# Convention : Reuss Voigt Hill
#
# Bulk Modulus (GPa) = 24.93859 53.49344 39.21602
# Shear Modulus (GPa) = 40.92977 50.17172 45.55074
#
# Velocity S-wave (km/s) = 3.92023 4.34032 4.13561
# Velocity P-wave (km/s) = 5.46396 6.72335 6.12610
#
# Compressibility (1/GPa) = 0.04009849
#
# Stress axis : x y z
#
# Youngs Moduli (GPa) = 45.88288 67.98020 223.62095
#
# Poissons Ratio (x) = -0.30507 0.51282
# Poissons Ratio (y) = -0.20591 0.58889
# Poissons Ratio (z) = 0.10522 0.17902
#
# Static dielectric constant tensor:
#      x y z
#    x 2.031240 0.000000 -0.010640 
#    y 0.000000 2.255450 0.000000 
#    z -0.010640 0.000000 2.060670 
# 
# From -- ./inp_files/750.got.cif
#   From: 2010.05.17/outbox.cif.g08.bks.cpg/sg4_1_cif.got.tgz:750.got - 2010.06.03 18:43:04.
