data_PCOD9116665
_publ_section_title
;
Structure prediction by ZEFSAII (Michael W. Deem and Ramdas Pophale) SiO2 
 PCOD9116665
Probable space group: P 21
;
_chemical_formula_sum "Si O2"
_cell_formula_units_Z 14
_cell_length_a 5.348300
_cell_length_b 7.901094
_cell_length_c 13.091035
_cell_angle_alpha 90.000000
_cell_angle_beta 91.762859
_cell_angle_gamma 90.000000
_cell_volume 552.931558
_symmetry_space_group_name_H-M "P 21"
_symmetry_group_IT_number 4
_symmetry_cell_setting 'monoclinic'
loop_
_space_group_symop_operation_xyz
x,y,z
-x,1/2+y,-z
loop_
_atom_site_type_symbol
_atom_site_label
_atom_site_fract_x
_atom_site_fract_y
_atom_site_fract_z
Si Si1 0.863453 0.081140 0.518689
Si Si2 0.995420 0.971770 0.178389
Si Si3 0.526072 0.353344 0.514812
Si Si4 0.031564 0.083126 0.740973
Si Si5 0.515410 0.403274 0.928446
Si Si6 0.794014 0.660587 0.627650
Si Si7 0.536752 0.016577 0.850523
O O1 0.618751 0.177695 0.562942
O O2 0.028330 0.061602 0.619730
O O3 0.967583 0.212074 0.437343
O O4 0.735532 0.933167 0.451338
O O5 0.984042 0.782498 0.228267
O O6 0.206722 0.972158 0.092495
O O7 0.713894 0.998289 0.132852
O O8 0.109434 0.101780 0.262573
O O9 0.719522 0.490194 0.562147
O O10 0.426976 0.292781 0.400449
O O11 0.785414 0.998914 0.786965
O O12 0.278327 0.996493 0.787930
O O13 0.523674 0.211486 0.888831
O O14 0.457264 0.406654 0.047208
#
# Coordination Sequence:
#
# PCOD9116665 Si02
#       7
#     2   2   2   2   2   2   2
#     4  11  23  40  62  91 130 168 210 259 309 374
#     4  10  22  39  66  88 121 166 205 245 318 382
#     4  10  24  38  62  88 130 166 214 254 314 360
#     4  10  22  39  66  88 121 166 205 245 318 382
#     4  10  22  42  64  89 118 157 204 258 314 373
#     4  11  23  40  62  91 130 168 210 259 309 374
#     4  10  22  42  64  89 118 157 204 258 314 373
#
# _framework density 25.319588
#
# number of rings (size 3 to 8) (size 9 to 14) (size 15 to 20)
#    0.000    1.714    1.429    1.714    8.000    0.000 
#    5.143    0.000    0.000    0.000    0.000    0.000 
#    0.000    0.000    0.000    0.000    0.000    0.000 
#
# Total GULP energy -78108.585779 kJ/mol
# GULP energy per Si atom -5579.184699 kJ/mol
# Density = 2.526196 g / cm^3
# Si number density = 25.319588 Si / 1000 Ang^3
#
#
#
# Elastic Constant Matrix: (Units=GPa)
#
#
# Indices 1 2 3 4 5 6 
#
# 1 123.9054 8.0920 28.1328 0.0000 11.0850 0.0000
# 2 8.0920 57.0196 0.3443 0.0000 9.0206 0.0000
# 3 28.1328 0.3443 80.3683 0.0000 4.7379 0.0000
# 4 0.0000 0.0000 0.0000 36.0788 0.0000 7.6825
# 5 11.0850 9.0206 4.7379 0.0000 46.7842 0.0000
# 6 0.0000 0.0000 0.0000 7.6825 0.0000 24.6645
#
#
#
# Elastic Compliance Matrix: (Units=1/GPa)
#
#
# Indices 1 2 3 4 5 6 
#
# 1 0.008972 -0.000998 -0.003040 0.000000 -0.001625 0.000000
# 2 -0.000998 0.018202 0.000467 0.000000 -0.003320 0.000000
# 3 -0.003040 0.000467 0.013549 0.000000 -0.000742 0.000000
# 4 0.000000 0.000000 0.000000 0.029686 0.000000 -0.009247
# 5 -0.001625 -0.003320 -0.000742 0.000000 0.022475 0.000000
# 6 0.000000 0.000000 0.000000 -0.009247 0.000000 0.043424
#
#
# Mechanical properties :
#
#
# Convention : Reuss Voigt Hill
#
# Bulk Modulus (GPa) = 29.77959 37.15906 33.46933
# Shear Modulus (GPa) = 32.33251 36.48712 34.40982
#
# Velocity S-wave (km/s) = 3.57736 3.80025 3.69049
# Velocity P-wave (km/s) = 5.37125 5.82784 5.60420
#
# Compressibility (1/GPa) = 0.03358004
#
# Stress axis : x y z
#
# Youngs Moduli (GPa) = 111.46321 54.93930 73.80767
#
# Poissons Ratio (x) = 0.05481 0.22440
# Poissons Ratio (y) = 0.11121 -0.03447
# Poissons Ratio (z) = 0.33889 -0.02566
#
# Static dielectric constant tensor:
#      x y z
#    x 2.106200 0.000000 -0.010600 
#    y 0.000000 2.147800 0.000000 
#    z -0.010600 0.000000 1.917870 
# 
# From -- ./inp_files/2423.got.cif
#   From: 2010.05.17/outbox.cif.g08.bks.cpg/sg4_2_cif.got.tgz:2423.got - 2010.06.03 18:43:04.
