data_PCOD9116995
_publ_section_title
;
Structure prediction by ZEFSAII (Michael W. Deem and Ramdas Pophale) SiO2 
 PCOD9116995
Probable space group: P 21
;
_chemical_formula_sum "Si O2"
_cell_formula_units_Z 16
_cell_length_a 7.061327
_cell_length_b 5.387119
_cell_length_c 25.012795
_cell_angle_alpha 90.000000
_cell_angle_beta 134.193257
_cell_angle_gamma 90.000000
_cell_volume 682.212732
_symmetry_space_group_name_H-M "P 21"
_symmetry_group_IT_number 4
_symmetry_cell_setting 'monoclinic'
loop_
_space_group_symop_operation_xyz
x,y,z
-x,1/2+y,-z
loop_
_atom_site_type_symbol
_atom_site_label
_atom_site_fract_x
_atom_site_fract_y
_atom_site_fract_z
Si Si1 0.784431 0.181480 0.903797
Si Si2 0.514429 0.868251 0.577668
Si Si3 0.755796 0.208209 0.775351
Si Si4 0.828812 0.232891 0.589025
Si Si5 0.346713 0.180917 0.056847
Si Si6 0.097356 0.628995 0.697927
Si Si7 0.083623 0.705936 0.818462
Si Si8 0.717335 0.436288 0.359024
O O1 0.688014 0.194804 0.824525
O O2 0.691091 0.425314 0.917511
O O3 0.695358 0.928041 0.915301
O O4 0.105148 0.184650 0.967643
O O5 0.340826 0.861524 0.490035
O O6 0.788344 0.714964 0.630707
O O7 0.353348 0.809647 0.598981
O O8 0.631550 0.144139 0.596172
O O9 0.893876 0.472137 0.792168
O O10 0.497322 0.152621 0.689745
O O11 0.945352 0.971525 0.799546
O O12 0.066070 0.355296 0.668806
O O13 0.982152 0.026667 0.584124
O O14 0.645843 0.188436 0.094795
O O15 0.165311 0.675058 0.772276
O O16 0.292585 0.765985 0.695639
#
# Coordination Sequence:
#
# PCOD9116995 Si02
#       8
#     2   2   2   2   2   2   2   2
#     4  10  22  42  69 100 137 176 228 277 335 400
#     4  11  23  46  61  96 131 164 231 276 348 403
#     4  12  26  44  67 100 138 179 226 286 327 409
#     4  11  25  40  68  91 128 176 215 291 339 409
#     4  10  22  42  69 100 136 180 223 279 335 403
#     4  11  25  44  67  91 131 177 219 284 342 402
#     4  12  26  43  69  97 139 180 225 282 339 396
#     4  11  27  41  66  97 128 176 229 277 343 408
#
# _framework density 23.453095999999999
#
# number of rings (size 3 to 8) (size 9 to 14) (size 15 to 20)
#    0.000    1.000    2.500    3.000    7.000    2.000 
#    0.000    0.000    0.000    0.000    0.000    0.000 
#    0.000    0.000    0.000    0.000    0.000    0.000 
#
# Total GULP energy -89367.187109 kJ/mol
# GULP energy per Si atom -5585.449194 kJ/mol
# Density = 2.339972 g / cm^3
# Si number density = 23.453096 Si / 1000 Ang^3
#
#
#
# Elastic Constant Matrix: (Units=GPa)
#
#
# Indices 1 2 3 4 5 6 
#
# 1 68.2451 17.8273 -3.9763 0.0000 -4.4824 0.0000
# 2 17.8273 88.5048 -1.1754 0.0000 0.6685 0.0000
# 3 -3.9763 -1.1754 55.6761 0.0000 2.3460 0.0000
# 4 0.0000 0.0000 0.0000 28.2673 0.0000 4.8510
# 5 -4.4824 0.6685 2.3460 0.0000 38.1010 0.0000
# 6 0.0000 0.0000 0.0000 4.8510 0.0000 34.9810
#
#
#
# Elastic Compliance Matrix: (Units=1/GPa)
#
#
# Indices 1 2 3 4 5 6 
#
# 1 0.015654 -0.003154 0.000974 0.000000 0.001837 0.000000
# 2 -0.003154 0.011939 0.000051 0.000000 -0.000584 0.000000
# 3 0.000974 0.000051 0.018074 0.000000 -0.000999 0.000000
# 4 0.000000 0.000000 0.000000 0.036239 0.000000 -0.005025
# 5 0.001837 -0.000584 -0.000999 0.000000 0.026534 0.000000
# 6 0.000000 0.000000 0.000000 -0.005025 0.000000 0.029284
#
#
# Mechanical properties :
#
#
# Convention : Reuss Voigt Hill
#
# Bulk Modulus (GPa) = 24.14881 26.41970 25.28425
# Shear Modulus (GPa) = 32.09548 33.58653 32.84101
#
# Velocity S-wave (km/s) = 3.70333 3.78838 3.74610
# Velocity P-wave (km/s) = 5.34839 5.51590 5.43279
#
# Compressibility (1/GPa) = 0.04140991
#
# Stress axis : x y z
#
# Youngs Moduli (GPa) = 63.87968 83.75734 55.32874
#
# Poissons Ratio (x) = 0.26419 -0.05389
# Poissons Ratio (y) = 0.20149 -0.00284
# Poissons Ratio (z) = -0.06222 -0.00430
#
# Static dielectric constant tensor:
#      x y z
#    x 1.848540 0.000000 0.035530 
#    y 0.000000 2.061210 0.000000 
#    z 0.035530 0.000000 1.854390 
# 
# From -- ./inp_files/4010.got.cif
#   From: 2010.05.17/outbox.cif.g08.bks.cpg/sg4_3_cif.got.tgz:4010.got - 2010.06.03 18:43:04.
