data_PCOD9116282
_publ_section_title
;
Structure prediction by ZEFSAII (Michael W. Deem and Ramdas Pophale) SiO2 
 PCOD9116282
Probable space group: P 21
;
_chemical_formula_sum "Si O2"
_cell_formula_units_Z 16
_cell_length_a 12.393867
_cell_length_b 9.330063
_cell_length_c 16.035243
_cell_angle_alpha 90.000000
_cell_angle_beta 25.627822
_cell_angle_gamma 90.000000
_cell_volume 802.004448
_symmetry_space_group_name_H-M "P 21"
_symmetry_group_IT_number 4
_symmetry_cell_setting 'monoclinic'
loop_
_space_group_symop_operation_xyz
x,y,z
-x,1/2+y,-z
loop_
_atom_site_type_symbol
_atom_site_label
_atom_site_fract_x
_atom_site_fract_y
_atom_site_fract_z
Si Si1 0.430331 0.165020 0.025691
Si Si2 0.226624 0.488255 0.793669
Si Si3 0.264785 0.361865 0.583538
Si Si4 0.170732 0.831132 0.815155
Si Si5 0.742914 0.566798 0.498261
Si Si6 0.871198 0.897742 0.859558
Si Si7 0.738179 0.371530 0.902474
Si Si8 0.480382 0.144878 0.174171
O O1 0.262359 0.256585 0.081016
O O2 0.330539 0.152073 0.190953
O O3 0.444567 0.004683 0.982827
O O4 0.681070 0.255996 0.869434
O O5 0.236583 0.415445 0.696846
O O6 0.174633 0.659048 0.824188
O O7 0.497168 0.476165 0.647622
O O8 0.021088 0.408338 0.990649
O O9 0.551390 0.390572 0.360741
O O10 0.235767 0.192087 0.586080
O O11 0.022627 0.422907 0.704730
O O12 0.074027 0.864661 0.789359
O O13 0.685008 0.635505 0.628463
O O14 0.986675 0.472281 0.316507
O O15 0.663811 0.008021 0.039029
O O16 0.660371 0.284540 0.040284
#
# Coordination Sequence:
#
# PCOD9116282 Si02
#       8
#     2   2   2   2   2   2   2   2
#     4  10  21  42  72  94 133 174 221 277 329 387
#     4  11  25  42  66 100 133 174 220 269 326 399
#     4  11  24  40  66  97 135 171 219 268 328 393
#     4  11  26  41  70  98 134 176 218 271 335 392
#     4  11  23  41  69  96 133 177 217 269 336 388
#     4  12  21  45  66  95 134 173 218 277 326 396
#     4  10  21  41  70  96 128 176 220 269 332 385
#     4  10  21  42  67  94 126 177 217 264 332 388
#
# _framework density 19.950013999999999
#
# number of rings (size 3 to 8) (size 9 to 14) (size 15 to 20)
#    0.750    0.500    5.000    0.750    5.250    0.000 
#    4.500    0.000    0.000    0.000    0.000    0.000 
#    0.000    0.000    0.000    0.000    0.000    0.000 
#
# Total GULP energy -89189.169606 kJ/mol
# GULP energy per Si atom -5574.323100 kJ/mol
# Density = 1.990461 g / cm^3
# Si number density = 19.950014 Si / 1000 Ang^3
#
#
#
# Elastic Constant Matrix: (Units=GPa)
#
#
# Indices 1 2 3 4 5 6 
#
# 1 47.2688 25.5311 23.5108 0.0000 -2.3889 0.0000
# 2 25.5311 83.0633 33.0030 0.0000 14.8148 0.0000
# 3 23.5108 33.0030 90.5855 0.0000 14.2553 0.0000
# 4 0.0000 0.0000 0.0000 26.7792 0.0000 -0.1652
# 5 -2.3889 14.8148 14.2553 0.0000 22.1126 0.0000
# 6 0.0000 0.0000 0.0000 -0.1652 0.0000 28.4413
#
#
#
# Elastic Compliance Matrix: (Units=1/GPa)
#
#
# Indices 1 2 3 4 5 6 
#
# 1 0.030006 -0.009002 -0.006641 0.000000 0.013554 0.000000
# 2 -0.009002 0.017765 -0.002348 0.000000 -0.011361 0.000000
# 3 -0.006641 -0.002348 0.015006 0.000000 -0.008818 0.000000
# 4 0.000000 0.000000 0.000000 0.037344 0.000000 0.000217
# 5 0.013554 -0.011361 -0.008818 0.000000 0.059984 0.000000
# 6 0.000000 0.000000 0.000000 0.000217 0.000000 0.035161
#
#
# Mechanical properties :
#
#
# Convention : Reuss Voigt Hill
#
# Bulk Modulus (GPa) = 37.32022 42.77861 40.04942
# Shear Modulus (GPa) = 20.81777 24.72481 22.77129
#
# Velocity S-wave (km/s) = 3.23382 3.52424 3.38215
# Velocity P-wave (km/s) = 5.71760 6.16845 5.94730
#
# Compressibility (1/GPa) = 0.02679512
#
# Stress axis : x y z
#
# Youngs Moduli (GPa) = 33.32692 56.29025 66.63909
#
# Poissons Ratio (x) = 0.50670 0.44256
# Poissons Ratio (y) = 0.29999 0.15649
# Poissons Ratio (z) = 0.22133 0.13218
#
# Static dielectric constant tensor:
#      x y z
#    x 1.739880 0.000000 -0.029480 
#    y 0.000000 1.707870 0.000000 
#    z -0.029480 0.000000 1.707690 
# 
# From -- ./inp_files/15226.got.cif
#   From: 2010.05.17/outbox.cif.g08.bks.cpg/sg4_8_cif.got.tgz:15226.got - 2010.06.03 18:43:04.
