data_PCOD9116171
_publ_section_title
;
Structure prediction by ZEFSAII (Michael W. Deem and Ramdas Pophale) SiO2 
 PCOD9116171
Probable space group: P 21
;
_chemical_formula_sum "Si O2"
_cell_formula_units_Z 10
_cell_length_a 6.938785
_cell_length_b 7.860290
_cell_length_c 9.348969
_cell_angle_alpha 90.000000
_cell_angle_beta 131.466057
_cell_angle_gamma 90.000000
_cell_volume 382.093238
_symmetry_space_group_name_H-M "P 21"
_symmetry_group_IT_number 4
_symmetry_cell_setting 'monoclinic'
loop_
_space_group_symop_operation_xyz
x,y,z
-x,1/2+y,-z
loop_
_atom_site_type_symbol
_atom_site_label
_atom_site_fract_x
_atom_site_fract_y
_atom_site_fract_z
Si Si1 0.527537 0.937960 0.560729
Si Si2 0.041677 0.211919 0.116320
Si Si3 0.444665 0.637242 0.699235
Si Si4 0.529797 0.660598 0.203971
Si Si5 0.765537 0.955362 0.150872
O O1 0.363397 0.786097 0.550603
O O2 0.817557 0.868120 0.736316
O O3 0.535430 0.980700 0.399691
O O4 0.443834 0.094871 0.621411
O O5 0.261634 0.177493 0.106409
O O6 0.007773 0.030185 0.183188
O O7 0.750833 0.251037 0.936891
O O8 0.266253 0.598096 0.741641
O O9 0.728869 0.780998 0.219219
O O10 0.470271 0.492983 0.076075
#
# Coordination Sequence:
#
# PCOD9116171 Si02
#       5
#     2   2   2   2   2
#     4  10  21  42  65  97 133 170 223 268 332 383
#     4   8  24  38  63  92 133 170 218 263 338 378
#     4  10  21  41  65  89 140 169 222 267 327 400
#     4  10  21  40  69  95 132 173 219 279 314 407
#     4  10  21  41  64  97 130 172 224 267 331 386
#
# _framework density 26.171619
#
# number of rings (size 3 to 8) (size 9 to 14) (size 15 to 20)
#    2.400    0.000    0.000    2.400    2.800    0.000 
#    3.600    2.000    0.000    0.000    0.000    0.000 
#    0.000    0.000    0.000    0.000    0.000    0.000 
#
# Total GULP energy -55685.567730 kJ/mol
# GULP energy per Si atom -5568.556773 kJ/mol
# Density = 2.611205 g / cm^3
# Si number density = 26.171619 Si / 1000 Ang^3
#
#
#
# Elastic Constant Matrix: (Units=GPa)
#
#
# Indices 1 2 3 4 5 6 
#
# 1 86.7278 32.5167 -2.1074 0.0000 -2.2205 0.0000
# 2 32.5167 106.4914 -1.3310 0.0000 3.8669 0.0000
# 3 -2.1074 -1.3310 51.9709 0.0000 -6.6993 0.0000
# 4 0.0000 0.0000 0.0000 36.5458 0.0000 -11.6857
# 5 -2.2205 3.8669 -6.6993 0.0000 37.5400 0.0000
# 6 0.0000 0.0000 0.0000 -11.6857 0.0000 53.7392
#
#
#
# Elastic Compliance Matrix: (Units=1/GPa)
#
#
# Indices 1 2 3 4 5 6 
#
# 1 0.013092 -0.004037 0.000595 0.000000 0.001296 0.000000
# 2 -0.004037 0.010671 -0.000064 0.000000 -0.001350 0.000000
# 3 0.000595 -0.000064 0.019723 0.000000 0.003562 0.000000
# 4 0.000000 0.000000 0.000000 0.029408 0.000000 0.006395
# 5 0.001296 -0.001350 0.003562 0.000000 0.027489 0.000000
# 6 0.000000 0.000000 0.000000 0.006395 0.000000 0.019999
#
#
# Mechanical properties :
#
#
# Convention : Reuss Voigt Hill
#
# Bulk Modulus (GPa) = 27.41814 33.70521 30.56167
# Shear Modulus (GPa) = 35.82861 39.97247 37.90054
#
# Velocity S-wave (km/s) = 3.70400 3.91234 3.80959
# Velocity P-wave (km/s) = 5.36580 5.77191 5.57256
#
# Compressibility (1/GPa) = 0.03647220
#
# Stress axis : x y z
#
# Youngs Moduli (GPa) = 76.38493 93.70898 50.70202
#
# Poissons Ratio (x) = 0.37831 -0.03015
# Poissons Ratio (y) = 0.30837 0.00326
# Poissons Ratio (z) = -0.04542 0.00603
#
# Static dielectric constant tensor:
#      x y z
#    x 1.924210 0.000000 0.027830 
#    y 0.000000 2.238880 0.000000 
#    z 0.027830 0.000000 2.092410 
# 
# From -- ./inp_files/987.got.cif
#   From: 2010.05.17/outbox.cif.g08.bks.cpg/sg4_1_cif.got.tgz:987.got - 2010.06.03 18:43:04.
