data_PCOD9116478
_publ_section_title
;
Structure prediction by ZEFSAII (Michael W. Deem and Ramdas Pophale) SiO2 
 PCOD9116478
Probable space group: P 21
;
_chemical_formula_sum "Si O2"
_cell_formula_units_Z 14
_cell_length_a 8.304158
_cell_length_b 11.119739
_cell_length_c 10.583133
_cell_angle_alpha 90.000000
_cell_angle_beta 39.396817
_cell_angle_gamma 90.000000
_cell_volume 620.246688
_symmetry_space_group_name_H-M "P 21"
_symmetry_group_IT_number 4
_symmetry_cell_setting 'monoclinic'
loop_
_space_group_symop_operation_xyz
x,y,z
-x,1/2+y,-z
loop_
_atom_site_type_symbol
_atom_site_label
_atom_site_fract_x
_atom_site_fract_y
_atom_site_fract_z
Si Si1 0.723538 0.721680 0.057304
Si Si2 0.603695 0.621842 0.402987
Si Si3 0.906504 0.040172 0.185014
Si Si4 0.679315 0.087821 0.043256
Si Si5 0.935933 0.410486 0.277671
Si Si6 0.735595 0.396800 0.679771
Si Si7 0.993124 0.796322 0.252711
O O1 0.818574 0.594016 0.946641
O O2 0.670764 0.687569 0.233335
O O3 0.960132 0.806126 0.875595
O O4 0.480606 0.796310 0.163234
O O5 0.308687 0.605251 0.602559
O O6 0.760482 0.702293 0.408511
O O7 0.717664 0.488057 0.342930
O O8 0.817250 0.066955 0.095452
O O9 0.838688 0.378294 0.475518
O O10 0.826795 0.001793 0.855284
O O11 0.401576 0.027969 0.226186
O O12 0.763795 0.220492 0.947358
O O13 0.087615 0.399114 0.796215
O O14 0.944328 0.367841 0.657645
#
# Coordination Sequence:
#
# PCOD9116478 Si02
#       7
#     2   2   2   2   2   2   2
#     4  11  24  43  71 103 137 185 236 295 351 418
#     4  11  24  44  72 103 135 187 245 296 347 417
#     4  12  24  44  73 104 139 185 243 296 351 415
#     4  10  23  45  72 102 145 178 244 295 348 427
#     4  10  21  44  70  96 145 180 228 298 355 411
#     4  11  24  47  70 102 152 186 229 296 367 427
#     4  11  26  47  70 108 143 189 237 288 371 421
#
# _framework density 22.571664999999999
#
# number of rings (size 3 to 8) (size 9 to 14) (size 15 to 20)
#    0.000    1.143    4.286    2.571    4.000    0.000 
#   15.429    0.000    0.000    0.000    0.000    0.000 
#    0.000    0.000    0.000    0.000    0.000    0.000 
#
# Total GULP energy -78103.661677 kJ/mol
# GULP energy per Si atom -5578.832977 kJ/mol
# Density = 2.252029 g / cm^3
# Si number density = 22.571665 Si / 1000 Ang^3
#
#
#
# Elastic Constant Matrix: (Units=GPa)
#
#
# Indices 1 2 3 4 5 6 
#
# 1 44.2855 16.9441 36.4926 0.0000 12.5147 0.0000
# 2 16.9441 97.1690 50.5168 0.0000 6.7520 0.0000
# 3 36.4926 50.5168 131.6161 0.0000 -4.0586 0.0000
# 4 0.0000 0.0000 0.0000 37.8032 0.0000 -3.9911
# 5 12.5147 6.7520 -4.0586 0.0000 24.5262 0.0000
# 6 0.0000 0.0000 0.0000 -3.9911 0.0000 28.7911
#
#
#
# Elastic Compliance Matrix: (Units=1/GPa)
#
#
# Indices 1 2 3 4 5 6 
#
# 1 0.037730 0.000860 -0.011451 0.000000 -0.021384 0.000000
# 2 0.000860 0.013362 -0.005522 0.000000 -0.005031 0.000000
# 3 -0.011451 -0.005522 0.013187 0.000000 0.009545 0.000000
# 4 0.000000 0.000000 0.000000 0.026846 0.000000 0.003721
# 5 -0.021384 -0.005031 0.009545 0.000000 0.054649 0.000000
# 6 0.000000 0.000000 0.000000 0.003721 0.000000 0.035249
#
#
# Mechanical properties :
#
#
# Convention : Reuss Voigt Hill
#
# Bulk Modulus (GPa) = 31.19869 53.44195 42.32032
# Shear Modulus (GPa) = 22.32819 29.49858 25.91338
#
# Velocity S-wave (km/s) = 3.14859 3.61901 3.39196
# Velocity P-wave (km/s) = 5.20290 6.41802 5.84214
#
# Compressibility (1/GPa) = 0.03205263
#
# Stress axis : x y z
#
# Youngs Moduli (GPa) = 26.50381 74.83997 75.83506
#
# Poissons Ratio (x) = -0.06433 0.86836
# Poissons Ratio (y) = -0.02278 0.41876
# Poissons Ratio (z) = 0.30349 0.41327
#
# Static dielectric constant tensor:
#      x y z
#    x 1.854530 0.000000 -0.016380 
#    y 0.000000 1.856500 0.000000 
#    z -0.016380 0.000000 1.847100 
# 
# From -- ./inp_files/6367.got.cif
#   From: 2010.05.17/outbox.cif.g08.bks.cpg/sg4_4_cif.got.tgz:6367.got - 2010.06.03 18:43:04.
