data_PCOD9116058
_publ_section_title
;
Structure prediction by ZEFSAII (Michael W. Deem and Ramdas Pophale) SiO2 
 PCOD9116058
Probable space group: P 21
;
_chemical_formula_sum "Si O2"
_cell_formula_units_Z 16
_cell_length_a 13.342648
_cell_length_b 7.439480
_cell_length_c 16.245204
_cell_angle_alpha 90.000000
_cell_angle_beta 156.395639
_cell_angle_gamma 90.000000
_cell_volume 645.690231
_symmetry_space_group_name_H-M "P 21"
_symmetry_group_IT_number 4
_symmetry_cell_setting 'monoclinic'
loop_
_space_group_symop_operation_xyz
x,y,z
-x,1/2+y,-z
loop_
_atom_site_type_symbol
_atom_site_label
_atom_site_fract_x
_atom_site_fract_y
_atom_site_fract_z
Si Si1 0.479208 0.566340 0.300825
Si Si2 0.591567 0.599260 0.744441
Si Si3 0.180641 0.784625 0.346820
Si Si4 0.322878 0.973148 0.859583
Si Si5 0.913228 0.291293 0.915740
Si Si6 0.399427 0.314347 0.090947
Si Si7 0.090275 0.225434 0.449675
Si Si8 0.176468 0.372820 0.694023
O O1 0.670583 0.444598 0.496928
O O2 0.231638 0.615106 0.162577
O O3 0.405193 0.483526 0.157271
O O4 0.657028 0.733907 0.410984
O O5 0.346591 0.615482 0.502742
O O6 0.778447 0.433920 0.873501
O O7 0.522850 0.655351 0.786617
O O8 0.791516 0.752391 0.863169
O O9 0.172482 0.817461 0.243126
O O10 0.887972 0.777768 0.150767
O O11 0.431200 0.877791 0.857775
O O12 0.134661 0.833747 0.760603
O O13 0.212849 0.170320 0.757578
O O14 0.564739 0.979345 0.099399
O O15 0.117372 0.331472 0.555489
O O16 0.019724 0.016354 0.415603
#
# Coordination Sequence:
#
# PCOD9116058 Si02
#       8
#     2   2   2   2   2   2   2   2
#     4  11  23  42  68  95 136 175 223 279 345 411
#     4  10  22  40  64  95 128 173 221 276 346 409
#     4  10  21  39  67  94 127 171 217 277 339 403
#     4  12  25  45  70 103 143 189 240 297 353 422
#     4  11  22  41  65  95 131 171 223 278 340 412
#     4  10  22  43  64  94 135 173 218 285 341 401
#     4  12  25  44  70 105 143 193 238 291 357 425
#     4  12  24  44  72  99 143 189 240 293 357 415
#
# _framework density 24.779685000000001
#
# number of rings (size 3 to 8) (size 9 to 14) (size 15 to 20)
#    0.000    1.000    3.750    3.750    0.000    3.000 
#    6.750    0.000    0.000    0.000    0.000    0.000 
#    0.000    0.000    0.000    0.000    0.000    0.000 
#
# Total GULP energy -89417.925786 kJ/mol
# GULP energy per Si atom -5588.620362 kJ/mol
# Density = 2.472329 g / cm^3
# Si number density = 24.779685 Si / 1000 Ang^3
#
#
#
# Elastic Constant Matrix: (Units=GPa)
#
#
# Indices 1 2 3 4 5 6 
#
# 1 90.4809 -0.0521 17.3762 0.0000 14.2281 0.0000
# 2 -0.0521 92.7540 -10.0329 0.0000 7.3981 0.0000
# 3 17.3762 -10.0329 129.2986 0.0000 14.2793 0.0000
# 4 0.0000 0.0000 0.0000 39.0388 0.0000 6.4985
# 5 14.2281 7.3981 14.2793 0.0000 37.3897 0.0000
# 6 0.0000 0.0000 0.0000 6.4985 0.0000 34.6089
#
#
#
# Elastic Compliance Matrix: (Units=1/GPa)
#
#
# Indices 1 2 3 4 5 6 
#
# 1 0.011921 0.000216 -0.001127 0.000000 -0.004149 0.000000
# 2 0.000216 0.011121 0.001134 0.000000 -0.002715 0.000000
# 3 -0.001127 0.001134 0.008301 0.000000 -0.002966 0.000000
# 4 0.000000 0.000000 0.000000 0.026442 0.000000 -0.004965
# 5 -0.004149 -0.002715 -0.002966 0.000000 0.029994 0.000000
# 6 0.000000 0.000000 0.000000 -0.004965 0.000000 0.029827
#
#
# Mechanical properties :
#
#
# Convention : Reuss Voigt Hill
#
# Bulk Modulus (GPa) = 31.45923 36.34622 33.90273
# Shear Modulus (GPa) = 39.13707 42.55697 40.84702
#
# Velocity S-wave (km/s) = 3.97848 4.14866 4.06446
# Velocity P-wave (km/s) = 5.81614 6.13581 5.97811
#
# Compressibility (1/GPa) = 0.03178717
#
# Stress axis : x y z
#
# Youngs Moduli (GPa) = 83.88555 89.92362 120.46741
#
# Poissons Ratio (x) = -0.01939 0.13578
# Poissons Ratio (y) = -0.01809 -0.13659
# Poissons Ratio (z) = 0.09455 -0.10195
#
# Static dielectric constant tensor:
#      x y z
#    x 1.924180 0.000000 -0.000030 
#    y 0.000000 2.161220 0.000000 
#    z -0.000030 0.000000 1.971060 
# 
# From -- ./inp_files/4080.got.cif
#   From: 2010.05.17/outbox.cif.g08.bks.cpg/sg4_3_cif.got.tgz:4080.got - 2010.06.03 18:43:04.
