data_PCOD9116706
_publ_section_title
;
Structure prediction by ZEFSAII (Michael W. Deem and Ramdas Pophale) SiO2 
 PCOD9116706
Probable space group: P 21
;
_chemical_formula_sum "Si O2"
_cell_formula_units_Z 14
_cell_length_a 10.822766
_cell_length_b 6.941397
_cell_length_c 12.779952
_cell_angle_alpha 90.000000
_cell_angle_beta 143.077231
_cell_angle_gamma 90.000000
_cell_volume 576.765741
_symmetry_space_group_name_H-M "P 21"
_symmetry_group_IT_number 4
_symmetry_cell_setting 'monoclinic'
loop_
_space_group_symop_operation_xyz
x,y,z
-x,1/2+y,-z
loop_
_atom_site_type_symbol
_atom_site_label
_atom_site_fract_x
_atom_site_fract_y
_atom_site_fract_z
Si Si1 0.695404 0.135380 0.055714
Si Si2 0.138280 0.081721 0.383903
Si Si3 0.157543 0.082182 0.857060
Si Si4 0.756920 0.945191 0.683624
Si Si5 0.543180 0.230941 0.401864
Si Si6 0.767414 0.574937 0.321834
Si Si7 0.587590 0.165115 0.206856
O O1 0.752097 0.363311 0.088943
O O2 0.649479 0.057898 0.142715
O O3 0.916575 0.041938 0.181367
O O4 0.476305 0.129335 0.848745
O O5 0.221315 0.268729 0.381705
O O6 0.127742 0.136589 0.499862
O O7 0.285343 0.897837 0.478299
O O8 0.969182 0.062504 0.810107
O O9 0.116476 0.130311 0.706827
O O10 0.348237 0.212629 0.022116
O O11 0.673673 0.843945 0.732751
O O12 0.582647 0.089558 0.524724
O O13 0.576633 0.104760 0.319806
O O14 0.739183 0.345639 0.308339
#
# Coordination Sequence:
#
# PCOD9116706 Si02
#       7
#     2   2   2   2   2   2   2
#     4   9  19  37  61  91 129 154 190 257 318 368
#     4  10  22  40  62  94 122 158 208 252 312 374
#     4   9  20  38  58  92 120 155 203 251 309 376
#     4  11  23  41  62  86 120 166 212 256 300 360
#     4  11  23  41  62  86 120 166 212 256 300 360
#     4   9  19  37  61  91 129 154 190 257 318 368
#     4   9  20  38  58  92 120 155 203 251 309 376
#
# _framework density 24.273287
#
# number of rings (size 3 to 8) (size 9 to 14) (size 15 to 20)
#    0.000    2.286    1.429    0.000    6.000    0.000 
#    0.000    7.143    0.000    0.000    0.000    0.000 
#    0.000    0.000    0.000    0.000    0.000    0.000 
#
# Total GULP energy -78022.495397 kJ/mol
# GULP energy per Si atom -5573.035386 kJ/mol
# Density = 2.421804 g / cm^3
# Si number density = 24.273287 Si / 1000 Ang^3
#
#
#
# Elastic Constant Matrix: (Units=GPa)
#
#
# Indices 1 2 3 4 5 6 
#
# 1 54.2197 16.9610 30.9160 0.0000 28.7788 0.0000
# 2 16.9610 38.1334 20.7818 0.0000 8.3682 0.0000
# 3 30.9160 20.7818 80.1886 0.0000 22.2000 0.0000
# 4 0.0000 0.0000 0.0000 31.3268 0.0000 9.9655
# 5 28.7788 8.3682 22.2000 0.0000 36.4600 0.0000
# 6 0.0000 0.0000 0.0000 9.9655 0.0000 29.3224
#
#
#
# Elastic Compliance Matrix: (Units=1/GPa)
#
#
# Indices 1 2 3 4 5 6 
#
# 1 0.036741 -0.008139 -0.005466 0.000000 -0.023805 0.000000
# 2 -0.008139 0.032552 -0.006024 0.000000 0.002621 0.000000
# 3 -0.005466 -0.006024 0.017514 0.000000 -0.004967 0.000000
# 4 0.000000 0.000000 0.000000 0.035791 0.000000 -0.012164
# 5 -0.023805 0.002621 -0.004967 0.000000 0.048640 0.000000
# 6 0.000000 0.000000 0.000000 -0.012164 0.000000 0.038238
#
#
# Mechanical properties :
#
#
# Convention : Reuss Voigt Hill
#
# Bulk Modulus (GPa) = 21.03067 34.42881 27.72974
# Shear Modulus (GPa) = 18.89770 26.34737 22.62254
#
# Velocity S-wave (km/s) = 2.79326 3.29819 3.05617
# Velocity P-wave (km/s) = 4.36875 5.35898 4.88900
#
# Compressibility (1/GPa) = 0.04754960
#
# Stress axis : x y z
#
# Youngs Moduli (GPa) = 27.21743 30.72051 57.09677
#
# Poissons Ratio (x) = 0.25005 0.31207
# Poissons Ratio (y) = 0.22153 0.34393
# Poissons Ratio (z) = 0.14876 0.18505
#
# Static dielectric constant tensor:
#      x y z
#    x 1.996530 0.000000 0.008060 
#    y 0.000000 2.045340 0.000000 
#    z 0.008060 0.000000 1.969890 
# 
# From -- ./inp_files/5792.got.cif
#   From: 2010.05.17/outbox.cif.g08.bks.cpg/sg4_3_cif.got.tgz:5792.got - 2010.06.03 18:43:04.
