data_PCOD9116550
_publ_section_title
;
Structure prediction by ZEFSAII (Michael W. Deem and Ramdas Pophale) SiO2 
 PCOD9116550
Probable space group: P 21
;
_chemical_formula_sum "Si O2"
_cell_formula_units_Z 16
_cell_length_a 12.436169
_cell_length_b 11.273278
_cell_length_c 5.101898
_cell_angle_alpha 90.000000
_cell_angle_beta 68.958260
_cell_angle_gamma 90.000000
_cell_volume 667.572996
_symmetry_space_group_name_H-M "P 21"
_symmetry_group_IT_number 4
_symmetry_cell_setting 'monoclinic'
loop_
_space_group_symop_operation_xyz
x,y,z
-x,1/2+y,-z
loop_
_atom_site_type_symbol
_atom_site_label
_atom_site_fract_x
_atom_site_fract_y
_atom_site_fract_z
Si Si1 0.213501 0.237920 0.596892
Si Si2 0.580846 0.837129 0.828153
Si Si3 0.598863 0.635136 0.190496
Si Si4 0.778454 0.122758 0.066250
Si Si5 0.815684 0.254172 0.526095
Si Si6 0.982805 0.649287 0.931991
Si Si7 0.562555 0.978717 0.349478
Si Si8 0.201842 0.012891 0.226283
O O1 0.279552 0.328230 0.345927
O O2 0.305360 0.216078 0.748761
O O3 0.202784 0.115896 0.443768
O O4 0.090341 0.247197 0.843227
O O5 0.535107 0.877368 0.587137
O O6 0.550232 0.712239 0.991965
O O7 0.542591 0.933234 0.075158
O O8 0.508880 0.589733 0.480853
O O9 0.675366 0.526211 0.021153
O O10 0.760627 0.230454 0.289788
O O11 0.695878 0.018074 0.227599
O O12 0.913904 0.094815 0.985753
O O13 0.758974 0.168167 0.791007
O O14 0.812255 0.386268 0.632272
O O15 0.947506 0.212599 0.363246
O O16 0.897334 0.550934 0.891197
#
# Coordination Sequence:
#
# PCOD9116550 Si02
#       8
#     2   2   2   2   2   2   2   2
#     4  10  21  48  64 103 135 175 231 278 322 424
#     4  11  25  46  69 103 132 186 223 274 348 390
#     4  10  25  44  72  99 141 172 234 277 326 420
#     4  10  24  46  60 101 139 165 229 276 332 406
#     4  10  23  44  65 101 133 181 216 283 342 391
#     4   9  22  42  67  95 140 172 227 277 332 403
#     4  12  26  46  71 102 138 180 222 283 344 394
#     4  10  22  42  70  98 134 179 226 274 342 398
#
# _framework density 23.967414999999999
#
# number of rings (size 3 to 8) (size 9 to 14) (size 15 to 20)
#    0.750    1.000    1.250    1.500    7.000    2.000 
#   13.500    0.000    0.000    0.000    0.000    0.000 
#    0.000    0.000    0.000    0.000    0.000    0.000 
#
# Total GULP energy -89349.440771 kJ/mol
# GULP energy per Si atom -5584.340048 kJ/mol
# Density = 2.391286 g / cm^3
# Si number density = 23.967415 Si / 1000 Ang^3
#
#
#
# Elastic Constant Matrix: (Units=GPa)
#
#
# Indices 1 2 3 4 5 6 
#
# 1 54.3538 6.6105 27.7435 0.0000 -9.1296 0.0000
# 2 6.6105 45.6141 23.7801 0.0000 -23.7760 0.0000
# 3 27.7435 23.7801 157.6257 0.0000 -12.4475 0.0000
# 4 0.0000 0.0000 0.0000 39.5212 0.0000 -2.7099
# 5 -9.1296 -23.7760 -12.4475 0.0000 27.1709 0.0000
# 6 0.0000 0.0000 0.0000 -2.7099 0.0000 22.7879
#
#
#
# Elastic Compliance Matrix: (Units=1/GPa)
#
#
# Indices 1 2 3 4 5 6 
#
# 1 0.021208 0.003020 -0.003545 0.000000 0.008145 0.000000
# 2 0.003020 0.042597 -0.004082 0.000000 0.036419 0.000000
# 3 -0.003545 -0.004082 0.007478 0.000000 -0.001337 0.000000
# 4 0.000000 0.000000 0.000000 0.025511 0.000000 0.003034
# 5 0.008145 0.036419 -0.001337 0.000000 0.070797 0.000000
# 6 0.000000 0.000000 0.000000 0.003034 0.000000 0.044244
#
#
# Mechanical properties :
#
#
# Convention : Reuss Voigt Hill
#
# Bulk Modulus (GPa) = 16.11109 41.54019 28.82564
# Shear Modulus (GPa) = 20.68350 31.19330 25.93840
#
# Velocity S-wave (km/s) = 2.94085 3.61153 3.29330
# Velocity P-wave (km/s) = 4.27412 5.89580 5.14920
#
# Compressibility (1/GPa) = 0.06206904
#
# Stress axis : x y z
#
# Youngs Moduli (GPa) = 47.15129 23.47609 133.71913
#
# Poissons Ratio (x) = -0.07090 0.47407
# Poissons Ratio (y) = -0.14240 0.54583
# Poissons Ratio (z) = 0.16716 0.09583
#
# Static dielectric constant tensor:
#      x y z
#    x 1.950920 0.000000 0.001360 
#    y 0.000000 1.931870 0.000000 
#    z 0.001360 0.000000 1.947100 
# 
# From -- ./inp_files/3750.got.cif
#   From: 2010.05.17/outbox.cif.g08.bks.cpg/sg4_2_cif.got.tgz:3750.got - 2010.06.03 18:43:04.
