data_PCOD9116141
_publ_section_title
;
Structure prediction by ZEFSAII (Michael W. Deem and Ramdas Pophale) SiO2 
 PCOD9116141
Probable space group: P 21
;
_chemical_formula_sum "Si O2"
_cell_formula_units_Z 16
_cell_length_a 9.225486
_cell_length_b 11.044684
_cell_length_c 11.012300
_cell_angle_alpha 90.000000
_cell_angle_beta 142.791554
_cell_angle_gamma 90.000000
_cell_volume 678.535259
_symmetry_space_group_name_H-M "P 21"
_symmetry_group_IT_number 4
_symmetry_cell_setting 'monoclinic'
loop_
_space_group_symop_operation_xyz
x,y,z
-x,1/2+y,-z
loop_
_atom_site_type_symbol
_atom_site_label
_atom_site_fract_x
_atom_site_fract_y
_atom_site_fract_z
Si Si1 0.727854 0.156180 0.314915
Si Si2 0.075192 0.106622 0.344793
Si Si3 0.154280 0.743508 0.234591
Si Si4 0.087784 0.511193 0.340808
Si Si5 0.451202 0.938574 0.036189
Si Si6 0.363614 0.882716 0.592485
Si Si7 0.227345 0.446995 0.994504
Si Si8 0.447480 0.306507 0.660608
O O1 0.900233 0.096453 0.531265
O O2 0.651995 0.284719 0.312645
O O3 0.869845 0.168495 0.285538
O O4 0.512897 0.063910 0.147727
O O5 0.300404 0.192906 0.509459
O O6 0.149360 0.978451 0.455001
O O7 0.962073 0.057266 0.144731
O O8 0.117165 0.605346 0.249346
O O9 0.338346 0.805064 0.454396
O O10 0.278919 0.780076 0.192589
O O11 0.914171 0.820980 0.091482
O O12 0.312047 0.420602 0.507808
O O13 0.835124 0.441159 0.169991
O O14 0.604397 0.946866 0.014017
O O15 0.551078 0.834253 0.193619
O O16 0.605871 0.954871 0.777072
#
# Coordination Sequence:
#
# PCOD9116141 Si02
#       8
#     2   2   2   2   2   2   2   2
#     4   9  20  37  63  95 126 164 209 269 329 378
#     4  10  23  37  61  95 130 165 210 268 319 382
#     4  10  24  43  67  92 128 177 212 266 321 391
#     4  10  22  41  68  89 132 172 213 266 325 378
#     4  10  22  41  66 102 126 164 215 273 321 385
#     4  10  21  40  66  90 125 168 213 263 322 380
#     4  10  22  41  68  98 126 163 219 267 325 386
#     4  11  26  42  63  95 133 171 217 260 324 388
#
# _framework density 23.580206
#
# number of rings (size 3 to 8) (size 9 to 14) (size 15 to 20)
#    0.000    2.000    0.000    1.500   14.000    2.000 
#    2.250    0.000    0.000    0.000    0.000    0.000 
#    0.000    0.000    0.000    0.000    0.000    0.000 
#
# Total GULP energy -89371.949811 kJ/mol
# GULP energy per Si atom -5585.746863 kJ/mol
# Density = 2.352654 g / cm^3
# Si number density = 23.580206 Si / 1000 Ang^3
#
#
#
# Elastic Constant Matrix: (Units=GPa)
#
#
# Indices 1 2 3 4 5 6 
#
# 1 50.1234 18.1178 -1.1808 0.0000 18.0334 0.0000
# 2 18.1178 87.9514 18.5596 0.0000 7.4723 0.0000
# 3 -1.1808 18.5596 99.3050 0.0000 14.0772 0.0000
# 4 0.0000 0.0000 0.0000 37.3222 0.0000 3.7384
# 5 18.0334 7.4723 14.0772 0.0000 20.3021 0.0000
# 6 0.0000 0.0000 0.0000 3.7384 0.0000 21.8457
#
#
#
# Elastic Compliance Matrix: (Units=1/GPa)
#
#
# Indices 1 2 3 4 5 6 
#
# 1 0.033540 -0.005452 0.005941 0.000000 -0.031905 0.000000
# 2 -0.005452 0.012905 -0.002761 0.000000 0.002008 0.000000
# 3 0.005941 -0.002761 0.012488 0.000000 -0.012919 0.000000
# 4 0.000000 0.000000 0.000000 0.027261 0.000000 -0.004665
# 5 -0.031905 0.002008 -0.012919 0.000000 0.085815 0.000000
# 6 0.000000 0.000000 0.000000 -0.004665 0.000000 0.046574
#
#
# Mechanical properties :
#
#
# Convention : Reuss Voigt Hill
#
# Bulk Modulus (GPa) = 18.38660 34.26366 26.32513
# Shear Modulus (GPa) = 20.72468 29.35288 25.03878
#
# Velocity S-wave (km/s) = 2.96784 3.53201 3.26215
# Velocity P-wave (km/s) = 4.42250 5.58531 5.03757
#
# Compressibility (1/GPa) = 0.05438742
#
# Stress axis : x y z
#
# Youngs Moduli (GPa) = 29.81501 77.48823 80.07596
#
# Poissons Ratio (x) = 0.42248 -0.47569
# Poissons Ratio (y) = 0.16256 0.22112
# Poissons Ratio (z) = -0.17712 0.21397
#
# Static dielectric constant tensor:
#      x y z
#    x 1.931430 0.000000 0.021800 
#    y 0.000000 1.898770 0.000000 
#    z 0.021800 0.000000 1.980490 
# 
# From -- ./inp_files/11305.got.cif
#   From: 2010.05.17/outbox.cif.g08.bks.cpg/sg4_6_cif.got.tgz:11305.got - 2010.06.03 18:43:04.
