data_PCOD9116064
_publ_section_title
;
Structure prediction by ZEFSAII (Michael W. Deem and Ramdas Pophale) SiO2 
 PCOD9116064
Probable space group: P 21
;
_chemical_formula_sum "Si O2"
_cell_formula_units_Z 16
_cell_length_a 14.368844
_cell_length_b 9.007656
_cell_length_c 11.001521
_cell_angle_alpha 90.000000
_cell_angle_beta 152.007110
_cell_angle_gamma 90.000000
_cell_volume 668.335103
_symmetry_space_group_name_H-M "P 21"
_symmetry_group_IT_number 4
_symmetry_cell_setting 'monoclinic'
loop_
_space_group_symop_operation_xyz
x,y,z
-x,1/2+y,-z
loop_
_atom_site_type_symbol
_atom_site_label
_atom_site_fract_x
_atom_site_fract_y
_atom_site_fract_z
Si Si1 0.438270 0.898770 0.195164
Si Si2 0.866194 0.960351 0.212623
Si Si3 0.151110 0.441390 0.226910
Si Si4 0.548540 0.719172 0.861514
Si Si5 0.736949 0.470864 0.469840
Si Si6 0.384980 0.661685 0.938681
Si Si7 0.811150 0.618552 0.804662
Si Si8 0.652206 0.131925 0.744050
O O1 0.678653 0.895712 0.482967
O O2 0.376941 0.817516 0.000288
O O3 0.354598 0.797086 0.207751
O O4 0.393627 0.071358 0.141782
O O5 0.090381 0.938535 0.428082
O O6 0.748825 0.811781 0.109168
O O7 0.817736 0.073530 0.266640
O O8 0.746211 0.033370 0.960404
O O9 0.129543 0.292032 0.121128
O O10 0.234313 0.578548 0.243636
O O11 0.948225 0.509809 0.040906
O O12 0.379654 0.827855 0.611472
O O13 0.447733 0.677682 0.873044
O O14 0.563455 0.568179 0.208027
O O15 0.834908 0.561778 0.692564
O O16 0.577093 0.601512 0.549943
#
# Coordination Sequence:
#
# PCOD9116064 Si02
#       8
#     2   2   2   2   2   2   2   2
#     4  10  22  41  64  98 129 172 220 270 326 391
#     4  10  21  39  68  93 126 174 218 267 331 393
#     4  11  24  39  67  93 131 172 222 268 332 401
#     4  11  23  40  68  97 134 171 223 276 331 388
#     4  11  21  43  67  88 134 173 215 279 328 394
#     4  10  21  45  66  92 132 177 218 277 331 381
#     4  11  23  42  64  93 126 175 217 272 336 388
#     4  10  21  43  62  92 132 176 215 261 331 394
#
# _framework density 23.940085
#
# number of rings (size 3 to 8) (size 9 to 14) (size 15 to 20)
#    0.000    1.500    6.250    1.500    1.750    5.000 
#    0.000    5.000    0.000    0.000    0.000    0.000 
#    0.000    0.000    0.000    0.000    0.000    0.000 
#
# Total GULP energy -89440.345487 kJ/mol
# GULP energy per Si atom -5590.021593 kJ/mol
# Density = 2.388560 g / cm^3
# Si number density = 23.940085 Si / 1000 Ang^3
#
#
#
# Elastic Constant Matrix: (Units=GPa)
#
#
# Indices 1 2 3 4 5 6 
#
# 1 97.3793 23.3606 8.3199 0.0000 19.9488 0.0000
# 2 23.3606 112.1508 30.0176 0.0000 3.2195 0.0000
# 3 8.3199 30.0176 44.2996 0.0000 23.3558 0.0000
# 4 0.0000 0.0000 0.0000 17.9841 0.0000 5.8134
# 5 19.9488 3.2195 23.3558 0.0000 42.6160 0.0000
# 6 0.0000 0.0000 0.0000 5.8134 0.0000 32.0801
#
#
#
# Elastic Compliance Matrix: (Units=1/GPa)
#
#
# Indices 1 2 3 4 5 6 
#
# 1 0.012336 -0.003448 0.004116 0.000000 -0.007770 0.000000
# 2 -0.003448 0.012516 -0.011512 0.000000 0.006978 0.000000
# 3 0.004116 -0.011512 0.042414 0.000000 -0.024302 0.000000
# 4 0.000000 0.000000 0.000000 0.059064 0.000000 -0.010703
# 5 -0.007770 0.006978 -0.024302 0.000000 0.039894 0.000000
# 6 0.000000 0.000000 0.000000 -0.010703 0.000000 0.033112
#
#
# Mechanical properties :
#
#
# Convention : Reuss Voigt Hill
#
# Bulk Modulus (GPa) = 21.94042 41.91399 31.92720
# Shear Modulus (GPa) = 21.16700 31.34483 26.25591
#
# Velocity S-wave (km/s) = 2.97672 3.62235 3.31529
# Velocity P-wave (km/s) = 4.58248 5.91956 5.29340
#
# Compressibility (1/GPa) = 0.04557799
#
# Stress axis : x y z
#
# Youngs Moduli (GPa) = 81.06068 79.89933 23.57728
#
# Poissons Ratio (x) = 0.27552 -0.09705
# Poissons Ratio (y) = 0.27952 0.27142
# Poissons Ratio (z) = -0.33367 0.91980
#
# Static dielectric constant tensor:
#      x y z
#    x 1.932680 0.000000 0.003630 
#    y 0.000000 1.944040 0.000000 
#    z 0.003630 0.000000 1.917800 
# 
# From -- ./inp_files/12585.got.cif
#   From: 2010.05.17/outbox.cif.g08.bks.cpg/sg4_7_cif.got.tgz:12585.got - 2010.06.03 18:43:04.
