data_PCOD9116587
_publ_section_title
;
Structure prediction by ZEFSAII (Michael W. Deem and Ramdas Pophale) SiO2 
 PCOD9116587
Probable space group: P 21
;
_chemical_formula_sum "Si O2"
_cell_formula_units_Z 16
_cell_length_a 18.019535
_cell_length_b 8.944765
_cell_length_c 8.143298
_cell_angle_alpha 90.000000
_cell_angle_beta 35.896959
_cell_angle_gamma 90.000000
_cell_volume 769.581265
_symmetry_space_group_name_H-M "P 21"
_symmetry_group_IT_number 4
_symmetry_cell_setting 'monoclinic'
loop_
_space_group_symop_operation_xyz
x,y,z
-x,1/2+y,-z
loop_
_atom_site_type_symbol
_atom_site_label
_atom_site_fract_x
_atom_site_fract_y
_atom_site_fract_z
Si Si1 0.277221 0.864740 0.836584
Si Si2 0.667728 0.519086 0.802622
Si Si3 0.880582 0.826980 0.851179
Si Si4 0.547684 0.156920 0.606191
Si Si5 0.696876 0.665121 0.406473
Si Si6 0.586863 0.237924 0.079397
Si Si7 0.622568 0.943958 0.172814
Si Si8 0.100528 0.023166 0.364019
O O1 0.315267 0.739706 0.634425
O O2 0.350454 0.806271 0.867588
O O3 0.317611 0.026270 0.694084
O O4 0.138498 0.902330 0.154080
O O5 0.712612 0.593450 0.555752
O O6 0.774013 0.548227 0.750649
O O7 0.531075 0.584400 0.104378
O O8 0.645265 0.340726 0.833572
O O9 0.930014 0.678373 0.670119
O O10 0.811014 0.767716 0.139731
O O11 0.765896 0.899220 0.953359
O O12 0.990195 0.948738 0.667529
O O13 0.456181 0.294934 0.719679
O O14 0.566385 0.033878 0.430061
O O15 0.564079 0.750995 0.645636
O O16 0.615245 0.061842 0.036290
#
# Coordination Sequence:
#
# PCOD9116587 Si02
#       8
#     2   2   2   2   2   2   2   2
#     4   9  20  36  60  86 123 158 209 266 303 364
#     4  11  24  40  60  94 139 168 205 262 333 393
#     4  11  23  41  68  91 120 172 227 275 307 373
#     4  11  19  34  61  93 132 159 199 264 326 382
#     4  11  23  39  61  94 133 171 203 261 333 386
#     4  10  22  37  64  96 127 164 210 264 322 386
#     4  11  20  35  65  95 126 162 216 273 313 366
#     4  10  23  42  63  93 120 168 227 273 307 370
#
# _framework density 20.790527000000001
#
# number of rings (size 3 to 8) (size 9 to 14) (size 15 to 20)
#    0.000    1.500    2.500    4.500   10.500    0.000 
#    0.000    2.500    0.000    1.500    0.000    0.000 
#    0.000    0.000    0.000    0.000    0.000    0.000 
#
# Total GULP energy -89234.120288 kJ/mol
# GULP energy per Si atom -5577.132518 kJ/mol
# Density = 2.074321 g / cm^3
# Si number density = 20.790527 Si / 1000 Ang^3
#
#
#
# Elastic Constant Matrix: (Units=GPa)
#
#
# Indices 1 2 3 4 5 6 
#
# 1 21.5199 18.0015 17.6370 0.0000 12.7928 0.0000
# 2 18.0015 104.6803 41.2388 0.0000 2.3720 0.0000
# 3 17.6370 41.2388 90.5200 0.0000 8.4764 0.0000
# 4 0.0000 0.0000 0.0000 53.7619 0.0000 -1.9978
# 5 12.7928 2.3720 8.4764 0.0000 17.0052 0.0000
# 6 0.0000 0.0000 0.0000 -1.9978 0.0000 23.2856
#
#
#
# Elastic Compliance Matrix: (Units=1/GPa)
#
#
# Indices 1 2 3 4 5 6 
#
# 1 0.110886 -0.014211 -0.007873 0.000000 -0.077511 0.000000
# 2 -0.014211 0.013482 -0.004404 0.000000 0.011005 0.000000
# 3 -0.007873 -0.004404 0.014660 0.000000 -0.000770 0.000000
# 4 0.000000 0.000000 0.000000 0.018660 0.000000 0.001601
# 5 -0.077511 0.011005 -0.000770 0.000000 0.115965 0.000000
# 6 0.000000 0.000000 0.000000 0.001601 0.000000 0.043082
#
#
# Mechanical properties :
#
#
# Convention : Reuss Voigt Hill
#
# Bulk Modulus (GPa) = 11.62075 41.16386 26.39231
# Shear Modulus (GPa) = 12.55039 28.13341 20.34190
#
# Velocity S-wave (km/s) = 2.45961 3.68256 3.13137
# Velocity P-wave (km/s) = 3.69700 6.15824 5.07897
#
# Compressibility (1/GPa) = 0.08605293
#
# Stress axis : x y z
#
# Youngs Moduli (GPa) = 9.01829 74.17181 68.21449
#
# Poissons Ratio (x) = 1.05404 0.53703
# Poissons Ratio (y) = 0.12816 0.30041
# Poissons Ratio (z) = 0.07100 0.32664
#
# Static dielectric constant tensor:
#      x y z
#    x 1.752400 0.000000 0.027960 
#    y 0.000000 1.800210 0.000000 
#    z 0.027960 0.000000 1.800270 
# 
# From -- ./inp_files/9937.got.cif
#   From: 2010.05.17/outbox.cif.g08.bks.cpg/sg4_5_cif.got.tgz:9937.got - 2010.06.03 18:43:04.
