data_PCOD9116688
_publ_section_title
;
Structure prediction by ZEFSAII (Michael W. Deem and Ramdas Pophale) SiO2 
 PCOD9116688
Probable space group: P 21
;
_chemical_formula_sum "Si O2"
_cell_formula_units_Z 16
_cell_length_a 5.472200
_cell_length_b 7.852564
_cell_length_c 14.110423
_cell_angle_alpha 90.000000
_cell_angle_beta 101.397179
_cell_angle_gamma 90.000000
_cell_volume 594.379774
_symmetry_space_group_name_H-M "P 21"
_symmetry_group_IT_number 4
_symmetry_cell_setting 'monoclinic'
loop_
_space_group_symop_operation_xyz
x,y,z
-x,1/2+y,-z
loop_
_atom_site_type_symbol
_atom_site_label
_atom_site_fract_x
_atom_site_fract_y
_atom_site_fract_z
Si Si1 0.671989 0.798830 0.518754
Si Si2 0.080717 0.293171 0.102648
Si Si3 0.588928 0.892921 0.710489
Si Si4 0.411072 0.426540 0.789511
Si Si5 0.671989 0.020630 0.018754
Si Si6 0.267534 0.076670 0.836167
Si Si7 0.080717 0.526289 0.602648
Si Si8 0.732465 0.242791 0.663833
O O1 0.517177 0.822392 0.602970
O O2 0.897494 0.679532 0.567965
O O3 0.513571 0.723898 0.420861
O O4 0.771877 0.973395 0.480419
O O5 0.262338 0.269595 0.206755
O O6 0.897494 0.139928 0.067965
O O7 0.918030 0.460930 0.117609
O O8 0.228124 0.346065 0.019582
O O9 0.362644 0.971258 0.752270
O O10 0.780099 0.050510 0.701230
O O11 0.219901 0.268952 0.798770
O O12 0.637356 0.348203 0.747730
O O13 0.482823 0.497069 0.897029
O O14 0.262338 0.549865 0.706754
O O15 0.513570 0.095563 0.920861
O O16 0.918030 0.358530 0.617609
#
# Coordination Sequence:
#
# PCOD9116688 Si02
#       8
#     2   2   2   2   2   2   2   2
#     4  11  23  39  61  90 120 156 199 242 292 350
#     4  11  23  39  62  88 120 157 196 244 293 349
#     4  10  22  40  60  89 121 154 197 241 295 352
#     4  10  22  40  60  89 121 154 197 241 295 352
#     4  11  23  39  61  90 120 156 199 242 292 350
#     4  10  22  40  62  88 120 157 195 242 296 349
#     4  11  23  39  62  88 120 157 196 244 293 349
#     4  10  22  40  62  88 120 157 195 242 296 349
#
# _framework density 26.918814000000001
#
# number of rings (size 3 to 8) (size 9 to 14) (size 15 to 20)
#    0.000    1.500    0.000    4.500    0.000    9.000 
#    0.000    0.000    0.000    0.000    0.000    0.000 
#    0.000    0.000    0.000    0.000    0.000    0.000 
#
# Total GULP energy -89769.314378 kJ/mol
# GULP energy per Si atom -5610.582149 kJ/mol
# Density = 2.685755 g / cm^3
# Si number density = 26.918814 Si / 1000 Ang^3
#
#
#
# Elastic Constant Matrix: (Units=GPa)
#
#
# Indices 1 2 3 4 5 6 
#
# 1 59.5781 5.9066 40.9334 0.0000 -15.8991 0.0000
# 2 5.9066 74.6022 40.7411 0.0000 -3.2783 0.0000
# 3 40.9334 40.7411 201.2173 0.0000 -24.7366 0.0000
# 4 0.0000 0.0000 0.0000 50.2197 0.0000 -5.1939
# 5 -15.8991 -3.2783 -24.7366 0.0000 51.0439 0.0000
# 6 0.0000 0.0000 0.0000 -5.1939 0.0000 51.9539
#
#
#
# Elastic Compliance Matrix: (Units=1/GPa)
#
#
# Indices 1 2 3 4 5 6 
#
# 1 0.020521 0.000616 -0.003731 0.000000 0.004623 0.000000
# 2 0.000616 0.015104 -0.003233 0.000000 -0.000405 0.000000
# 3 -0.003731 -0.003233 0.006609 0.000000 0.001833 0.000000
# 4 0.000000 0.000000 0.000000 0.020121 0.000000 0.002011
# 5 0.004623 -0.000405 0.001833 0.000000 0.021893 0.000000
# 6 0.000000 0.000000 0.000000 0.002011 0.000000 0.019449
#
#
# Mechanical properties :
#
#
# Convention : Reuss Voigt Hill
#
# Bulk Modulus (GPa) = 33.85616 56.72887 45.29251
# Shear Modulus (GPa) = 39.60792 47.16459 43.38626
#
# Velocity S-wave (km/s) = 3.84002 4.19036 4.01901
# Velocity P-wave (km/s) = 5.68027 6.67322 6.19667
#
# Compressibility (1/GPa) = 0.02953673
#
# Stress axis : x y z
#
# Youngs Moduli (GPa) = 48.73129 66.20973 151.31653
#
# Poissons Ratio (x) = -0.04078 0.56454
# Poissons Ratio (y) = -0.03001 0.48923
# Poissons Ratio (z) = 0.18181 0.21406
#
# Static dielectric constant tensor:
#      x y z
#    x 2.117080 0.000000 0.059720 
#    y 0.000000 2.112030 0.000000 
#    z 0.059720 0.000000 2.003820 
# 
# From -- ./inp_files/13275.got.cif
#   From: 2010.05.17/outbox.cif.g08.bks.cpg/sg4_7_cif.got.tgz:13275.got - 2010.06.03 18:43:04.
