data_PCOD9116663
_publ_section_title
;
Structure prediction by ZEFSAII (Michael W. Deem and Ramdas Pophale) SiO2 
 PCOD9116663
Probable space group: P 21
;
_chemical_formula_sum "Si O2"
_cell_formula_units_Z 16
_cell_length_a 19.271534
_cell_length_b 5.947749
_cell_length_c 12.212829
_cell_angle_alpha 90.000000
_cell_angle_beta 150.225671
_cell_angle_gamma 90.000000
_cell_volume 695.150583
_symmetry_space_group_name_H-M "P 21"
_symmetry_group_IT_number 4
_symmetry_cell_setting 'monoclinic'
loop_
_space_group_symop_operation_xyz
x,y,z
-x,1/2+y,-z
loop_
_atom_site_type_symbol
_atom_site_label
_atom_site_fract_x
_atom_site_fract_y
_atom_site_fract_z
Si Si1 0.938032 0.779710 0.768714
Si Si2 0.298366 0.907543 0.973729
Si Si3 0.813995 0.952500 0.824151
Si Si4 0.404231 0.648545 0.628114
Si Si5 0.557680 0.033021 0.922654
Si Si6 0.327760 0.326016 0.715050
Si Si7 0.114965 0.157697 0.897332
Si Si8 0.037179 0.911913 0.498155
O O1 0.872015 0.822598 0.797385
O O2 0.815076 0.706374 0.517157
O O3 0.002286 0.009945 0.808486
O O4 0.063741 0.609024 0.961337
O O5 0.440024 0.048518 0.167804
O O6 0.351030 0.653280 0.044143
O O7 0.204940 0.928061 0.736144
O O8 0.199312 0.990796 0.933937
O O9 0.685885 0.094157 0.601264
O O10 0.782955 0.776983 0.877124
O O11 0.432734 0.904935 0.692073
O O12 0.333905 0.536444 0.638778
O O13 0.471929 0.198204 0.885209
O O14 0.659881 0.896884 0.142483
O O15 0.037645 0.341700 0.715943
O O16 0.010386 0.667593 0.528996
#
# Coordination Sequence:
#
# PCOD9116663 Si02
#       8
#     2   2   2   2   2   2   2   2
#     4  11  24  42  69 100 136 187 244 299 361 433
#     4  10  25  44  69 104 142 190 233 300 369 443
#     4  11  25  44  69 101 137 190 246 302 354 438
#     4  10  24  43  67 101 145 182 241 293 353 436
#     4  11  21  40  71 102 148 182 235 289 368 447
#     4  10  22  39  66 106 137 186 229 292 360 427
#     4  11  25  46  70 102 143 187 244 297 377 436
#     4  10  24  44  73 106 148 188 242 304 370 452
#
# _framework density 23.016597000000001
#
# number of rings (size 3 to 8) (size 9 to 14) (size 15 to 20)
#    0.000    1.500    2.500    0.750    8.750    2.000 
#    2.250    0.000    0.000    0.000    0.000    0.000 
#    0.000    0.000    0.000    0.000    0.000    0.000 
#
# Total GULP energy -89344.667666 kJ/mol
# GULP energy per Si atom -5584.041729 kJ/mol
# Density = 2.296421 g / cm^3
# Si number density = 23.016597 Si / 1000 Ang^3
#
#
#
# Elastic Constant Matrix: (Units=GPa)
#
#
# Indices 1 2 3 4 5 6 
#
# 1 55.1424 31.7065 40.6964 0.0000 -17.0452 0.0000
# 2 31.7065 77.8340 45.3058 0.0000 -14.4550 0.0000
# 3 40.6964 45.3058 139.5267 0.0000 -10.6396 0.0000
# 4 0.0000 0.0000 0.0000 40.1563 0.0000 2.9254
# 5 -17.0452 -14.4550 -10.6396 0.0000 39.2955 0.0000
# 6 0.0000 0.0000 0.0000 2.9254 0.0000 33.4133
#
#
#
# Elastic Compliance Matrix: (Units=1/GPa)
#
#
# Indices 1 2 3 4 5 6 
#
# 1 0.028808 -0.006968 -0.005496 0.000000 0.008445 0.000000
# 2 -0.006968 0.018358 -0.003721 0.000000 0.002723 0.000000
# 3 -0.005496 -0.003721 0.009897 0.000000 -0.001073 0.000000
# 4 0.000000 0.000000 0.000000 0.025063 0.000000 -0.002194
# 5 0.008445 0.002723 -0.001073 0.000000 0.029822 0.000000
# 6 0.000000 0.000000 0.000000 -0.002194 0.000000 0.030120
#
#
# Mechanical properties :
#
#
# Convention : Reuss Voigt Hill
#
# Bulk Modulus (GPa) = 40.49781 56.43563 48.46672
# Shear Modulus (GPa) = 27.37204 32.89265 30.13235
#
# Velocity S-wave (km/s) = 3.45226 3.78442 3.62215
# Velocity P-wave (km/s) = 5.79000 6.60822 6.21259
#
# Compressibility (1/GPa) = 0.02469270
#
# Stress axis : x y z
#
# Youngs Moduli (GPa) = 34.71276 54.47242 101.04491
#
# Poissons Ratio (x) = 0.37955 0.55535
# Poissons Ratio (y) = 0.24187 0.37599
# Poissons Ratio (z) = 0.19078 0.20270
#
# Static dielectric constant tensor:
#      x y z
#    x 1.849380 0.000000 0.006440 
#    y 0.000000 2.028360 0.000000 
#    z 0.006440 0.000000 1.830130 
# 
# From -- ./inp_files/11733.got.cif
#   From: 2010.05.17/outbox.cif.g08.bks.cpg/sg4_6_cif.got.tgz:11733.got - 2010.06.03 18:43:04.
