data_PCOD9116424
_publ_section_title
;
Structure prediction by ZEFSAII (Michael W. Deem and Ramdas Pophale) SiO2 
 PCOD9116424
Probable space group: P 21
;
_chemical_formula_sum "Si O2"
_cell_formula_units_Z 12
_cell_length_a 6.717412
_cell_length_b 9.413591
_cell_length_c 8.661447
_cell_angle_alpha 90.000000
_cell_angle_beta 81.886249
_cell_angle_gamma 90.000000
_cell_volume 542.223691
_symmetry_space_group_name_H-M "P 21"
_symmetry_group_IT_number 4
_symmetry_cell_setting 'monoclinic'
loop_
_space_group_symop_operation_xyz
x,y,z
-x,1/2+y,-z
loop_
_atom_site_type_symbol
_atom_site_label
_atom_site_fract_x
_atom_site_fract_y
_atom_site_fract_z
Si Si1 0.770698 0.440490 0.899468
Si Si2 0.763703 0.802144 0.591138
Si Si3 0.880817 0.493057 0.551466
Si Si4 0.992851 0.162721 0.941788
Si Si5 0.620326 0.983084 0.869832
Si Si6 0.347371 0.139447 0.666205
O O1 0.795801 0.419791 0.714115
O O2 0.878787 0.311029 0.977898
O O3 0.541413 0.451224 0.980047
O O4 0.883266 0.585281 0.937395
O O5 0.898366 0.660459 0.589011
O O6 0.661544 0.845270 0.761127
O O7 0.614020 0.756654 0.469072
O O8 0.909241 0.927573 0.521824
O O9 0.728323 0.501862 0.423242
O O10 0.155287 0.186222 0.788043
O O11 0.823548 0.050282 0.909888
O O12 0.520999 0.096272 0.762728
#
# Coordination Sequence:
#
# PCOD9116424 Si02
#       6
#     2   2   2   2   2   2
#     4  11  26  42  67  97 132 177 217 270 329 387
#     4  10  21  43  69  98 126 173 216 275 320 389
#     4  10  21  43  69  95 129 169 220 263 329 383
#     4  11  24  44  65  94 136 177 212 275 325 391
#     4  11  24  42  67  98 134 167 221 274 324 388
#     4   9  22  42  67  94 129 169 216 265 327 388
#
# _framework density 22.131087000000001
#
# number of rings (size 3 to 8) (size 9 to 14) (size 15 to 20)
#    1.000    0.667    3.333    0.000    4.667    2.667 
#    6.000    0.000    0.000    0.000    0.000    0.000 
#    0.000    0.000    0.000    0.000    0.000    0.000 
#
# Total GULP energy -66996.237079 kJ/mol
# GULP energy per Si atom -5583.019757 kJ/mol
# Density = 2.208072 g / cm^3
# Si number density = 22.131087 Si / 1000 Ang^3
#
#
#
# Elastic Constant Matrix: (Units=GPa)
#
#
# Indices 1 2 3 4 5 6 
#
# 1 53.8604 4.2524 12.2130 0.0000 -3.0089 0.0000
# 2 4.2524 50.0156 -18.5867 0.0000 -7.2912 0.0000
# 3 12.2130 -18.5867 60.6912 0.0000 -1.3298 0.0000
# 4 0.0000 0.0000 0.0000 37.4500 0.0000 -5.7015
# 5 -3.0089 -7.2912 -1.3298 0.0000 17.4112 0.0000
# 6 0.0000 0.0000 0.0000 -5.7015 0.0000 20.9500
#
#
#
# Elastic Compliance Matrix: (Units=1/GPa)
#
#
# Indices 1 2 3 4 5 6 
#
# 1 0.020061 -0.003324 -0.005018 0.000000 0.001692 0.000000
# 2 -0.003324 0.024992 0.008554 0.000000 0.010545 0.000000
# 3 -0.005018 0.008554 0.020199 0.000000 0.004258 0.000000
# 4 0.000000 0.000000 0.000000 0.027856 0.000000 0.007581
# 5 0.001692 0.010545 0.004258 0.000000 0.062468 0.000000
# 6 0.000000 0.000000 0.000000 0.007581 0.000000 0.049796
#
#
# Mechanical properties :
#
#
# Convention : Reuss Voigt Hill
#
# Bulk Modulus (GPa) = 15.22590 17.81384 16.51987
# Shear Modulus (GPa) = 22.04186 26.27478 24.15832
#
# Velocity S-wave (km/s) = 3.15932 3.44936 3.30752
# Velocity P-wave (km/s) = 4.49480 4.89192 4.69756
#
# Compressibility (1/GPa) = 0.06567754
#
# Stress axis : x y z
#
# Youngs Moduli (GPa) = 49.84733 40.01237 49.50624
#
# Poissons Ratio (x) = 0.13299 0.24841
# Poissons Ratio (y) = 0.16568 -0.42346
# Poissons Ratio (z) = 0.25012 -0.34226
#
# Static dielectric constant tensor:
#      x y z
#    x 1.791730 0.000000 0.047530 
#    y 0.000000 1.836710 0.000000 
#    z 0.047530 0.000000 1.815700 
# 
# From -- ./inp_files/4607.got.cif
#   From: 2010.05.17/outbox.cif.g08.bks.cpg/sg4_3_cif.got.tgz:4607.got - 2010.06.03 18:43:04.
