data_PCOD9116368
_publ_section_title
;
Structure prediction by ZEFSAII (Michael W. Deem and Ramdas Pophale) SiO2 
 PCOD9116368
Probable space group: P 21
;
_chemical_formula_sum "Si O2"
_cell_formula_units_Z 14
_cell_length_a 9.519600
_cell_length_b 9.661949
_cell_length_c 13.354276
_cell_angle_alpha 90.000000
_cell_angle_beta 147.651295
_cell_angle_gamma 90.000000
_cell_volume 657.226315
_symmetry_space_group_name_H-M "P 21"
_symmetry_group_IT_number 4
_symmetry_cell_setting 'monoclinic'
loop_
_space_group_symop_operation_xyz
x,y,z
-x,1/2+y,-z
loop_
_atom_site_type_symbol
_atom_site_label
_atom_site_fract_x
_atom_site_fract_y
_atom_site_fract_z
Si Si1 0.105046 0.069840 0.076636
Si Si2 0.152377 0.281622 0.534073
Si Si3 0.747446 0.458986 0.407604
Si Si4 0.728809 0.206796 0.124743
Si Si5 0.087568 0.962449 0.277414
Si Si6 0.327412 0.268438 0.051579
Si Si7 0.722165 0.300485 0.898623
O O1 0.294361 0.158206 0.120002
O O2 0.076629 0.921544 0.007238
O O3 0.197308 0.042320 0.246279
O O4 0.839426 0.158164 0.927236
O O5 0.440186 0.338092 0.684136
O O6 0.999075 0.366979 0.526149
O O7 0.963353 0.283483 0.324580
O O8 0.197777 0.119056 0.587400
O O9 0.501595 0.394021 0.201209
O O10 0.725045 0.448451 0.514485
O O11 0.485097 0.206270 0.052795
O O12 0.844025 0.055463 0.171102
O O13 0.676685 0.281282 0.988978
O O14 0.953260 0.823654 0.155221
#
# Coordination Sequence:
#
# PCOD9116368 Si02
#       7
#     2   2   2   2   2   2   2
#     4  11  24  42  65  90 129 170 213 254 323 376
#     4  10  22  40  66  95 128 162 208 266 311 372
#     4  10  22  41  66  96 127 162 212 263 318 370
#     4   9  22  39  66  93 123 158 216 259 319 369
#     4  10  21  43  59  93 126 167 207 259 313 380
#     4  11  22  40  65  94 124 167 211 266 309 378
#     4  11  23  45  63  91 129 172 205 267 313 379
#
# _framework density 21.301641
#
# number of rings (size 3 to 8) (size 9 to 14) (size 15 to 20)
#    0.000    1.714    1.429    2.571    8.000    0.000 
#   10.286    1.429    0.000    0.000    0.000    0.000 
#    0.000    0.000    0.000    0.000    0.000    0.000 
#
# Total GULP energy -78198.800015 kJ/mol
# GULP energy per Si atom -5585.628573 kJ/mol
# Density = 2.125316 g / cm^3
# Si number density = 21.301641 Si / 1000 Ang^3
#
#
#
# Elastic Constant Matrix: (Units=GPa)
#
#
# Indices 1 2 3 4 5 6 
#
# 1 131.3519 33.3393 17.1708 0.0000 -20.1168 0.0000
# 2 33.3393 77.3781 -1.2328 0.0000 -9.1926 0.0000
# 3 17.1708 -1.2328 41.9270 0.0000 -8.1041 0.0000
# 4 0.0000 0.0000 0.0000 18.0572 0.0000 -4.6046
# 5 -20.1168 -9.1926 -8.1041 0.0000 27.3822 0.0000
# 6 0.0000 0.0000 0.0000 -4.6046 0.0000 40.6461
#
#
#
# Elastic Compliance Matrix: (Units=1/GPa)
#
#
# Indices 1 2 3 4 5 6 
#
# 1 0.009709 -0.003640 -0.003119 0.000000 0.004987 0.000000
# 2 -0.003640 0.014897 0.002523 0.000000 0.003074 0.000000
# 3 -0.003119 0.002523 0.026436 0.000000 0.006379 0.000000
# 4 0.000000 0.000000 0.000000 0.057027 0.000000 0.006460
# 5 0.004987 0.003074 0.006379 0.000000 0.043104 0.000000
# 6 0.000000 0.000000 0.000000 0.006460 0.000000 0.025334
#
#
# Mechanical properties :
#
#
# Convention : Reuss Voigt Hill
#
# Bulk Modulus (GPa) = 23.49136 38.80129 31.14633
# Shear Modulus (GPa) = 25.10423 30.64241 27.87332
#
# Velocity S-wave (km/s) = 3.43667 3.79687 3.62125
# Velocity P-wave (km/s) = 5.17682 6.12179 5.66903
#
# Compressibility (1/GPa) = 0.04256884
#
# Stress axis : x y z
#
# Youngs Moduli (GPa) = 103.00059 67.12599 37.82766
#
# Poissons Ratio (x) = 0.24436 0.11799
# Poissons Ratio (y) = 0.37495 -0.09544
# Poissons Ratio (z) = 0.32127 -0.16936
#
# Static dielectric constant tensor:
#      x y z
#    x 1.770660 0.000000 -0.001340 
#    y 0.000000 1.791920 0.000000 
#    z -0.001340 0.000000 1.765290 
# 
# From -- ./inp_files/5547.got.cif
#   From: 2010.05.17/outbox.cif.g08.bks.cpg/sg4_3_cif.got.tgz:5547.got - 2010.06.03 18:43:04.
