data_PCOD9116853
_publ_section_title
;
Structure prediction by ZEFSAII (Michael W. Deem and Ramdas Pophale) SiO2 
 PCOD9116853
Probable space group: P 21
;
_chemical_formula_sum "Si O2"
_cell_formula_units_Z 16
_cell_length_a 10.554189
_cell_length_b 5.070464
_cell_length_c 14.154480
_cell_angle_alpha 90.000000
_cell_angle_beta 80.319599
_cell_angle_gamma 90.000000
_cell_volume 746.686230
_symmetry_space_group_name_H-M "P 21"
_symmetry_group_IT_number 4
_symmetry_cell_setting 'monoclinic'
loop_
_space_group_symop_operation_xyz
x,y,z
-x,1/2+y,-z
loop_
_atom_site_type_symbol
_atom_site_label
_atom_site_fract_x
_atom_site_fract_y
_atom_site_fract_z
Si Si1 0.201564 0.469270 0.635988
Si Si2 0.400194 0.500758 0.772206
Si Si3 0.413498 0.703398 0.492972
Si Si4 0.411585 0.625067 0.986736
Si Si5 0.907763 0.574177 0.726298
Si Si6 0.566171 0.998991 0.713827
Si Si7 0.907948 0.673236 0.518069
Si Si8 0.788463 0.044894 0.827334
O O1 0.283013 0.414007 0.719796
O O2 0.285644 0.688843 0.571186
O O3 0.184725 0.246613 0.557020
O O4 0.058110 0.539238 0.684499
O O5 0.489758 0.245578 0.766609
O O6 0.474781 0.746759 0.715344
O O7 0.373796 0.593553 0.881924
O O8 0.514501 0.481316 0.516352
O O9 0.381595 0.604937 0.391839
O O10 0.283454 0.595433 0.065655
O O11 0.485805 0.897737 0.997939
O O12 0.847971 0.623308 0.628727
O O13 0.845903 0.312953 0.777884
O O14 0.891568 0.813557 0.801668
O O15 0.676582 0.935919 0.773277
O O16 0.997770 0.425292 0.482446
#
# Coordination Sequence:
#
# PCOD9116853 Si02
#       8
#     2   2   2   2   2   2   2   2
#     4  11  25  44  68  96 147 178 228 273 337 408
#     4  12  24  43  69 102 131 175 223 280 358 397
#     4  12  24  39  60  94 135 175 216 266 331 397
#     4  12  23  45  73 101 132 172 226 292 350 405
#     4  11  25  43  66 100 134 189 223 271 334 403
#     4  12  23  42  65  99 136 170 223 283 333 401
#     4  10  22  41  65  95 133 187 233 262 316 400
#     4  12  24  43  70  99 134 170 238 281 331 407
#
# _framework density 21.428007999999998
#
# number of rings (size 3 to 8) (size 9 to 14) (size 15 to 20)
#    0.000    0.500    5.000    3.750    0.000    9.000 
#    0.000    1.250    0.000    0.000    0.000    0.000 
#    0.000    0.000    0.000    0.000    0.000    0.000 
#
# Total GULP energy -89520.769741 kJ/mol
# GULP energy per Si atom -5595.048109 kJ/mol
# Density = 2.137924 g / cm^3
# Si number density = 21.428008 Si / 1000 Ang^3
#
#
#
# Elastic Constant Matrix: (Units=GPa)
#
#
# Indices 1 2 3 4 5 6 
#
# 1 64.0107 5.9252 43.6693 0.0000 -6.1365 0.0000
# 2 5.9252 113.0413 12.5689 0.0000 -22.0510 0.0000
# 3 43.6693 12.5689 128.1987 0.0000 -15.8617 0.0000
# 4 0.0000 0.0000 0.0000 20.7051 0.0000 -11.0398
# 5 -6.1365 -22.0510 -15.8617 0.0000 38.7427 0.0000
# 6 0.0000 0.0000 0.0000 -11.0398 0.0000 20.0642
#
#
#
# Elastic Compliance Matrix: (Units=1/GPa)
#
#
# Indices 1 2 3 4 5 6 
#
# 1 0.020364 -0.000251 -0.006879 0.000000 0.000266 0.000000
# 2 -0.000251 0.009964 -0.000205 0.000000 0.005548 0.000000
# 3 -0.006879 -0.000205 0.010549 0.000000 0.003112 0.000000
# 4 0.000000 0.000000 0.000000 0.068350 0.000000 0.037608
# 5 0.000266 0.005548 0.003112 0.000000 0.030285 0.000000
# 6 0.000000 0.000000 0.000000 0.037608 0.000000 0.070533
#
#
# Mechanical properties :
#
#
# Convention : Reuss Voigt Hill
#
# Bulk Modulus (GPa) = 38.15681 47.73084 42.94382
# Shear Modulus (GPa) = 21.41775 32.10822 26.76299
#
# Velocity S-wave (km/s) = 3.16495 3.87515 3.53791
# Velocity P-wave (km/s) = 5.58583 6.50736 6.06412
#
# Compressibility (1/GPa) = 0.02620764
#
# Stress axis : x y z
#
# Youngs Moduli (GPa) = 49.10547 100.35657 94.79609
#
# Poissons Ratio (x) = 0.02514 0.65213
# Poissons Ratio (y) = 0.01230 0.01945
# Poissons Ratio (z) = 0.33781 0.02059
#
# Static dielectric constant tensor:
#      x y z
#    x 1.801620 0.000000 0.013200 
#    y 0.000000 1.778410 0.000000 
#    z 0.013200 0.000000 1.794970 
# 
# From -- ./inp_files/13592.got.cif
#   From: 2010.05.17/outbox.cif.g08.bks.cpg/sg4_7_cif.got.tgz:13592.got - 2010.06.03 18:43:04.
