data_PCOD9116083
_publ_section_title
;
Structure prediction by ZEFSAII (Michael W. Deem and Ramdas Pophale) SiO2 
 PCOD9116083
Probable space group: P 21
;
_chemical_formula_sum "Si O2"
_cell_formula_units_Z 16
_cell_length_a 14.159370
_cell_length_b 8.739369
_cell_length_c 17.377114
_cell_angle_alpha 90.000000
_cell_angle_beta 23.342141
_cell_angle_gamma 90.000000
_cell_volume 851.998933
_symmetry_space_group_name_H-M "P 21"
_symmetry_group_IT_number 4
_symmetry_cell_setting 'monoclinic'
loop_
_space_group_symop_operation_xyz
x,y,z
-x,1/2+y,-z
loop_
_atom_site_type_symbol
_atom_site_label
_atom_site_fract_x
_atom_site_fract_y
_atom_site_fract_z
Si Si1 0.355974 0.976920 0.656166
Si Si2 0.714919 0.473958 0.110354
Si Si3 0.858850 0.123187 0.013081
Si Si4 0.665913 0.121701 0.711929
Si Si5 0.792257 0.125222 0.243387
Si Si6 0.455088 0.460618 0.877055
Si Si7 0.396259 0.445725 0.089186
Si Si8 0.209300 0.114303 0.272561
O O1 0.374853 0.993984 0.734555
O O2 0.277320 0.803121 0.696863
O O3 0.596794 0.025169 0.433779
O O4 0.136291 0.084095 0.794904
O O5 0.506895 0.510810 0.206395
O O6 0.805719 0.300213 0.036142
O O7 0.941210 0.585324 0.928166
O O8 0.697304 0.019641 0.079185
O O9 0.796561 0.089895 0.148828
O O10 0.928611 0.127118 0.479912
O O11 0.692694 0.058347 0.778375
O O12 0.545265 0.287909 0.801854
O O13 0.309505 0.474877 0.066691
O O14 0.688811 0.563599 0.720364
O O15 0.331471 0.274381 0.159918
O O16 0.677835 0.484480 0.867602
#
# Coordination Sequence:
#
# PCOD9116083 Si02
#       8
#     2   2   2   2   2   2   2   2
#     4  10  21  40  61  91 118 159 204 245 306 362
#     4  10  23  38  63  87 124 155 201 253 299 357
#     4  10  21  41  60  88 121 159 198 251 305 352
#     4  12  22  39  64  90 118 167 203 248 309 366
#     4  10  21  40  64  87 124 158 199 254 300 361
#     4  10  21  40  59  89 122 159 199 251 306 351
#     4  10  21  42  59  86 126 156 202 256 297 353
#     4  10  22  40  62  86 123 161 202 250 300 364
#
# _framework density 18.779368000000002
#
# number of rings (size 3 to 8) (size 9 to 14) (size 15 to 20)
#    0.750    1.000    1.250    3.000    0.000    4.000 
#    6.750    2.500    0.000    0.000    0.000    0.000 
#    0.000    0.000    0.000    0.000    0.000    0.000 
#
# Total GULP energy -89238.578699 kJ/mol
# GULP energy per Si atom -5577.411169 kJ/mol
# Density = 1.873662 g / cm^3
# Si number density = 18.779368 Si / 1000 Ang^3
#
#
#
# Elastic Constant Matrix: (Units=GPa)
#
#
# Indices 1 2 3 4 5 6 
#
# 1 49.5889 30.8025 27.9443 0.0000 -7.2274 0.0000
# 2 30.8025 55.2694 36.6412 0.0000 2.8641 0.0000
# 3 27.9443 36.6412 112.2159 0.0000 4.0546 0.0000
# 4 0.0000 0.0000 0.0000 19.9546 0.0000 3.5273
# 5 -7.2274 2.8641 4.0546 0.0000 14.3373 0.0000
# 6 0.0000 0.0000 0.0000 3.5273 0.0000 31.6731
#
#
#
# Elastic Compliance Matrix: (Units=1/GPa)
#
#
# Indices 1 2 3 4 5 6 
#
# 1 0.038405 -0.020096 -0.003886 0.000000 0.024474 0.000000
# 2 -0.020096 0.033697 -0.005445 0.000000 -0.015322 0.000000
# 3 -0.003886 -0.005445 0.011809 0.000000 -0.004211 0.000000
# 4 0.000000 0.000000 0.000000 0.051120 0.000000 -0.005693
# 5 0.024474 -0.015322 -0.004211 0.000000 0.086337 0.000000
# 6 0.000000 0.000000 0.000000 -0.005693 0.000000 0.032207
#
#
# Mechanical properties :
#
#
# Convention : Reuss Voigt Hill
#
# Bulk Modulus (GPa) = 39.90846 45.31670 42.61258
# Shear Modulus (GPa) = 15.58694 21.30540 18.44617
#
# Velocity S-wave (km/s) = 2.88410 3.37190 3.13750
# Velocity P-wave (km/s) = 5.69105 6.27241 5.98879
#
# Compressibility (1/GPa) = 0.02505734
#
# Stress axis : x y z
#
# Youngs Moduli (GPa) = 26.03800 29.67663 84.67963
#
# Poissons Ratio (x) = 0.59637 0.32910
# Poissons Ratio (y) = 0.52325 0.46107
# Poissons Ratio (z) = 0.10119 0.16158
#
# Static dielectric constant tensor:
#      x y z
#    x 1.645480 0.000000 0.017390 
#    y 0.000000 1.652240 0.000000 
#    z 0.017390 0.000000 1.636550 
# 
# From -- ./inp_files/15257.got.cif
#   From: 2010.05.17/outbox.cif.g08.bks.cpg/sg4_8_cif.got.tgz:15257.got - 2010.06.03 18:43:04.
