data_PCOD9116541
_publ_section_title
;
Structure prediction by ZEFSAII (Michael W. Deem and Ramdas Pophale) SiO2 
 PCOD9116541
Probable space group: P 21
;
_chemical_formula_sum "Si O2"
_cell_formula_units_Z 14
_cell_length_a 6.943576
_cell_length_b 11.086003
_cell_length_c 8.694850
_cell_angle_alpha 90.000000
_cell_angle_beta 56.438600
_cell_angle_gamma 90.000000
_cell_volume 557.722886
_symmetry_space_group_name_H-M "P 21"
_symmetry_group_IT_number 4
_symmetry_cell_setting 'monoclinic'
loop_
_space_group_symop_operation_xyz
x,y,z
-x,1/2+y,-z
loop_
_atom_site_type_symbol
_atom_site_label
_atom_site_fract_x
_atom_site_fract_y
_atom_site_fract_z
Si Si1 0.747731 0.384950 0.213062
Si Si2 0.092880 0.618293 0.564145
Si Si3 0.052986 0.885800 0.536529
Si Si4 0.432606 0.198451 0.486513
Si Si5 0.302452 0.086663 0.015362
Si Si6 0.833159 0.790676 0.123089
Si Si7 0.501528 0.489955 0.783050
O O1 0.887327 0.406000 0.309574
O O2 0.514481 0.321045 0.368922
O O3 0.711079 0.500105 0.124813
O O4 0.901804 0.293361 0.043354
O O5 0.981800 0.745343 0.553061
O O6 0.347494 0.656190 0.506689
O O7 0.093890 0.500404 0.456231
O O8 0.931017 0.582033 0.779524
O O9 0.290685 0.895221 0.333428
O O10 0.222795 0.227882 0.691640
O O11 0.419438 0.094820 0.367016
O O12 0.498216 0.042473 0.046071
O O13 0.308999 0.220650 0.946287
O O14 0.731826 0.925511 0.165107
#
# Coordination Sequence:
#
# PCOD9116541 Si02
#       7
#     2   2   2   2   2   2   2
#     4  11  24  48  71 100 142 182 231 287 350 416
#     4  10  21  47  70 102 143 182 234 289 346 420
#     4  10  21  47  70 102 143 182 234 289 346 420
#     4  11  24  48  71 100 142 182 231 287 350 416
#     4  11  25  46  70 105 139 180 236 283 347 420
#     4  12  24  44  72 102 134 184 232 280 346 414
#     4  11  25  46  70 105 139 180 236 283 347 420
#
# _framework density 25.102073000000001
#
# number of rings (size 3 to 8) (size 9 to 14) (size 15 to 20)
#    0.000    1.143    5.714    1.714    2.000    1.143 
#   23.143    0.000    0.000    0.000    0.000    0.000 
#    0.000    0.000    0.000    0.000    0.000    0.000 
#
# Total GULP energy -78389.865238 kJ/mol
# GULP energy per Si atom -5599.276088 kJ/mol
# Density = 2.504494 g / cm^3
# Si number density = 25.102073 Si / 1000 Ang^3
#
#
#
# Elastic Constant Matrix: (Units=GPa)
#
#
# Indices 1 2 3 4 5 6 
#
# 1 42.2302 39.5155 17.7745 0.0000 15.0554 0.0000
# 2 39.5155 148.5125 42.8596 0.0000 29.5801 0.0000
# 3 17.7745 42.8596 131.5187 0.0000 9.2815 0.0000
# 4 0.0000 0.0000 0.0000 50.9270 0.0000 10.9945
# 5 15.0554 29.5801 9.2815 0.0000 22.0946 0.0000
# 6 0.0000 0.0000 0.0000 10.9945 0.0000 23.8580
#
#
#
# Elastic Compliance Matrix: (Units=1/GPa)
#
#
# Indices 1 2 3 4 5 6 
#
# 1 0.035431 -0.005796 -0.001797 0.000000 -0.015629 0.000000
# 2 -0.005796 0.010785 -0.002052 0.000000 -0.009628 0.000000
# 3 -0.001797 -0.002052 0.008486 0.000000 0.000407 0.000000
# 4 0.000000 0.000000 0.000000 0.021805 0.000000 -0.010049
# 5 -0.015629 -0.009628 0.000407 0.000000 0.068629 0.000000
# 6 0.000000 0.000000 0.000000 -0.010049 0.000000 0.046545
#
#
# Mechanical properties :
#
#
# Convention : Reuss Voigt Hill
#
# Bulk Modulus (GPa) = 28.23781 58.06228 43.15004
# Shear Modulus (GPa) = 22.44408 34.18338 28.31373
#
# Velocity S-wave (km/s) = 2.99342 3.69423 3.36213
# Velocity P-wave (km/s) = 4.81882 6.43250 5.68323
#
# Compressibility (1/GPa) = 0.03541351
#
# Stress axis : x y z
#
# Youngs Moduli (GPa) = 28.22383 92.71732 117.83663
#
# Poissons Ratio (x) = 0.53739 0.21172
# Poissons Ratio (y) = 0.16358 0.24180
# Poissons Ratio (z) = 0.05071 0.19026
#
# Static dielectric constant tensor:
#      x y z
#    x 2.061630 0.000000 -0.002960 
#    y 0.000000 2.019470 0.000000 
#    z -0.002960 0.000000 1.942070 
# 
# From -- ./inp_files/6028.got.cif
#   From: 2010.05.17/outbox.cif.g08.bks.cpg/sg4_4_cif.got.tgz:6028.got - 2010.06.03 18:43:04.
