data_PCOD9116597
_publ_section_title
;
Structure prediction by ZEFSAII (Michael W. Deem and Ramdas Pophale) SiO2 
 PCOD9116597
Probable space group: P 21
;
_chemical_formula_sum "Si O2"
_cell_formula_units_Z 14
_cell_length_a 10.696912
_cell_length_b 8.249609
_cell_length_c 6.392047
_cell_angle_alpha 90.000000
_cell_angle_beta 81.501945
_cell_angle_gamma 90.000000
_cell_volume 557.875396
_symmetry_space_group_name_H-M "P 21"
_symmetry_group_IT_number 4
_symmetry_cell_setting 'monoclinic'
loop_
_space_group_symop_operation_xyz
x,y,z
-x,1/2+y,-z
loop_
_atom_site_type_symbol
_atom_site_label
_atom_site_fract_x
_atom_site_fract_y
_atom_site_fract_z
Si Si1 0.379266 0.250000 0.101439
Si Si2 0.165386 0.621221 0.434761
Si Si3 0.759529 0.631056 0.481152
Si Si4 0.254208 0.451457 0.773044
Si Si5 0.023237 0.883098 0.707163
Si Si6 0.175304 0.766734 0.007788
Si Si7 0.415024 0.966060 0.782773
O O1 0.266780 0.176773 0.271712
O O2 0.470714 0.340691 0.240903
O O3 0.343279 0.380470 0.931676
O O4 0.438057 0.103659 0.952735
O O5 0.278127 0.563138 0.558601
O O6 0.055827 0.711951 0.592507
O O7 0.197740 0.747327 0.246458
O O8 0.103615 0.465999 0.338441
O O9 0.791915 0.786608 0.327288
O O10 0.868269 0.502948 0.406179
O O11 0.629776 0.552968 0.418499
O O12 0.173715 0.584299 0.918578
O O13 0.051031 0.854423 0.946593
O O14 0.293156 0.863191 0.885720
#
# Coordination Sequence:
#
# PCOD9116597 Si02
#       7
#     2   2   2   2   2   2   2
#     4  11  22  40  64  90 127 166 202 260 317 372
#     4  11  22  40  64  90 127 166 202 260 317 372
#     4  10  22  41  63  89 124 162 206 264 313 369
#     4  10  22  38  60  92 122 158 208 250 306 384
#     4  10  23  39  60  93 123 160 216 256 310 386
#     4  10  22  41  63  89 124 162 206 264 313 369
#     4  10  23  39  60  93 123 160 216 256 310 386
#
# _framework density 25.095210999999999
#
# number of rings (size 3 to 8) (size 9 to 14) (size 15 to 20)
#    0.000    1.714    0.000    3.429    0.000    6.857 
#    0.000    5.714    0.000    0.000    0.000    0.000 
#    0.000    0.000    0.000    0.000    0.000    0.000 
#
# Total GULP energy -78134.127971 kJ/mol
# GULP energy per Si atom -5581.009141 kJ/mol
# Density = 2.503809 g / cm^3
# Si number density = 25.095211 Si / 1000 Ang^3
#
#
#
# Elastic Constant Matrix: (Units=GPa)
#
#
# Indices 1 2 3 4 5 6 
#
# 1 40.1070 27.5205 23.6717 0.0000 20.2257 0.0000
# 2 27.5205 109.9372 20.8903 0.0000 18.0714 0.0000
# 3 23.6717 20.8903 104.4369 0.0000 26.8574 0.0000
# 4 0.0000 0.0000 0.0000 44.7688 0.0000 3.4955
# 5 20.2257 18.0714 26.8574 0.0000 25.2788 0.0000
# 6 0.0000 0.0000 0.0000 3.4955 0.0000 49.7567
#
#
#
# Elastic Compliance Matrix: (Units=1/GPa)
#
#
# Indices 1 2 3 4 5 6 
#
# 1 0.045217 -0.006067 -0.001165 0.000000 -0.030603 0.000000
# 2 -0.006067 0.011125 -0.000073 0.000000 -0.003021 0.000000
# 3 -0.001165 -0.000073 0.013210 0.000000 -0.013050 0.000000
# 4 0.000000 0.000000 0.000000 0.022460 0.000000 -0.001578
# 5 -0.030603 -0.003021 -0.013050 0.000000 0.080069 0.000000
# 6 0.000000 0.000000 0.000000 -0.001578 0.000000 0.020209
#
#
# Mechanical properties :
#
#
# Convention : Reuss Voigt Hill
#
# Bulk Modulus (GPa) = 18.20135 44.29401 31.24768
# Shear Modulus (GPa) = 22.20089 36.12076 29.16083
#
# Velocity S-wave (km/s) = 2.97756 3.79799 3.41252
# Velocity P-wave (km/s) = 4.36919 6.07632 5.29205
#
# Compressibility (1/GPa) = 0.05494098
#
# Stress axis : x y z
#
# Youngs Moduli (GPa) = 22.11541 89.88399 75.70049
#
# Poissons Ratio (x) = 0.54535 0.08822
# Poissons Ratio (y) = 0.13418 0.00555
# Poissons Ratio (z) = 0.02577 0.00659
#
# Static dielectric constant tensor:
#      x y z
#    x 2.019150 0.000000 0.015890 
#    y 0.000000 1.960060 0.000000 
#    z 0.015890 0.000000 2.048280 
# 
# From -- ./inp_files/2494.got.cif
#   From: 2010.05.17/outbox.cif.g08.bks.cpg/sg4_2_cif.got.tgz:2494.got - 2010.06.03 18:43:04.
