data_PCOD9116698
_publ_section_title
;
Structure prediction by ZEFSAII (Michael W. Deem and Ramdas Pophale) SiO2 
 PCOD9116698
Probable space group: P 21
;
_chemical_formula_sum "Si O2"
_cell_formula_units_Z 14
_cell_length_a 15.209627
_cell_length_b 5.759205
_cell_length_c 15.169690
_cell_angle_alpha 90.000000
_cell_angle_beta 27.266524
_cell_angle_gamma 90.000000
_cell_volume 608.760985
_symmetry_space_group_name_H-M "P 21"
_symmetry_group_IT_number 4
_symmetry_cell_setting 'monoclinic'
loop_
_space_group_symop_operation_xyz
x,y,z
-x,1/2+y,-z
loop_
_atom_site_type_symbol
_atom_site_label
_atom_site_fract_x
_atom_site_fract_y
_atom_site_fract_z
Si Si1 0.275306 0.731140 0.741458
Si Si2 0.418906 0.838473 0.908419
Si Si3 0.835117 0.930509 0.529915
Si Si4 0.201391 0.620975 0.248791
Si Si5 0.713156 0.733895 0.369426
Si Si6 0.132602 0.229415 0.166169
Si Si7 0.912114 0.113690 0.914183
O O1 0.489478 0.726687 0.592105
O O2 0.261689 0.490527 0.697262
O O3 0.257818 0.986656 0.711395
O O4 0.126863 0.696535 0.952734
O O5 0.634511 0.811558 0.684209
O O6 0.332390 0.094866 0.978881
O O7 0.378077 0.753536 0.044614
O O8 0.261808 0.703912 0.990099
O O9 0.771446 0.075771 0.673121
O O10 0.944754 0.086057 0.361250
O O11 0.004809 0.763941 0.411852
O O12 0.165744 0.395971 0.220431
O O13 0.877460 0.707710 0.296205
O O14 0.089392 0.345215 0.110357
#
# Coordination Sequence:
#
# PCOD9116698 Si02
#       7
#     2   2   2   2   2   2   2
#     4  10  23  42  71 104 132 185 231 276 339 406
#     4  10  26  39  62  97 125 171 223 268 346 402
#     4  11  22  42  65  88 129 168 226 278 333 403
#     4  10  22  40  62  89 120 168 220 280 327 392
#     4  10  23  43  70 103 136 180 234 274 337 417
#     4  10  24  42  60  97 123 173 218 266 347 392
#     4  11  24  42  66  94 139 169 212 282 335 404
#
# _framework density 22.997534000000002
#
# number of rings (size 3 to 8) (size 9 to 14) (size 15 to 20)
#    0.000    1.714    1.429    0.857    6.000    6.857 
#    2.571    0.000    0.000    0.000    0.000    0.000 
#    0.000    0.000    0.000    0.000    0.000    0.000 
#
# Total GULP energy -78084.064586 kJ/mol
# GULP energy per Si atom -5577.433185 kJ/mol
# Density = 2.294519 g / cm^3
# Si number density = 22.997534 Si / 1000 Ang^3
#
#
#
# Elastic Constant Matrix: (Units=GPa)
#
#
# Indices 1 2 3 4 5 6 
#
# 1 25.6314 19.0381 29.6578 0.0000 -9.7623 0.0000
# 2 19.0381 79.7920 20.7279 0.0000 0.3517 0.0000
# 3 29.6578 20.7279 112.7089 0.0000 -25.6779 0.0000
# 4 0.0000 0.0000 0.0000 1.5332 0.0000 5.9997
# 5 -9.7623 0.3517 -25.6779 0.0000 25.2846 0.0000
# 6 0.0000 0.0000 0.0000 5.9997 0.0000 30.8734
#
#
#
# Elastic Compliance Matrix: (Units=1/GPa)
#
#
# Indices 1 2 3 4 5 6 
#
# 1 0.068507 -0.013185 -0.012404 0.000000 0.014037 0.000000
# 2 -0.013185 0.015933 -0.000873 0.000000 -0.006199 0.000000
# 3 -0.012404 -0.000873 0.014582 0.000000 0.010032 0.000000
# 4 0.000000 0.000000 0.000000 2.722454 0.000000 -0.529057
# 5 0.014037 -0.006199 0.010032 0.000000 0.055244 0.000000
# 6 0.000000 0.000000 0.000000 -0.529057 0.000000 0.135202
#
#
# Mechanical properties :
#
#
# Convention : Reuss Voigt Hill
#
# Bulk Modulus (GPa) = 21.69287 39.66444 30.67866
# Shear Modulus (GPa) = 1.62327 21.45216 11.53771
#
# Velocity S-wave (km/s) = 0.84106 3.05749 2.24228
# Velocity P-wave (km/s) = 3.22434 5.45427 4.48026
#
# Compressibility (1/GPa) = 0.04609810
#
# Stress axis : x y z
#
# Youngs Moduli (GPa) = 14.59711 62.76452 68.57559
#
# Poissons Ratio (x) = 0.82756 0.85060
# Poissons Ratio (y) = 0.19246 0.05986
# Poissons Ratio (z) = 0.18106 0.05478
#
# Static dielectric constant tensor:
#      x y z
#    x 1.910240 0.000000 0.002440 
#    y 0.000000 1.972030 0.000000 
#    z 0.002440 0.000000 1.814750 
# 
# From -- ./inp_files/14053.got.cif
#   From: 2010.05.17/outbox.cif.g08.bks.cpg/sg4_8_cif.got.tgz:14053.got - 2010.06.03 18:43:04.
