data_PCOD9116762
_publ_section_title
;
Structure prediction by ZEFSAII (Michael W. Deem and Ramdas Pophale) SiO2 
 PCOD9116762
Probable space group: P 21
;
_chemical_formula_sum "Si O2"
_cell_formula_units_Z 14
_cell_length_a 13.644041
_cell_length_b 8.377987
_cell_length_c 10.733824
_cell_angle_alpha 90.000000
_cell_angle_beta 29.042214
_cell_angle_gamma 90.000000
_cell_volume 595.641775
_symmetry_space_group_name_H-M "P 21"
_symmetry_group_IT_number 4
_symmetry_cell_setting 'monoclinic'
loop_
_space_group_symop_operation_xyz
x,y,z
-x,1/2+y,-z
loop_
_atom_site_type_symbol
_atom_site_label
_atom_site_fract_x
_atom_site_fract_y
_atom_site_fract_z
Si Si1 0.541933 0.658860 0.364281
Si Si2 0.803256 0.227002 0.921810
Si Si3 0.435367 0.540605 0.001239
Si Si4 0.341625 0.184253 0.034727
Si Si5 0.897488 0.460033 0.026119
Si Si6 0.214049 0.470826 0.873385
Si Si7 0.048499 0.524851 0.603213
O O1 0.557387 0.609421 0.201636
O O2 0.337222 0.594370 0.649268
O O3 0.615458 0.842031 0.280993
O O4 0.723742 0.585858 0.246315
O O5 0.776127 0.332851 0.076121
O O6 0.952759 0.347305 0.682745
O O7 0.615028 0.172874 0.047650
O O8 0.871940 0.059949 0.908076
O O9 0.623230 0.587622 0.877042
O O10 0.251226 0.546812 0.304067
O O11 0.428369 0.361388 0.957382
O O12 0.107346 0.162569 0.262572
O O13 0.051612 0.527081 0.749612
O O14 0.026232 0.407361 0.000722
#
# Coordination Sequence:
#
# PCOD9116762 Si02
#       7
#     2   2   2   2   2   2   2
#     4  11  24  41  67  96 128 171 212 267 322 385
#     4  10  22  40  66  96 126 164 216 264 308 396
#     4  12  22  43  67  96 131 168 212 264 332 375
#     4  11  24  41  67  96 128 171 212 267 322 385
#     4   9  22  43  64  92 130 167 210 268 310 381
#     4  12  22  43  67  96 131 168 212 264 332 375
#     4   9  22  43  64  92 130 167 210 268 310 381
#
# _framework density 23.504059999999999
#
# number of rings (size 3 to 8) (size 9 to 14) (size 15 to 20)
#    0.857    0.571    1.429    4.286    0.000    0.000 
#    2.571    1.429    0.000    0.000    0.000    0.000 
#    0.000    0.000    0.000    0.000    0.000    0.000 
#
# Total GULP energy -77981.437742 kJ/mol
# GULP energy per Si atom -5570.102696 kJ/mol
# Density = 2.345056 g / cm^3
# Si number density = 23.504060 Si / 1000 Ang^3
#
#
#
# Elastic Constant Matrix: (Units=GPa)
#
#
# Indices 1 2 3 4 5 6 
#
# 1 124.8681 21.8748 -14.7582 0.0000 -0.5432 0.0000
# 2 21.8748 78.0949 -6.8594 0.0000 -4.8993 0.0000
# 3 -14.7582 -6.8594 24.8719 0.0000 3.4564 0.0000
# 4 0.0000 0.0000 0.0000 28.4380 0.0000 7.9702
# 5 -0.5432 -4.8993 3.4564 0.0000 10.0974 0.0000
# 6 0.0000 0.0000 0.0000 7.9702 0.0000 36.1613
#
#
#
# Elastic Compliance Matrix: (Units=1/GPa)
#
#
# Indices 1 2 3 4 5 6 
#
# 1 0.008983 -0.002219 0.005040 0.000000 -0.002319 0.000000
# 2 -0.002219 0.013956 0.001688 0.000000 0.006074 0.000000
# 3 0.005040 0.001688 0.045684 0.000000 -0.014548 0.000000
# 4 0.000000 0.000000 0.000000 0.037479 0.000000 -0.008261
# 5 -0.002319 0.006074 -0.014548 0.000000 0.106838 0.000000
# 6 0.000000 0.000000 0.000000 -0.008261 0.000000 0.029475
#
#
# Mechanical properties :
#
#
# Convention : Reuss Voigt Hill
#
# Bulk Modulus (GPa) = 12.87964 25.37214 19.12589
# Shear Modulus (GPa) = 19.28449 30.11120 24.69784
#
# Velocity S-wave (km/s) = 2.86750 3.58314 3.24511
# Velocity P-wave (km/s) = 4.05648 5.28552 4.71125
#
# Compressibility (1/GPa) = 0.07764193
#
# Stress axis : x y z
#
# Youngs Moduli (GPa) = 111.32384 71.65481 21.88948
#
# Poissons Ratio (x) = 0.15899 -0.11033
# Poissons Ratio (y) = 0.24701 -0.03695
# Poissons Ratio (z) = -0.56112 -0.12096
#
# Static dielectric constant tensor:
#      x y z
#    x 1.882960 0.000000 0.027960 
#    y 0.000000 2.023250 0.000000 
#    z 0.027960 0.000000 1.871270 
# 
# From -- ./inp_files/12526.got.cif
#   From: 2010.05.17/outbox.cif.g08.bks.cpg/sg4_7_cif.got.tgz:12526.got - 2010.06.03 18:43:04.
