data_PCOD9116845
_publ_section_title
;
Structure prediction by ZEFSAII (Michael W. Deem and Ramdas Pophale) SiO2 
 PCOD9116845
Probable space group: P 21
;
_chemical_formula_sum "Si O2"
_cell_formula_units_Z 12
_cell_length_a 9.076278
_cell_length_b 9.787684
_cell_length_c 10.805141
_cell_angle_alpha 90.000000
_cell_angle_beta 37.982675
_cell_angle_gamma 90.000000
_cell_volume 590.734058
_symmetry_space_group_name_H-M "P 21"
_symmetry_group_IT_number 4
_symmetry_cell_setting 'monoclinic'
loop_
_space_group_symop_operation_xyz
x,y,z
-x,1/2+y,-z
loop_
_atom_site_type_symbol
_atom_site_label
_atom_site_fract_x
_atom_site_fract_y
_atom_site_fract_z
Si Si1 0.466936 0.974230 0.580803
Si Si2 0.650921 0.613340 0.817731
Si Si3 0.518463 0.821263 0.122045
Si Si4 0.822144 0.174468 0.476305
Si Si5 0.547515 0.182175 0.315672
Si Si6 0.968901 0.319194 0.121579
O O1 0.547234 0.815981 0.545601
O O2 0.182348 0.958774 0.793845
O O3 0.616347 0.066522 0.576490
O O4 0.506715 0.046386 0.422859
O O5 0.526271 0.466986 0.909820
O O6 0.572593 0.672808 0.737243
O O7 0.937786 0.602879 0.635219
O O8 0.570466 0.710599 0.982230
O O9 0.287917 0.776786 0.351721
O O10 0.748301 0.829266 0.061218
O O11 0.894016 0.258149 0.305583
O O12 0.831517 0.217330 0.119024
#
# Coordination Sequence:
#
# PCOD9116845 Si02
#       6
#     2   2   2   2   2   2
#     4   9  19  39  66  88 122 164 215 264 312 373
#     4  11  26  41  64  99 129 172 213 257 325 383
#     4  11  25  42  63  92 134 168 212 267 312 383
#     4  10  22  41  65  91 128 170 212 261 317 379
#     4   9  20  40  64  95 120 167 218 258 320 373
#     4   8  20  41  62  93 119 161 220 263 310 373
#
# _framework density 20.313711000000001
#
# number of rings (size 3 to 8) (size 9 to 14) (size 15 to 20)
#    1.000    1.333    0.000    1.000    4.667    4.000 
#    0.000    6.667    0.000    0.000    0.000    0.000 
#    0.000    0.000    0.000    0.000    0.000    0.000 
#
# Total GULP energy -66885.905312 kJ/mol
# GULP energy per Si atom -5573.825443 kJ/mol
# Density = 2.026748 g / cm^3
# Si number density = 20.313711 Si / 1000 Ang^3
#
#
#
# Elastic Constant Matrix: (Units=GPa)
#
#
# Indices 1 2 3 4 5 6 
#
# 1 95.4931 7.2330 2.2675 0.0000 -12.6535 0.0000
# 2 7.2330 83.3695 11.9790 0.0000 -6.1766 0.0000
# 3 2.2675 11.9790 20.6227 0.0000 -12.4335 0.0000
# 4 0.0000 0.0000 0.0000 28.6501 0.0000 -1.4564
# 5 -12.6535 -6.1766 -12.4335 0.0000 28.4144 0.0000
# 6 0.0000 0.0000 0.0000 -1.4564 0.0000 33.9856
#
#
#
# Elastic Compliance Matrix: (Units=1/GPa)
#
#
# Indices 1 2 3 4 5 6 
#
# 1 0.011286 -0.000958 0.003016 0.000000 0.006137 0.000000
# 2 -0.000958 0.013177 -0.008258 0.000000 -0.001175 0.000000
# 3 0.003016 -0.008258 0.071562 0.000000 0.030862 0.000000
# 4 0.000000 0.000000 0.000000 0.034980 0.000000 0.001499
# 5 0.006137 -0.001175 0.030862 0.000000 0.051175 0.000000
# 6 0.000000 0.000000 0.000000 0.001499 0.000000 0.029488
#
#
# Mechanical properties :
#
#
# Convention : Reuss Voigt Hill
#
# Bulk Modulus (GPa) = 11.95805 26.93824 19.44815
# Shear Modulus (GPa) = 19.84572 30.07709 24.96140
#
# Velocity S-wave (km/s) = 3.12903 3.85207 3.50922
# Velocity P-wave (km/s) = 4.35361 5.75104 5.10041
#
# Compressibility (1/GPa) = 0.08362567
#
# Stress axis : x y z
#
# Youngs Moduli (GPa) = 88.60427 75.88812 13.97397
#
# Poissons Ratio (x) = 0.07268 -0.04214
# Poissons Ratio (y) = 0.08486 0.11539
# Poissons Ratio (z) = -0.26720 0.62665
#
# Static dielectric constant tensor:
#      x y z
#    x 1.723320 0.000000 -0.027870 
#    y 0.000000 1.733340 0.000000 
#    z -0.027870 0.000000 1.734070 
# 
# From -- ./inp_files/10978.got.cif
#   From: 2010.05.17/outbox.cif.g08.bks.cpg/sg4_6_cif.got.tgz:10978.got - 2010.06.03 18:43:04.
