data_PCOD9116846
_publ_section_title
;
Structure prediction by ZEFSAII (Michael W. Deem and Ramdas Pophale) SiO2 
 PCOD9116846
Probable space group: P 21
;
_chemical_formula_sum "Si O2"
_cell_formula_units_Z 16
_cell_length_a 11.248420
_cell_length_b 13.021403
_cell_length_c 4.932843
_cell_angle_alpha 90.000000
_cell_angle_beta 102.433001
_cell_angle_gamma 90.000000
_cell_volume 705.570452
_symmetry_space_group_name_H-M "P 21"
_symmetry_group_IT_number 4
_symmetry_cell_setting 'monoclinic'
loop_
_space_group_symop_operation_xyz
x,y,z
-x,1/2+y,-z
loop_
_atom_site_type_symbol
_atom_site_label
_atom_site_fract_x
_atom_site_fract_y
_atom_site_fract_z
Si Si1 0.746354 0.068380 0.594247
Si Si2 0.696411 0.293363 0.802566
Si Si3 0.798849 0.746404 0.398399
Si Si4 0.844097 0.483127 0.802757
Si Si5 0.024409 0.076922 0.628271
Si Si6 0.673855 0.658287 0.838123
Si Si7 0.535985 0.304353 0.241948
Si Si8 0.316342 0.442000 0.911118
O O1 0.719638 0.181232 0.693280
O O2 0.661414 0.025158 0.313138
O O3 0.881201 0.069471 0.534911
O O4 0.738594 0.993919 0.849518
O O5 0.814108 0.365996 0.850686
O O6 0.595370 0.340593 0.549672
O O7 0.640968 0.288022 0.073701
O O8 0.927760 0.692256 0.411116
O O9 0.757591 0.732207 0.687848
O O10 0.774402 0.859078 0.273111
O O11 0.708951 0.676303 0.168357
O O12 0.901923 0.503754 0.540386
O O13 0.717174 0.546114 0.774071
O O14 0.933929 0.539687 0.055839
O O15 0.539331 0.700319 0.734826
O O16 0.437136 0.382115 0.066702
#
# Coordination Sequence:
#
# PCOD9116846 Si02
#       8
#     2   2   2   2   2   2   2   2
#     4  12  26  41  62  97 131 161 207 260 314 375
#     4  12  26  42  62  95 131 164 208 258 314 376
#     4   9  18  37  63  90 117 153 209 256 295 362
#     4  10  22  42  65  91 123 167 217 253 306 383
#     4  10  22  41  65  92 126 165 206 264 318 357
#     4   9  18  36  63  90 115 153 209 257 295 361
#     4  11  23  42  65  90 127 167 205 261 317 360
#     4  11  23  43  65  93 126 168 215 251 305 384
#
# _framework density 22.676687999999999
#
# number of rings (size 3 to 8) (size 9 to 14) (size 15 to 20)
#    0.000    1.500    0.000    6.000    0.000    5.000 
#    0.000    2.500    0.000    0.000    0.000    0.000 
#    0.000    0.000    0.000    0.000    0.000    0.000 
#
# Total GULP energy -89476.977798 kJ/mol
# GULP energy per Si atom -5592.311112 kJ/mol
# Density = 2.262508 g / cm^3
# Si number density = 22.676688 Si / 1000 Ang^3
#
#
#
# Elastic Constant Matrix: (Units=GPa)
#
#
# Indices 1 2 3 4 5 6 
#
# 1 46.2865 23.5582 -11.3447 0.0000 -4.2621 0.0000
# 2 23.5582 96.3671 -6.0095 0.0000 -8.3628 0.0000
# 3 -11.3447 -6.0095 70.6577 0.0000 -9.7599 0.0000
# 4 0.0000 0.0000 0.0000 13.3632 0.0000 -0.5711
# 5 -4.2621 -8.3628 -9.7599 0.0000 27.1533 0.0000
# 6 0.0000 0.0000 0.0000 -0.5711 0.0000 19.7327
#
#
#
# Elastic Compliance Matrix: (Units=1/GPa)
#
#
# Indices 1 2 3 4 5 6 
#
# 1 0.025906 -0.005741 0.004197 0.000000 0.003807 0.000000
# 2 -0.005741 0.012074 0.000520 0.000000 0.003004 0.000000
# 3 0.004197 0.000520 0.015767 0.000000 0.006486 0.000000
# 4 0.000000 0.000000 0.000000 0.074925 0.000000 0.002168
# 5 0.003807 0.003004 0.006486 0.000000 0.040682 0.000000
# 6 0.000000 0.000000 0.000000 0.002168 0.000000 0.050740
#
#
# Mechanical properties :
#
#
# Convention : Reuss Voigt Hill
#
# Bulk Modulus (GPa) = 19.34301 25.07990 22.21145
# Shear Modulus (GPa) = 20.88785 25.85701 23.37243
#
# Velocity S-wave (km/s) = 3.03828 3.38042 3.21390
# Velocity P-wave (km/s) = 4.56691 5.13031 4.85678
#
# Compressibility (1/GPa) = 0.05169827
#
# Stress axis : x y z
#
# Youngs Moduli (GPa) = 38.60156 82.82561 63.42465
#
# Poissons Ratio (x) = 0.47549 -0.26619
# Poissons Ratio (y) = 0.22161 -0.03299
# Poissons Ratio (z) = -0.16201 -0.04308
#
# Static dielectric constant tensor:
#      x y z
#    x 1.828060 0.000000 0.033340 
#    y 0.000000 1.880480 0.000000 
#    z 0.033340 0.000000 1.789210 
# 
# From -- ./inp_files/2971.got.cif
#   From: 2010.05.17/outbox.cif.g08.bks.cpg/sg4_2_cif.got.tgz:2971.got - 2010.06.03 18:43:04.
