data_PCOD9116848
_publ_section_title
;
Structure prediction by ZEFSAII (Michael W. Deem and Ramdas Pophale) SiO2 
 PCOD9116848
Probable space group: P 21
;
_chemical_formula_sum "Si O2"
_cell_formula_units_Z 14
_cell_length_a 10.577320
_cell_length_b 5.107293
_cell_length_c 13.989935
_cell_angle_alpha 90.000000
_cell_angle_beta 61.317605
_cell_angle_gamma 90.000000
_cell_volume 663.020740
_symmetry_space_group_name_H-M "P 21"
_symmetry_group_IT_number 4
_symmetry_cell_setting 'monoclinic'
loop_
_space_group_symop_operation_xyz
x,y,z
-x,1/2+y,-z
loop_
_atom_site_type_symbol
_atom_site_label
_atom_site_fract_x
_atom_site_fract_y
_atom_site_fract_z
Si Si1 0.035402 0.651700 0.613996
Si Si2 0.538160 0.221664 0.825750
Si Si3 0.139644 0.646687 0.358766
Si Si4 0.727539 0.904477 0.196688
Si Si5 0.155103 0.392146 0.049003
Si Si6 0.163326 0.906689 0.749210
Si Si7 0.347170 0.899726 0.019975
O O1 0.141764 0.770212 0.654348
O O2 0.964860 0.364698 0.652284
O O3 0.108736 0.661347 0.483158
O O4 0.905514 0.859756 0.658744
O O5 0.694796 0.188706 0.724910
O O6 0.427906 0.349407 0.791974
O O7 0.564011 0.380800 0.914486
O O8 0.767891 0.693153 0.263550
O O9 0.542915 0.461976 0.106087
O O10 0.743465 0.199633 0.225027
O O11 0.995922 0.416113 0.147145
O O12 0.161271 0.362880 0.931979
O O13 0.235626 0.140139 0.062190
O O14 0.251728 0.642740 0.039836
#
# Coordination Sequence:
#
# PCOD9116848 Si02
#       7
#     2   2   2   2   2   2   2
#     4  10  22  41  65  93 112 150 210 251 299 348
#     4  11  23  41  59  91 127 159 193 245 306 358
#     4  10  22  41  67  90 118 150 195 263 305 340
#     4  11  24  35  55  84 122 161 194 231 290 366
#     4  11  22  39  58  85 115 158 202 245 290 335
#     4  12  22  39  59  83 120 158 198 243 283 348
#     4  11  23  36  61  86 116 152 200 244 291 357
#
# _framework density 21.115476000000001
#
# number of rings (size 3 to 8) (size 9 to 14) (size 15 to 20)
#    0.000    1.143    0.000    7.714    0.000    5.714 
#    0.000    2.857    0.000    0.000    0.000    0.000 
#    0.000    0.000    0.000    0.000    0.000    0.000 
#
# Total GULP energy -78348.881417 kJ/mol
# GULP energy per Si atom -5596.348673 kJ/mol
# Density = 2.106742 g / cm^3
# Si number density = 21.115476 Si / 1000 Ang^3
#
#
#
# Elastic Constant Matrix: (Units=GPa)
#
#
# Indices 1 2 3 4 5 6 
#
# 1 78.0992 16.7034 23.9824 0.0000 -2.4184 0.0000
# 2 16.7034 107.5412 -1.7298 0.0000 -10.2395 0.0000
# 3 23.9824 -1.7298 39.7782 0.0000 -12.5957 0.0000
# 4 0.0000 0.0000 0.0000 16.4957 0.0000 8.7472
# 5 -2.4184 -10.2395 -12.5957 0.0000 33.0660 0.0000
# 6 0.0000 0.0000 0.0000 8.7472 0.0000 33.4087
#
#
#
# Elastic Compliance Matrix: (Units=1/GPa)
#
#
# Indices 1 2 3 4 5 6 
#
# 1 0.016955 -0.003223 -0.011696 0.000000 -0.004213 0.000000
# 2 -0.003223 0.010278 0.003779 0.000000 0.004386 0.000000
# 3 -0.011696 0.003779 0.036907 0.000000 0.014374 0.000000
# 4 0.000000 0.000000 0.000000 0.070395 0.000000 -0.018431
# 5 -0.004213 0.004386 0.014374 0.000000 0.036768 0.000000
# 6 0.000000 0.000000 0.000000 -0.018431 0.000000 0.034758
#
#
# Mechanical properties :
#
#
# Convention : Reuss Voigt Hill
#
# Bulk Modulus (GPa) = 23.88977 33.70341 28.79659
# Shear Modulus (GPa) = 20.63609 29.02491 24.83050
#
# Velocity S-wave (km/s) = 3.12957 3.71156 3.43292
# Velocity P-wave (km/s) = 4.93937 5.86205 5.42038
#
# Compressibility (1/GPa) = 0.04185892
#
# Stress axis : x y z
#
# Youngs Moduli (GPa) = 58.98079 97.29745 27.09529
#
# Poissons Ratio (x) = 0.31356 0.31692
# Poissons Ratio (y) = 0.19008 -0.10239
# Poissons Ratio (z) = 0.68986 -0.36768
#
# Static dielectric constant tensor:
#      x y z
#    x 1.749130 0.000000 0.044770 
#    y 0.000000 1.778890 0.000000 
#    z 0.044770 0.000000 1.765900 
# 
# From -- ./inp_files/13585.got.cif
#   From: 2010.05.17/outbox.cif.g08.bks.cpg/sg4_7_cif.got.tgz:13585.got - 2010.06.03 18:43:04.
