data_PCOD9116498
_publ_section_title
;
Structure prediction by ZEFSAII (Michael W. Deem and Ramdas Pophale) SiO2 
 PCOD9116498
Probable space group: P 21
;
_chemical_formula_sum "Si O2"
_cell_formula_units_Z 16
_cell_length_a 6.036392
_cell_length_b 22.067083
_cell_length_c 4.879431
_cell_angle_alpha 90.000000
_cell_angle_beta 94.840740
_cell_angle_gamma 90.000000
_cell_volume 647.648992
_symmetry_space_group_name_H-M "P 21"
_symmetry_group_IT_number 4
_symmetry_cell_setting 'monoclinic'
loop_
_space_group_symop_operation_xyz
x,y,z
-x,1/2+y,-z
loop_
_atom_site_type_symbol
_atom_site_label
_atom_site_fract_x
_atom_site_fract_y
_atom_site_fract_z
Si Si1 0.536388 0.645800 0.059676
Si Si2 0.270440 0.366223 0.770488
Si Si3 0.474239 0.974928 0.310846
Si Si4 0.168339 0.554455 0.979716
Si Si5 0.244114 0.088680 0.439591
Si Si6 0.365599 0.780460 0.087718
Si Si7 0.891912 0.323709 0.420748
Si Si8 0.066319 0.941578 0.879002
O O1 0.738174 0.625019 0.277339
O O2 0.475064 0.715409 0.077188
O O3 0.315511 0.607855 0.121468
O O4 0.603870 0.625703 0.761592
O O5 0.392265 0.415410 0.588780
O O6 0.453095 0.331362 0.965391
O O7 0.135216 0.318393 0.575132
O O8 0.100436 0.401668 0.949440
O O9 0.654988 0.014143 0.166835
O O10 0.355510 0.022271 0.499151
O O11 0.284813 0.954483 0.078905
O O12 0.986119 0.578682 0.744464
O O13 0.050677 0.506821 0.174472
O O14 0.281341 0.798070 0.379392
O O15 0.158259 0.788938 0.863183
O O16 0.875214 0.396388 0.362224
#
# Coordination Sequence:
#
# PCOD9116498 Si02
#       8
#     2   2   2   2   2   2   2   2
#     4  11  25  47  69  96 138 184 236 285 336 414
#     4  11  23  42  68 100 140 187 222 288 352 407
#     4   9  19  43  67 104 139 174 223 288 351 414
#     4   9  22  42  72 101 138 181 222 294 355 403
#     4  10  23  44  67 101 127 175 234 282 344 416
#     4  12  28  45  69 100 142 186 237 285 341 411
#     4  12  25  44  66 104 135 180 235 283 345 420
#     4  10  21  45  68 108 139 179 231 287 352 431
#
# _framework density 24.704742
#
# number of rings (size 3 to 8) (size 9 to 14) (size 15 to 20)
#    0.000    1.500    2.500    0.750    3.500    4.000 
#   22.500    0.000    0.000    0.000    0.000    0.000 
#    0.000    0.000    0.000    0.000    0.000    0.000 
#
# Total GULP energy -89621.640829 kJ/mol
# GULP energy per Si atom -5601.352552 kJ/mol
# Density = 2.464851 g / cm^3
# Si number density = 24.704742 Si / 1000 Ang^3
#
#
#
# Elastic Constant Matrix: (Units=GPa)
#
#
# Indices 1 2 3 4 5 6 
#
# 1 83.2174 18.0244 -1.8534 0.0000 3.5299 0.0000
# 2 18.0244 95.8621 11.7531 0.0000 1.6234 0.0000
# 3 -1.8534 11.7531 82.8781 0.0000 -3.4621 0.0000
# 4 0.0000 0.0000 0.0000 31.4471 0.0000 3.1742
# 5 3.5299 1.6234 -3.4621 0.0000 26.5734 0.0000
# 6 0.0000 0.0000 0.0000 3.1742 0.0000 26.9724
#
#
#
# Elastic Compliance Matrix: (Units=1/GPa)
#
#
# Indices 1 2 3 4 5 6 
#
# 1 0.012614 -0.002416 0.000564 0.000000 -0.001455 0.000000
# 2 -0.002416 0.011098 -0.001652 0.000000 -0.000572 0.000000
# 3 0.000564 -0.001652 0.012381 0.000000 0.001639 0.000000
# 4 0.000000 0.000000 0.000000 0.032182 0.000000 -0.003787
# 5 -0.001455 -0.000572 0.001639 0.000000 0.038073 0.000000
# 6 0.000000 0.000000 0.000000 -0.003787 0.000000 0.037521
#
#
# Mechanical properties :
#
#
# Convention : Reuss Voigt Hill
#
# Bulk Modulus (GPa) = 34.38134 35.31174 34.84654
# Shear Modulus (GPa) = 31.13855 32.60084 31.86969
#
# Velocity S-wave (km/s) = 3.55410 3.63660 3.59559
# Velocity P-wave (km/s) = 5.54881 5.65311 5.60120
#
# Compressibility (1/GPa) = 0.02908554
#
# Stress axis : x y z
#
# Youngs Moduli (GPa) = 79.27485 90.10482 80.76739
#
# Poissons Ratio (x) = 0.21772 -0.04555
# Poissons Ratio (y) = 0.19155 0.13341
# Poissons Ratio (z) = -0.04471 0.14883
#
# Static dielectric constant tensor:
#      x y z
#    x 1.983470 0.000000 -0.029820 
#    y 0.000000 1.935890 0.000000 
#    z -0.029820 0.000000 1.938940 
# 
# From -- ./inp_files/732.got.cif
#   From: 2010.05.17/outbox.cif.g08.bks.cpg/sg4_1_cif.got.tgz:732.got - 2010.06.03 18:43:04.
