data_PCOD9116361
_publ_section_title
;
Structure prediction by ZEFSAII (Michael W. Deem and Ramdas Pophale) SiO2 
 PCOD9116361
Probable space group: P 21
;
_chemical_formula_sum "Si O2"
_cell_formula_units_Z 16
_cell_length_a 15.939190
_cell_length_b 5.008562
_cell_length_c 9.443580
_cell_angle_alpha 90.000000
_cell_angle_beta 75.380464
_cell_angle_gamma 90.000000
_cell_volume 729.494838
_symmetry_space_group_name_H-M "P 21"
_symmetry_group_IT_number 4
_symmetry_cell_setting 'monoclinic'
loop_
_space_group_symop_operation_xyz
x,y,z
-x,1/2+y,-z
loop_
_atom_site_type_symbol
_atom_site_label
_atom_site_fract_x
_atom_site_fract_y
_atom_site_fract_z
Si Si1 0.051660 0.778210 0.522639
Si Si2 0.391087 0.680833 0.479135
Si Si3 0.853603 0.617069 0.322358
Si Si4 0.222566 0.476275 0.395237
Si Si5 0.586544 0.680511 0.338226
Si Si6 0.004087 0.751162 0.094366
Si Si7 0.809747 0.030722 0.907342
Si Si8 0.255599 0.031491 0.897568
O O1 0.144091 0.686619 0.428014
O O2 0.988623 0.527047 0.544292
O O3 0.924169 0.398164 0.337452
O O4 0.310080 0.606502 0.416639
O O5 0.483567 0.650801 0.361596
O O6 0.392418 0.474363 0.610856
O O7 0.389973 0.975962 0.544633
O O8 0.787406 0.491502 0.239505
O O9 0.919465 0.824981 0.222644
O O10 0.807243 0.750425 0.478239
O O11 0.224575 0.415427 0.228002
O O12 0.645354 0.606833 0.179856
O O13 0.090326 0.635426 0.134587
O O14 0.973349 0.514743 0.002916
O O15 0.756953 0.281698 0.994000
O O16 0.793942 0.786909 0.019751
#
# Coordination Sequence:
#
# PCOD9116361 Si02
#       8
#     2   2   2   2   2   2   2   2
#     4  12  27  44  65 100 135 178 235 286 348 407
#     4  10  22  41  73 109 140 173 233 296 346 413
#     4  12  26  44  75  94 134 186 244 283 347 425
#     4  12  28  46  72 104 143 186 236 293 360 423
#     4  10  21  42  73 108 137 176 234 293 345 420
#     4  12  25  44  64  94 130 179 235 287 343 412
#     4  12  28  45  64  99 145 181 230 296 357 415
#     4  12  25  46  70 100 136 187 231 290 354 427
#
# _framework density 21.932988999999999
#
# number of rings (size 3 to 8) (size 9 to 14) (size 15 to 20)
#    0.000    0.500    5.000    2.250    5.250    0.000 
#    0.000    1.250    0.000    0.000    0.000    0.000 
#    0.000    0.000    0.000    0.000    0.000    0.000 
#
# Total GULP energy -89452.322660 kJ/mol
# GULP energy per Si atom -5590.770166 kJ/mol
# Density = 2.188307 g / cm^3
# Si number density = 21.932989 Si / 1000 Ang^3
#
#
#
# Elastic Constant Matrix: (Units=GPa)
#
#
# Indices 1 2 3 4 5 6 
#
# 1 118.2615 6.0174 27.3657 0.0000 -4.3682 0.0000
# 2 6.0174 89.9201 10.8141 0.0000 4.4348 0.0000
# 3 27.3657 10.8141 80.7201 0.0000 -6.9734 0.0000
# 4 0.0000 0.0000 0.0000 25.3907 0.0000 3.9440
# 5 -4.3682 4.4348 -6.9734 0.0000 24.2712 0.0000
# 6 0.0000 0.0000 0.0000 3.9440 0.0000 19.4563
#
#
#
# Elastic Compliance Matrix: (Units=1/GPa)
#
#
# Indices 1 2 3 4 5 6 
#
# 1 0.009198 -0.000296 -0.003005 0.000000 0.000846 0.000000
# 2 -0.000296 0.011470 -0.001663 0.000000 -0.002627 0.000000
# 3 -0.003005 -0.001663 0.013956 0.000000 0.003773 0.000000
# 4 0.000000 0.000000 0.000000 0.040665 0.000000 -0.008243
# 5 0.000846 -0.002627 0.003773 0.000000 0.042917 0.000000
# 6 0.000000 0.000000 0.000000 -0.008243 0.000000 0.053068
#
#
# Mechanical properties :
#
#
# Convention : Reuss Voigt Hill
#
# Bulk Modulus (GPa) = 40.49410 41.92177 41.20794
# Shear Modulus (GPa) = 26.39423 30.13729 28.26576
#
# Velocity S-wave (km/s) = 3.47277 3.71086 3.59379
# Velocity P-wave (km/s) = 5.88073 6.12500 6.00411
#
# Compressibility (1/GPa) = 0.02469495
#
# Stress axis : x y z
#
# Youngs Moduli (GPa) = 108.72409 87.18101 71.65291
#
# Poissons Ratio (x) = 0.02578 0.21535
# Poissons Ratio (y) = 0.03216 0.11919
# Poissons Ratio (z) = 0.32677 0.14501
#
# Static dielectric constant tensor:
#      x y z
#    x 1.818150 0.000000 -0.004520 
#    y 0.000000 1.849390 0.000000 
#    z -0.004520 0.000000 1.942620 
# 
# From -- ./inp_files/8659.got.cif
#   From: 2010.05.17/outbox.cif.g08.bks.cpg/sg4_5_cif.got.tgz:8659.got - 2010.06.03 18:43:04.
