data_PCOD9116938
_publ_section_title
;
Structure prediction by ZEFSAII (Michael W. Deem and Ramdas Pophale) SiO2 
 PCOD9116938
Probable space group: P 21
;
_chemical_formula_sum "Si O2"
_cell_formula_units_Z 12
_cell_length_a 6.696587
_cell_length_b 9.528007
_cell_length_c 10.931921
_cell_angle_alpha 90.000000
_cell_angle_beta 139.500686
_cell_angle_gamma 90.000000
_cell_volume 452.991857
_symmetry_space_group_name_H-M "P 21"
_symmetry_group_IT_number 4
_symmetry_cell_setting 'monoclinic'
loop_
_space_group_symop_operation_xyz
x,y,z
-x,1/2+y,-z
loop_
_atom_site_type_symbol
_atom_site_label
_atom_site_fract_x
_atom_site_fract_y
_atom_site_fract_z
Si Si1 0.221805 0.823980 0.578009
Si Si2 0.540949 0.842356 0.235460
Si Si3 0.140951 0.477269 0.910683
Si Si4 0.479073 0.569415 0.578757
Si Si5 0.408150 0.746197 0.925204
Si Si6 0.330975 0.566631 0.250774
O O1 0.460084 0.729694 0.611746
O O2 0.203038 0.773553 0.710486
O O3 0.890050 0.801411 0.364689
O O4 0.361786 0.978932 0.642233
O O5 0.405445 0.729658 0.266297
O O6 0.594034 0.984522 0.332881
O O7 0.340616 0.828997 0.019987
O O8 0.379707 0.585659 0.956959
O O9 0.817082 0.515233 0.700587
O O10 0.271856 0.320097 0.966892
O O11 0.106211 0.520097 0.037249
O O12 0.265593 0.542163 0.362354
#
# Coordination Sequence:
#
# PCOD9116938 Si02
#       6
#     2   2   2   2   2   2
#     4  11  23  40  63  89 122 162 201 249 302 354
#     4  11  23  40  63  89 122 162 201 249 302 354
#     4  10  23  41  63  92 122 159 201 247 301 355
#     4  12  24  40  64  91 122 159 203 250 298 360
#     4  10  22  42  64  90 124 160 200 248 302 360
#     4  10  23  39  59  91 122 156 200 251 301 355
#
# _framework density 26.490538999999998
#
# number of rings (size 3 to 8) (size 9 to 14) (size 15 to 20)
#    0.000    1.333    0.000    5.000    0.000    8.000 
#    0.000    1.667    0.000    0.000    0.000    0.000 
#    0.000    0.000    0.000    0.000    0.000    0.000 
#
# Total GULP energy -67119.343790 kJ/mol
# GULP energy per Si atom -5593.278649 kJ/mol
# Density = 2.643025 g / cm^3
# Si number density = 26.490539 Si / 1000 Ang^3
#
#
#
# Elastic Constant Matrix: (Units=GPa)
#
#
# Indices 1 2 3 4 5 6 
#
# 1 53.4214 19.1871 14.9678 0.0000 -7.7081 0.0000
# 2 19.1871 66.3645 -1.4462 0.0000 -1.1806 0.0000
# 3 14.9678 -1.4462 140.1665 0.0000 -41.5743 0.0000
# 4 0.0000 0.0000 0.0000 21.4222 0.0000 -9.3255
# 5 -7.7081 -1.1806 -41.5743 0.0000 50.3009 0.0000
# 6 0.0000 0.0000 0.0000 -9.3255 0.0000 40.4393
#
#
#
# Elastic Compliance Matrix: (Units=1/GPa)
#
#
# Indices 1 2 3 4 5 6 
#
# 1 0.021749 -0.006301 -0.001911 0.000000 0.001605 0.000000
# 2 -0.006301 0.016913 0.000899 0.000000 0.000175 0.000000
# 3 -0.001911 0.000899 0.009627 0.000000 0.007685 0.000000
# 4 0.000000 0.000000 0.000000 0.051890 0.000000 0.011966
# 5 0.001605 0.000175 0.007685 0.000000 0.026482 0.000000
# 6 0.000000 0.000000 0.000000 0.011966 0.000000 0.027488
#
#
# Mechanical properties :
#
#
# Convention : Reuss Voigt Hill
#
# Bulk Modulus (GPa) = 29.70670 36.15218 32.92944
# Shear Modulus (GPa) = 27.77823 37.58205 32.68014
#
# Velocity S-wave (km/s) = 3.24174 3.77065 3.51615
# Velocity P-wave (km/s) = 5.02496 5.71261 5.37978
#
# Compressibility (1/GPa) = 0.03366244
#
# Stress axis : x y z
#
# Youngs Moduli (GPa) = 45.97820 59.12685 103.87171
#
# Poissons Ratio (x) = 0.37257 0.19855
# Poissons Ratio (y) = 0.28972 -0.09340
# Poissons Ratio (z) = 0.08789 -0.05316
#
# Static dielectric constant tensor:
#      x y z
#    x 2.093070 0.000000 -0.001180 
#    y 0.000000 2.021550 0.000000 
#    z -0.001180 0.000000 2.014140 
# 
# From -- ./inp_files/2780.got.cif
#   From: 2010.05.17/outbox.cif.g08.bks.cpg/sg4_2_cif.got.tgz:2780.got - 2010.06.03 18:43:04.
