data_PCOD9116887
_publ_section_title
;
Structure prediction by ZEFSAII (Michael W. Deem and Ramdas Pophale) SiO2 
 PCOD9116887
Probable space group: P 21
;
_chemical_formula_sum "Si O2"
_cell_formula_units_Z 12
_cell_length_a 13.248088
_cell_length_b 6.966973
_cell_length_c 7.266746
_cell_angle_alpha 90.000000
_cell_angle_beta 41.662085
_cell_angle_gamma 90.000000
_cell_volume 445.847766
_symmetry_space_group_name_H-M "P 21"
_symmetry_group_IT_number 4
_symmetry_cell_setting 'monoclinic'
loop_
_space_group_symop_operation_xyz
x,y,z
-x,1/2+y,-z
loop_
_atom_site_type_symbol
_atom_site_label
_atom_site_fract_x
_atom_site_fract_y
_atom_site_fract_z
Si Si1 0.695405 0.555040 0.702643
Si Si2 0.636623 0.644271 0.350954
Si Si3 0.102030 0.887866 0.069127
Si Si4 0.111885 0.736174 0.654554
Si Si5 0.698095 0.065335 0.134478
Si Si6 0.358671 0.484043 0.202886
O O1 0.833889 0.411326 0.547301
O O2 0.729891 0.117661 0.533047
O O3 0.714590 0.775548 0.726899
O O4 0.537499 0.475403 0.999546
O O5 0.733304 0.483625 0.116277
O O6 0.670289 0.581508 0.515899
O O7 0.457348 0.646354 0.560968
O O8 0.705077 0.849546 0.203702
O O9 0.058828 0.838005 0.914468
O O10 0.140671 0.672640 0.077548
O O11 0.992946 0.063293 0.272621
O O12 0.657294 0.071447 0.975993
#
# Coordination Sequence:
#
# PCOD9116887 Si02
#       6
#     2   2   2   2   2   2
#     4  10  22  41  70 105 140 184 237 286 346 414
#     4  10  22  41  68 101 142 182 236 287 338 421
#     4  11  26  45  69 101 140 190 234 286 347 419
#     4  11  26  45  70 101 142 189 233 288 343 424
#     4  11  23  42  70 106 141 185 231 294 349 404
#     4  11  23  42  71 106 143 180 233 295 347 412
#
# _framework density 26.915016000000001
#
# number of rings (size 3 to 8) (size 9 to 14) (size 15 to 20)
#    0.000    1.333    3.333    1.000    7.000    2.667 
#    3.000    0.000    0.000    0.000    0.000    0.000 
#    0.000    0.000    0.000    0.000    0.000    0.000 
#
# Total GULP energy -67048.911628 kJ/mol
# GULP energy per Si atom -5587.409302 kJ/mol
# Density = 2.685376 g / cm^3
# Si number density = 26.915016 Si / 1000 Ang^3
#
#
#
# Elastic Constant Matrix: (Units=GPa)
#
#
# Indices 1 2 3 4 5 6 
#
# 1 72.3959 18.5889 28.1028 0.0000 -15.0739 0.0000
# 2 18.5889 164.6615 37.9636 0.0000 -23.0165 0.0000
# 3 28.1028 37.9636 62.1043 0.0000 -15.4146 0.0000
# 4 0.0000 0.0000 0.0000 46.3384 0.0000 -31.4109
# 5 -15.0739 -23.0165 -15.4146 0.0000 24.0292 0.0000
# 6 0.0000 0.0000 0.0000 -31.4109 0.0000 48.9182
#
#
#
# Elastic Compliance Matrix: (Units=1/GPa)
#
#
# Indices 1 2 3 4 5 6 
#
# 1 0.017759 0.000542 -0.006510 0.000000 0.007484 0.000000
# 2 0.000542 0.007575 -0.003557 0.000000 0.005314 0.000000
# 3 -0.006510 -0.003557 0.023030 0.000000 0.007283 0.000000
# 4 0.000000 0.000000 0.000000 0.038213 0.000000 0.024537
# 5 0.007484 0.005314 0.007283 0.000000 0.056072 0.000000
# 6 0.000000 0.000000 0.000000 0.024537 0.000000 0.036198
#
#
# Mechanical properties :
#
#
# Convention : Reuss Voigt Hill
#
# Bulk Modulus (GPa) = 34.11332 52.05247 43.08289
# Shear Modulus (GPa) = 24.07700 38.15758 31.11729
#
# Velocity S-wave (km/s) = 2.99416 3.76933 3.40388
# Velocity P-wave (km/s) = 4.96541 6.19075 5.61162
#
# Compressibility (1/GPa) = 0.02931406
#
# Stress axis : x y z
#
# Youngs Moduli (GPa) = 56.30936 132.01915 43.42243
#
# Poissons Ratio (x) = -0.07158 0.28268
# Poissons Ratio (y) = -0.03053 0.15444
# Poissons Ratio (z) = 0.36658 0.46955
#
# Static dielectric constant tensor:
#      x y z
#    x 2.073370 0.000000 -0.016110 
#    y 0.000000 2.086010 0.000000 
#    z -0.016110 0.000000 2.233300 
# 
# From -- ./inp_files/8553.got.cif
#   From: 2010.05.17/outbox.cif.g08.bks.cpg/sg4_5_cif.got.tgz:8553.got - 2010.06.03 18:43:04.
