data_PCOD9116608
_publ_section_title
;
Structure prediction by ZEFSAII (Michael W. Deem and Ramdas Pophale) SiO2 
 PCOD9116608
Probable space group: P 21
;
_chemical_formula_sum "Si O2"
_cell_formula_units_Z 10
_cell_length_a 9.942755
_cell_length_b 4.893524
_cell_length_c 14.041995
_cell_angle_alpha 90.000000
_cell_angle_beta 147.437125
_cell_angle_gamma 90.000000
_cell_volume 367.723158
_symmetry_space_group_name_H-M "P 21"
_symmetry_group_IT_number 4
_symmetry_cell_setting 'monoclinic'
loop_
_space_group_symop_operation_xyz
x,y,z
-x,1/2+y,-z
loop_
_atom_site_type_symbol
_atom_site_label
_atom_site_fract_x
_atom_site_fract_y
_atom_site_fract_z
Si Si1 0.957015 0.890240 0.125692
Si Si2 0.663438 0.205565 0.812349
Si Si3 0.162361 0.241855 0.607086
Si Si4 0.521535 0.347800 0.072705
Si Si5 0.414996 0.914262 0.508760
O O1 0.147336 0.812991 0.154588
O O2 0.124512 0.851641 0.319865
O O3 0.832805 0.162702 0.006637
O O4 0.697488 0.736108 0.989356
O O5 0.397528 0.334625 0.682184
O O6 0.549169 0.934474 0.690281
O O7 0.279361 0.041407 0.756769
O O8 0.019251 0.517023 0.549884
O O9 0.610998 0.080816 0.071470
O O10 0.435910 0.207173 0.469453
#
# Coordination Sequence:
#
# PCOD9116608 Si02
#       5
#     2   2   2   2   2
#     4  10  23  43  70 102 138 183 235 293 347 417
#     4  10  23  43  70 102 138 183 235 293 347 417
#     4  11  26  46  72 105 145 192 237 294 364 429
#     4  11  26  46  72 105 145 192 237 294 364 429
#     4  10  22  38  62  98 130 170 220 278 348 398
#
# _framework density 27.194369999999999
#
# number of rings (size 3 to 8) (size 9 to 14) (size 15 to 20)
#    0.000    1.600    0.000    2.400    5.600   12.800 
#    3.600    0.000    0.000    0.000    0.000    0.000 
#    0.000    0.000    0.000    0.000    0.000    0.000 
#
# Total GULP energy -55767.790153 kJ/mol
# GULP energy per Si atom -5576.779015 kJ/mol
# Density = 2.713247 g / cm^3
# Si number density = 27.194370 Si / 1000 Ang^3
#
#
#
# Elastic Constant Matrix: (Units=GPa)
#
#
# Indices 1 2 3 4 5 6 
#
# 1 98.0773 37.3814 30.8135 0.0000 39.1034 0.0000
# 2 37.3814 122.4483 40.2369 0.0000 5.9621 0.0000
# 3 30.8135 40.2369 106.8728 0.0000 0.8136 0.0000
# 4 0.0000 0.0000 0.0000 33.4598 0.0000 -1.0325
# 5 39.1034 5.9621 0.8136 0.0000 49.5714 0.0000
# 6 0.0000 0.0000 0.0000 -1.0325 0.0000 32.7032
#
#
#
# Elastic Compliance Matrix: (Units=1/GPa)
#
#
# Indices 1 2 3 4 5 6 
#
# 1 0.018369 -0.003676 -0.003806 0.000000 -0.013985 0.000000
# 2 -0.003676 0.010112 -0.002760 0.000000 0.001729 0.000000
# 3 -0.003806 -0.002760 0.011469 0.000000 0.003146 0.000000
# 4 0.000000 0.000000 0.000000 0.029916 0.000000 0.000944
# 5 -0.013985 0.001729 0.003146 0.000000 0.030945 0.000000
# 6 0.000000 0.000000 0.000000 0.000944 0.000000 0.030608
#
#
# Mechanical properties :
#
#
# Convention : Reuss Voigt Hill
#
# Bulk Modulus (GPa) = 51.37182 60.47354 55.92268
# Shear Modulus (GPa) = 31.56740 37.74466 34.65603
#
# Velocity S-wave (km/s) = 3.41076 3.72957 3.57372
# Velocity P-wave (km/s) = 5.86878 6.39000 6.13493
#
# Compressibility (1/GPa) = 0.01946593
#
# Stress axis : x y z
#
# Youngs Moduli (GPa) = 54.44063 98.89395 87.18853
#
# Poissons Ratio (x) = 0.36355 0.33180
# Poissons Ratio (y) = 0.20013 0.24067
# Poissons Ratio (z) = 0.20717 0.27298
#
# Static dielectric constant tensor:
#      x y z
#    x 2.238760 0.000000 -0.116820 
#    y 0.000000 2.143450 0.000000 
#    z -0.116820 0.000000 2.218540 
# 
# From -- ./inp_files/5047.got.cif
#   From: 2010.05.17/outbox.cif.g08.bks.cpg/sg4_3_cif.got.tgz:5047.got - 2010.06.03 18:43:04.
