data_PCOD9116031
_publ_section_title
;
Structure prediction by ZEFSAII (Michael W. Deem and Ramdas Pophale) SiO2 
 PCOD9116031
Probable space group: P 21
;
_chemical_formula_sum "Si O2"
_cell_formula_units_Z 16
_cell_length_a 9.473443
_cell_length_b 10.391661
_cell_length_c 6.403889
_cell_angle_alpha 90.000000
_cell_angle_beta 87.561097
_cell_angle_gamma 90.000000
_cell_volume 629.858560
_symmetry_space_group_name_H-M "P 21"
_symmetry_group_IT_number 4
_symmetry_cell_setting 'monoclinic'
loop_
_space_group_symop_operation_xyz
x,y,z
-x,1/2+y,-z
loop_
_atom_site_type_symbol
_atom_site_label
_atom_site_fract_x
_atom_site_fract_y
_atom_site_fract_z
Si Si1 0.990983 0.396320 0.945169
Si Si2 0.226114 0.396807 0.290597
Si Si3 0.583973 0.686171 0.323461
Si Si4 0.205553 0.971263 0.695088
Si Si5 0.430538 0.539849 0.994871
Si Si6 0.012084 0.804669 0.482298
Si Si7 0.536240 0.451944 0.598080
Si Si8 0.178709 0.584705 0.680651
O O1 0.972986 0.290074 0.766133
O O2 0.051237 0.516100 0.811826
O O3 0.848384 0.420305 0.080159
O O4 0.116409 0.379860 0.104014
O O5 0.216830 0.511755 0.462000
O O6 0.150512 0.287150 0.437344
O O7 0.370029 0.430618 0.157668
O O8 0.732408 0.614455 0.272797
O O9 0.514684 0.594604 0.504252
O O10 0.574914 0.833993 0.392205
O O11 0.489272 0.657668 0.125462
O O12 0.071235 0.946057 0.553631
O O13 0.334032 0.908032 0.554902
O O14 0.553163 0.480880 0.841948
O O15 0.306433 0.579137 0.840636
O O16 0.115841 0.717518 0.608502
#
# Coordination Sequence:
#
# PCOD9116031 Si02
#       8
#     2   2   2   2   2   2   2   2
#     4   9  20  42  62  95 132 171 221 279 355 412
#     4   9  21  40  59  94 127 165 214 275 343 405
#     4  10  25  45  67 102 143 189 236 287 352 415
#     4   9  23  39  67  98 137 180 229 286 347 410
#     4  11  23  41  68  98 139 180 230 285 351 416
#     4  10  21  39  64  97 129 175 225 285 344 421
#     4  10  25  44  66 103 140 184 239 293 343 418
#     4  10  22  40  69  97 133 170 230 290 345 423
#
# _framework density 25.402529000000001
#
# number of rings (size 3 to 8) (size 9 to 14) (size 15 to 20)
#    0.750    1.500    0.000    0.750    5.250    7.000 
#    0.000   13.750    0.000    0.000    0.000    0.000 
#    0.000    0.000    0.000    0.000    0.000    0.000 
#
# Total GULP energy -89071.770865 kJ/mol
# GULP energy per Si atom -5566.985679 kJ/mol
# Density = 2.534471 g / cm^3
# Si number density = 25.402529 Si / 1000 Ang^3
#
#
#
# Elastic Constant Matrix: (Units=GPa)
#
#
# Indices 1 2 3 4 5 6 
#
# 1 76.3084 10.5504 51.2195 0.0000 1.4480 0.0000
# 2 10.5504 61.3066 26.1518 0.0000 7.0502 0.0000
# 3 51.2195 26.1518 187.8544 0.0000 -25.3193 0.0000
# 4 0.0000 0.0000 0.0000 26.8907 0.0000 11.8724
# 5 1.4480 7.0502 -25.3193 0.0000 52.9291 0.0000
# 6 0.0000 0.0000 0.0000 11.8724 0.0000 26.6657
#
#
#
# Elastic Compliance Matrix: (Units=1/GPa)
#
#
# Indices 1 2 3 4 5 6 
#
# 1 0.016424 -0.000485 -0.004770 0.000000 -0.002666 0.000000
# 2 -0.000485 0.018062 -0.002891 0.000000 -0.003776 0.000000
# 3 -0.004770 -0.002891 0.007585 0.000000 0.004144 0.000000
# 4 0.000000 0.000000 0.000000 0.046286 0.000000 -0.020608
# 5 -0.002666 -0.003776 0.004144 0.000000 0.021451 0.000000
# 6 0.000000 0.000000 0.000000 -0.020608 0.000000 0.046677
#
#
# Mechanical properties :
#
#
# Convention : Reuss Voigt Hill
#
# Bulk Modulus (GPa) = 38.79138 55.70144 47.24641
# Shear Modulus (GPa) = 27.56782 37.13362 32.35072
#
# Velocity S-wave (km/s) = 3.29787 3.82751 3.57252
# Velocity P-wave (km/s) = 5.45940 6.44269 5.97132
#
# Compressibility (1/GPa) = 0.02577892
#
# Stress axis : x y z
#
# Youngs Moduli (GPa) = 60.88630 55.36355 131.84191
#
# Poissons Ratio (x) = 0.02685 0.62888
# Poissons Ratio (y) = 0.02953 0.38118
# Poissons Ratio (z) = 0.29043 0.16007
#
# Static dielectric constant tensor:
#      x y z
#    x 2.114520 0.000000 0.022770 
#    y 0.000000 2.046420 0.000000 
#    z 0.022770 0.000000 2.035390 
# 
# From -- ./inp_files/2951.got.cif
#   From: 2010.05.17/outbox.cif.g08.bks.cpg/sg4_2_cif.got.tgz:2951.got - 2010.06.03 18:43:04.
