data_PCOD9116795
_publ_section_title
;
Structure prediction by ZEFSAII (Michael W. Deem and Ramdas Pophale) SiO2 
 PCOD9116795
Probable space group: P 21
;
_chemical_formula_sum "Si O2"
_cell_formula_units_Z 14
_cell_length_a 11.675347
_cell_length_b 5.251580
_cell_length_c 11.700770
_cell_angle_alpha 90.000000
_cell_angle_beta 50.571395
_cell_angle_gamma 90.000000
_cell_volume 554.148059
_symmetry_space_group_name_H-M "P 21"
_symmetry_group_IT_number 4
_symmetry_cell_setting 'monoclinic'
loop_
_space_group_symop_operation_xyz
x,y,z
-x,1/2+y,-z
loop_
_atom_site_type_symbol
_atom_site_label
_atom_site_fract_x
_atom_site_fract_y
_atom_site_fract_z
Si Si1 0.684516 0.106900 0.715461
Si Si2 0.118126 0.621359 0.195930
Si Si3 0.442675 0.988828 0.353100
Si Si4 0.626637 0.392992 0.109657
Si Si5 0.690215 0.697148 0.270658
Si Si6 0.961900 0.372259 0.098809
Si Si7 0.802566 0.866089 0.410822
O O1 0.806000 0.054187 0.732934
O O2 0.625311 0.388649 0.723567
O O3 0.531829 0.963620 0.844929
O O4 0.753677 0.039235 0.547291
O O5 0.054143 0.393644 0.157923
O O6 0.973548 0.792938 0.310824
O O7 0.246215 0.772650 0.046851
O O8 0.571411 0.188893 0.239624
O O9 0.311680 0.132083 0.498583
O O10 0.515720 0.769803 0.386639
O O11 0.686135 0.647844 0.135149
O O12 0.768054 0.912825 0.299167
O O13 0.794069 0.455360 0.232410
O O14 0.985508 0.120801 0.009417
#
# Coordination Sequence:
#
# PCOD9116795 Si02
#       7
#     2   2   2   2   2   2   2
#     4  10  25  45  65 102 139 192 245 288 383 448
#     4  11  24  46  71 103 145 190 239 318 372 450
#     4  10  23  42  71  98 140 181 244 295 367 458
#     4  10  22  45  69 104 138 179 245 304 370 446
#     4  10  22  40  71 100 139 187 239 306 367 438
#     4  11  23  46  70 109 149 189 248 310 390 441
#     4  10  25  44  67 100 138 192 236 303 371 451
#
# _framework density 25.264008
#
# number of rings (size 3 to 8) (size 9 to 14) (size 15 to 20)
#    0.000    1.714    1.429    0.857   10.000    0.000 
#   12.857    0.000    0.000    0.000    0.000    0.000 
#    0.000    0.000    0.000    0.000    0.000    0.000 
#
# Total GULP energy -78041.896024 kJ/mol
# GULP energy per Si atom -5574.421145 kJ/mol
# Density = 2.520651 g / cm^3
# Si number density = 25.264008 Si / 1000 Ang^3
#
#
#
# Elastic Constant Matrix: (Units=GPa)
#
#
# Indices 1 2 3 4 5 6 
#
# 1 204.2026 28.9837 25.4794 0.0000 10.6952 0.0000
# 2 28.9837 66.3230 42.3184 0.0000 -4.4491 0.0000
# 3 25.4794 42.3184 123.1548 0.0000 -26.3294 0.0000
# 4 0.0000 0.0000 0.0000 35.8013 0.0000 -0.7516
# 5 10.6952 -4.4491 -26.3294 0.0000 42.6319 0.0000
# 6 0.0000 0.0000 0.0000 -0.7516 0.0000 13.1323
#
#
#
# Elastic Compliance Matrix: (Units=1/GPa)
#
#
# Indices 1 2 3 4 5 6 
#
# 1 0.005394 -0.001919 -0.000908 0.000000 -0.002114 0.000000
# 2 -0.001919 0.020210 -0.006906 0.000000 -0.001674 0.000000
# 3 -0.000908 -0.006906 0.012184 0.000000 0.007032 0.000000
# 4 0.000000 0.000000 0.000000 0.027966 0.000000 0.001601
# 5 -0.002114 -0.001674 0.007032 0.000000 0.028155 0.000000
# 6 0.000000 0.000000 0.000000 0.001601 0.000000 0.076240
#
#
# Mechanical properties :
#
#
# Convention : Reuss Voigt Hill
#
# Bulk Modulus (GPa) = 54.58040 65.24926 59.91483
# Shear Modulus (GPa) = 25.54642 38.10637 31.82640
#
# Velocity S-wave (km/s) = 3.18335 3.88793 3.55315
# Velocity P-wave (km/s) = 5.92980 6.78511 6.37182
#
# Compressibility (1/GPa) = 0.01832160
#
# Stress axis : x y z
#
# Youngs Moduli (GPa) = 185.40488 49.47969 82.07433
#
# Poissons Ratio (x) = 0.09496 0.07456
# Poissons Ratio (y) = 0.35584 0.56677
# Poissons Ratio (z) = 0.16843 0.34168
#
# Static dielectric constant tensor:
#      x y z
#    x 1.994400 0.000000 0.042510 
#    y 0.000000 2.119150 0.000000 
#    z 0.042510 0.000000 2.118770 
# 
# From -- ./inp_files/11564.got.cif
#   From: 2010.05.17/outbox.cif.g08.bks.cpg/sg4_6_cif.got.tgz:11564.got - 2010.06.03 18:43:04.
