data_PCOD9116228
_publ_section_title
;
Structure prediction by ZEFSAII (Michael W. Deem and Ramdas Pophale) SiO2 
 PCOD9116228
Probable space group: P 21
;
_chemical_formula_sum "Si O2"
_cell_formula_units_Z 16
_cell_length_a 19.080035
_cell_length_b 5.053218
_cell_length_c 8.817331
_cell_angle_alpha 90.000000
_cell_angle_beta 49.772849
_cell_angle_gamma 90.000000
_cell_volume 649.064330
_symmetry_space_group_name_H-M "P 21"
_symmetry_group_IT_number 4
_symmetry_cell_setting 'monoclinic'
loop_
_space_group_symop_operation_xyz
x,y,z
-x,1/2+y,-z
loop_
_atom_site_type_symbol
_atom_site_label
_atom_site_fract_x
_atom_site_fract_y
_atom_site_fract_z
Si Si1 0.517888 0.243900 0.379554
Si Si2 0.785041 0.051995 0.857722
Si Si3 0.294603 0.045536 0.894130
Si Si4 0.093903 0.137150 0.782838
Si Si5 0.268965 0.421400 0.399091
Si Si6 0.452244 0.114641 0.140338
Si Si7 0.087646 0.452791 0.086308
Si Si8 0.233117 0.764093 0.697132
O O1 0.465294 0.481352 0.541897
O O2 0.610367 0.399224 0.207667
O O3 0.470508 0.142755 0.293696
O O4 0.759120 0.050039 0.718979
O O5 0.882601 0.932451 0.780596
O O6 0.713830 0.840087 0.032448
O O7 0.777899 0.357070 0.918637
O O8 0.275442 0.997883 0.741009
O O9 0.146842 0.861656 0.719613
O O10 0.001916 0.128208 0.814891
O O11 0.174367 0.310183 0.599309
O O12 0.071415 0.215589 0.989145
O O13 0.347043 0.202932 0.261170
O O14 0.301531 0.622631 0.486220
O O15 0.516854 0.331617 0.966033
O O16 0.182276 0.573427 0.886377
#
# Coordination Sequence:
#
# PCOD9116228 Si02
#       8
#     2   2   2   2   2   2   2   2
#     4  12  25  41  68 104 134 173 232 297 341 407
#     4  11  24  44  66  96 133 182 225 277 337 414
#     4  11  23  43  68  93 134 177 227 277 345 406
#     4  11  21  40  66  95 132 172 225 281 330 412
#     4  11  27  42  67 102 134 182 230 286 347 403
#     4  12  27  48  72  99 144 190 230 284 358 427
#     4  10  21  41  65  97 128 179 225 270 342 400
#     4  10  22  39  68  92 131 173 224 276 332 403
#
# _framework density 24.650870999999999
#
# number of rings (size 3 to 8) (size 9 to 14) (size 15 to 20)
#    0.000    1.000    2.500    3.750    5.250    0.000 
#    2.250    0.000    0.000    0.000    0.000    0.000 
#    0.000    0.000    0.000    0.000    0.000    0.000 
#
# Total GULP energy -89403.411826 kJ/mol
# GULP energy per Si atom -5587.713239 kJ/mol
# Density = 2.459476 g / cm^3
# Si number density = 24.650871 Si / 1000 Ang^3
#
#
#
# Elastic Constant Matrix: (Units=GPa)
#
#
# Indices 1 2 3 4 5 6 
#
# 1 98.3330 -19.4104 20.8424 0.0000 13.0716 0.0000
# 2 -19.4104 75.9311 22.4001 0.0000 10.1451 0.0000
# 3 20.8424 22.4001 67.4093 0.0000 3.1552 0.0000
# 4 0.0000 0.0000 0.0000 12.8515 0.0000 -13.3753
# 5 13.0716 10.1451 3.1552 0.0000 31.5977 0.0000
# 6 0.0000 0.0000 0.0000 -13.3753 0.0000 24.1012
#
#
#
# Elastic Compliance Matrix: (Units=1/GPa)
#
#
# Indices 1 2 3 4 5 6 
#
# 1 0.013565 0.006145 -0.005909 0.000000 -0.006995 0.000000
# 2 0.006145 0.017969 -0.007517 0.000000 -0.007561 0.000000
# 3 -0.005909 -0.007517 0.019021 0.000000 0.002959 0.000000
# 4 0.000000 0.000000 0.000000 0.184207 0.000000 0.102229
# 5 -0.006995 -0.007561 0.002959 0.000000 0.036674 0.000000
# 6 0.000000 0.000000 0.000000 0.102229 0.000000 0.098225
#
#
# Mechanical properties :
#
#
# Convention : Reuss Voigt Hill
#
# Bulk Modulus (GPa) = 27.78304 32.14864 29.96584
# Shear Modulus (GPa) = 12.61928 28.23285 20.42606
#
# Velocity S-wave (km/s) = 2.26502 3.38791 2.88169
# Velocity P-wave (km/s) = 4.25858 5.32671 4.82231
#
# Compressibility (1/GPa) = 0.03599319
#
# Stress axis : x y z
#
# Youngs Moduli (GPa) = 73.72025 55.65287 52.57308
#
# Poissons Ratio (x) = -0.34200 0.31064
# Poissons Ratio (y) = -0.45303 0.39520
# Poissons Ratio (z) = 0.43560 0.41835
#
# Static dielectric constant tensor:
#      x y z
#    x 1.980950 0.000000 0.038780 
#    y 0.000000 2.035420 0.000000 
#    z 0.038780 0.000000 2.156100 
# 
# From -- ./inp_files/9492.got.cif
#   From: 2010.05.17/outbox.cif.g08.bks.cpg/sg4_5_cif.got.tgz:9492.got - 2010.06.03 18:43:04.
