data_PCOD9116072
_publ_section_title
;
Structure prediction by ZEFSAII (Michael W. Deem and Ramdas Pophale) SiO2 
 PCOD9116072
Probable space group: P 21
;
_chemical_formula_sum "Si O2"
_cell_formula_units_Z 14
_cell_length_a 8.497513
_cell_length_b 15.842255
_cell_length_c 5.064255
_cell_angle_alpha 90.000000
_cell_angle_beta 56.787894
_cell_angle_gamma 90.000000
_cell_volume 570.384206
_symmetry_space_group_name_H-M "P 21"
_symmetry_group_IT_number 4
_symmetry_cell_setting 'monoclinic'
loop_
_space_group_symop_operation_xyz
x,y,z
-x,1/2+y,-z
loop_
_atom_site_type_symbol
_atom_site_label
_atom_site_fract_x
_atom_site_fract_y
_atom_site_fract_z
Si Si1 0.274115 0.879840 0.071422
Si Si2 0.707947 0.702557 0.482408
Si Si3 0.199374 0.037943 0.842515
Si Si4 0.155194 0.706376 0.029847
Si Si5 0.914839 0.943986 0.708680
Si Si6 0.143729 0.600202 0.552368
Si Si7 0.391732 0.306840 0.913760
O O1 0.241586 0.798058 0.922450
O O2 0.073862 0.897877 0.391310
O O3 0.426585 0.856480 0.149861
O O4 0.317682 0.963242 0.863416
O O5 0.685371 0.603464 0.440128
O O6 0.656530 0.738227 0.814448
O O7 0.930004 0.715700 0.223789
O O8 0.600075 0.757457 0.365608
O O9 0.032830 0.996240 0.818590
O O10 0.081163 0.087046 0.180319
O O11 0.188897 0.668752 0.288545
O O12 0.219788 0.638686 0.753362
O O13 0.775167 0.875254 0.951943
O O14 0.805634 0.009965 0.618820
#
# Coordination Sequence:
#
# PCOD9116072 Si02
#       7
#     2   2   2   2   2   2   2
#     4  11  27  44  71 106 142 184 233 287 348 417
#     4  11  23  46  70 102 138 183 229 288 340 416
#     4  10  23  44  74 101 138 186 234 284 351 407
#     4  11  21  42  72  98 136 180 230 281 343 414
#     4  11  23  46  75  99 140 188 226 295 339 411
#     4  10  21  39  70 105 127 178 236 274 344 409
#     4  12  28  45  70 105 143 179 236 283 349 416
#
# _framework density 24.544858999999999
#
# number of rings (size 3 to 8) (size 9 to 14) (size 15 to 20)
#    0.000    1.143    4.286    2.571    8.000    0.000 
#    5.143    0.000    0.000    0.000    0.000    0.000 
#    0.000    0.000    0.000    0.000    0.000    0.000 
#
# Total GULP energy -78406.039959 kJ/mol
# GULP energy per Si atom -5600.431426 kJ/mol
# Density = 2.448899 g / cm^3
# Si number density = 24.544859 Si / 1000 Ang^3
#
#
#
# Elastic Constant Matrix: (Units=GPa)
#
#
# Indices 1 2 3 4 5 6 
#
# 1 64.0376 19.2844 21.6951 0.0000 -2.8420 0.0000
# 2 19.2844 118.1249 31.9561 0.0000 -6.6156 0.0000
# 3 21.6951 31.9561 57.3897 0.0000 18.1957 0.0000
# 4 0.0000 0.0000 0.0000 9.7973 0.0000 23.1620
# 5 -2.8420 -6.6156 18.1957 0.0000 33.9510 0.0000
# 6 0.0000 0.0000 0.0000 23.1620 0.0000 32.5044
#
#
#
# Elastic Compliance Matrix: (Units=1/GPa)
#
#
# Indices 1 2 3 4 5 6 
#
# 1 0.019062 -0.000301 -0.009066 0.000000 0.006396 0.000000
# 2 -0.000301 0.011069 -0.008103 0.000000 0.006474 0.000000
# 3 -0.009066 -0.008103 0.031449 0.000000 -0.019192 0.000000
# 4 0.000000 0.000000 0.000000 -0.149086 0.000000 0.106236
# 5 0.006396 0.006474 -0.019192 0.000000 0.041537 0.000000
# 6 0.000000 0.000000 0.000000 0.106236 0.000000 -0.044936
#
#
# Mechanical properties :
#
#
# Convention : Reuss Voigt Hill
#
# Bulk Modulus (GPa) = 37.53706 42.82484 40.18095
# Shear Modulus (GPa) = -106.19090 26.35831 -39.91630
#
# Velocity S-wave (km/s) = -6.58467 3.28057 -4.03707
# Velocity P-wave (km/s) = 6.51799 5.64225 2.30750
#
# Compressibility (1/GPa) = 0.02664034
#
# Stress axis : x y z
#
# Youngs Moduli (GPa) = 52.46081 90.33967 31.79769
#
# Poissons Ratio (x) = 0.02720 0.28828
# Poissons Ratio (y) = 0.01579 0.25764
# Poissons Ratio (z) = 0.47562 0.73198
#
# Static dielectric constant tensor:
#      x y z
#    x 1.945560 0.000000 0.009040 
#    y 0.000000 1.969320 0.000000 
#    z 0.009040 0.000000 1.930840 
# 
# From -- ./inp_files/1783.got.cif
#   From: 2010.05.17/outbox.cif.g08.bks.cpg/sg4_1_cif.got.tgz:1783.got - 2010.06.03 18:43:04.
