data_PCOD9116413
_publ_section_title
;
Structure prediction by ZEFSAII (Michael W. Deem and Ramdas Pophale) SiO2 
 PCOD9116413
Probable space group: P 21
;
_chemical_formula_sum "Si O2"
_cell_formula_units_Z 14
_cell_length_a 7.115053
_cell_length_b 11.350480
_cell_length_c 8.742999
_cell_angle_alpha 90.000000
_cell_angle_beta 47.898591
_cell_angle_gamma 90.000000
_cell_volume 523.881317
_symmetry_space_group_name_H-M "P 21"
_symmetry_group_IT_number 4
_symmetry_cell_setting 'monoclinic'
loop_
_space_group_symop_operation_xyz
x,y,z
-x,1/2+y,-z
loop_
_atom_site_type_symbol
_atom_site_label
_atom_site_fract_x
_atom_site_fract_y
_atom_site_fract_z
Si Si1 0.932187 0.402370 0.909938
Si Si2 0.882877 0.929957 0.667223
Si Si3 0.802493 0.156284 0.902795
Si Si4 0.679784 0.109507 0.300512
Si Si5 0.176201 0.245455 0.064024
Si Si6 0.576742 0.537232 0.268641
Si Si7 0.358600 0.858682 0.220668
O O1 0.982879 0.262566 0.866355
O O2 0.722421 0.427247 0.889401
O O3 0.161755 0.489334 0.764109
O O4 0.780389 0.431789 0.147006
O O5 0.686969 0.981736 0.648946
O O6 0.160376 0.904287 0.450490
O O7 0.894877 0.032988 0.787227
O O8 0.784629 0.804647 0.787959
O O9 0.699387 0.226449 0.811024
O O10 0.628101 0.128554 0.147188
O O11 0.464542 0.098087 0.545122
O O12 0.881511 0.210580 0.233997
O O13 0.351460 0.347034 0.887615
O O14 0.290637 0.129267 0.920354
#
# Coordination Sequence:
#
# PCOD9116413 Si02
#       7
#     2   2   2   2   2   2   2
#     4   9  21  43  65  96 140 169 228 278 340 402
#     4  12  22  40  73  99 132 179 237 278 339 409
#     4  10  24  44  67 103 137 180 226 284 344 407
#     4  11  24  44  70  93 144 181 219 287 356 402
#     4  11  24  41  66 101 131 175 234 289 330 411
#     4  11  20  43  68  97 133 183 221 284 347 397
#     4  10  21  43  67  99 133 175 229 282 332 398
#
# _framework density 26.723607999999999
#
# number of rings (size 3 to 8) (size 9 to 14) (size 15 to 20)
#    0.857    0.571    4.286    0.857    2.000    0.000 
#    2.571    7.143    0.000    0.000    0.000    0.000 
#    0.000    0.000    0.000    0.000    0.000    0.000 
#
# Total GULP energy -77969.169037 kJ/mol
# GULP energy per Si atom -5569.226360 kJ/mol
# Density = 2.666278 g / cm^3
# Si number density = 26.723608 Si / 1000 Ang^3
#
#
#
# Elastic Constant Matrix: (Units=GPa)
#
#
# Indices 1 2 3 4 5 6 
#
# 1 61.8868 49.8359 21.2533 0.0000 7.6358 0.0000
# 2 49.8359 162.3261 80.3644 0.0000 11.9750 0.0000
# 3 21.2533 80.3644 194.1812 0.0000 1.6311 0.0000
# 4 0.0000 0.0000 0.0000 43.6918 0.0000 3.4134
# 5 7.6358 11.9750 1.6311 0.0000 35.3014 0.0000
# 6 0.0000 0.0000 0.0000 3.4134 0.0000 49.8287
#
#
#
# Elastic Compliance Matrix: (Units=1/GPa)
#
#
# Indices 1 2 3 4 5 6 
#
# 1 0.021703 -0.006687 0.000413 0.000000 -0.002445 0.000000
# 2 -0.006687 0.010032 -0.003405 0.000000 -0.001799 0.000000
# 3 0.000413 -0.003405 0.006507 0.000000 0.000765 0.000000
# 4 0.000000 0.000000 0.000000 0.023011 0.000000 -0.001576
# 5 -0.002445 -0.001799 0.000765 0.000000 0.029431 0.000000
# 6 0.000000 0.000000 0.000000 -0.001576 0.000000 0.020177
#
#
# Mechanical properties :
#
#
# Convention : Reuss Voigt Hill
#
# Bulk Modulus (GPa) = 52.95451 80.14459 66.54955
# Shear Modulus (GPa) = 36.62606 43.56040 40.09323
#
# Velocity S-wave (km/s) = 3.70611 4.04175 3.87756
# Velocity P-wave (km/s) = 6.17838 7.19974 6.70852
#
# Compressibility (1/GPa) = 0.01888413
#
# Stress axis : x y z
#
# Youngs Moduli (GPa) = 46.07553 99.68274 153.67231
#
# Poissons Ratio (x) = 0.66659 -0.06341
# Poissons Ratio (y) = 0.30811 0.52322
# Poissons Ratio (z) = -0.01901 0.33940
#
# Static dielectric constant tensor:
#      x y z
#    x 2.386150 0.000000 0.034150 
#    y 0.000000 2.126750 0.000000 
#    z 0.034150 0.000000 2.093200 
# 
# From -- ./inp_files/6370.got.cif
#   From: 2010.05.17/outbox.cif.g08.bks.cpg/sg4_4_cif.got.tgz:6370.got - 2010.06.03 18:43:04.
