data_PCOD9116643
_publ_section_title
;
Structure prediction by ZEFSAII (Michael W. Deem and Ramdas Pophale) SiO2 
 PCOD9116643
Probable space group: P 21
;
_chemical_formula_sum "Si O2"
_cell_formula_units_Z 16
_cell_length_a 11.927912
_cell_length_b 10.928531
_cell_length_c 5.003120
_cell_angle_alpha 90.000000
_cell_angle_beta 75.781597
_cell_angle_gamma 90.000000
_cell_volume 632.200952
_symmetry_space_group_name_H-M "P 21"
_symmetry_group_IT_number 4
_symmetry_cell_setting 'monoclinic'
loop_
_space_group_symop_operation_xyz
x,y,z
-x,1/2+y,-z
loop_
_atom_site_type_symbol
_atom_site_label
_atom_site_fract_x
_atom_site_fract_y
_atom_site_fract_z
Si Si1 0.498057 0.851540 0.172779
Si Si2 0.635486 0.780308 0.553477
Si Si3 0.934805 0.120085 0.837675
Si Si4 0.928073 0.864628 0.724534
Si Si5 0.295209 0.697670 0.146030
Si Si6 0.955727 0.451407 0.860236
Si Si7 0.640762 0.036184 0.387726
Si Si8 0.171079 0.126917 0.355073
O O1 0.575341 0.825518 0.863486
O O2 0.540653 0.758276 0.380414
O O3 0.369289 0.818820 0.160301
O O4 0.525447 0.980131 0.306539
O O5 0.715962 0.663940 0.550507
O O6 0.701497 0.901876 0.399762
O O7 0.971502 0.078720 0.114749
O O8 0.866948 0.993942 0.803270
O O9 0.843075 0.217339 0.786567
O O10 0.057823 0.118413 0.612906
O O11 0.975760 0.877383 0.400867
O O12 0.848917 0.748987 0.808856
O O13 0.032644 0.872873 0.877476
O O14 0.343900 0.602549 0.337931
O O15 0.316570 0.637116 0.845175
O O16 0.837329 0.507143 0.821201
#
# Coordination Sequence:
#
# PCOD9116643 Si02
#       8
#     2   2   2   2   2   2   2   2
#     4  10  23  40  61 101 120 163 214 253 319 362
#     4  10  22  39  62  95 124 156 216 247 309 369
#     4   9  24  37  60 100 118 164 210 245 321 359
#     4   9  21  35  58  84 123 155 204 246 299 358
#     4  12  22  40  71  88 133 156 204 277 299 369
#     4   9  22  35  51  92 118 154 209 233 298 371
#     4  10  22  39  66 100 115 165 214 258 310 356
#     4  11  22  39  67  86 135 159 199 271 299 370
#
# _framework density 25.308409000000001
#
# number of rings (size 3 to 8) (size 9 to 14) (size 15 to 20)
#    1.500    0.500    1.250    1.500    8.750    0.000 
#    0.000    0.000   13.750    0.000    0.000    0.000 
#    0.000    0.000    0.000    0.000    0.000    0.000 
#
# Total GULP energy -89094.163707 kJ/mol
# GULP energy per Si atom -5568.385232 kJ/mol
# Density = 2.525081 g / cm^3
# Si number density = 25.308409 Si / 1000 Ang^3
#
#
#
# Elastic Constant Matrix: (Units=GPa)
#
#
# Indices 1 2 3 4 5 6 
#
# 1 119.0914 24.9049 28.0789 0.0000 10.6530 0.0000
# 2 24.9049 41.5740 2.3311 0.0000 4.9607 0.0000
# 3 28.0789 2.3311 124.0557 0.0000 26.2757 0.0000
# 4 0.0000 0.0000 0.0000 22.4484 0.0000 12.4273
# 5 10.6530 4.9607 26.2757 0.0000 22.2261 0.0000
# 6 0.0000 0.0000 0.0000 12.4273 0.0000 45.2993
#
#
#
# Elastic Compliance Matrix: (Units=1/GPa)
#
#
# Indices 1 2 3 4 5 6 
#
# 1 0.010188 -0.005839 -0.001918 0.000000 -0.001312 0.000000
# 2 -0.005839 0.028140 0.002042 0.000000 -0.005896 0.000000
# 3 -0.001918 0.002042 0.011151 0.000000 -0.012718 0.000000
# 4 0.000000 0.000000 0.000000 0.052523 0.000000 -0.014409
# 5 -0.001312 -0.005896 -0.012718 0.000000 0.061973 0.000000
# 6 0.000000 0.000000 0.000000 -0.014409 0.000000 0.026028
#
#
# Mechanical properties :
#
#
# Convention : Reuss Voigt Hill
#
# Bulk Modulus (GPa) = 26.28305 43.92787 35.10546
# Shear Modulus (GPa) = 23.35179 33.28849 28.32014
#
# Velocity S-wave (km/s) = 3.04088 3.63066 3.34878
# Velocity P-wave (km/s) = 4.76832 5.91357 5.37155
#
# Compressibility (1/GPa) = 0.03804734
#
# Stress axis : x y z
#
# Youngs Moduli (GPa) = 98.15871 35.53627 89.68173
#
# Poissons Ratio (x) = 0.20749 0.17203
# Poissons Ratio (y) = 0.57313 -0.18309
# Poissons Ratio (z) = 0.18830 -0.07255
#
# Static dielectric constant tensor:
#      x y z
#    x 2.095290 0.000000 -0.006530 
#    y 0.000000 2.147430 0.000000 
#    z -0.006530 0.000000 2.033110 
# 
# From -- ./inp_files/2945.got.cif
#   From: 2010.05.17/outbox.cif.g08.bks.cpg/sg4_2_cif.got.tgz:2945.got - 2010.06.03 18:43:04.
