data_PCOD9116553
_publ_section_title
;
Structure prediction by ZEFSAII (Michael W. Deem and Ramdas Pophale) SiO2 
 PCOD9116553
Probable space group: P 21
;
_chemical_formula_sum "Si O2"
_cell_formula_units_Z 16
_cell_length_a 12.735853
_cell_length_b 7.429037
_cell_length_c 7.084492
_cell_angle_alpha 90.000000
_cell_angle_beta 63.378216
_cell_angle_gamma 90.000000
_cell_volume 599.237505
_symmetry_space_group_name_H-M "P 21"
_symmetry_group_IT_number 4
_symmetry_cell_setting 'monoclinic'
loop_
_space_group_symop_operation_xyz
x,y,z
-x,1/2+y,-z
loop_
_atom_site_type_symbol
_atom_site_label
_atom_site_fract_x
_atom_site_fract_y
_atom_site_fract_z
Si Si1 0.702682 0.967640 0.458374
Si Si2 0.147686 0.657843 0.978605
Si Si3 0.084718 0.987359 0.225887
Si Si4 0.981441 0.376625 0.318886
Si Si5 0.258571 0.058586 0.595290
Si Si6 0.334491 0.556375 0.094852
Si Si7 0.505883 0.898921 0.298273
Si Si8 0.693499 0.662406 0.018101
O O1 0.555545 0.705664 0.182036
O O2 0.798389 0.068884 0.252149
O O3 0.718708 0.862722 0.924658
O O4 0.589736 0.946759 0.409509
O O5 0.977920 0.676394 0.766011
O O6 0.261483 0.689829 0.023514
O O7 0.065435 0.517881 0.150723
O O8 0.017061 0.896516 0.455052
O O9 0.081254 0.847064 0.055916
O O10 0.220286 0.039144 0.176039
O O11 0.851338 0.440885 0.372834
O O12 0.374777 0.940952 0.461899
O O13 0.257175 0.106878 0.818384
O O14 0.264934 0.262398 0.510650
O O15 0.318915 0.570638 0.328634
O O16 0.463690 0.535955 0.899188
#
# Coordination Sequence:
#
# PCOD9116553 Si02
#       8
#     2   2   2   2   2   2   2   2
#     4  10  21  48  86 114 163 217 275 344 422 502
#     4  11  24  50  80 121 166 205 287 353 411 502
#     4  12  24  50  79 114 167 224 280 358 414 498
#     4  12  25  47  81 117 169 223 283 345 430 499
#     4  11  22  46  79 121 163 222 277 338 426 490
#     4   9  19  47  82 114 156 211 272 338 418 486
#     4   8  20  44  76 118 168 200 270 345 397 494
#     4   9  21  48  77 109 164 204 276 341 398 495
#
# _framework density 26.700596999999998
#
# number of rings (size 3 to 8) (size 9 to 14) (size 15 to 20)
#    0.750    1.000    3.750    0.750    0.000    0.000 
#   22.500    0.000    5.500    0.000    0.000    0.000 
#    0.000    0.000    0.000    0.000    0.000    0.000 
#
# Total GULP energy -89391.065037 kJ/mol
# GULP energy per Si atom -5586.941565 kJ/mol
# Density = 2.663983 g / cm^3
# Si number density = 26.700597 Si / 1000 Ang^3
#
#
#
# Elastic Constant Matrix: (Units=GPa)
#
#
# Indices 1 2 3 4 5 6 
#
# 1 114.9101 46.1699 45.2818 0.0000 -29.9817 0.0000
# 2 46.1699 150.8743 23.6829 0.0000 -4.8350 0.0000
# 3 45.2818 23.6829 143.2880 0.0000 -6.9168 0.0000
# 4 0.0000 0.0000 0.0000 42.9429 0.0000 -12.1356
# 5 -29.9817 -4.8350 -6.9168 0.0000 33.3599 0.0000
# 6 0.0000 0.0000 0.0000 -12.1356 0.0000 27.7112
#
#
#
# Elastic Compliance Matrix: (Units=1/GPa)
#
#
# Indices 1 2 3 4 5 6 
#
# 1 0.014584 -0.003541 -0.003450 0.000000 0.011879 0.000000
# 2 -0.003541 0.007683 -0.000253 0.000000 -0.002121 0.000000
# 3 -0.003450 -0.000253 0.008040 0.000000 -0.001471 0.000000
# 4 0.000000 0.000000 0.000000 0.026576 0.000000 0.011638
# 5 0.011879 -0.002121 -0.001471 0.000000 0.040040 0.000000
# 6 0.000000 0.000000 0.000000 0.011638 0.000000 0.041183
#
#
# Mechanical properties :
#
#
# Convention : Reuss Voigt Hill
#
# Bulk Modulus (GPa) = 63.21527 71.03794 67.12661
# Shear Modulus (GPa) = 31.67212 40.39865 36.03538
#
# Velocity S-wave (km/s) = 3.44785 3.89398 3.67769
# Velocity P-wave (km/s) = 6.29105 6.84694 6.57487
#
# Compressibility (1/GPa) = 0.01581896
#
# Stress axis : x y z
#
# Youngs Moduli (GPa) = 68.56845 130.15175 124.37532
#
# Poissons Ratio (x) = 0.46083 0.42912
# Poissons Ratio (y) = 0.24278 0.03151
# Poissons Ratio (z) = 0.23658 0.03298
#
# Static dielectric constant tensor:
#      x y z
#    x 2.164430 0.000000 -0.007600 
#    y 0.000000 2.068660 0.000000 
#    z -0.007600 0.000000 2.154780 
# 
# From -- ./inp_files/3174.got.cif
#   From: 2010.05.17/outbox.cif.g08.bks.cpg/sg4_2_cif.got.tgz:3174.got - 2010.06.03 18:43:04.
