data_PCOD9116386
_publ_section_title
;
Structure prediction by ZEFSAII (Michael W. Deem and Ramdas Pophale) SiO2 
 PCOD9116386
Probable space group: P 21
;
_chemical_formula_sum "Si O2"
_cell_formula_units_Z 16
_cell_length_a 8.016549
_cell_length_b 13.228632
_cell_length_c 11.004073
_cell_angle_alpha 90.000000
_cell_angle_beta 141.507225
_cell_angle_gamma 90.000000
_cell_volume 726.334309
_symmetry_space_group_name_H-M "P 21"
_symmetry_group_IT_number 4
_symmetry_cell_setting 'monoclinic'
loop_
_space_group_symop_operation_xyz
x,y,z
-x,1/2+y,-z
loop_
_atom_site_type_symbol
_atom_site_label
_atom_site_fract_x
_atom_site_fract_y
_atom_site_fract_z
Si Si1 0.818512 0.281230 0.811106
Si Si2 0.738590 0.876310 0.120348
Si Si3 0.823630 0.700626 0.768466
Si Si4 0.041132 0.220705 0.592879
Si Si5 0.237049 0.902067 0.658416
Si Si6 0.049776 0.065350 0.384310
Si Si7 0.307573 0.609443 0.442014
Si Si8 0.290614 0.386418 0.474692
O O1 0.697906 0.182165 0.676258
O O2 0.567311 0.353138 0.696373
O O3 0.020063 0.339250 0.832662
O O4 0.978477 0.237671 0.015565
O O5 0.721183 0.786650 0.211559
O O6 0.815603 0.981504 0.231055
O O7 0.478085 0.890178 0.889464
O O8 0.550948 0.650485 0.663375
O O9 0.771658 0.799829 0.657765
O O10 0.912636 0.611923 0.727178
O O11 0.805298 0.304100 0.450005
O O12 0.040607 0.164865 0.464037
O O13 0.966032 0.133034 0.643888
O O14 0.957263 0.902461 0.574891
O O15 0.260369 0.996611 0.580532
O O16 0.336549 0.492544 0.434712
#
# Coordination Sequence:
#
# PCOD9116386 Si02
#       8
#     2   2   2   2   2   2   2   2
#     4  10  24  45  67  94 136 180 226 280 331 414
#     4  10  24  42  69  99 135 186 224 276 344 401
#     4  11  24  42  67 102 131 178 228 278 337 405
#     4  10  21  43  64  94 138 174 222 276 341 395
#     4  11  23  43  67 100 136 174 222 283 334 404
#     4  11  23  42  67 100 137 173 223 286 340 393
#     4  10  22  43  67  93 131 182 219 273 342 398
#     4  11  23  42  68  96 132 173 222 282 335 398
#
# _framework density 22.028423
#
# number of rings (size 3 to 8) (size 9 to 14) (size 15 to 20)
#    0.000    1.500    2.500    1.500    0.000   10.000 
#    2.250    0.000    0.000    0.000    0.000    0.000 
#    0.000    0.000    0.000    0.000    0.000    0.000 
#
# Total GULP energy -89235.281335 kJ/mol
# GULP energy per Si atom -5577.205083 kJ/mol
# Density = 2.197829 g / cm^3
# Si number density = 22.028423 Si / 1000 Ang^3
#
#
#
# Elastic Constant Matrix: (Units=GPa)
#
#
# Indices 1 2 3 4 5 6 
#
# 1 69.4745 22.8196 22.5871 0.0000 1.8165 0.0000
# 2 22.8196 132.3141 38.7805 0.0000 -1.6235 0.0000
# 3 22.5871 38.7805 152.7900 0.0000 -14.7771 0.0000
# 4 0.0000 0.0000 0.0000 28.0335 0.0000 -11.7815
# 5 1.8165 -1.6235 -14.7771 0.0000 28.0159 0.0000
# 6 0.0000 0.0000 0.0000 -11.7815 0.0000 30.9089
#
#
#
# Elastic Compliance Matrix: (Units=1/GPa)
#
#
# Indices 1 2 3 4 5 6 
#
# 1 0.015814 -0.002168 -0.002001 0.000000 -0.002206 0.000000
# 2 -0.002168 0.008474 -0.001864 0.000000 -0.000352 0.000000
# 3 -0.002001 -0.001864 0.007709 0.000000 0.004088 0.000000
# 4 0.000000 0.000000 0.000000 0.042476 0.000000 0.016191
# 5 -0.002206 -0.000352 0.004088 0.000000 0.037973 0.000000
# 6 0.000000 0.000000 0.000000 0.016191 0.000000 0.038524
#
#
# Mechanical properties :
#
#
# Convention : Reuss Voigt Hill
#
# Bulk Modulus (GPa) = 50.17383 58.10589 54.13986
# Shear Modulus (GPa) = 29.46715 35.41776 32.44246
#
# Velocity S-wave (km/s) = 3.66141 4.01411 3.84181
# Velocity P-wave (km/s) = 6.37972 6.92236 6.65657
#
# Compressibility (1/GPa) = 0.01993071
#
# Stress axis : x y z
#
# Youngs Moduli (GPa) = 63.23479 118.01114 129.71371
#
# Poissons Ratio (x) = 0.25585 0.25955
# Poissons Ratio (y) = 0.13709 0.24182
# Poissons Ratio (z) = 0.12653 0.22001
#
# Static dielectric constant tensor:
#      x y z
#    x 1.913590 0.000000 0.035770 
#    y 0.000000 1.821100 0.000000 
#    z 0.035770 0.000000 1.803880 
# 
# From -- ./inp_files/11317.got.cif
#   From: 2010.05.17/outbox.cif.g08.bks.cpg/sg4_6_cif.got.tgz:11317.got - 2010.06.03 18:43:04.
