data_PCOD9116456
_publ_section_title
;
Structure prediction by ZEFSAII (Michael W. Deem and Ramdas Pophale) SiO2 
 PCOD9116456
Probable space group: P 21
;
_chemical_formula_sum "Si O2"
_cell_formula_units_Z 16
_cell_length_a 11.561468
_cell_length_b 13.026324
_cell_length_c 8.965331
_cell_angle_alpha 90.000000
_cell_angle_beta 38.285749
_cell_angle_gamma 90.000000
_cell_volume 836.568008
_symmetry_space_group_name_H-M "P 21"
_symmetry_group_IT_number 4
_symmetry_cell_setting 'monoclinic'
loop_
_space_group_symop_operation_xyz
x,y,z
-x,1/2+y,-z
loop_
_atom_site_type_symbol
_atom_site_label
_atom_site_fract_x
_atom_site_fract_y
_atom_site_fract_z
Si Si1 0.961451 0.558680 0.861861
Si Si2 0.481830 0.180344 0.188982
Si Si3 0.897317 0.172517 0.792125
Si Si4 0.285411 0.725881 0.554093
Si Si5 0.811206 0.550595 0.676757
Si Si6 0.994461 0.330692 0.956257
Si Si7 0.323929 0.200264 0.674867
Si Si8 0.709788 0.315698 0.773341
O O1 0.892229 0.563974 0.760801
O O2 0.149573 0.626415 0.688278
O O3 0.988778 0.441245 0.885237
O O4 0.802986 0.611110 0.125340
O O5 0.367304 0.120575 0.179985
O O6 0.367212 0.186124 0.456316
O O7 0.685025 0.132235 0.019465
O O8 0.543411 0.290234 0.058412
O O9 0.884278 0.255419 0.670620
O O10 0.035806 0.084928 0.599879
O O11 0.951370 0.239362 0.880644
O O12 0.477643 0.706847 0.445139
O O13 0.329151 0.762718 0.343670
O O14 0.164707 0.814249 0.758907
O O15 0.752056 0.433745 0.716820
O O16 0.196661 0.302420 0.818163
#
# Coordination Sequence:
#
# PCOD9116456 Si02
#       8
#     2   2   2   2   2   2   2   2
#     4  11  24  41  67  96 126 179 220 273 334 396
#     4  10  22  43  62  97 130 167 220 268 324 391
#     4  10  21  44  64  93 131 169 217 272 319 391
#     4  11  23  44  62  96 139 166 224 276 317 409
#     4  12  22  43  71  93 132 175 221 269 337 380
#     4  11  23  43  68  91 132 178 219 269 337 387
#     4  11  24  42  67  92 136 175 213 274 330 398
#     4  10  23  42  65  96 130 169 218 277 316 392
#
# _framework density 19.125761000000001
#
# number of rings (size 3 to 8) (size 9 to 14) (size 15 to 20)
#    0.750    0.500    5.000    0.750    1.750    1.000 
#    6.750    0.000    0.000    0.000    0.000    0.000 
#    0.000    0.000    0.000    0.000    0.000    0.000 
#
# Total GULP energy -89244.874939 kJ/mol
# GULP energy per Si atom -5577.804684 kJ/mol
# Density = 1.908223 g / cm^3
# Si number density = 19.125761 Si / 1000 Ang^3
#
#
#
# Elastic Constant Matrix: (Units=GPa)
#
#
# Indices 1 2 3 4 5 6 
#
# 1 103.5454 16.8611 37.0775 0.0000 -14.7098 0.0000
# 2 16.8611 48.2146 28.7027 0.0000 -12.0723 0.0000
# 3 37.0775 28.7027 108.9095 0.0000 -5.9253 0.0000
# 4 0.0000 0.0000 0.0000 19.9086 0.0000 3.2063
# 5 -14.7098 -12.0723 -5.9253 0.0000 42.2658 0.0000
# 6 0.0000 0.0000 0.0000 3.2063 0.0000 25.6103
#
#
#
# Elastic Compliance Matrix: (Units=1/GPa)
#
#
# Indices 1 2 3 4 5 6 
#
# 1 0.011537 -0.001186 -0.003441 0.000000 0.003194 0.000000
# 2 -0.001186 0.026427 -0.006220 0.000000 0.006263 0.000000
# 3 -0.003441 -0.006220 0.011922 0.000000 -0.001303 0.000000
# 4 0.000000 0.000000 0.000000 0.051263 0.000000 -0.006418
# 5 0.003194 0.006263 -0.001303 0.000000 0.026378 0.000000
# 6 0.000000 0.000000 0.000000 -0.006418 0.000000 0.039850
#
#
# Mechanical properties :
#
#
# Convention : Reuss Voigt Hill
#
# Bulk Modulus (GPa) = 35.47325 47.32799 41.40062
# Shear Modulus (GPa) = 25.19298 29.42547 27.30922
#
# Velocity S-wave (km/s) = 3.63330 3.92666 3.78282
# Velocity P-wave (km/s) = 6.01571 6.73481 6.38539
#
# Compressibility (1/GPa) = 0.02819025
#
# Stress axis : x y z
#
# Youngs Moduli (GPa) = 86.67980 37.84073 83.87957
#
# Poissons Ratio (x) = 0.04489 0.28865
# Poissons Ratio (y) = 0.10282 0.52173
# Poissons Ratio (z) = 0.29828 0.23537
#
# Static dielectric constant tensor:
#      x y z
#    x 1.688370 0.000000 -0.005510 
#    y 0.000000 1.639590 0.000000 
#    z -0.005510 0.000000 1.688030 
# 
# From -- ./inp_files/8317.got.cif
#   From: 2010.05.17/outbox.cif.g08.bks.cpg/sg4_5_cif.got.tgz:8317.got - 2010.06.03 18:43:04.
