data_PCOD9116939
_publ_section_title
;
Structure prediction by ZEFSAII (Michael W. Deem and Ramdas Pophale) SiO2 
 PCOD9116939
Probable space group: P 21
;
_chemical_formula_sum "Si O2"
_cell_formula_units_Z 16
_cell_length_a 16.700476
_cell_length_b 8.843850
_cell_length_c 16.698030
_cell_angle_alpha 90.000000
_cell_angle_beta 161.633883
_cell_angle_gamma 90.000000
_cell_volume 777.082457
_symmetry_space_group_name_H-M "P 21"
_symmetry_group_IT_number 4
_symmetry_cell_setting 'monoclinic'
loop_
_space_group_symop_operation_xyz
x,y,z
-x,1/2+y,-z
loop_
_atom_site_type_symbol
_atom_site_label
_atom_site_fract_x
_atom_site_fract_y
_atom_site_fract_z
Si Si1 0.938040 0.638660 0.285328
Si Si2 0.842053 0.063079 0.336254
Si Si3 0.114861 0.894552 0.902830
Si Si4 0.193919 0.986152 0.161174
Si Si5 0.794870 0.457750 0.455296
Si Si6 0.662497 0.148124 0.685602
Si Si7 0.598447 0.701435 0.391830
Si Si8 0.477430 0.297430 0.025799
O O1 0.921824 0.527073 0.196252
O O2 0.087206 0.577014 0.503782
O O3 0.049146 0.806453 0.371256
O O4 0.665551 0.661101 0.067220
O O5 0.692923 0.218740 0.178939
O O6 0.047709 0.052018 0.461234
O O7 0.698583 0.904528 0.192343
O O8 0.852227 0.799068 0.651466
O O9 0.158462 0.963293 0.032513
O O10 0.370819 0.794563 0.131679
O O11 0.255055 0.820316 0.254880
O O12 0.442155 0.086510 0.417576
O O13 0.924825 0.053089 0.935685
O O14 0.695144 0.560436 0.431700
O O15 0.568014 0.397675 0.185419
O O16 0.530385 0.150095 0.647329
#
# Coordination Sequence:
#
# PCOD9116939 Si02
#       8
#     2   2   2   2   2   2   2   2
#     4  10  24  44  64  96 135 177 236 282 345 404
#     4  10  22  42  64  94 124 178 226 290 326 410
#     4  11  26  46  70 103 141 178 229 285 342 412
#     4  11  23  46  73 105 140 180 227 281 343 416
#     4  10  24  44  64  96 135 177 236 282 345 404
#     4  11  23  46  73 105 140 180 227 281 343 416
#     4  11  26  46  70 103 141 178 229 285 342 412
#     4  10  22  42  64  90 132 168 236 280 342 398
#
# _framework density 20.589835000000001
#
# number of rings (size 3 to 8) (size 9 to 14) (size 15 to 20)
#    0.000    1.500    0.000    4.500    7.000    6.000 
#    6.750    0.000    0.000    0.000    0.000    0.000 
#    0.000    0.000    0.000    0.000    0.000    0.000 
#
# Total GULP energy -89324.578225 kJ/mol
# GULP energy per Si atom -5582.786139 kJ/mol
# Density = 2.054297 g / cm^3
# Si number density = 20.589835 Si / 1000 Ang^3
#
#
#
# Elastic Constant Matrix: (Units=GPa)
#
#
# Indices 1 2 3 4 5 6 
#
# 1 59.1455 50.5975 20.2935 0.0000 50.3667 0.0000
# 2 50.5975 91.4531 51.8445 0.0000 13.5685 0.0000
# 3 20.2935 51.8445 142.5836 0.0000 -10.6811 0.0000
# 4 0.0000 0.0000 0.0000 -92.5750 0.0000 0.2983
# 5 50.3667 13.5685 -10.6811 0.0000 102.1749 0.0000
# 6 0.0000 0.0000 0.0000 0.2983 0.0000 36.0747
#
#
#
# Elastic Compliance Matrix: (Units=1/GPa)
#
#
# Indices 1 2 3 4 5 6 
#
# 1 0.078068 -0.038459 0.000375 0.000000 -0.033337 0.000000
# 2 -0.038459 0.033314 -0.005595 0.000000 0.013949 0.000000
# 3 0.000375 -0.005595 0.009107 0.000000 0.001510 0.000000
# 4 0.000000 0.000000 0.000000 -0.010802 0.000000 0.000089
# 5 -0.033337 0.013949 0.001510 0.000000 0.024526 0.000000
# 6 0.000000 0.000000 0.000000 0.000089 0.000000 0.027720
#
#
# Mechanical properties :
#
#
# Convention : Reuss Voigt Hill
#
# Bulk Modulus (GPa) = 30.18079 59.85036 45.01557
# Shear Modulus (GPa) = 19.20608 20.49804 19.85206
#
# Velocity S-wave (km/s) = 3.05748 3.15864 3.10847
# Velocity P-wave (km/s) = 5.21097 6.51412 5.89864
#
# Compressibility (1/GPa) = 0.03313366
#
# Stress axis : x y z
#
# Youngs Moduli (GPa) = 12.80933 30.01706 109.80109
#
# Poissons Ratio (x) = 1.15442 -0.04122
# Poissons Ratio (y) = 0.49263 0.61430
# Poissons Ratio (z) = -0.00481 0.16794
#
# Static dielectric constant tensor:
#      x y z
#    x 1.721080 0.000000 0.019650 
#    y 0.000000 1.727840 0.000000 
#    z 0.019650 0.000000 1.813900 
# 
# From -- ./inp_files/14215.got.cif
#   From: 2010.05.17/outbox.cif.g08.bks.cpg/sg4_8_cif.got.tgz:14215.got - 2010.06.03 18:43:04.
