data_PCOD9116081
_publ_section_title
;
Structure prediction by ZEFSAII (Michael W. Deem and Ramdas Pophale) SiO2 
 PCOD9116081
Probable space group: P 21
;
_chemical_formula_sum "Si O2"
_cell_formula_units_Z 12
_cell_length_a 13.214331
_cell_length_b 5.938957
_cell_length_c 17.565393
_cell_angle_alpha 90.000000
_cell_angle_beta 158.905380
_cell_angle_gamma 90.000000
_cell_volume 496.142220
_symmetry_space_group_name_H-M "P 21"
_symmetry_group_IT_number 4
_symmetry_cell_setting 'monoclinic'
loop_
_space_group_symop_operation_xyz
x,y,z
-x,1/2+y,-z
loop_
_atom_site_type_symbol
_atom_site_label
_atom_site_fract_x
_atom_site_fract_y
_atom_site_fract_z
Si Si1 0.683672 0.783600 0.188636
Si Si2 0.677386 0.574294 0.748209
Si Si3 0.641991 0.685724 0.399141
Si Si4 0.213482 0.792039 0.734169
Si Si5 0.913663 0.314541 0.673823
Si Si6 0.834755 0.885945 0.995162
O O1 0.703910 0.537118 0.242391
O O2 0.921976 0.764358 0.289318
O O3 0.724613 0.035403 0.253419
O O4 0.388256 0.789765 0.936357
O O5 0.583862 0.344841 0.721621
O O6 0.623074 0.183445 0.483296
O O7 0.828514 0.710739 0.921524
O O8 0.893701 0.541106 0.831580
O O9 0.809783 0.567160 0.585474
O O10 0.459820 0.509983 0.223263
O O11 0.881656 0.798669 0.517131
O O12 0.118718 0.286871 0.888827
#
# Coordination Sequence:
#
# PCOD9116081 Si02
#       6
#     2   2   2   2   2   2
#     4   9  17  34  59  94 115 159 205 249 301 365
#     4  11  22  38  56  83 115 157 197 244 308 361
#     4  10  21  40  58  83 117 156 198 243 306 358
#     4   9  17  33  63  86 123 158 202 247 305 367
#     4  10  23  37  61  86 116 153 207 247 301 361
#     4  11  24  38  57  86 120 153 201 254 299 364
#
# _framework density 24.186613000000001
#
# number of rings (size 3 to 8) (size 9 to 14) (size 15 to 20)
#    0.000    2.000    3.333    0.000    2.333    1.333 
#    0.000    0.000    3.667    0.000    0.000    0.000 
#    0.000    0.000    0.000    0.000    0.000    0.000 
#
# Total GULP energy -66973.574228 kJ/mol
# GULP energy per Si atom -5581.131186 kJ/mol
# Density = 2.413156 g / cm^3
# Si number density = 24.186613 Si / 1000 Ang^3
#
#
#
# Elastic Constant Matrix: (Units=GPa)
#
#
# Indices 1 2 3 4 5 6 
#
# 1 60.4820 33.2311 19.7582 0.0000 -1.3682 0.0000
# 2 33.2311 129.6915 14.9428 0.0000 1.5812 0.0000
# 3 19.7582 14.9428 107.6500 0.0000 5.7761 0.0000
# 4 0.0000 0.0000 0.0000 26.5981 0.0000 18.9696
# 5 -1.3682 1.5812 5.7761 0.0000 38.4474 0.0000
# 6 0.0000 0.0000 0.0000 18.9696 0.0000 5.3928
#
#
#
# Elastic Compliance Matrix: (Units=1/GPa)
#
#
# Indices 1 2 3 4 5 6 
#
# 1 0.020246 -0.004845 -0.003118 0.000000 0.001388 0.000000
# 2 -0.004845 0.008997 -0.000333 0.000000 -0.000492 0.000000
# 3 -0.003118 -0.000333 0.009994 0.000000 -0.001599 0.000000
# 4 0.000000 0.000000 0.000000 -0.024920 0.000000 0.087657
# 5 0.001388 -0.000492 -0.001599 0.000000 0.026319 0.000000
# 6 0.000000 0.000000 0.000000 0.087657 0.000000 -0.122908
#
#
# Mechanical properties :
#
#
# Convention : Reuss Voigt Hill
#
# Bulk Modulus (GPa) = 44.16266 48.18753 46.17510
# Shear Modulus (GPa) = -86.01202 29.41375 -28.29914
#
# Velocity S-wave (km/s) = -5.96984 3.49107 -3.42429
# Velocity P-wave (km/s) = 5.40555 6.01802 1.87038
#
# Compressibility (1/GPa) = 0.02264356
#
# Stress axis : x y z
#
# Youngs Moduli (GPa) = 49.39241 111.15404 100.06365
#
# Poissons Ratio (x) = 0.53858 0.31199
# Poissons Ratio (y) = 0.23932 0.03333
# Poissons Ratio (z) = 0.15400 0.03702
#
# Static dielectric constant tensor:
#      x y z
#    x 1.930930 0.000000 0.001690 
#    y 0.000000 2.041170 0.000000 
#    z 0.001690 0.000000 1.900550 
# 
# From -- ./inp_files/13816.got.cif
#   From: 2010.05.17/outbox.cif.g08.bks.cpg/sg4_7_cif.got.tgz:13816.got - 2010.06.03 18:43:04.
