data_PCOD9116416
_publ_section_title
;
Structure prediction by ZEFSAII (Michael W. Deem and Ramdas Pophale) SiO2 
 PCOD9116416
Probable space group: P 21
;
_chemical_formula_sum "Si O2"
_cell_formula_units_Z 16
_cell_length_a 8.340563
_cell_length_b 12.150999
_cell_length_c 8.498673
_cell_angle_alpha 90.000000
_cell_angle_beta 128.783335
_cell_angle_gamma 90.000000
_cell_volume 671.406957
_symmetry_space_group_name_H-M "P 21"
_symmetry_group_IT_number 4
_symmetry_cell_setting 'monoclinic'
loop_
_space_group_symop_operation_xyz
x,y,z
-x,1/2+y,-z
loop_
_atom_site_type_symbol
_atom_site_label
_atom_site_fract_x
_atom_site_fract_y
_atom_site_fract_z
Si Si1 0.104899 0.096020 0.458096
Si Si2 0.703470 0.691290 0.995918
Si Si3 0.188498 0.269422 0.252078
Si Si4 0.783442 0.931833 0.176655
Si Si5 0.778175 0.316105 0.827314
Si Si6 0.591956 0.950874 0.402152
Si Si7 0.121601 0.649238 0.366244
Si Si8 0.447487 0.620300 0.120288
O O1 0.097183 0.173056 0.302496
O O2 0.338171 0.092165 0.662014
O O3 0.961701 0.150366 0.506284
O O4 0.006445 0.978496 0.359318
O O5 0.765814 0.807347 0.112697
O O6 0.515065 0.650119 0.983203
O O7 0.909689 0.617924 0.142459
O O8 0.667233 0.716334 0.792486
O O9 0.306663 0.351733 0.437609
O O10 0.999741 0.327063 0.044821
O O11 0.654424 0.940380 0.258458
O O12 0.693804 0.013351 0.988038
O O13 0.650182 0.428193 0.738033
O O14 0.802329 0.258678 0.672766
O O15 0.655924 0.224216 0.857180
O O16 0.698805 0.059691 0.533730
#
# Coordination Sequence:
#
# PCOD9116416 Si02
#       8
#     2   2   2   2   2   2   2   2
#     4  10  21  43  68  94 129 181 222 274 340 403
#     4  10  23  44  65  98 137 178 224 279 346 406
#     4  11  23  41  69  93 136 179 218 286 337 403
#     4  11  23  43  68  96 134 179 223 280 342 404
#     4  11  22  43  67 101 136 172 225 289 334 402
#     4  11  23  43  68  98 134 178 232 272 341 406
#     4   9  23  43  67  94 137 176 224 279 339 408
#     4  11  22  44  68  96 137 169 226 281 333 408
#
# _framework density 23.830552999999998
#
# number of rings (size 3 to 8) (size 9 to 14) (size 15 to 20)
#    0.000    1.500    3.750    0.750    1.750    5.000 
#    4.500    1.250    0.000    0.000    0.000    0.000 
#    0.000    0.000    0.000    0.000    0.000    0.000 
#
# Total GULP energy -89562.985874 kJ/mol
# GULP energy per Si atom -5597.686617 kJ/mol
# Density = 2.377631 g / cm^3
# Si number density = 23.830553 Si / 1000 Ang^3
#
#
#
# Elastic Constant Matrix: (Units=GPa)
#
#
# Indices 1 2 3 4 5 6 
#
# 1 79.5560 25.7306 23.6516 0.0000 -2.7366 0.0000
# 2 25.7306 66.0431 37.4591 0.0000 -5.2678 0.0000
# 3 23.6516 37.4591 86.3559 0.0000 3.3693 0.0000
# 4 0.0000 0.0000 0.0000 44.4119 0.0000 9.4747
# 5 -2.7366 -5.2678 3.3693 0.0000 38.7467 0.0000
# 6 0.0000 0.0000 0.0000 9.4747 0.0000 30.9327
#
#
#
# Elastic Compliance Matrix: (Units=1/GPa)
#
#
# Indices 1 2 3 4 5 6 
#
# 1 0.014661 -0.004473 -0.002099 0.000000 0.000610 0.000000
# 2 -0.004473 0.021932 -0.008421 0.000000 0.003398 0.000000
# 3 -0.002099 -0.008421 0.015912 0.000000 -0.002677 0.000000
# 4 0.000000 0.000000 0.000000 0.024091 0.000000 -0.007379
# 5 0.000610 0.003398 -0.002677 0.000000 0.026547 0.000000
# 6 0.000000 0.000000 0.000000 -0.007379 0.000000 0.034588
#
#
# Mechanical properties :
#
#
# Convention : Reuss Voigt Hill
#
# Bulk Modulus (GPa) = 44.40632 45.07085 44.73858
# Shear Modulus (GPa) = 28.53504 32.49249 30.51377
#
# Velocity S-wave (km/s) = 3.46412 3.69654 3.58222
# Velocity P-wave (km/s) = 5.88853 6.09699 5.99367
#
# Compressibility (1/GPa) = 0.02251932
#
# Stress axis : x y z
#
# Youngs Moduli (GPa) = 68.20599 45.59631 62.84514
#
# Poissons Ratio (x) = 0.20395 0.13192
# Poissons Ratio (y) = 0.30508 0.52921
# Poissons Ratio (z) = 0.14317 0.38396
#
# Static dielectric constant tensor:
#      x y z
#    x 1.927500 0.000000 0.007400 
#    y 0.000000 1.862190 0.000000 
#    z 0.007400 0.000000 1.892540 
# 
# From -- ./inp_files/6437.got.cif
#   From: 2010.05.17/outbox.cif.g08.bks.cpg/sg4_4_cif.got.tgz:6437.got - 2010.06.03 18:43:04.
