data_PCOD9116879
_publ_section_title
;
Structure prediction by ZEFSAII (Michael W. Deem and Ramdas Pophale) SiO2 
 PCOD9116879
Probable space group: P 21
;
_chemical_formula_sum "Si O2"
_cell_formula_units_Z 14
_cell_length_a 10.042511
_cell_length_b 14.191953
_cell_length_c 5.179087
_cell_angle_alpha 90.000000
_cell_angle_beta 106.592221
_cell_angle_gamma 90.000000
_cell_volume 707.403133
_symmetry_space_group_name_H-M "P 21"
_symmetry_group_IT_number 4
_symmetry_cell_setting 'monoclinic'
loop_
_space_group_symop_operation_xyz
x,y,z
-x,1/2+y,-z
loop_
_atom_site_type_symbol
_atom_site_label
_atom_site_fract_x
_atom_site_fract_y
_atom_site_fract_z
Si Si1 0.165220 0.817880 0.642378
Si Si2 0.713835 0.163402 0.602472
Si Si3 0.355747 0.995421 0.844694
Si Si4 0.568947 0.762353 0.450830
Si Si5 0.033008 0.762720 0.073228
Si Si6 0.539544 0.982028 0.450512
Si Si7 0.272204 0.193935 0.963162
O O1 0.252383 0.721646 0.641182
O O2 0.265940 0.901286 0.777230
O O3 0.094394 0.833707 0.324074
O O4 0.051030 0.801829 0.797630
O O5 0.588483 0.223620 0.660939
O O6 0.857521 0.176128 0.836594
O O7 0.663077 0.057654 0.535866
O O8 0.429398 0.010647 0.610676
O O9 0.265271 0.085194 0.875202
O O10 0.471379 0.986358 0.130532
O O11 0.574300 0.872984 0.519148
O O12 0.651630 0.744817 0.233010
O O13 0.636445 0.707256 0.728947
O O14 0.879162 0.734209 0.061786
#
# Coordination Sequence:
#
# PCOD9116879 Si02
#       7
#     2   2   2   2   2   2   2
#     4  10  22  41  67  89 129 175 215 252 324 399
#     4  10  23  41  67  92 129 170 212 267 319 387
#     4  12  22  40  69  99 127 171 222 264 329 398
#     4  12  24  42  69  95 134 166 219 281 323 375
#     4  10  24  43  64  89 137 172 209 262 327 389
#     4  12  24  38  68 102 126 167 223 271 331 381
#     4  12  25  45  64 100 134 171 214 279 325 379
#
# _framework density 19.790696000000001
#
# number of rings (size 3 to 8) (size 9 to 14) (size 15 to 20)
#    0.857    0.000    4.286    3.429    4.000    0.000 
#    5.143    0.000    0.000    0.000    0.000    0.000 
#    0.000    0.000    0.000    0.000    0.000    0.000 
#
# Total GULP energy -78167.128607 kJ/mol
# GULP energy per Si atom -5583.366329 kJ/mol
# Density = 1.974565 g / cm^3
# Si number density = 19.790696 Si / 1000 Ang^3
#
#
#
# Elastic Constant Matrix: (Units=GPa)
#
#
# Indices 1 2 3 4 5 6 
#
# 1 96.1303 -7.9139 32.3757 0.0000 -25.1834 0.0000
# 2 -7.9139 54.9472 14.1078 0.0000 -14.8345 0.0000
# 3 32.3757 14.1078 60.5910 0.0000 -24.2423 0.0000
# 4 0.0000 0.0000 0.0000 11.4831 0.0000 2.8923
# 5 -25.1834 -14.8345 -24.2423 0.0000 30.4362 0.0000
# 6 0.0000 0.0000 0.0000 2.8923 0.0000 13.1800
#
#
#
# Elastic Compliance Matrix: (Units=1/GPa)
#
#
# Indices 1 2 3 4 5 6 
#
# 1 0.016009 0.007021 -0.005166 0.000000 0.012553 0.000000
# 2 0.007021 0.024092 -0.003433 0.000000 0.014818 0.000000
# 3 -0.005166 -0.003433 0.025956 0.000000 0.014726 0.000000
# 4 0.000000 0.000000 0.000000 0.092179 0.000000 -0.020228
# 5 0.012553 0.014818 0.014726 0.000000 0.062194 0.000000
# 6 0.000000 0.000000 0.000000 -0.020228 0.000000 0.080312
#
#
# Mechanical properties :
#
#
# Convention : Reuss Voigt Hill
#
# Bulk Modulus (GPa) = 15.89778 32.08974 23.99376
# Shear Modulus (GPa) = 15.39100 22.55978 18.97539
#
# Velocity S-wave (km/s) = 2.79173 3.37993 3.09981
# Velocity P-wave (km/s) = 4.29443 5.61085 4.99619
#
# Compressibility (1/GPa) = 0.06290187
#
# Stress axis : x y z
#
# Youngs Moduli (GPa) = 62.46402 41.50680 38.52718
#
# Poissons Ratio (x) = -0.29144 0.19905
# Poissons Ratio (y) = -0.43858 0.13225
# Poissons Ratio (z) = 0.32272 0.14248
#
# Static dielectric constant tensor:
#      x y z
#    x 1.669480 0.000000 0.000920 
#    y 0.000000 1.710700 0.000000 
#    z 0.000920 0.000000 1.710170 
# 
# From -- ./inp_files/1711.got.cif
#   From: 2010.05.17/outbox.cif.g08.bks.cpg/sg4_1_cif.got.tgz:1711.got - 2010.06.03 18:43:04.
