data_PCOD9116090
_publ_section_title
;
Structure prediction by ZEFSAII (Michael W. Deem and Ramdas Pophale) SiO2 
 PCOD9116090
Probable space group: P 21
;
_chemical_formula_sum "Si O2"
_cell_formula_units_Z 16
_cell_length_a 11.162373
_cell_length_b 4.933200
_cell_length_c 15.910954
_cell_angle_alpha 90.000000
_cell_angle_beta 130.742600
_cell_angle_gamma 90.000000
_cell_volume 663.819019
_symmetry_space_group_name_H-M "P 21"
_symmetry_group_IT_number 4
_symmetry_cell_setting 'monoclinic'
loop_
_space_group_symop_operation_xyz
x,y,z
-x,1/2+y,-z
loop_
_atom_site_type_symbol
_atom_site_label
_atom_site_fract_x
_atom_site_fract_y
_atom_site_fract_z
Si Si1 0.714718 0.321730 0.532788
Si Si2 0.487153 0.131043 0.108648
Si Si3 0.683955 0.118957 0.032442
Si Si4 0.942041 0.753448 0.080749
Si Si5 0.855069 0.741986 0.850909
Si Si6 0.612600 0.078633 0.649216
Si Si7 0.095724 0.079481 0.512631
Si Si8 0.400650 0.412918 0.665190
O O1 0.727016 0.182386 0.628133
O O2 0.556856 0.503262 0.469557
O O3 0.862925 0.487203 0.563861
O O4 0.673698 0.107098 0.440467
O O5 0.343515 0.925429 0.014451
O O6 0.551725 0.061259 0.228708
O O7 0.434806 0.441079 0.078790
O O8 0.619099 0.100013 0.097101
O O9 0.841369 0.936856 0.098564
O O10 0.006252 0.447856 0.118618
O O11 0.852604 0.781634 0.950045
O O12 0.099343 0.933294 0.141758
O O13 0.697722 0.828537 0.732132
O O14 0.554256 0.275043 0.695769
O O15 0.264721 0.190707 0.621701
O O16 0.972489 0.324039 0.467717
#
# Coordination Sequence:
#
# PCOD9116090 Si02
#       8
#     2   2   2   2   2   2   2   2
#     4  11  24  43  70 102 139 177 236 295 334 406
#     4  10  23  38  68  95 122 169 219 272 336 391
#     4  10  21  42  62  93 131 163 213 279 331 391
#     4  10  21  40  60  92 128 169 210 268 320 418
#     4  10  23  38  62  90 128 170 217 256 341 394
#     4  11  24  42  67 102 136 178 230 291 344 397
#     4  11  24  47  68  95 135 181 222 279 347 408
#     4  11  24  42  71 101 131 177 233 284 337 409
#
# _framework density 24.102955999999999
#
# number of rings (size 3 to 8) (size 9 to 14) (size 15 to 20)
#    0.000    1.500    2.500    1.500    7.000    1.000 
#    2.250    1.250    0.000    0.000    0.000    0.000 
#    0.000    0.000    0.000    0.000    0.000    0.000 
#
# Total GULP energy -89494.018017 kJ/mol
# GULP energy per Si atom -5593.376126 kJ/mol
# Density = 2.404810 g / cm^3
# Si number density = 24.102956 Si / 1000 Ang^3
#
#
#
# Elastic Constant Matrix: (Units=GPa)
#
#
# Indices 1 2 3 4 5 6 
#
# 1 106.7841 17.6768 20.4876 0.0000 -1.0397 0.0000
# 2 17.6768 95.7133 7.0538 0.0000 -14.0172 0.0000
# 3 20.4876 7.0538 77.0866 0.0000 -26.0657 0.0000
# 4 0.0000 0.0000 0.0000 31.8154 0.0000 3.6222
# 5 -1.0397 -14.0172 -26.0657 0.0000 24.4529 0.0000
# 6 0.0000 0.0000 0.0000 3.6222 0.0000 37.0066
#
#
#
# Elastic Compliance Matrix: (Units=1/GPa)
#
#
# Indices 1 2 3 4 5 6 
#
# 1 0.010592 -0.002474 -0.004559 0.000000 -0.005828 0.000000
# 2 -0.002474 0.012150 0.002916 0.000000 0.009968 0.000000
# 3 -0.004559 0.002916 0.022542 0.000000 0.025507 0.000000
# 4 0.000000 0.000000 0.000000 0.031786 0.000000 -0.003111
# 5 -0.005828 0.009968 0.025507 0.000000 0.073550 0.000000
# 6 0.000000 0.000000 0.000000 -0.003111 0.000000 0.027327
#
#
# Mechanical properties :
#
#
# Convention : Reuss Voigt Hill
#
# Bulk Modulus (GPa) = 26.99039 41.11338 34.05188
# Shear Modulus (GPa) = 25.18516 34.27936 29.73226
#
# Velocity S-wave (km/s) = 3.23600 3.77531 3.51601
# Velocity P-wave (km/s) = 5.01842 6.00819 5.53547
#
# Compressibility (1/GPa) = 0.03705022
#
# Stress axis : x y z
#
# Youngs Moduli (GPa) = 94.40927 82.30727 44.36163
#
# Poissons Ratio (x) = 0.20360 0.20226
# Poissons Ratio (y) = 0.23354 -0.12937
# Poissons Ratio (z) = 0.43044 -0.24002
#
# Static dielectric constant tensor:
#      x y z
#    x 1.977940 0.000000 0.053500 
#    y 0.000000 1.948700 0.000000 
#    z 0.053500 0.000000 1.916340 
# 
# From -- ./inp_files/12383.got.cif
#   From: 2010.05.17/outbox.cif.g08.bks.cpg/sg4_7_cif.got.tgz:12383.got - 2010.06.03 18:43:04.
