data_PCOD9116157
_publ_section_title
;
Structure prediction by ZEFSAII (Michael W. Deem and Ramdas Pophale) SiO2 
 PCOD9116157
Probable space group: P 21
;
_chemical_formula_sum "Si O2"
_cell_formula_units_Z 16
_cell_length_a 13.681900
_cell_length_b 7.448552
_cell_length_c 7.967783
_cell_angle_alpha 90.000000
_cell_angle_beta 124.544718
_cell_angle_gamma 90.000000
_cell_volume 668.830894
_symmetry_space_group_name_H-M "P 21"
_symmetry_group_IT_number 4
_symmetry_cell_setting 'monoclinic'
loop_
_space_group_symop_operation_xyz
x,y,z
-x,1/2+y,-z
loop_
_atom_site_type_symbol
_atom_site_label
_atom_site_fract_x
_atom_site_fract_y
_atom_site_fract_z
Si Si1 0.742298 0.781840 0.785938
Si Si2 0.111848 0.578378 0.923225
Si Si3 0.854313 0.578626 0.612557
Si Si4 0.693071 0.378518 0.241728
Si Si5 0.363274 0.503751 0.790927
Si Si6 0.139304 0.993049 0.870319
Si Si7 0.535800 0.769328 0.836739
Si Si8 0.110161 0.435767 0.536361
O O1 0.753571 0.680972 0.620580
O O2 0.613729 0.786907 0.747424
O O3 0.828512 0.655228 0.979938
O O4 0.801598 0.975936 0.866330
O O5 0.136272 0.790987 0.942379
O O6 0.120488 0.493055 0.741820
O O7 0.973868 0.546043 0.832262
O O8 0.801817 0.400520 0.478087
O O9 0.892760 0.724202 0.508444
O O10 0.658543 0.187533 0.125149
O O11 0.747491 0.491833 0.145315
O O12 0.575896 0.405477 0.241305
O O13 0.475132 0.572117 0.792041
O O14 0.236153 0.493279 0.579492
O O15 0.386210 0.331708 0.926478
O O16 0.009150 0.011563 0.661474
#
# Coordination Sequence:
#
# PCOD9116157 Si02
#       8
#     2   2   2   2   2   2   2   2
#     4  12  26  45  64  97 146 173 214 267 349 406
#     4  11  23  43  68 100 127 170 223 272 331 394
#     4  11  27  41  65  98 136 175 213 276 339 403
#     4  10  21  40  67  95 122 171 229 264 319 381
#     4  10  22  37  69 100 124 173 226 284 318 378
#     4  11  23  41  72 101 130 174 217 284 332 382
#     4  10  22  40  66  97 129 175 221 275 324 388
#     4  11  22  41  67 102 122 171 227 272 324 388
#
# _framework density 23.922338
#
# number of rings (size 3 to 8) (size 9 to 14) (size 15 to 20)
#    0.750    0.500    3.750    1.500    8.750    0.000 
#    4.500    0.000    0.000    0.000    0.000    0.000 
#    0.000    0.000    0.000    0.000    0.000    0.000 
#
# Total GULP energy -89116.630207 kJ/mol
# GULP energy per Si atom -5569.789388 kJ/mol
# Density = 2.386789 g / cm^3
# Si number density = 23.922338 Si / 1000 Ang^3
#
#
#
# Elastic Constant Matrix: (Units=GPa)
#
#
# Indices 1 2 3 4 5 6 
#
# 1 138.8062 20.9194 21.9062 0.0000 24.7055 0.0000
# 2 20.9194 76.2474 21.8296 0.0000 10.6418 0.0000
# 3 21.9062 21.8296 20.6587 0.0000 10.8406 0.0000
# 4 0.0000 0.0000 0.0000 33.8829 0.0000 10.9543
# 5 24.7055 10.6418 10.8406 0.0000 33.6560 0.0000
# 6 0.0000 0.0000 0.0000 10.9543 0.0000 32.1400
#
#
#
# Elastic Compliance Matrix: (Units=1/GPa)
#
#
# Indices 1 2 3 4 5 6 
#
# 1 0.009151 0.000318 -0.007776 0.000000 -0.004313 0.000000
# 2 0.000318 0.018823 -0.020435 0.000000 0.000397 0.000000
# 3 -0.007776 -0.020435 0.086475 0.000000 -0.015684 0.000000
# 4 0.000000 0.000000 0.000000 0.033168 0.000000 -0.011305
# 5 -0.004313 0.000397 -0.015684 0.000000 0.037805 0.000000
# 6 0.000000 0.000000 0.000000 -0.011305 0.000000 0.034967
#
#
# Mechanical properties :
#
#
# Convention : Reuss Voigt Hill
#
# Bulk Modulus (GPa) = 17.04686 40.55807 28.80247
# Shear Modulus (GPa) = 16.90727 31.33958 24.12343
#
# Velocity S-wave (km/s) = 2.66137 3.62339 3.17899
# Velocity P-wave (km/s) = 4.07250 5.87335 5.05378
#
# Compressibility (1/GPa) = 0.05866182
#
# Stress axis : x y z
#
# Youngs Moduli (GPa) = 109.27333 53.12584 11.56407
#
# Poissons Ratio (x) = -0.01687 0.08992
# Poissons Ratio (y) = -0.03470 0.23631
# Poissons Ratio (z) = 0.84972 1.08564
#
# Static dielectric constant tensor:
#      x y z
#    x 2.004610 0.000000 -0.006350 
#    y 0.000000 1.938030 0.000000 
#    z -0.006350 0.000000 1.950900 
# 
# From -- ./inp_files/9259.got.cif
#   From: 2010.05.17/outbox.cif.g08.bks.cpg/sg4_5_cif.got.tgz:9259.got - 2010.06.03 18:43:04.
