data_PCOD9116373
_publ_section_title
;
Structure prediction by ZEFSAII (Michael W. Deem and Ramdas Pophale) SiO2 
 PCOD9116373
Probable space group: P 21
;
_chemical_formula_sum "Si O2"
_cell_formula_units_Z 16
_cell_length_a 11.593086
_cell_length_b 8.982113
_cell_length_c 9.603347
_cell_angle_alpha 90.000000
_cell_angle_beta 139.868686
_cell_angle_gamma 90.000000
_cell_volume 644.541875
_symmetry_space_group_name_H-M "P 21"
_symmetry_group_IT_number 4
_symmetry_cell_setting 'monoclinic'
loop_
_space_group_symop_operation_xyz
x,y,z
-x,1/2+y,-z
loop_
_atom_site_type_symbol
_atom_site_label
_atom_site_fract_x
_atom_site_fract_y
_atom_site_fract_z
Si Si1 0.683097 0.994310 0.590998
Si Si2 0.498539 0.285028 0.371362
Si Si3 0.998539 0.785026 0.371362
Si Si4 0.895051 0.191662 0.010151
Si Si5 0.892300 0.418968 0.794556
Si Si6 0.816903 0.994308 0.409001
Si Si7 0.392299 0.918968 0.794556
Si Si8 0.604949 0.191661 0.989848
O O1 0.631976 0.856289 0.638345
O O2 0.749999 0.954479 0.499998
O O3 0.519575 0.109636 0.410561
O O4 0.809587 0.098164 0.802884
O O5 0.689252 0.367793 0.579103
O O6 0.475516 0.330236 0.189518
O O7 0.975516 0.830236 0.189519
O O8 0.019575 0.609634 0.410560
O O9 0.189252 0.867791 0.579104
O O10 0.868025 0.856286 0.361658
O O11 0.749998 0.193095 0.999997
O O12 0.930568 0.355606 0.984244
O O13 0.067255 0.090668 0.199945
O O14 0.690416 0.098162 0.197115
O O15 0.430567 0.855604 0.984244
O O16 0.432744 0.090668 0.800054
#
# Coordination Sequence:
#
# PCOD9116373 Si02
#       8
#     2   2   2   2   2   2   2   2
#     4  11  22  42  65  89 125 164 202 250 307 363
#     4  10  21  43  63  89 127 162 200 253 304 365
#     4  10  21  43  63  89 127 162 200 253 304 365
#     4  11  22  40  64  92 126 160 201 256 305 356
#     4  10  22  42  62  91 128 157 203 256 302 360
#     4  11  22  42  65  89 125 164 202 250 307 363
#     4  10  22  42  62  91 128 157 203 256 302 360
#     4  11  22  40  64  92 126 160 201 256 305 356
#
# _framework density 24.823831999999999
#
# number of rings (size 3 to 8) (size 9 to 14) (size 15 to 20)
#    0.000    1.500    7.500    0.000    0.000    6.000 
#    4.500    0.000    0.000    0.000    0.000    0.000 
#    0.000    0.000    0.000    0.000    0.000    0.000 
#
# Total GULP energy -89422.670886 kJ/mol
# GULP energy per Si atom -5588.916930 kJ/mol
# Density = 2.476733 g / cm^3
# Si number density = 24.823832 Si / 1000 Ang^3
#
#
#
# Elastic Constant Matrix: (Units=GPa)
#
#
# Indices 1 2 3 4 5 6 
#
# 1 166.4735 55.7541 34.7037 0.0000 -35.4904 0.0000
# 2 55.7541 77.9651 -0.4717 0.0000 -6.1942 0.0000
# 3 34.7037 -0.4717 49.0007 0.0000 -22.0143 0.0000
# 4 0.0000 0.0000 0.0000 24.1571 0.0000 -4.1066
# 5 -35.4904 -6.1942 -22.0143 0.0000 32.0990 0.0000
# 6 0.0000 0.0000 0.0000 -4.1066 0.0000 44.9112
#
#
#
# Elastic Compliance Matrix: (Units=1/GPa)
#
#
# Indices 1 2 3 4 5 6 
#
# 1 0.011018 -0.007288 -0.004383 0.000000 0.007770 0.000000
# 2 -0.007288 0.017960 0.004728 0.000000 -0.001350 0.000000
# 3 -0.004383 0.004728 0.031494 0.000000 0.017666 0.000000
# 4 0.000000 0.000000 0.000000 0.042049 0.000000 0.003845
# 5 0.007770 -0.001350 0.017666 0.000000 0.051600 0.000000
# 6 0.000000 0.000000 0.000000 0.003845 0.000000 0.022618
#
#
# Mechanical properties :
#
#
# Convention : Reuss Voigt Hill
#
# Bulk Modulus (GPa) = 21.46568 52.60126 37.03347
# Shear Modulus (GPa) = 24.25385 33.79702 29.02544
#
# Velocity S-wave (km/s) = 3.12915 3.69382 3.42315
# Velocity P-wave (km/s) = 4.66063 6.27919 5.52945
#
# Compressibility (1/GPa) = 0.04658600
#
# Stress axis : x y z
#
# Youngs Moduli (GPa) = 90.76028 55.68040 31.75204
#
# Poissons Ratio (x) = 0.40582 0.13916
# Poissons Ratio (y) = 0.66150 -0.15013
# Poissons Ratio (z) = 0.39777 -0.26327
#
# Static dielectric constant tensor:
#      x y z
#    x 1.951330 0.000000 0.036010 
#    y 0.000000 1.978720 0.000000 
#    z 0.036010 0.000000 2.161380 
# 
# From -- ./inp_files/8060.got.cif
#   From: 2010.05.17/outbox.cif.g08.bks.cpg/sg4_5_cif.got.tgz:8060.got - 2010.06.03 18:43:04.
