data_PCOD9116015
_publ_section_title
;
Structure prediction by ZEFSAII (Michael W. Deem and Ramdas Pophale) SiO2 
 PCOD9116015
Probable space group: P 21
;
_chemical_formula_sum "Si O2"
_cell_formula_units_Z 16
_cell_length_a 14.058556
_cell_length_b 7.753668
_cell_length_c 6.928335
_cell_angle_alpha 90.000000
_cell_angle_beta 126.774145
_cell_angle_gamma 90.000000
_cell_volume 604.937044
_symmetry_space_group_name_H-M "P 21"
_symmetry_group_IT_number 4
_symmetry_cell_setting 'monoclinic'
loop_
_space_group_symop_operation_xyz
x,y,z
-x,1/2+y,-z
loop_
_atom_site_type_symbol
_atom_site_label
_atom_site_fract_x
_atom_site_fract_y
_atom_site_fract_z
Si Si1 0.182125 0.650060 0.185939
Si Si2 0.048100 0.705054 0.358926
Si Si3 0.851856 0.567459 0.396231
Si Si4 0.740498 0.771816 0.595856
Si Si5 0.493343 0.698827 0.219546
Si Si6 0.748480 0.070908 0.149331
Si Si7 0.576593 0.316711 0.441812
Si Si8 0.333929 0.186202 0.073451
O O1 0.059020 0.693682 0.141528
O O2 0.215555 0.453975 0.274835
O O3 0.190993 0.659279 0.966395
O O4 0.286054 0.767147 0.407770
O O5 0.929030 0.654692 0.321220
O O6 0.083639 0.894712 0.466630
O O7 0.152493 0.582068 0.567974
O O8 0.829589 0.677834 0.560769
O O9 0.724660 0.547763 0.137964
O O10 0.616698 0.793434 0.325293
O O11 0.707574 0.669468 0.753957
O O12 0.374063 0.670435 0.952972
O O13 0.538101 0.503602 0.320736
O O14 0.449244 0.792483 0.361413
O O15 0.712969 0.876248 0.048541
O O16 0.476147 0.189233 0.233510
#
# Coordination Sequence:
#
# PCOD9116015 Si02
#       8
#     2   2   2   2   2   2   2   2
#     4  10  21  39  63  89 120 155 192 239 290 344
#     4  12  26  42  61  84 114 153 198 246 291 344
#     4  12  26  42  61  84 114 153 198 246 291 344
#     4  10  21  39  63  89 120 155 192 239 290 344
#     4   9  17  32  57  89 122 154 190 234 286 345
#     4   9  20  39  62  88 119 154 192 237 288 342
#     4   9  17  32  57  89 122 154 190 234 286 345
#     4   9  20  39  62  88 119 154 192 237 288 342
#
# _framework density 26.449033
#
# number of rings (size 3 to 8) (size 9 to 14) (size 15 to 20)
#    0.000    2.000    0.000    5.250    0.000    8.000 
#    0.000    0.000    0.000    0.000    0.000    0.000 
#    0.000    0.000    0.000    0.000    0.000    0.000 
#
# Total GULP energy -89625.215229 kJ/mol
# GULP energy per Si atom -5601.575952 kJ/mol
# Density = 2.638883 g / cm^3
# Si number density = 26.449033 Si / 1000 Ang^3
#
#
#
# Elastic Constant Matrix: (Units=GPa)
#
#
# Indices 1 2 3 4 5 6 
#
# 1 159.1711 13.3509 7.7155 0.0000 -24.3844 0.0000
# 2 13.3509 76.1411 -6.8863 0.0000 -2.1119 0.0000
# 3 7.7155 -6.8863 76.3998 0.0000 -6.0794 0.0000
# 4 0.0000 0.0000 0.0000 32.6675 0.0000 -0.0451
# 5 -24.3844 -2.1119 -6.0794 0.0000 31.0440 0.0000
# 6 0.0000 0.0000 0.0000 -0.0451 0.0000 31.2711
#
#
#
# Elastic Compliance Matrix: (Units=1/GPa)
#
#
# Indices 1 2 3 4 5 6 
#
# 1 0.007247 -0.001153 -0.000395 0.000000 0.005536 0.000000
# 2 -0.001153 0.013466 0.001352 0.000000 0.000275 0.000000
# 3 -0.000395 0.001352 0.013443 0.000000 0.002414 0.000000
# 4 0.000000 0.000000 0.000000 0.030612 0.000000 0.000044
# 5 0.005536 0.000275 0.002414 0.000000 0.037052 0.000000
# 6 0.000000 0.000000 0.000000 0.000044 0.000000 0.031978
#
#
# Mechanical properties :
#
#
# Convention : Reuss Voigt Hill
#
# Bulk Modulus (GPa) = 29.61814 37.78580 33.70197
# Shear Modulus (GPa) = 34.37756 38.83197 36.60477
#
# Velocity S-wave (km/s) = 3.60914 3.83584 3.72422
# Velocity P-wave (km/s) = 5.34699 5.82542 5.59133
#
# Compressibility (1/GPa) = 0.03376310
#
# Stress axis : x y z
#
# Youngs Moduli (GPa) = 137.99731 74.26343 74.38864
#
# Poissons Ratio (x) = 0.08561 0.02940
# Poissons Ratio (y) = 0.15909 -0.10058
# Poissons Ratio (z) = 0.05453 -0.10041
#
# Static dielectric constant tensor:
#      x y z
#    x 2.116260 0.000000 -0.026030 
#    y 0.000000 2.069010 0.000000 
#    z -0.026030 0.000000 2.097980 
# 
# From -- ./inp_files/9254.got.cif
#   From: 2010.05.17/outbox.cif.g08.bks.cpg/sg4_5_cif.got.tgz:9254.got - 2010.06.03 18:43:04.
