data_PCOD9116220
_publ_section_title
;
Structure prediction by ZEFSAII (Michael W. Deem and Ramdas Pophale) SiO2 
 PCOD9116220
Probable space group: P 21
;
_chemical_formula_sum "Si O2"
_cell_formula_units_Z 16
_cell_length_a 12.072805
_cell_length_b 5.133658
_cell_length_c 22.849163
_cell_angle_alpha 90.000000
_cell_angle_beta 25.122121
_cell_angle_gamma 90.000000
_cell_volume 601.219772
_symmetry_space_group_name_H-M "P 21"
_symmetry_group_IT_number 4
_symmetry_cell_setting 'monoclinic'
loop_
_space_group_symop_operation_xyz
x,y,z
-x,1/2+y,-z
loop_
_atom_site_type_symbol
_atom_site_label
_atom_site_fract_x
_atom_site_fract_y
_atom_site_fract_z
Si Si1 0.297283 0.875000 0.422741
Si Si2 0.213743 0.611363 0.347009
Si Si3 0.816973 0.414250 0.220254
Si Si4 0.576786 0.516001 0.525273
Si Si5 0.902720 0.780246 0.289026
Si Si6 0.622488 0.244902 0.195217
Si Si7 0.646460 0.962649 0.076053
Si Si8 0.602370 0.634585 0.922567
O O1 0.172158 0.695367 0.434211
O O2 0.377779 0.788159 0.447974
O O3 0.539836 0.000321 0.273538
O O4 0.070880 0.087747 0.543883
O O5 0.368461 0.345188 0.282498
O O6 0.420269 0.787561 0.213423
O O7 0.897956 0.645039 0.227137
O O8 0.708073 0.444166 0.205301
O O9 0.604032 0.228624 0.353709
O O10 0.109517 0.298425 0.066977
O O11 0.855091 0.574260 0.363222
O O12 0.377521 0.419751 0.572097
O O13 0.126084 0.987531 0.195127
O O14 0.777359 0.139958 0.064980
O O15 0.502348 0.118235 0.093358
O O16 0.589291 0.931586 0.950824
#
# Coordination Sequence:
#
# PCOD9116220 Si02
#       8
#     2   2   2   2   2   2   2   2
#     4  10  21  41  65 100 140 180 239 316 377 464
#     4  11  21  41  67  99 139 191 244 306 392 461
#     4  11  24  47  68 103 151 190 252 323 389 466
#     4  11  24  43  70 107 138 195 252 319 396 460
#     4  12  24  46  75 106 152 199 269 323 397 481
#     4  10  24  41  69 101 143 188 244 305 394 462
#     4  11  26  44  69 110 145 201 253 314 399 473
#     4  12  28  51  79 114 158 214 259 330 404 475
#
# _framework density 26.612566999999999
#
# number of rings (size 3 to 8) (size 9 to 14) (size 15 to 20)
#    0.000    1.000    3.750    2.250    3.500    1.000 
#    2.250    0.000    0.000    0.000    0.000    0.000 
#    0.000    0.000    0.000    0.000    0.000    0.000 
#
# Total GULP energy -89275.139549 kJ/mol
# GULP energy per Si atom -5579.696222 kJ/mol
# Density = 2.655200 g / cm^3
# Si number density = 26.612567 Si / 1000 Ang^3
#
#
#
# Elastic Constant Matrix: (Units=GPa)
#
#
# Indices 1 2 3 4 5 6 
#
# 1 134.0918 3.6178 34.5330 0.0000 30.7643 0.0000
# 2 3.6178 61.1311 11.6221 0.0000 15.9381 0.0000
# 3 34.5330 11.6221 124.5366 0.0000 6.1138 0.0000
# 4 0.0000 0.0000 0.0000 37.1284 0.0000 -0.2542
# 5 30.7643 15.9381 6.1138 0.0000 35.3004 0.0000
# 6 0.0000 0.0000 0.0000 -0.2542 0.0000 35.0272
#
#
#
# Elastic Compliance Matrix: (Units=1/GPa)
#
#
# Indices 1 2 3 4 5 6 
#
# 1 0.010256 0.002380 -0.002597 0.000000 -0.009563 0.000000
# 2 0.002380 0.019314 -0.001949 0.000000 -0.010457 0.000000
# 3 -0.002597 -0.001949 0.008853 0.000000 0.001610 0.000000
# 4 0.000000 0.000000 0.000000 0.026935 0.000000 0.000195
# 5 -0.009563 -0.010457 0.001610 0.000000 0.041105 0.000000
# 6 0.000000 0.000000 0.000000 0.000195 0.000000 0.028551
#
#
# Mechanical properties :
#
#
# Convention : Reuss Voigt Hill
#
# Bulk Modulus (GPa) = 29.33261 46.58946 37.96104
# Shear Modulus (GPa) = 33.17655 39.49031 36.33343
#
# Velocity S-wave (km/s) = 3.53462 3.85632 3.69897
# Velocity P-wave (km/s) = 5.26347 6.11333 5.70425
#
# Compressibility (1/GPa) = 0.03409175
#
# Stress axis : x y z
#
# Youngs Moduli (GPa) = 97.50302 51.77507 112.96062
#
# Poissons Ratio (x) = -0.12322 0.29331
# Poissons Ratio (y) = -0.23205 0.22017
# Poissons Ratio (z) = 0.25317 0.10091
#
# Static dielectric constant tensor:
#      x y z
#    x 2.078370 0.000000 -0.020250 
#    y 0.000000 2.191390 0.000000 
#    z -0.020250 0.000000 2.208190 
# 
# From -- ./inp_files/11592.got.cif
#   From: 2010.05.17/outbox.cif.g08.bks.cpg/sg4_6_cif.got.tgz:11592.got - 2010.06.03 18:43:04.
