data_PCOD9116251
_publ_section_title
;
Structure prediction by ZEFSAII (Michael W. Deem and Ramdas Pophale) SiO2 
 PCOD9116251
Probable space group: P 21
;
_chemical_formula_sum "Si O2"
_cell_formula_units_Z 12
_cell_length_a 10.164477
_cell_length_b 4.675304
_cell_length_c 10.714633
_cell_angle_alpha 90.000000
_cell_angle_beta 76.772519
_cell_angle_gamma 90.000000
_cell_volume 495.672058
_symmetry_space_group_name_H-M "P 21"
_symmetry_group_IT_number 4
_symmetry_cell_setting 'monoclinic'
loop_
_space_group_symop_operation_xyz
x,y,z
-x,1/2+y,-z
loop_
_atom_site_type_symbol
_atom_site_label
_atom_site_fract_x
_atom_site_fract_y
_atom_site_fract_z
Si Si1 0.548203 0.820140 0.566030
Si Si2 0.589297 0.220012 0.971525
Si Si3 0.960996 0.567301 0.580963
Si Si4 0.818273 0.520021 0.068997
Si Si5 0.934850 0.023675 0.174704
Si Si6 0.336593 0.840166 0.322268
O O1 0.561806 0.566045 0.455809
O O2 0.547238 0.586197 0.678388
O O3 0.653550 0.061163 0.590026
O O4 0.654455 0.240618 0.821388
O O5 0.449262 0.395234 0.996519
O O6 0.682195 0.372905 0.053466
O O7 0.804441 0.494383 0.625981
O O8 0.018482 0.399548 0.449513
O O9 0.040185 0.468990 0.686812
O O10 0.826032 0.836805 0.121901
O O11 0.884905 0.344210 0.167161
O O12 0.923791 0.494341 0.930824
#
# Coordination Sequence:
#
# PCOD9116251 Si02
#       6
#     2   2   2   2   2   2
#     4   9  20  40  66  91 120 178 226 257 322 396
#     4  12  25  42  66 101 133 175 224 273 344 405
#     4  12  25  42  66 101 133 175 224 273 344 405
#     4  10  21  41  67  94 128 169 215 275 336 381
#     4  10  21  41  67  94 128 169 215 275 336 381
#     4  11  22  44  66  93 136 176 218 291 332 400
#
# _framework density 24.209555000000002
#
# number of rings (size 3 to 8) (size 9 to 14) (size 15 to 20)
#    0.000    1.333    1.667    4.000    0.000    0.000 
#    0.000   33.333    0.000    0.000    0.000    0.000 
#    0.000    0.000    0.000    0.000    0.000    0.000 
#
# Total GULP energy -66878.282197 kJ/mol
# GULP energy per Si atom -5573.190183 kJ/mol
# Density = 2.415445 g / cm^3
# Si number density = 24.209555 Si / 1000 Ang^3
#
#
#
# Elastic Constant Matrix: (Units=GPa)
#
#
# Indices 1 2 3 4 5 6 
#
# 1 43.9251 21.9442 27.6673 0.0000 17.3968 0.0000
# 2 21.9442 128.0412 18.5252 0.0000 6.4472 0.0000
# 3 27.6673 18.5252 76.0345 0.0000 19.3867 0.0000
# 4 0.0000 0.0000 0.0000 18.2019 0.0000 -2.1986
# 5 17.3968 6.4472 19.3867 0.0000 27.8049 0.0000
# 6 0.0000 0.0000 0.0000 -2.1986 0.0000 25.5299
#
#
#
# Elastic Compliance Matrix: (Units=1/GPa)
#
#
# Indices 1 2 3 4 5 6 
#
# 1 0.036373 -0.004251 -0.008086 0.000000 -0.016134 0.000000
# 2 -0.004251 0.008601 -0.000874 0.000000 0.001275 0.000000
# 3 -0.008086 -0.000874 0.018201 0.000000 -0.007429 0.000000
# 4 0.000000 0.000000 0.000000 0.055517 0.000000 0.004781
# 5 -0.016134 0.001275 -0.007429 0.000000 0.050944 0.000000
# 6 0.000000 0.000000 0.000000 0.004781 0.000000 0.039582
#
#
# Mechanical properties :
#
#
# Convention : Reuss Voigt Hill
#
# Bulk Modulus (GPa) = 27.20829 42.69712 34.95270
# Shear Modulus (GPa) = 20.17026 26.29829 23.23427
#
# Velocity S-wave (km/s) = 2.88957 3.29945 3.10129
# Velocity P-wave (km/s) = 4.73243 5.67361 5.22426
#
# Compressibility (1/GPa) = 0.03675351
#
# Stress axis : x y z
#
# Youngs Moduli (GPa) = 27.49286 116.26808 54.94158
#
# Poissons Ratio (x) = 0.49431 0.44424
# Poissons Ratio (y) = 0.11689 0.04799
# Poissons Ratio (z) = 0.22230 0.10156
#
# Static dielectric constant tensor:
#      x y z
#    x 1.965300 0.000000 0.041620 
#    y 0.000000 1.852770 0.000000 
#    z 0.041620 0.000000 1.968790 
# 
# From -- ./inp_files/10702.got.cif
#   From: 2010.05.17/outbox.cif.g08.bks.cpg/sg4_6_cif.got.tgz:10702.got - 2010.06.03 18:43:04.
