data_PCOD9116291
_publ_section_title
;
Structure prediction by ZEFSAII (Michael W. Deem and Ramdas Pophale) SiO2 
 PCOD9116291
Probable space group: P 21
;
_chemical_formula_sum "Si O2"
_cell_formula_units_Z 16
_cell_length_a 8.338811
_cell_length_b 15.646046
_cell_length_c 5.114722
_cell_angle_alpha 90.000000
_cell_angle_beta 63.156051
_cell_angle_gamma 90.000000
_cell_volume 595.404776
_symmetry_space_group_name_H-M "P 21"
_symmetry_group_IT_number 4
_symmetry_cell_setting 'monoclinic'
loop_
_space_group_symop_operation_xyz
x,y,z
-x,1/2+y,-z
loop_
_atom_site_type_symbol
_atom_site_label
_atom_site_fract_x
_atom_site_fract_y
_atom_site_fract_z
Si Si1 0.504124 0.230630 0.939574
Si Si2 0.146209 0.196690 0.276054
Si Si3 0.783988 0.595986 0.283430
Si Si4 0.639154 0.381096 0.171583
Si Si5 0.265944 0.457690 0.313264
Si Si6 0.131004 0.929219 0.495317
Si Si7 0.579124 0.068193 0.195921
Si Si8 0.778419 0.151314 0.420390
O O1 0.300009 0.260891 0.065665
O O2 0.488207 0.134392 0.064414
O O3 0.614727 0.289783 0.049455
O O4 0.604382 0.209691 0.601681
O O5 0.183096 0.176796 0.551801
O O6 0.937214 0.211078 0.397915
O O7 0.163140 0.119414 0.047850
O O8 0.890797 0.521352 0.349088
O O9 0.577073 0.564608 0.470623
O O10 0.751227 0.430963 0.858513
O O11 0.431602 0.413938 0.345715
O O12 0.753839 0.383468 0.355808
O O13 0.226978 0.555794 0.444659
O O14 0.075686 0.408809 0.433341
O O15 0.358978 0.479367 0.966381
O O16 0.758658 0.120183 0.140812
#
# Coordination Sequence:
#
# PCOD9116291 Si02
#       8
#     2   2   2   2   2   2   2   2
#     4  10  26  45  62  99 138 190 222 279 346 419
#     4  11  23  39  70  97 134 167 228 283 343 399
#     4  11  20  41  66 104 128 171 217 295 342 392
#     4  12  29  47  68 100 149 189 229 281 351 428
#     4  11  25  44  72 109 134 184 234 297 349 410
#     4  12  26  44  74 102 141 181 235 288 353 412
#     4  10  21  41  73  98 136 175 235 292 346 398
#     4  11  22  41  73 101 132 175 236 295 342 404
#
# _framework density 26.872475000000001
#
# number of rings (size 3 to 8) (size 9 to 14) (size 15 to 20)
#    0.000    1.000    3.750    2.250    7.000    1.000 
#    0.000    0.000    0.000    0.000    0.000    0.000 
#    0.000    0.000    0.000    0.000    0.000    0.000 
#
# Total GULP energy -89257.824720 kJ/mol
# GULP energy per Si atom -5578.614045 kJ/mol
# Density = 2.681131 g / cm^3
# Si number density = 26.872475 Si / 1000 Ang^3
#
#
#
# Elastic Constant Matrix: (Units=GPa)
#
#
# Indices 1 2 3 4 5 6 
#
# 1 178.7640 22.4654 33.5052 0.0000 -17.8698 0.0000
# 2 22.4654 54.0028 13.8154 0.0000 -2.6342 0.0000
# 3 33.5052 13.8154 80.5656 0.0000 3.4395 0.0000
# 4 0.0000 0.0000 0.0000 30.9977 0.0000 -0.1200
# 5 -17.8698 -2.6342 3.4395 0.0000 47.3381 0.0000
# 6 0.0000 0.0000 0.0000 -0.1200 0.0000 43.1806
#
#
#
# Elastic Compliance Matrix: (Units=1/GPa)
#
#
# Indices 1 2 3 4 5 6 
#
# 1 0.006565 -0.001967 -0.002502 0.000000 0.002551 0.000000
# 2 -0.001967 0.020039 -0.002643 0.000000 0.000565 0.000000
# 3 -0.002502 -0.002643 0.013996 0.000000 -0.002108 0.000000
# 4 0.000000 0.000000 0.000000 0.032261 0.000000 0.000090
# 5 0.002551 0.000565 -0.002108 0.000000 0.022272 0.000000
# 6 0.000000 0.000000 0.000000 0.000090 0.000000 0.023159
#
#
# Mechanical properties :
#
#
# Convention : Reuss Voigt Hill
#
# Bulk Modulus (GPa) = 37.91039 50.32275 44.11657
# Shear Modulus (GPa) = 35.38404 40.53970 37.96187
#
# Velocity S-wave (km/s) = 3.63263 3.88828 3.76262
# Velocity P-wave (km/s) = 5.63319 6.23902 5.94383
#
# Compressibility (1/GPa) = 0.02637799
#
# Stress axis : x y z
#
# Youngs Moduli (GPa) = 152.32308 49.90201 71.44960
#
# Poissons Ratio (x) = 0.09814 0.17876
# Poissons Ratio (y) = 0.29956 0.18881
# Poissons Ratio (z) = 0.38109 0.13187
#
# Static dielectric constant tensor:
#      x y z
#    x 2.310270 0.000000 -0.103300 
#    y 0.000000 2.198350 0.000000 
#    z -0.103300 0.000000 2.181190 
# 
# From -- ./inp_files/2103.got.cif
#   From: 2010.05.17/outbox.cif.g08.bks.cpg/sg4_2_cif.got.tgz:2103.got - 2010.06.03 18:43:04.
