data_PCOD9116012
_publ_section_title
;
Structure prediction by ZEFSAII (Michael W. Deem and Ramdas Pophale) SiO2 
 PCOD9116012
Probable space group: P 21
;
_chemical_formula_sum "Si O2"
_cell_formula_units_Z 16
_cell_length_a 4.922137
_cell_length_b 11.581671
_cell_length_c 11.318358
_cell_angle_alpha 90.000000
_cell_angle_beta 95.163187
_cell_angle_gamma 90.000000
_cell_volume 642.602751
_symmetry_space_group_name_H-M "P 21"
_symmetry_group_IT_number 4
_symmetry_cell_setting 'monoclinic'
loop_
_space_group_symop_operation_xyz
x,y,z
-x,1/2+y,-z
loop_
_atom_site_type_symbol
_atom_site_label
_atom_site_fract_x
_atom_site_fract_y
_atom_site_fract_z
Si Si1 0.909105 0.922420 0.362182
Si Si2 0.697858 0.544149 0.058301
Si Si3 0.909105 0.424822 0.362182
Si Si4 0.969985 0.299818 0.144200
Si Si5 0.969986 0.047425 0.144200
Si Si6 0.614256 0.299991 0.730878
Si Si7 0.614257 0.047252 0.730878
Si Si8 0.302140 0.303094 0.941699
O O1 0.085267 0.824327 0.302394
O O2 0.592413 0.892058 0.333712
O O3 0.987189 0.032771 0.285643
O O4 1.000000 0.923621 0.500000
O O5 0.425642 0.544276 0.128539
O O6 0.814065 0.673621 0.095227
O O7 0.821083 0.418440 0.098485
O O8 0.747675 0.545894 0.919180
O O9 0.987189 0.314471 0.285642
O O10 0.085266 0.522916 0.302394
O O11 0.592412 0.455184 0.333712
O O12 0.843029 0.173621 0.113258
O O13 0.252324 0.301349 0.080820
O O14 0.821085 0.928803 0.098485
O O15 0.528417 0.173621 0.686845
O O16 0.574357 0.302966 0.871461
#
# Coordination Sequence:
#
# PCOD9116012 Si02
#       8
#     2   2   2   2   2   2   2   2
#     4  11  23  39  58  88 123 161 206 252 302 363
#     4   8  16  34  60  90 121 157 203 253 310 371
#     4  11  23  39  58  88 123 161 206 252 302 363
#     4   9  18  34  58  89 124 160 201 255 312 365
#     4   9  18  34  58  89 124 160 201 255 312 365
#     4  10  21  39  63  86 114 156 205 254 304 364
#     4  10  21  39  63  86 114 156 205 254 304 364
#     4   8  16  34  60  90 121 157 203 253 310 371
#
# _framework density 24.898738999999999
#
# number of rings (size 3 to 8) (size 9 to 14) (size 15 to 20)
#    0.000    2.500    0.000    1.500    0.000    4.000 
#    0.000    5.000    0.000   12.000    0.000    0.000 
#    0.000    0.000    0.000    0.000    0.000    0.000 
#
# Total GULP energy -89101.584994 kJ/mol
# GULP energy per Si atom -5568.849062 kJ/mol
# Density = 2.484207 g / cm^3
# Si number density = 24.898739 Si / 1000 Ang^3
#
#
#
# Elastic Constant Matrix: (Units=GPa)
#
#
# Indices 1 2 3 4 5 6 
#
# 1 58.1962 32.4120 8.1759 0.0000 -6.7639 0.0000
# 2 32.4120 198.0186 54.6693 0.0000 2.1318 0.0000
# 3 8.1759 54.6693 127.8026 0.0000 -2.9020 0.0000
# 4 0.0000 0.0000 0.0000 25.3852 0.0000 -1.8934
# 5 -6.7639 2.1318 -2.9020 0.0000 34.1344 0.0000
# 6 0.0000 0.0000 0.0000 -1.8934 0.0000 38.4362
#
#
#
# Elastic Compliance Matrix: (Units=1/GPa)
#
#
# Indices 1 2 3 4 5 6 
#
# 1 0.019460 -0.003301 0.000260 0.000000 0.004084 0.000000
# 2 -0.003301 0.006297 -0.002511 0.000000 -0.001261 0.000000
# 3 0.000260 -0.002511 0.008904 0.000000 0.000965 0.000000
# 4 0.000000 0.000000 0.000000 0.039538 0.000000 0.001948
# 5 0.004084 -0.001261 0.000965 0.000000 0.030266 0.000000
# 6 0.000000 0.000000 0.000000 0.001948 0.000000 0.026113
#
#
# Mechanical properties :
#
#
# Convention : Reuss Voigt Hill
#
# Bulk Modulus (GPa) = 42.45089 63.83688 53.14388
# Shear Modulus (GPa) = 33.43692 38.84184 36.13938
#
# Velocity S-wave (km/s) = 3.66856 3.95396 3.81393
# Velocity P-wave (km/s) = 5.91869 6.82197 6.38632
#
# Compressibility (1/GPa) = 0.02355663
#
# Stress axis : x y z
#
# Youngs Moduli (GPa) = 51.38778 158.80078 112.30840
#
# Poissons Ratio (x) = 0.52419 -0.02919
# Poissons Ratio (y) = 0.16963 0.28203
# Poissons Ratio (z) = -0.01335 0.39878
#
# Static dielectric constant tensor:
#      x y z
#    x 2.071010 0.000000 0.110010 
#    y 0.000000 2.002470 0.000000 
#    z 0.110010 0.000000 2.023610 
# 
# From -- ./inp_files/10450.got.cif
#   From: 2010.05.17/outbox.cif.g08.bks.cpg/sg4_6_cif.got.tgz:10450.got - 2010.06.03 18:43:04.
