data_PCOD9116075
_publ_section_title
;
Structure prediction by ZEFSAII (Michael W. Deem and Ramdas Pophale) SiO2 
 PCOD9116075
Probable space group: P 21
;
_chemical_formula_sum "Si O2"
_cell_formula_units_Z 10
_cell_length_a 13.436933
_cell_length_b 5.325901
_cell_length_c 7.317588
_cell_angle_alpha 90.000000
_cell_angle_beta 46.075459
_cell_angle_gamma 90.000000
_cell_volume 377.178477
_symmetry_space_group_name_H-M "P 21"
_symmetry_group_IT_number 4
_symmetry_cell_setting 'monoclinic'
loop_
_space_group_symop_operation_xyz
x,y,z
-x,1/2+y,-z
loop_
_atom_site_type_symbol
_atom_site_label
_atom_site_fract_x
_atom_site_fract_y
_atom_site_fract_z
Si Si1 0.442551 0.229290 0.843404
Si Si2 0.706260 0.919936 0.635315
Si Si3 0.020238 0.684616 0.732627
Si Si4 0.890544 0.190771 0.965915
Si Si5 0.666200 0.535164 0.397445
O O1 0.533155 0.475920 0.688892
O O2 0.379150 0.163892 0.730018
O O3 0.559349 0.035837 0.762113
O O4 0.325602 0.269896 0.140757
O O5 0.751820 0.725663 0.417360
O O6 0.820602 0.135252 0.526607
O O7 0.939787 0.430037 0.785986
O O8 0.032177 0.676634 0.938156
O O9 0.934169 0.937384 0.806041
O O10 0.739694 0.278717 0.232590
#
# Coordination Sequence:
#
# PCOD9116075 Si02
#       5
#     2   2   2   2   2
#     4  12  26  42  72 116 154 206 250 326 398 474
#     4  12  24  44  73 111 160 200 263 322 396 473
#     4  10  21  39  71 106 141 199 259 312 378 455
#     4  10  21  39  71 106 141 199 259 312 378 455
#     4  12  24  44  73 111 160 200 263 322 396 473
#
# _framework density 26.512647999999999
#
# number of rings (size 3 to 8) (size 9 to 14) (size 15 to 20)
#    0.000    0.800    6.000    3.600    0.000    0.000 
#    0.000    0.000    0.000   21.600    0.000    0.000 
#    0.000    0.000    0.000    0.000    0.000    0.000 
#
# Total GULP energy -55946.809737 kJ/mol
# GULP energy per Si atom -5594.680974 kJ/mol
# Density = 2.645230 g / cm^3
# Si number density = 26.512648 Si / 1000 Ang^3
#
#
#
# Elastic Constant Matrix: (Units=GPa)
#
#
# Indices 1 2 3 4 5 6 
#
# 1 64.6681 28.0578 39.0418 0.0000 9.0244 0.0000
# 2 28.0578 180.1344 44.0091 0.0000 -13.7328 0.0000
# 3 39.0418 44.0091 132.3771 0.0000 -12.4239 0.0000
# 4 0.0000 0.0000 0.0000 47.1861 0.0000 -13.5315
# 5 9.0244 -13.7328 -12.4239 0.0000 32.4955 0.0000
# 6 0.0000 0.0000 0.0000 -13.5315 0.0000 33.1444
#
#
#
# Elastic Compliance Matrix: (Units=1/GPa)
#
#
# Indices 1 2 3 4 5 6 
#
# 1 0.021833 -0.002547 -0.006496 0.000000 -0.009623 0.000000
# 2 -0.002547 0.006449 -0.001110 0.000000 0.003008 0.000000
# 3 -0.006496 -0.001110 0.010335 0.000000 0.005286 0.000000
# 4 0.000000 0.000000 0.000000 0.024003 0.000000 0.009799
# 5 -0.009623 0.003008 0.005286 0.000000 0.036738 0.000000
# 6 0.000000 0.000000 0.000000 0.009799 0.000000 0.034172
#
#
# Mechanical properties :
#
#
# Convention : Reuss Voigt Hill
#
# Bulk Modulus (GPa) = 54.61287 66.59965 60.60626
# Shear Modulus (GPa) = 31.26166 40.30326 35.78246
#
# Velocity S-wave (km/s) = 3.43756 3.90314 3.67773
# Velocity P-wave (km/s) = 6.03318 6.74442 6.39869
#
# Compressibility (1/GPa) = 0.01831070
#
# Stress axis : x y z
#
# Youngs Moduli (GPa) = 45.80151 155.06767 96.75744
#
# Poissons Ratio (x) = 0.39503 0.62849
# Poissons Ratio (y) = 0.11668 0.10743
# Poissons Ratio (z) = 0.29751 0.17217
#
# Static dielectric constant tensor:
#      x y z
#    x 2.007850 0.000000 -0.045190 
#    y 0.000000 2.232230 0.000000 
#    z -0.045190 0.000000 2.067570 
# 
# From -- ./inp_files/8763.got.cif
#   From: 2010.05.17/outbox.cif.g08.bks.cpg/sg4_5_cif.got.tgz:8763.got - 2010.06.03 18:43:04.
