data_PCOD9116936
_publ_section_title
;
Structure prediction by ZEFSAII (Michael W. Deem and Ramdas Pophale) SiO2 
 PCOD9116936
Probable space group: P 21
;
_chemical_formula_sum "Si O2"
_cell_formula_units_Z 12
_cell_length_a 8.163373
_cell_length_b 10.429089
_cell_length_c 7.233118
_cell_angle_alpha 90.000000
_cell_angle_beta 125.283831
_cell_angle_gamma 90.000000
_cell_volume 502.680104
_symmetry_space_group_name_H-M "P 21"
_symmetry_group_IT_number 4
_symmetry_cell_setting 'monoclinic'
loop_
_space_group_symop_operation_xyz
x,y,z
-x,1/2+y,-z
loop_
_atom_site_type_symbol
_atom_site_label
_atom_site_fract_x
_atom_site_fract_y
_atom_site_fract_z
Si Si1 0.111127 0.811210 0.484569
Si Si2 0.340646 0.058484 0.007281
Si Si3 0.540506 0.304998 0.016578
Si Si4 0.151921 0.051401 0.251840
Si Si5 0.723682 0.807779 0.467899
Si Si6 0.888738 0.060379 0.740218
O O1 0.169472 0.697759 0.379758
O O2 0.881427 0.813132 0.400047
O O3 0.151199 0.944511 0.407428
O O4 0.240692 0.786399 0.753987
O O5 0.317787 0.019118 0.205143
O O6 0.483923 0.959814 0.993820
O O7 0.408348 0.204322 0.042802
O O8 0.110913 0.042384 0.790948
O O9 0.486628 0.275406 0.768626
O O10 0.205137 0.190395 0.362140
O O11 0.947634 0.057364 0.995367
O O12 0.751018 0.941976 0.591677
#
# Coordination Sequence:
#
# PCOD9116936 Si02
#       6
#     2   2   2   2   2   2
#     4  12  22  43  72  96 136 176 220 277 333 397
#     4  10  24  44  64 102 132 172 231 265 333 393
#     4  12  24  44  70 102 134 178 224 272 336 398
#     4  10  24  44  68  99 137 168 230 276 323 409
#     4  12  22  43  72  96 136 176 220 277 333 397
#     4  10  22  42  64 101 129 176 219 269 332 386
#
# _framework density 23.872043999999999
#
# number of rings (size 3 to 8) (size 9 to 14) (size 15 to 20)
#    1.000    0.000    3.333    4.000    0.000    1.333 
#    0.000    5.000    0.000    0.000    0.000    0.000 
#    0.000    0.000    0.000    0.000    0.000    0.000 
#
# Total GULP energy -66933.353564 kJ/mol
# GULP energy per Si atom -5577.779464 kJ/mol
# Density = 2.381771 g / cm^3
# Si number density = 23.872044 Si / 1000 Ang^3
#
#
#
# Elastic Constant Matrix: (Units=GPa)
#
#
# Indices 1 2 3 4 5 6 
#
# 1 38.6081 14.4095 5.3486 0.0000 -4.0843 0.0000
# 2 14.4095 86.3880 27.8215 0.0000 -6.1052 0.0000
# 3 5.3486 27.8215 141.2834 0.0000 6.9142 0.0000
# 4 0.0000 0.0000 0.0000 42.7736 0.0000 -10.7005
# 5 -4.0843 -6.1052 6.9142 0.0000 24.2202 0.0000
# 6 0.0000 0.0000 0.0000 -10.7005 0.0000 22.8906
#
#
#
# Elastic Compliance Matrix: (Units=1/GPa)
#
#
# Indices 1 2 3 4 5 6 
#
# 1 0.027946 -0.004267 -0.000401 0.000000 0.003752 0.000000
# 2 -0.004267 0.013378 -0.002640 0.000000 0.003406 0.000000
# 3 -0.000401 -0.002640 0.007757 0.000000 -0.002947 0.000000
# 4 0.000000 0.000000 0.000000 0.026475 0.000000 0.012376
# 5 0.003752 0.003406 -0.002947 0.000000 0.043620 0.000000
# 6 0.000000 0.000000 0.000000 0.012376 0.000000 0.049471
#
#
# Mechanical properties :
#
#
# Convention : Reuss Voigt Hill
#
# Bulk Modulus (GPa) = 29.01426 40.15988 34.58707
# Shear Modulus (GPa) = 25.67354 32.55690 29.11522
#
# Velocity S-wave (km/s) = 3.28299 3.69698 3.49612
# Velocity P-wave (km/s) = 5.15278 5.92310 5.55132
#
# Compressibility (1/GPa) = 0.03446581
#
# Stress axis : x y z
#
# Youngs Moduli (GPa) = 35.78290 74.74820 128.91246
#
# Poissons Ratio (x) = 0.31896 0.05173
# Poissons Ratio (y) = 0.15269 0.34028
# Poissons Ratio (z) = 0.01436 0.19731
#
# Static dielectric constant tensor:
#      x y z
#    x 1.905450 0.000000 0.019020 
#    y 0.000000 1.886710 0.000000 
#    z 0.019020 0.000000 1.953780 
# 
# From -- ./inp_files/7580.got.cif
#   From: 2010.05.17/outbox.cif.g08.bks.cpg/sg4_4_cif.got.tgz:7580.got - 2010.06.03 18:43:04.
