data_PCOD9116203
_publ_section_title
;
Structure prediction by ZEFSAII (Michael W. Deem and Ramdas Pophale) SiO2 
 PCOD9116203
Probable space group: P 21
;
_chemical_formula_sum "Si O2"
_cell_formula_units_Z 14
_cell_length_a 13.485806
_cell_length_b 5.762587
_cell_length_c 14.538637
_cell_angle_alpha 90.000000
_cell_angle_beta 145.541944
_cell_angle_gamma 90.000000
_cell_volume 639.268300
_symmetry_space_group_name_H-M "P 21"
_symmetry_group_IT_number 4
_symmetry_cell_setting 'monoclinic'
loop_
_space_group_symop_operation_xyz
x,y,z
-x,1/2+y,-z
loop_
_atom_site_type_symbol
_atom_site_label
_atom_site_fract_x
_atom_site_fract_y
_atom_site_fract_z
Si Si1 0.657402 0.074600 0.599543
Si Si2 0.227998 0.107865 0.996818
Si Si3 0.900319 0.865398 0.648097
Si Si4 0.472532 0.584000 0.926684
Si Si5 0.056092 0.967811 0.216497
Si Si6 0.090262 0.543161 0.547483
Si Si7 0.725048 0.688003 0.761548
O O1 0.789825 0.282139 0.679494
O O2 0.454492 0.114710 0.427312
O O3 0.724824 0.899273 0.572548
O O4 0.702797 0.966142 0.733464
O O5 0.134298 0.358567 0.929766
O O6 0.391761 0.094326 0.054688
O O7 0.272805 0.071105 0.137727
O O8 0.072145 0.951895 0.835117
O O9 0.922668 0.589666 0.668324
O O10 0.888055 0.997179 0.544381
O O11 0.274756 0.569463 0.739430
O O12 0.507441 0.334998 0.005438
O O13 0.099778 0.127312 0.161537
O O14 0.005879 0.293527 0.513951
#
# Coordination Sequence:
#
# PCOD9116203 Si02
#       7
#     2   2   2   2   2   2   2
#     4  10  21  41  63  94 139 185 236 298 353 449
#     4  11  26  42  73 103 147 188 247 303 381 439
#     4  10  24  44  68 102 141 191 240 297 378 446
#     4  12  28  54  79 117 154 196 257 322 385 452
#     4  10  24  41  67  98 143 184 241 297 367 452
#     4  12  27  49  83 112 150 200 253 317 383 460
#     4  11  22  41  65 100 138 190 242 300 369 436
#
# _framework density 21.900039
#
# number of rings (size 3 to 8) (size 9 to 14) (size 15 to 20)
#    0.000    1.143    1.429    3.429   14.000    0.000 
#    2.571    0.000    0.000    0.000    0.000    0.000 
#    0.000    0.000    0.000    0.000    0.000    0.000 
#
# Total GULP energy -78002.101104 kJ/mol
# GULP energy per Si atom -5571.578650 kJ/mol
# Density = 2.185019 g / cm^3
# Si number density = 21.900039 Si / 1000 Ang^3
#
#
#
# Elastic Constant Matrix: (Units=GPa)
#
#
# Indices 1 2 3 4 5 6 
#
# 1 128.4987 59.0143 57.2323 0.0000 8.8773 0.0000
# 2 59.0143 113.4077 66.5377 0.0000 1.9035 0.0000
# 3 57.2323 66.5377 136.3084 0.0000 7.8238 0.0000
# 4 0.0000 0.0000 0.0000 32.1754 0.0000 4.8987
# 5 8.8773 1.9035 7.8238 0.0000 38.8762 0.0000
# 6 0.0000 0.0000 0.0000 4.8987 0.0000 36.2776
#
#
#
# Elastic Compliance Matrix: (Units=1/GPa)
#
#
# Indices 1 2 3 4 5 6 
#
# 1 0.010930 -0.004240 -0.002416 0.000000 -0.001802 0.000000
# 2 -0.004240 0.014016 -0.005137 0.000000 0.001316 0.000000
# 3 -0.002416 -0.005137 0.010939 0.000000 -0.001398 0.000000
# 4 0.000000 0.000000 0.000000 0.031732 0.000000 -0.004285
# 5 -0.001802 0.001316 -0.001398 0.000000 0.026351 0.000000
# 6 0.000000 0.000000 0.000000 -0.004285 0.000000 0.028144
#
#
# Mechanical properties :
#
#
# Convention : Reuss Voigt Hill
#
# Bulk Modulus (GPa) = 81.31102 82.64260 81.97681
# Shear Modulus (GPa) = 33.37846 34.49454 33.93650
#
# Velocity S-wave (km/s) = 3.90824 3.97305 3.94078
# Velocity P-wave (km/s) = 7.58780 7.67235 7.63019
#
# Compressibility (1/GPa) = 0.01229846
#
# Stress axis : x y z
#
# Youngs Moduli (GPa) = 91.49135 71.34722 91.41892
#
# Poissons Ratio (x) = 0.30250 0.22088
# Poissons Ratio (y) = 0.38791 0.46963
# Poissons Ratio (z) = 0.22106 0.36652
#
# Static dielectric constant tensor:
#      x y z
#    x 1.798490 0.000000 -0.045660 
#    y 0.000000 2.143940 0.000000 
#    z -0.045660 0.000000 1.787210 
# 
# From -- ./inp_files/14090.got.cif
#   From: 2010.05.17/outbox.cif.g08.bks.cpg/sg4_8_cif.got.tgz:14090.got - 2010.06.03 18:43:04.
