data_PCOD9116232
_publ_section_title
;
Structure prediction by ZEFSAII (Michael W. Deem and Ramdas Pophale) SiO2 
 PCOD9116232
Probable space group: P 21
;
_chemical_formula_sum "Si O2"
_cell_formula_units_Z 16
_cell_length_a 15.039699
_cell_length_b 5.181538
_cell_length_c 16.757792
_cell_angle_alpha 90.000000
_cell_angle_beta 26.711934
_cell_angle_gamma 90.000000
_cell_volume 587.015028
_symmetry_space_group_name_H-M "P 21"
_symmetry_group_IT_number 4
_symmetry_cell_setting 'monoclinic'
loop_
_space_group_symop_operation_xyz
x,y,z
-x,1/2+y,-z
loop_
_atom_site_type_symbol
_atom_site_label
_atom_site_fract_x
_atom_site_fract_y
_atom_site_fract_z
Si Si1 0.595878 0.850600 0.385023
Si Si2 0.593268 0.824212 0.849516
Si Si3 0.613156 0.580970 0.592273
Si Si4 0.923278 0.229093 0.374428
Si Si5 0.626580 0.460071 0.113990
Si Si6 0.001823 0.984249 0.473029
Si Si7 0.633409 0.849306 0.008695
Si Si8 0.924684 0.858466 0.233594
O O1 0.512534 0.565527 0.471539
O O2 0.543005 0.938617 0.338821
O O3 0.825245 0.867503 0.226803
O O4 0.474278 0.047550 0.895090
O O5 0.824552 0.744299 0.649849
O O6 0.558652 0.847897 0.969346
O O7 0.473136 0.621674 0.891628
O O8 0.740265 0.400138 0.549347
O O9 0.524786 0.836331 0.703823
O O10 0.792412 0.655299 0.388167
O O11 0.959467 0.008464 0.412515
O O12 0.132887 0.368839 0.203914
O O13 0.882408 0.109884 0.321603
O O14 0.675533 0.764198 0.073741
O O15 0.840456 0.331430 0.949269
O O16 0.862469 0.223049 0.623034
#
# Coordination Sequence:
#
# PCOD9116232 Si02
#       8
#     2   2   2   2   2   2   2   2
#     4  10  21  41  66 102 146 189 243 306 356 418
#     4  10  21  44  69  98 139 175 228 292 355 420
#     4  11  22  39  72 105 145 198 242 295 371 429
#     4  11  24  44  76 102 139 195 247 287 377 441
#     4   9  22  38  71 102 140 182 246 289 356 430
#     4  12  29  46  70 109 144 181 238 312 364 440
#     4   9  22  41  72 103 133 178 242 292 345 435
#     4  10  21  43  68 105 142 192 244 311 342 445
#
# _framework density 27.256540000000001
#
# number of rings (size 3 to 8) (size 9 to 14) (size 15 to 20)
#    0.750    1.000    1.250    2.250    5.250    0.000 
#    0.000    7.500    0.000    3.000    0.000    0.000 
#    0.000    0.000    0.000    0.000    0.000    0.000 
#
# Total GULP energy -89155.035565 kJ/mol
# GULP energy per Si atom -5572.189723 kJ/mol
# Density = 2.719450 g / cm^3
# Si number density = 27.256540 Si / 1000 Ang^3
#
#
#
# Elastic Constant Matrix: (Units=GPa)
#
#
# Indices 1 2 3 4 5 6 
#
# 1 83.1536 -116.2065 -91.1200 0.0000 -20.7937 0.0000
# 2 -116.2065 -208.7175 -346.1436 0.0000 15.1707 0.0000
# 3 -91.1200 -346.1436 -275.9636 0.0000 -7.8975 0.0000
# 4 0.0000 0.0000 0.0000 27.5637 0.0000 -7.0776
# 5 -20.7937 15.1707 -7.8975 0.0000 48.3199 0.0000
# 6 0.0000 0.0000 0.0000 -7.0776 0.0000 24.5960
#
#
#
# Elastic Compliance Matrix: (Units=1/GPa)
#
#
# Indices 1 2 3 4 5 6 
#
# 1 0.009419 -0.000332 -0.002800 0.000000 0.003700 0.000000
# 2 -0.000332 0.004718 -0.005734 0.000000 -0.002561 0.000000
# 3 -0.002800 -0.005734 0.004456 0.000000 0.001324 0.000000
# 4 0.000000 0.000000 0.000000 0.039174 0.000000 0.011272
# 5 0.003700 -0.002561 0.001324 0.000000 0.023308 0.000000
# 6 0.000000 0.000000 0.000000 0.011272 0.000000 0.043901
#
#
# Mechanical properties :
#
#
# Convention : Reuss Voigt Hill
#
# Bulk Modulus (GPa) = 1162.34737 -167.60755 497.36991
# Shear Modulus (GPa) = 34.96633 30.22544 32.59588
#
# Velocity S-wave (km/s) = 3.58559 3.33366 3.46192
# Velocity P-wave (km/s) = 21.08352 6.84166 14.10153
#
# Compressibility (1/GPa) = 0.00086033
#
# Stress axis : x y z
#
# Youngs Moduli (GPa) = 106.16434 211.97429 224.42363
#
# Poissons Ratio (x) = 0.07028 0.62842
# Poissons Ratio (y) = 0.03520 1.28696
# Poissons Ratio (z) = 0.29728 1.21557
#
# Static dielectric constant tensor:
#      x y z
#    x 2.675860 0.000000 0.042450 
#    y 0.000000 10.795240 0.000000 
#    z 0.042450 0.000000 2.206510 
# 
# From -- ./inp_files/15204.got.cif
#   From: 2010.05.17/outbox.cif.g08.bks.cpg/sg4_8_cif.got.tgz:15204.got - 2010.06.03 18:43:04.
