data_PCOD9116806
_publ_section_title
;
Structure prediction by ZEFSAII (Michael W. Deem and Ramdas Pophale) SiO2 
 PCOD9116806
Probable space group: P 21
;
_chemical_formula_sum "Si O2"
_cell_formula_units_Z 16
_cell_length_a 5.655649
_cell_length_b 13.573467
_cell_length_c 7.875791
_cell_angle_alpha 90.000000
_cell_angle_beta 75.894671
_cell_angle_gamma 90.000000
_cell_volume 586.369946
_symmetry_space_group_name_H-M "P 21"
_symmetry_group_IT_number 4
_symmetry_cell_setting 'monoclinic'
loop_
_space_group_symop_operation_xyz
x,y,z
-x,1/2+y,-z
loop_
_atom_site_type_symbol
_atom_site_label
_atom_site_fract_x
_atom_site_fract_y
_atom_site_fract_z
Si Si1 0.316309 0.767370 0.124818
Si Si2 0.620010 0.591780 0.050571
Si Si3 0.455204 0.463928 0.770351
Si Si4 0.149152 0.401283 0.306571
Si Si5 0.550462 0.648965 0.455801
Si Si6 0.991730 0.413067 0.972277
Si Si7 0.597513 0.360860 0.456105
Si Si8 0.070100 0.622810 0.445537
O O1 0.556263 0.706735 0.032115
O O2 0.379447 0.874207 0.188848
O O3 0.152742 0.696523 0.275954
O O4 0.147290 0.809147 0.004984
O O5 0.842002 0.514637 0.009442
O O6 0.411436 0.368736 0.331019
O O7 0.475036 0.547985 0.908950
O O8 0.563572 0.465033 0.561421
O O9 0.179578 0.427849 0.787314
O O10 0.166700 0.407364 0.102915
O O11 0.889296 0.347028 0.387430
O O12 0.095830 0.512007 0.376519
O O13 0.582276 0.596422 0.265642
O O14 0.519857 0.766979 0.428219
O O15 0.269926 0.630073 0.560339
O O16 0.788975 0.643788 0.530331
#
# Coordination Sequence:
#
# PCOD9116806 Si02
#       8
#     2   2   2   2   2   2   2   2
#     4  10  23  40  76 107 142 193 264 311 373 450
#     4  10  22  40  74 106 141 193 261 309 372 444
#     4  11  24  44  77 113 147 195 266 318 369 461
#     4  12  28  46  76 111 159 201 255 317 390 464
#     4  11  21  42  74 103 138 201 255 291 376 467
#     4  11  24  43  77 113 145 200 265 319 371 465
#     4  12  27  47  73 114 156 201 253 318 391 460
#     4  11  21  42  73 105 134 204 251 295 374 467
#
# _framework density 27.286529999999999
#
# number of rings (size 3 to 8) (size 9 to 14) (size 15 to 20)
#    0.000    1.000    3.750    3.750    8.750    0.000 
#    0.000    3.750    2.750    0.000    0.000    0.000 
#    0.000    0.000    0.000    0.000    0.000    0.000 
#
# Total GULP energy -89126.647876 kJ/mol
# GULP energy per Si atom -5570.415492 kJ/mol
# Density = 2.722443 g / cm^3
# Si number density = 27.286530 Si / 1000 Ang^3
#
#
#
# Elastic Constant Matrix: (Units=GPa)
#
#
# Indices 1 2 3 4 5 6 
#
# 1 185.8926 31.2829 26.5873 0.0000 -2.4029 0.0000
# 2 31.2829 65.3972 19.0670 0.0000 -9.2282 0.0000
# 3 26.5873 19.0670 50.7243 0.0000 -8.9726 0.0000
# 4 0.0000 0.0000 0.0000 42.1771 0.0000 -13.0516
# 5 -2.4029 -9.2282 -8.9726 0.0000 44.3033 0.0000
# 6 0.0000 0.0000 0.0000 -13.0516 0.0000 36.8300
#
#
#
# Elastic Compliance Matrix: (Units=1/GPa)
#
#
# Indices 1 2 3 4 5 6 
#
# 1 0.006109 -0.002298 -0.002452 0.000000 -0.000644 0.000000
# 2 -0.002298 0.018278 -0.005201 0.000000 0.002629 0.000000
# 3 -0.002452 -0.005201 0.023584 0.000000 0.003560 0.000000
# 4 0.000000 0.000000 0.000000 0.026630 0.000000 0.009437
# 5 -0.000644 0.002629 0.003560 0.000000 0.023805 0.000000
# 6 0.000000 0.000000 0.000000 0.009437 0.000000 0.030496
#
#
# Mechanical properties :
#
#
# Convention : Reuss Voigt Hill
#
# Bulk Modulus (GPa) = 35.62653 50.65428 43.14040
# Shear Modulus (GPa) = 31.61355 39.66719 35.64037
#
# Velocity S-wave (km/s) = 3.40748 3.81691 3.61799
# Velocity P-wave (km/s) = 5.34472 6.16679 5.77041
#
# Compressibility (1/GPa) = 0.02806897
#
# Stress axis : x y z
#
# Youngs Moduli (GPa) = 163.70538 54.71111 42.40102
#
# Poissons Ratio (x) = 0.12573 0.10396
# Poissons Ratio (y) = 0.37620 0.22052
# Poissons Ratio (z) = 0.40139 0.28455
#
# Static dielectric constant tensor:
#      x y z
#    x 2.276530 0.000000 0.076870 
#    y 0.000000 2.132770 0.000000 
#    z 0.076870 0.000000 2.262420 
# 
# From -- ./inp_files/10366.got.cif
#   From: 2010.05.17/outbox.cif.g08.bks.cpg/sg4_6_cif.got.tgz:10366.got - 2010.06.03 18:43:04.
