data_PCOD9116937
_publ_section_title
;
Structure prediction by ZEFSAII (Michael W. Deem and Ramdas Pophale) SiO2 
 PCOD9116937
Probable space group: P 21
;
_chemical_formula_sum "Si O2"
_cell_formula_units_Z 12
_cell_length_a 14.810822
_cell_length_b 5.033220
_cell_length_c 6.245231
_cell_angle_alpha 90.000000
_cell_angle_beta 80.031808
_cell_angle_gamma 90.000000
_cell_volume 458.529715
_symmetry_space_group_name_H-M "P 21"
_symmetry_group_IT_number 4
_symmetry_cell_setting 'monoclinic'
loop_
_space_group_symop_operation_xyz
x,y,z
-x,1/2+y,-z
loop_
_atom_site_type_symbol
_atom_site_label
_atom_site_fract_x
_atom_site_fract_y
_atom_site_fract_z
Si Si1 0.309408 0.212080 0.821598
Si Si2 0.258333 0.608176 0.473086
Si Si3 0.109367 0.272082 0.015937
Si Si4 0.629483 0.193555 0.968026
Si Si5 0.548505 0.338813 0.575070
Si Si6 0.074656 0.774602 0.751871
O O1 0.214224 0.198019 0.995003
O O2 0.375590 0.447270 0.873378
O O3 0.357864 0.953609 0.898403
O O4 0.080762 0.074459 0.833486
O O5 0.282589 0.613057 0.214535
O O6 0.341341 0.803574 0.516506
O O7 0.275724 0.337538 0.603522
O O8 0.155836 0.712500 0.553845
O O9 0.101952 0.572965 0.933924
O O10 0.034389 0.225368 0.234149
O O11 0.553345 0.246473 0.820446
O O12 0.515998 0.634077 0.528664
#
# Coordination Sequence:
#
# PCOD9116937 Si02
#       6
#     2   2   2   2   2   2
#     4  11  20  40  60  94 123 168 201 261 314 380
#     4   9  23  39  67  86 128 167 211 253 332 381
#     4   9  18  30  58  83 125 155 209 248 303 366
#     4  10  24  37  64  92 124 158 214 260 316 387
#     4  10  22  42  64  88 122 163 208 269 328 387
#     4   9  17  34  53  89 114 167 203 249 303 381
#
# _framework density 26.170604000000001
#
# number of rings (size 3 to 8) (size 9 to 14) (size 15 to 20)
#    1.000    1.333    0.000    3.000    0.000    8.000 
#    0.000    5.000    0.000    0.000    0.000    0.000 
#    0.000    0.000    0.000    0.000    0.000    0.000 
#
# Total GULP energy -66864.008534 kJ/mol
# GULP energy per Si atom -5572.000711 kJ/mol
# Density = 2.611104 g / cm^3
# Si number density = 26.170604 Si / 1000 Ang^3
#
#
#
# Elastic Constant Matrix: (Units=GPa)
#
#
# Indices 1 2 3 4 5 6 
#
# 1 70.8315 1.8908 -10.5432 0.0000 -36.7837 0.0000
# 2 1.8908 122.1647 17.6774 0.0000 11.9127 0.0000
# 3 -10.5432 17.6774 74.3137 0.0000 -8.1615 0.0000
# 4 0.0000 0.0000 0.0000 10.2203 0.0000 1.4613
# 5 -36.7837 11.9127 -8.1615 0.0000 49.6249 0.0000
# 6 0.0000 0.0000 0.0000 1.4613 0.0000 39.2532
#
#
#
# Elastic Compliance Matrix: (Units=1/GPa)
#
#
# Indices 1 2 3 4 5 6 
#
# 1 0.026476 -0.003526 0.006969 0.000000 0.021617 0.000000
# 2 -0.003526 0.009240 -0.003288 0.000000 -0.005373 0.000000
# 3 0.006969 -0.003288 0.016174 0.000000 0.008615 0.000000
# 4 0.000000 0.000000 0.000000 0.098368 0.000000 -0.003662
# 5 0.021617 -0.005373 0.008615 0.000000 0.038881 0.000000
# 6 0.000000 0.000000 0.000000 -0.003662 0.000000 0.025612
#
#
# Mechanical properties :
#
#
# Convention : Reuss Voigt Hill
#
# Bulk Modulus (GPa) = 19.15766 31.70666 25.43216
# Shear Modulus (GPa) = 21.56653 37.03866 29.30259
#
# Velocity S-wave (km/s) = 2.87378 3.76610 3.34979
# Velocity P-wave (km/s) = 4.28342 5.57252 4.96994
#
# Compressibility (1/GPa) = 0.05219844
#
# Stress axis : x y z
#
# Youngs Moduli (GPa) = 37.77057 108.22536 61.82932
#
# Poissons Ratio (x) = 0.38162 -0.43090
# Poissons Ratio (y) = 0.13319 0.20331
# Poissons Ratio (z) = -0.26323 0.35588
#
# Static dielectric constant tensor:
#      x y z
#    x 2.117280 0.000000 -0.164020 
#    y 0.000000 2.071390 0.000000 
#    z -0.164020 0.000000 2.148210 
# 
# From -- ./inp_files/8794.got.cif
#   From: 2010.05.17/outbox.cif.g08.bks.cpg/sg4_5_cif.got.tgz:8794.got - 2010.06.03 18:43:04.
