data_PCOD9116757
_publ_section_title
;
Structure prediction by ZEFSAII (Michael W. Deem and Ramdas Pophale) SiO2 
 PCOD9116757
Probable space group: P 21
;
_chemical_formula_sum "Si O2"
_cell_formula_units_Z 16
_cell_length_a 11.723274
_cell_length_b 4.975848
_cell_length_c 11.666173
_cell_angle_alpha 90.000000
_cell_angle_beta 75.351355
_cell_angle_gamma 90.000000
_cell_volume 658.404935
_symmetry_space_group_name_H-M "P 21"
_symmetry_group_IT_number 4
_symmetry_cell_setting 'monoclinic'
loop_
_space_group_symop_operation_xyz
x,y,z
-x,1/2+y,-z
loop_
_atom_site_type_symbol
_atom_site_label
_atom_site_fract_x
_atom_site_fract_y
_atom_site_fract_z
Si Si1 0.421975 0.968180 0.519201
Si Si2 0.006089 0.195223 0.352752
Si Si3 0.941118 0.073072 0.875644
Si Si4 0.839069 0.592662 0.005939
Si Si5 0.375483 0.887804 0.283922
Si Si6 0.519928 0.685543 0.917145
Si Si7 0.389915 0.019192 0.781526
Si Si8 0.135455 0.674615 0.404728
O O1 0.463004 0.659168 0.501514
O O2 0.370531 0.039097 0.407927
O O3 0.355503 0.004437 0.656483
O O4 0.008783 0.377499 0.238505
O O5 0.098091 0.367036 0.403481
O O6 0.884857 0.230977 0.455210
O O7 0.052299 0.887158 0.353706
O O8 0.053741 0.095446 0.930069
O O9 0.878370 0.365260 0.903984
O O10 0.839108 0.882694 0.949777
O O11 0.719153 0.569207 0.107426
O O12 0.497517 0.720199 0.242483
O O13 0.263993 0.697680 0.321450
O O14 0.364713 0.069061 0.173433
O O15 0.441913 0.748459 0.824453
O O16 0.470507 0.456912 0.013274
#
# Coordination Sequence:
#
# PCOD9116757 Si02
#       8
#     2   2   2   2   2   2   2   2
#     4  10  22  40  66  90 130 172 214 272 318 390
#     4  10  22  44  65  96 126 171 222 272 330 385
#     4  10  22  44  65  96 126 171 222 272 330 385
#     4  10  24  40  68  95 129 168 219 276 326 394
#     4  11  25  45  67 102 137 175 229 272 344 408
#     4  12  26  44  64  94 140 182 222 268 324 414
#     4  11  25  45  67 102 137 175 229 272 344 408
#     4  10  24  40  68  95 129 168 219 276 326 394
#
# _framework density 24.301154
#
# number of rings (size 3 to 8) (size 9 to 14) (size 15 to 20)
#    0.000    1.500    2.500    0.750    5.250    3.000 
#    0.000    0.000    0.000    0.000    0.000    0.000 
#    0.000    0.000    0.000    0.000    0.000    0.000 
#
# Total GULP energy -89180.559799 kJ/mol
# GULP energy per Si atom -5573.784987 kJ/mol
# Density = 2.424584 g / cm^3
# Si number density = 24.301154 Si / 1000 Ang^3
#
#
#
# Elastic Constant Matrix: (Units=GPa)
#
#
# Indices 1 2 3 4 5 6 
#
# 1 38.8960 15.2734 8.8407 0.0000 -17.3655 0.0000
# 2 15.2734 106.6081 1.4224 0.0000 -5.6457 0.0000
# 3 8.8407 1.4224 108.9765 0.0000 0.2535 0.0000
# 4 0.0000 0.0000 0.0000 20.8461 0.0000 -0.3444
# 5 -17.3655 -5.6457 0.2535 0.0000 39.6301 0.0000
# 6 0.0000 0.0000 0.0000 -0.3444 0.0000 19.9982
#
#
#
# Elastic Compliance Matrix: (Units=1/GPa)
#
#
# Indices 1 2 3 4 5 6 
#
# 1 0.034445 -0.004129 -0.002774 0.000000 0.014523 0.000000
# 2 -0.004129 0.009948 0.000206 0.000000 -0.000393 0.000000
# 3 -0.002774 0.000206 0.009402 0.000000 -0.001246 0.000000
# 4 0.000000 0.000000 0.000000 0.047984 0.000000 0.000826
# 5 0.014523 -0.000393 -0.001246 0.000000 0.031549 0.000000
# 6 0.000000 0.000000 0.000000 0.000826 0.000000 0.050019
#
#
# Mechanical properties :
#
#
# Convention : Reuss Voigt Hill
#
# Bulk Modulus (GPa) = 24.75183 33.95040 29.35112
# Shear Modulus (GPa) = 23.78592 31.35782 27.57187
#
# Velocity S-wave (km/s) = 3.13197 3.59609 3.37202
# Velocity P-wave (km/s) = 4.82561 5.58959 5.22159
#
# Compressibility (1/GPa) = 0.04040105
#
# Stress axis : x y z
#
# Youngs Moduli (GPa) = 29.03142 100.52178 106.36528
#
# Poissons Ratio (x) = 0.41503 0.29509
# Poissons Ratio (y) = 0.11986 -0.02191
# Poissons Ratio (z) = 0.08054 -0.02071
#
# Static dielectric constant tensor:
#      x y z
#    x 1.995080 0.000000 0.038660 
#    y 0.000000 1.929820 0.000000 
#    z 0.038660 0.000000 2.047470 
# 
# From -- ./inp_files/11752.got.cif
#   From: 2010.05.17/outbox.cif.g08.bks.cpg/sg4_6_cif.got.tgz:11752.got - 2010.06.03 18:43:04.
