data_PCOD9116780
_publ_section_title
;
Structure prediction by ZEFSAII (Michael W. Deem and Ramdas Pophale) SiO2 
 PCOD9116780
Probable space group: P 21
;
_chemical_formula_sum "Si O2"
_cell_formula_units_Z 16
_cell_length_a 12.232076
_cell_length_b 9.081334
_cell_length_c 11.815733
_cell_angle_alpha 90.000000
_cell_angle_beta 33.134606
_cell_angle_gamma 90.000000
_cell_volume 717.441244
_symmetry_space_group_name_H-M "P 21"
_symmetry_group_IT_number 4
_symmetry_cell_setting 'monoclinic'
loop_
_space_group_symop_operation_xyz
x,y,z
-x,1/2+y,-z
loop_
_atom_site_type_symbol
_atom_site_label
_atom_site_fract_x
_atom_site_fract_y
_atom_site_fract_z
Si Si1 0.657215 0.568170 0.145566
Si Si2 0.438844 0.108979 0.322858
Si Si3 0.775582 0.899872 0.109433
Si Si4 0.561888 0.765358 0.915956
Si Si5 0.068155 0.112050 0.278063
Si Si6 0.310002 0.571562 0.266729
Si Si7 0.169283 0.865820 0.648063
Si Si8 0.505324 0.846479 0.533487
O O1 0.727459 0.730388 0.120275
O O2 0.451293 0.577898 0.254303
O O3 0.612023 0.464330 0.289200
O O4 0.830367 0.514022 0.908415
O O5 0.436211 0.208844 0.214389
O O6 0.440958 0.211965 0.432055
O O7 0.637250 0.008690 0.156539
O O8 0.256502 0.995104 0.494089
O O9 0.700974 0.914280 0.303224
O O10 0.003368 0.926028 0.879331
O O11 0.742792 0.684844 0.823877
O O12 0.605145 0.937539 0.880800
O O13 0.357163 0.718696 0.155420
O O14 0.915038 0.041505 0.499312
O O15 0.936331 0.240381 0.333916
O O16 0.354367 0.806625 0.562226
#
# Coordination Sequence:
#
# PCOD9116780 Si02
#       8
#     2   2   2   2   2   2   2   2
#     4  10  22  44  64  95 129 176 217 259 336 387
#     4  11  24  42  65 101 132 171 217 276 324 388
#     4  10  22  40  68  92 134 176 214 266 323 392
#     4  11  27  42  70  98 127 173 220 271 332 390
#     4  10  25  43  68  94 132 174 221 265 331 392
#     4  11  24  45  67  93 130 173 213 276 325 392
#     4  10  24  42  68  97 132 177 218 266 328 395
#     4  11  22  42  66  98 136 166 222 273 325 386
#
# _framework density 22.301477999999999
#
# number of rings (size 3 to 8) (size 9 to 14) (size 15 to 20)
#    0.000    1.500    1.250    3.000    8.750    5.000 
#    2.250    0.000    0.000    0.000    0.000    0.000 
#    0.000    0.000    0.000    0.000    0.000    0.000 
#
# Total GULP energy -89475.998159 kJ/mol
# GULP energy per Si atom -5592.249885 kJ/mol
# Density = 2.225072 g / cm^3
# Si number density = 22.301478 Si / 1000 Ang^3
#
#
#
# Elastic Constant Matrix: (Units=GPa)
#
#
# Indices 1 2 3 4 5 6 
#
# 1 44.0538 -7.2308 0.2841 0.0000 9.6066 0.0000
# 2 -7.2308 38.1699 -1.5827 0.0000 5.3395 0.0000
# 3 0.2841 -1.5827 136.8815 0.0000 0.9546 0.0000
# 4 0.0000 0.0000 0.0000 26.8984 0.0000 9.3844
# 5 9.6066 5.3395 0.9546 0.0000 23.4191 0.0000
# 6 0.0000 0.0000 0.0000 9.3844 0.0000 26.4165
#
#
#
# Elastic Compliance Matrix: (Units=1/GPa)
#
#
# Indices 1 2 3 4 5 6 
#
# 1 0.026519 0.006766 0.000110 0.000000 -0.012425 0.000000
# 2 0.006766 0.028806 0.000384 0.000000 -0.009359 0.000000
# 3 0.000110 0.000384 0.007313 0.000000 -0.000431 0.000000
# 4 0.000000 0.000000 0.000000 0.042437 0.000000 -0.015076
# 5 -0.012425 -0.009359 -0.000431 0.000000 0.049948 0.000000
# 6 0.000000 0.000000 0.000000 -0.015076 0.000000 0.043211
#
#
# Mechanical properties :
#
#
# Convention : Reuss Voigt Hill
#
# Bulk Modulus (GPa) = 12.96035 22.44960 17.70497
# Shear Modulus (GPa) = 23.87416 30.52245 27.19830
#
# Velocity S-wave (km/s) = 3.27543 3.70351 3.49603
# Velocity P-wave (km/s) = 4.48649 5.32694 4.92468
#
# Compressibility (1/GPa) = 0.07715841
#
# Stress axis : x y z
#
# Youngs Moduli (GPa) = 37.70890 34.71548 136.74635
#
# Poissons Ratio (x) = -0.23490 -0.01502
# Poissons Ratio (y) = -0.25515 -0.05255
# Poissons Ratio (z) = -0.00414 -0.01334
#
# Static dielectric constant tensor:
#      x y z
#    x 1.809940 0.000000 0.040030 
#    y 0.000000 1.832820 0.000000 
#    z 0.040030 0.000000 1.868030 
# 
# From -- ./inp_files/11952.got.cif
#   From: 2010.05.17/outbox.cif.g08.bks.cpg/sg4_6_cif.got.tgz:11952.got - 2010.06.03 18:43:04.
