data_PCOD9116772
_publ_section_title
;
Structure prediction by ZEFSAII (Michael W. Deem and Ramdas Pophale) SiO2 
 PCOD9116772
Probable space group: P 21
;
_chemical_formula_sum "Si O2"
_cell_formula_units_Z 14
_cell_length_a 6.311585
_cell_length_b 7.526934
_cell_length_c 14.236855
_cell_angle_alpha 90.000000
_cell_angle_beta 105.702585
_cell_angle_gamma 90.000000
_cell_volume 651.106972
_symmetry_space_group_name_H-M "P 21"
_symmetry_group_IT_number 4
_symmetry_cell_setting 'monoclinic'
loop_
_space_group_symop_operation_xyz
x,y,z
-x,1/2+y,-z
loop_
_atom_site_type_symbol
_atom_site_label
_atom_site_fract_x
_atom_site_fract_y
_atom_site_fract_z
Si Si1 0.319584 0.725010 0.404828
Si Si2 0.461508 0.930470 0.921880
Si Si3 0.779165 0.867252 0.501872
Si Si4 0.238689 0.595412 0.190894
Si Si5 0.146959 0.185785 0.990746
Si Si6 0.999503 0.549277 0.625868
Si Si7 0.965015 0.230805 0.173510
O O1 0.557722 0.754394 0.477416
O O2 0.222349 0.543256 0.435151
O O3 0.311097 0.697028 0.292101
O O4 0.191683 0.905534 0.411533
O O5 0.292394 0.783951 0.862332
O O6 0.549721 0.054398 0.848553
O O7 0.309174 0.028170 0.979009
O O8 0.687480 0.851847 0.989337
O O9 0.960428 0.730564 0.562816
O O10 0.802060 0.942727 0.398894
O O11 0.115851 0.409170 0.204145
O O12 0.053371 0.693868 0.106346
O O13 0.047651 0.161614 0.082468
O O14 0.009356 0.601670 0.735524
#
# Coordination Sequence:
#
# PCOD9116772 Si02
#       7
#     2   2   2   2   2   2   2
#     4  12  26  45  73 105 139 186 235 297 357 424
#     4  10  22  40  67  96 142 190 233 284 342 418
#     4  12  26  46  73 102 140 180 241 298 358 426
#     4  10  23  42  68  99 142 187 238 289 344 423
#     4  10  22  42  66 100 144 188 224 294 342 414
#     4  12  26  45  73 105 139 186 235 297 357 424
#     4  10  23  42  68  99 142 187 238 289 344 423
#
# _framework density 21.501842
#
# number of rings (size 3 to 8) (size 9 to 14) (size 15 to 20)
#    0.000    1.143    4.286    0.857    0.000   12.571 
#    0.000    1.429    0.000    0.000    0.000    0.000 
#    0.000    0.000    0.000    0.000    0.000    0.000 
#
# Total GULP energy -78189.255345 kJ/mol
# GULP energy per Si atom -5584.946810 kJ/mol
# Density = 2.145290 g / cm^3
# Si number density = 21.501842 Si / 1000 Ang^3
#
#
#
# Elastic Constant Matrix: (Units=GPa)
#
#
# Indices 1 2 3 4 5 6 
#
# 1 93.7764 25.4034 28.4986 0.0000 -7.1570 0.0000
# 2 25.4034 94.3071 27.5667 0.0000 -6.3008 0.0000
# 3 28.4986 27.5667 82.2855 0.0000 -18.5649 0.0000
# 4 0.0000 0.0000 0.0000 42.4477 0.0000 -1.9053
# 5 -7.1570 -6.3008 -18.5649 0.0000 26.3132 0.0000
# 6 0.0000 0.0000 0.0000 -1.9053 0.0000 35.5978
#
#
#
# Elastic Compliance Matrix: (Units=1/GPa)
#
#
# Indices 1 2 3 4 5 6 
#
# 1 0.012357 -0.002303 -0.003418 0.000000 0.000398 0.000000
# 2 -0.002303 0.012184 -0.003291 0.000000 -0.000031 0.000000
# 3 -0.003418 -0.003291 0.016712 0.000000 0.010073 0.000000
# 4 0.000000 0.000000 0.000000 0.023615 0.000000 0.001264
# 5 0.000398 -0.000031 0.010073 0.000000 0.045211 0.000000
# 6 0.000000 0.000000 0.000000 0.001264 0.000000 0.028159
#
#
# Mechanical properties :
#
#
# Convention : Reuss Voigt Hill
#
# Bulk Modulus (GPa) = 43.05174 48.14515 45.59844
# Shear Modulus (GPa) = 30.48675 33.46509 31.97592
#
# Velocity S-wave (km/s) = 3.76954 3.94938 3.86051
# Velocity P-wave (km/s) = 6.24594 6.57545 6.41281
#
# Compressibility (1/GPa) = 0.02322786
#
# Stress axis : x y z
#
# Youngs Moduli (GPa) = 80.92806 82.07545 59.83732
#
# Poissons Ratio (x) = 0.18900 0.20455
# Poissons Ratio (y) = 0.18635 0.19694
# Poissons Ratio (z) = 0.27665 0.27013
#
# Static dielectric constant tensor:
#      x y z
#    x 1.827750 0.000000 -0.004340 
#    y 0.000000 1.817220 0.000000 
#    z -0.004340 0.000000 1.764100 
# 
# From -- ./inp_files/2475.got.cif
#   From: 2010.05.17/outbox.cif.g08.bks.cpg/sg4_2_cif.got.tgz:2475.got - 2010.06.03 18:43:04.
