data_PCOD9116262
_publ_section_title
;
Structure prediction by ZEFSAII (Michael W. Deem and Ramdas Pophale) SiO2 
 PCOD9116262
Probable space group: P 21
;
_chemical_formula_sum "Si O2"
_cell_formula_units_Z 14
_cell_length_a 13.329582
_cell_length_b 9.817429
_cell_length_c 16.502642
_cell_angle_alpha 90.000000
_cell_angle_beta 164.902178
_cell_angle_gamma 90.000000
_cell_volume 562.499101
_symmetry_space_group_name_H-M "P 21"
_symmetry_group_IT_number 4
_symmetry_cell_setting 'monoclinic'
loop_
_space_group_symop_operation_xyz
x,y,z
-x,1/2+y,-z
loop_
_atom_site_type_symbol
_atom_site_label
_atom_site_fract_x
_atom_site_fract_y
_atom_site_fract_z
Si Si1 0.065318 0.527770 0.216225
Si Si2 0.875484 0.207734 0.310466
Si Si3 0.089908 0.080213 0.725962
Si Si4 0.812236 0.958841 0.350623
Si Si5 0.902385 0.537822 0.827252
Si Si6 0.068614 0.240482 0.274060
Si Si7 0.016930 0.751119 0.051392
O O1 0.457293 0.495361 0.473115
O O2 0.884970 0.376419 0.089062
O O3 0.910136 0.654040 0.043623
O O4 0.114801 0.582569 0.346872
O O5 0.025595 0.317707 0.492164
O O6 0.010944 0.229288 0.324698
O O7 0.037855 0.060109 0.466771
O O8 0.406944 0.196183 0.954537
O O9 0.814334 0.047153 0.436473
O O10 0.404515 0.958955 0.986420
O O11 0.066110 0.601383 0.873376
O O12 0.102180 0.406305 0.022436
O O13 0.865115 0.669219 0.856186
O O14 0.524648 0.252947 0.611153
#
# Coordination Sequence:
#
# PCOD9116262 Si02
#       7
#     2   2   2   2   2   2   2
#     4  10  21  41  68  88 129 175 225 269 339 395
#     4  10  24  43  68  95 135 173 232 276 343 403
#     4  10  24  41  69  97 134 173 232 271 338 398
#     4  10  24  42  67  99 129 177 223 278 332 400
#     4  10  22  39  65  96 133 167 227 270 343 394
#     4  10  21  43  65  92 125 178 222 273 330 404
#     4  10  22  39  62  99 129 175 213 283 329 404
#
# _framework density 24.888929000000001
#
# number of rings (size 3 to 8) (size 9 to 14) (size 15 to 20)
#    0.857    1.143    1.429    0.857    4.000    3.429 
#    7.714    0.000    0.000    0.000    0.000    0.000 
#    0.000    0.000    0.000    0.000    0.000    0.000 
#
# Total GULP energy -78012.914339 kJ/mol
# GULP energy per Si atom -5572.351024 kJ/mol
# Density = 2.483228 g / cm^3
# Si number density = 24.888929 Si / 1000 Ang^3
#
#
#
# Elastic Constant Matrix: (Units=GPa)
#
#
# Indices 1 2 3 4 5 6 
#
# 1 135.2348 82.1252 28.9776 0.0000 -15.2548 0.0000
# 2 82.1252 166.4022 22.8048 0.0000 -11.5376 0.0000
# 3 28.9776 22.8048 51.9939 0.0000 -0.9894 0.0000
# 4 0.0000 0.0000 0.0000 38.4726 0.0000 -3.6739
# 5 -15.2548 -11.5376 -0.9894 0.0000 38.3349 0.0000
# 6 0.0000 0.0000 0.0000 -3.6739 0.0000 40.4246
#
#
#
# Elastic Compliance Matrix: (Units=1/GPa)
#
#
# Indices 1 2 3 4 5 6 
#
# 1 0.011665 -0.004961 -0.004267 0.000000 0.003038 0.000000
# 2 -0.004961 0.008638 -0.001012 0.000000 0.000599 0.000000
# 3 -0.004267 -0.001012 0.022028 0.000000 -0.001434 0.000000
# 4 0.000000 0.000000 0.000000 0.026220 0.000000 0.002383
# 5 0.003038 0.000599 -0.001434 0.000000 0.027438 0.000000
# 6 0.000000 0.000000 0.000000 0.002383 0.000000 0.024954
#
#
# Mechanical properties :
#
#
# Convention : Reuss Voigt Hill
#
# Bulk Modulus (GPa) = 45.76806 69.04957 57.40881
# Shear Modulus (GPa) = 33.62292 38.09464 35.85878
#
# Velocity S-wave (km/s) = 3.67947 3.91651 3.79984
# Velocity P-wave (km/s) = 6.03988 6.94661 6.50906
#
# Compressibility (1/GPa) = 0.02184930
#
# Stress axis : x y z
#
# Youngs Moduli (GPa) = 85.72966 115.76129 45.39700
#
# Poissons Ratio (x) = 0.57434 0.19371
# Poissons Ratio (y) = 0.42534 0.04596
# Poissons Ratio (z) = 0.36581 0.11719
#
# Static dielectric constant tensor:
#      x y z
#    x 1.963150 0.000000 0.022430 
#    y 0.000000 2.078210 0.000000 
#    z 0.022430 0.000000 2.038400 
# 
# From -- ./inp_files/3686.got.cif
#   From: 2010.05.17/outbox.cif.g08.bks.cpg/sg4_2_cif.got.tgz:3686.got - 2010.06.03 18:43:04.
