data_PCOD9116983
_publ_section_title
;
Structure prediction by ZEFSAII (Michael W. Deem and Ramdas Pophale) SiO2 
 PCOD9116983
Probable space group: P 21
;
_chemical_formula_sum "Si O2"
_cell_formula_units_Z 12
_cell_length_a 7.535219
_cell_length_b 8.954776
_cell_length_c 12.131731
_cell_angle_alpha 90.000000
_cell_angle_beta 32.599824
_cell_angle_gamma 90.000000
_cell_volume 441.037309
_symmetry_space_group_name_H-M "P 21"
_symmetry_group_IT_number 4
_symmetry_cell_setting 'monoclinic'
loop_
_space_group_symop_operation_xyz
x,y,z
-x,1/2+y,-z
loop_
_atom_site_type_symbol
_atom_site_label
_atom_site_fract_x
_atom_site_fract_y
_atom_site_fract_z
Si Si1 0.976648 0.789050 0.931086
Si Si2 0.063442 0.858898 0.527351
Si Si3 0.886424 0.624891 0.788116
Si Si4 0.226526 0.024741 0.648993
Si Si5 0.202130 0.790339 0.202668
Si Si6 0.443962 0.013906 0.764134
O O1 0.740531 0.669215 0.114237
O O2 0.133976 0.683189 0.754348
O O3 0.210784 0.867301 0.896998
O O4 0.931842 0.937851 0.874776
O O5 0.958595 0.700407 0.633448
O O6 0.758748 0.972399 0.670831
O O7 0.188040 0.828566 0.340261
O O8 0.287107 0.933799 0.504768
O O9 0.824709 0.452622 0.834656
O O10 0.541486 0.706500 0.000582
O O11 0.089842 0.184275 0.685887
O O12 0.502301 0.017496 0.600273
#
# Coordination Sequence:
#
# PCOD9116983 Si02
#       6
#     2   2   2   2   2   2
#     4   9  21  38  66 104 141 181 235 290 353 426
#     4  11  24  47  71 105 141 191 244 299 359 427
#     4  11  24  41  73 104 140 191 244 292 364 429
#     4   9  23  43  67 105 143 184 244 289 362 431
#     4  12  24  43  75 105 144 194 240 301 363 426
#     4  10  22  42  68 105 147 183 241 299 353 433
#
# _framework density 27.208584999999999
#
# number of rings (size 3 to 8) (size 9 to 14) (size 15 to 20)
#    1.000    0.667    0.000    5.000    4.667    0.000 
#    3.000    1.667    0.000    0.000    0.000    0.000 
#    0.000    0.000    0.000    0.000    0.000    0.000 
#
# Total GULP energy -67051.918507 kJ/mol
# GULP energy per Si atom -5587.659876 kJ/mol
# Density = 2.714666 g / cm^3
# Si number density = 27.208585 Si / 1000 Ang^3
#
#
#
# Elastic Constant Matrix: (Units=GPa)
#
#
# Indices 1 2 3 4 5 6 
#
# 1 122.6607 44.5829 25.3836 0.0000 21.8169 0.0000
# 2 44.5829 204.9207 48.4945 0.0000 6.0171 0.0000
# 3 25.3836 48.4945 70.5287 0.0000 18.3839 0.0000
# 4 0.0000 0.0000 0.0000 55.3024 0.0000 4.7515
# 5 21.8169 6.0171 18.3839 0.0000 42.5052 0.0000
# 6 0.0000 0.0000 0.0000 4.7515 0.0000 49.8050
#
#
#
# Elastic Compliance Matrix: (Units=1/GPa)
#
#
# Indices 1 2 3 4 5 6 
#
# 1 0.009786 -0.001711 -0.001239 0.000000 -0.004245 0.000000
# 2 -0.001711 0.006167 -0.004087 0.000000 0.001773 0.000000
# 3 -0.001239 -0.004087 0.019293 0.000000 -0.007130 0.000000
# 4 0.000000 0.000000 0.000000 0.018232 0.000000 -0.001739
# 5 -0.004245 0.001773 -0.007130 0.000000 0.028538 0.000000
# 6 0.000000 0.000000 0.000000 -0.001739 0.000000 0.020244
#
#
# Mechanical properties :
#
#
# Convention : Reuss Voigt Hill
#
# Bulk Modulus (GPa) = 47.23145 70.55913 58.89529
# Shear Modulus (GPa) = 40.52135 48.16579 44.34357
#
# Velocity S-wave (km/s) = 3.86331 4.21199 4.04141
# Velocity P-wave (km/s) = 6.10712 7.04581 6.59319
#
# Compressibility (1/GPa) = 0.02117233
#
# Stress axis : x y z
#
# Youngs Moduli (GPa) = 102.18768 162.14521 51.83220
#
# Poissons Ratio (x) = 0.27746 0.06422
# Poissons Ratio (y) = 0.17486 0.21183
# Poissons Ratio (z) = 0.12661 0.66265
#
# Static dielectric constant tensor:
#      x y z
#    x 2.226120 0.000000 -0.064770 
#    y 0.000000 2.120360 0.000000 
#    z -0.064770 0.000000 2.267950 
# 
# From -- ./inp_files/10773.got.cif
#   From: 2010.05.17/outbox.cif.g08.bks.cpg/sg4_6_cif.got.tgz:10773.got - 2010.06.03 18:43:04.
