data_PCOD9116036
_publ_section_title
;
Structure prediction by ZEFSAII (Michael W. Deem and Ramdas Pophale) SiO2 
 PCOD9116036
Probable space group: P 21
;
_chemical_formula_sum "Si O2"
_cell_formula_units_Z 16
_cell_length_a 15.114884
_cell_length_b 9.371022
_cell_length_c 15.114755
_cell_angle_alpha 90.000000
_cell_angle_beta 20.255725
_cell_angle_gamma 90.000000
_cell_volume 741.196737
_symmetry_space_group_name_H-M "P 21"
_symmetry_group_IT_number 4
_symmetry_cell_setting 'monoclinic'
loop_
_space_group_symop_operation_xyz
x,y,z
-x,1/2+y,-z
loop_
_atom_site_type_symbol
_atom_site_label
_atom_site_fract_x
_atom_site_fract_y
_atom_site_fract_z
Si Si1 0.780579 0.170250 0.280658
Si Si2 0.079187 0.030056 0.579128
Si Si3 0.600358 0.377220 0.100221
Si Si4 0.539196 0.107814 0.039132
Si Si5 0.884391 0.236777 0.384747
Si Si6 0.756987 0.827722 0.256907
Si Si7 0.140593 0.310889 0.640457
Si Si8 0.440043 0.159190 0.940416
O O1 0.834891 0.172203 0.334972
O O2 0.516387 0.259587 0.514432
O O3 0.761636 0.004099 0.261634
O O4 0.014326 0.259607 0.016489
O O5 0.292868 0.020952 0.302321
O O6 0.106341 0.178193 0.606211
O O7 0.116576 0.908394 0.616550
O O8 0.802401 0.020962 0.792774
O O9 0.579555 0.221446 0.079417
O O10 0.382111 0.396153 0.377160
O O11 0.560035 0.487443 0.060035
O O12 0.877334 0.396187 0.881897
O O13 0.492588 0.193370 0.992662
O O14 0.662743 0.201118 0.663559
O O15 0.162995 0.200999 0.163424
O O16 0.808010 0.770320 0.307931
#
# Coordination Sequence:
#
# PCOD9116036 Si02
#       8
#     2   2   2   2   2   2   2   2
#     4  12  28  47  74 109 146 186 246 294 370 424
#     4  10  23  42  67  95 135 169 224 279 336 409
#     4  10  21  39  65  90 128 164 225 269 329 406
#     4  10  23  41  62 100 123 175 220 276 324 411
#     4  12  27  44  68  98 142 179 226 284 357 403
#     4  12  26  47  76 105 144 184 243 299 357 438
#     4  10  22  43  69  92 128 176 223 272 346 398
#     4  12  24  41  67  93 134 179 219 277 343 405
#
# _framework density 21.586711000000001
#
# number of rings (size 3 to 8) (size 9 to 14) (size 15 to 20)
#    0.000    1.000    0.000    6.000    7.000    0.000 
#    0.000    0.000    0.000    0.000    0.000    0.000 
#    0.000    0.000    0.000    0.000    0.000    0.000 
#
# Total GULP energy -89306.258385 kJ/mol
# GULP energy per Si atom -5581.641149 kJ/mol
# Density = 2.153758 g / cm^3
# Si number density = 21.586711 Si / 1000 Ang^3
#
#
#
# Elastic Constant Matrix: (Units=GPa)
#
#
# Indices 1 2 3 4 5 6 
#
# 1 136.9561 14.1982 82.0843 0.0000 -1.1949 0.0000
# 2 14.1982 88.2401 63.7962 0.0000 -9.0250 0.0000
# 3 82.0843 63.7962 218.6737 0.0000 -13.6772 0.0000
# 4 0.0000 0.0000 0.0000 14.1561 0.0000 2.6675
# 5 -1.1949 -9.0250 -13.6772 0.0000 32.9516 0.0000
# 6 0.0000 0.0000 0.0000 2.6675 0.0000 28.7775
#
#
#
# Elastic Compliance Matrix: (Units=1/GPa)
#
#
# Indices 1 2 3 4 5 6 
#
# 1 0.009574 0.001270 -0.004025 0.000000 -0.000976 0.000000
# 2 0.001270 0.014695 -0.004630 0.000000 0.002149 0.000000
# 3 -0.004025 -0.004630 0.007542 0.000000 0.001717 0.000000
# 4 0.000000 0.000000 0.000000 0.071897 0.000000 -0.006664
# 5 -0.000976 0.002149 0.001717 0.000000 0.031613 0.000000
# 6 0.000000 0.000000 0.000000 -0.006664 0.000000 0.035367
#
#
# Mechanical properties :
#
#
# Convention : Reuss Voigt Hill
#
# Bulk Modulus (GPa) = 58.68021 84.89192 71.78607
# Shear Modulus (GPa) = 26.15898 34.09646 30.12772
#
# Velocity S-wave (km/s) = 3.48488 3.97862 3.73991
# Velocity P-wave (km/s) = 6.59053 7.77928 7.20945
#
# Compressibility (1/GPa) = 0.01704152
#
# Stress axis : x y z
#
# Youngs Moduli (GPa) = 104.44916 68.04916 132.59038
#
# Poissons Ratio (x) = -0.08642 0.53373
# Poissons Ratio (y) = -0.13265 0.61383
# Poissons Ratio (z) = 0.42045 0.31503
#
# Static dielectric constant tensor:
#      x y z
#    x 1.722940 0.000000 -0.015690 
#    y 0.000000 1.852940 0.000000 
#    z -0.015690 0.000000 1.809040 
# 
# From -- ./inp_files/13279.got.cif
#   From: 2010.05.17/outbox.cif.g08.bks.cpg/sg4_7_cif.got.tgz:13279.got - 2010.06.03 18:43:04.
