data_PCOD9116749
_publ_section_title
;
Structure prediction by ZEFSAII (Michael W. Deem and Ramdas Pophale) SiO2 
 PCOD9116749
Probable space group: P 21
;
_chemical_formula_sum "Si O2"
_cell_formula_units_Z 16
_cell_length_a 11.065097
_cell_length_b 8.644029
_cell_length_c 15.442146
_cell_angle_alpha 90.000000
_cell_angle_beta 25.487942
_cell_angle_gamma 90.000000
_cell_volume 635.582269
_symmetry_space_group_name_H-M "P 21"
_symmetry_group_IT_number 4
_symmetry_cell_setting 'monoclinic'
loop_
_space_group_symop_operation_xyz
x,y,z
-x,1/2+y,-z
loop_
_atom_site_type_symbol
_atom_site_label
_atom_site_fract_x
_atom_site_fract_y
_atom_site_fract_z
Si Si1 0.367600 0.491870 0.668705
Si Si2 0.624415 0.630457 0.005530
Si Si3 0.326919 0.564792 0.879422
Si Si4 0.717630 0.811833 0.443241
Si Si5 0.880366 0.284475 0.394342
Si Si6 0.431886 0.403073 0.279754
Si Si7 0.805831 0.075703 0.847219
Si Si8 0.196147 0.838826 0.378469
O O1 0.206531 0.510860 0.864840
O O2 0.514688 0.660432 0.560031
O O3 0.229619 0.415026 0.674928
O O4 0.605474 0.362059 0.533734
O O5 0.576809 0.512844 0.115039
O O6 0.509296 0.591469 0.983634
O O7 0.410758 0.766415 0.171399
O O8 0.941428 0.681899 0.785849
O O9 0.390073 0.744800 0.840336
O O10 0.630126 0.483650 0.695854
O O11 0.158140 0.529412 0.075577
O O12 0.592523 0.920954 0.599994
O O13 0.005706 0.727955 0.286145
O O14 0.078762 0.434008 0.283062
O O15 0.825691 0.220574 0.525526
O O16 0.111469 0.372842 0.456605
#
# Coordination Sequence:
#
# PCOD9116749 Si02
#       8
#     2   2   2   2   2   2   2   2
#     4   9  22  45  70  90 131 182 232 284 334 397
#     4  12  23  38  67 107 140 172 222 281 341 422
#     4  10  22  40  65  95 140 176 219 280 339 403
#     4  10  22  44  70  91 131 182 234 276 339 401
#     4  10  22  42  65  96 137 181 219 276 340 401
#     4  11  22  39  63 102 135 176 219 273 344 405
#     4  11  21  40  65 100 138 176 218 278 343 403
#     4  11  20  40  65  97 142 177 217 268 346 414
#
# _framework density 25.173766000000001
#
# number of rings (size 3 to 8) (size 9 to 14) (size 15 to 20)
#    0.000    1.500    3.750    2.250    0.000    2.000 
#    4.500    5.000    2.750    0.000    0.000    0.000 
#    0.000    0.000    0.000    0.000    0.000    0.000 
#
# Total GULP energy -89419.208106 kJ/mol
# GULP energy per Si atom -5588.700507 kJ/mol
# Density = 2.511647 g / cm^3
# Si number density = 25.173766 Si / 1000 Ang^3
#
#
#
# Elastic Constant Matrix: (Units=GPa)
#
#
# Indices 1 2 3 4 5 6 
#
# 1 85.5388 57.3585 27.0915 0.0000 37.1258 0.0000
# 2 57.3585 69.7020 21.6372 0.0000 20.4423 0.0000
# 3 27.0915 21.6372 103.5587 0.0000 36.9266 0.0000
# 4 0.0000 0.0000 0.0000 43.5817 0.0000 10.9458
# 5 37.1258 20.4423 36.9266 0.0000 44.0517 0.0000
# 6 0.0000 0.0000 0.0000 10.9458 0.0000 30.7175
#
#
#
# Elastic Compliance Matrix: (Units=1/GPa)
#
#
# Indices 1 2 3 4 5 6 
#
# 1 0.037283 -0.025118 0.003626 0.000000 -0.022805 0.000000
# 2 -0.025118 0.033607 -0.003478 0.000000 0.008489 0.000000
# 3 0.003626 -0.003478 0.014190 0.000000 -0.013337 0.000000
# 4 0.000000 0.000000 0.000000 0.025201 0.000000 -0.008980
# 5 -0.022805 0.008489 -0.013337 0.000000 0.049161 0.000000
# 6 0.000000 0.000000 0.000000 -0.008980 0.000000 0.035755
#
#
# Mechanical properties :
#
#
# Convention : Reuss Voigt Hill
#
# Bulk Modulus (GPa) = 28.45647 52.33043 40.39345
# Shear Modulus (GPa) = 19.46675 33.85101 26.65888
#
# Velocity S-wave (km/s) = 2.78383 3.67099 3.25775
# Velocity P-wave (km/s) = 4.65420 6.22904 5.49830
#
# Compressibility (1/GPa) = 0.03514140
#
# Stress axis : x y z
#
# Youngs Moduli (GPa) = 26.82186 29.75609 70.47187
#
# Poissons Ratio (x) = 0.74741 -0.25556
# Poissons Ratio (y) = 0.67371 0.24507
# Poissons Ratio (z) = -0.09727 0.10348
#
# Static dielectric constant tensor:
#      x y z
#    x 1.997550 0.000000 0.049770 
#    y 0.000000 2.035750 0.000000 
#    z 0.049770 0.000000 1.993330 
# 
# From -- ./inp_files/13898.got.cif
#   From: 2010.05.17/outbox.cif.g08.bks.cpg/sg4_7_cif.got.tgz:13898.got - 2010.06.03 18:43:04.
