data_PCOD9116847
_publ_section_title
;
Structure prediction by ZEFSAII (Michael W. Deem and Ramdas Pophale) SiO2 
 PCOD9116847
Probable space group: P 21
;
_chemical_formula_sum "Si O2"
_cell_formula_units_Z 14
_cell_length_a 9.942239
_cell_length_b 7.790674
_cell_length_c 14.381112
_cell_angle_alpha 90.000000
_cell_angle_beta 150.423644
_cell_angle_gamma 90.000000
_cell_volume 549.809076
_symmetry_space_group_name_H-M "P 21"
_symmetry_group_IT_number 4
_symmetry_cell_setting 'monoclinic'
loop_
_space_group_symop_operation_xyz
x,y,z
-x,1/2+y,-z
loop_
_atom_site_type_symbol
_atom_site_label
_atom_site_fract_x
_atom_site_fract_y
_atom_site_fract_z
Si Si1 0.876951 0.104660 0.171022
Si Si2 0.353478 0.342643 0.514011
Si Si3 0.735352 0.212099 0.456447
Si Si4 0.413294 0.610867 0.817234
Si Si5 0.695457 0.292488 0.887976
Si Si6 0.284868 0.434245 0.269024
Si Si7 0.983272 0.751578 0.195726
O O1 0.691972 0.054596 0.146403
O O2 0.054794 0.256460 0.326450
O O3 0.711650 0.160437 0.981647
O O4 0.060435 0.952309 0.238260
O O5 0.387569 0.534661 0.574364
O O6 0.537499 0.239415 0.699442
O O7 0.402810 0.341738 0.433462
O O8 0.795099 0.188407 0.383681
O O9 0.529174 0.371917 0.347380
O O10 0.990739 0.222374 0.678063
O O11 0.539907 0.448672 0.841623
O O12 0.668422 0.737617 0.980202
O O13 0.011131 0.347322 0.060668
O O14 0.147848 0.605587 0.237164
#
# Coordination Sequence:
#
# PCOD9116847 Si02
#       7
#     2   2   2   2   2   2   2
#     4  11  22  38  64 100 136 167 214 277 341 408
#     4   9  21  41  64  92 125 170 220 271 334 394
#     4  10  22  41  65  92 126 174 225 273 328 392
#     4  10  22  41  66  95 130 175 221 271 333 400
#     4   9  20  41  64  91 126 170 220 269 331 394
#     4   9  20  41  65  89 124 170 225 276 325 394
#     4  10  23  41  62  95 133 174 221 275 336 396
#
# _framework density 25.463384000000001
#
# number of rings (size 3 to 8) (size 9 to 14) (size 15 to 20)
#    0.000    2.286    0.000    1.714    0.000   10.286 
#    0.000    8.571    0.000    0.000    0.000    0.000 
#    0.000    0.000    0.000    0.000    0.000    0.000 
#
# Total GULP energy -77970.145848 kJ/mol
# GULP energy per Si atom -5569.296132 kJ/mol
# Density = 2.540543 g / cm^3
# Si number density = 25.463384 Si / 1000 Ang^3
#
#
#
# Elastic Constant Matrix: (Units=GPa)
#
#
# Indices 1 2 3 4 5 6 
#
# 1 45.9367 7.7336 22.9544 0.0000 -12.1796 0.0000
# 2 7.7336 103.9961 16.8032 0.0000 -5.3152 0.0000
# 3 22.9544 16.8032 117.5796 0.0000 -42.7523 0.0000
# 4 0.0000 0.0000 0.0000 19.5720 0.0000 4.5885
# 5 -12.1796 -5.3152 -42.7523 0.0000 30.7153 0.0000
# 6 0.0000 0.0000 0.0000 4.5885 0.0000 14.2822
#
#
#
# Elastic Compliance Matrix: (Units=1/GPa)
#
#
# Indices 1 2 3 4 5 6 
#
# 1 0.024830 -0.001138 -0.002382 0.000000 0.006334 0.000000
# 2 -0.001138 0.009899 -0.001486 0.000000 -0.000806 0.000000
# 3 -0.002382 -0.001486 0.017706 0.000000 0.023444 0.000000
# 4 0.000000 0.000000 0.000000 0.055255 0.000000 -0.017752
# 5 0.006334 -0.000806 0.023444 0.000000 0.067561 0.000000
# 6 0.000000 0.000000 0.000000 -0.017752 0.000000 0.075720
#
#
# Mechanical properties :
#
#
# Convention : Reuss Voigt Hill
#
# Bulk Modulus (GPa) = 23.57091 40.27718 31.92405
# Shear Modulus (GPa) = 18.17359 27.58198 22.87779
#
# Velocity S-wave (km/s) = 2.67444 3.29477 3.00068
# Velocity P-wave (km/s) = 4.33748 5.50691 4.95680
#
# Compressibility (1/GPa) = 0.04242517
#
# Stress axis : x y z
#
# Youngs Moduli (GPa) = 40.27358 101.01817 56.47649
#
# Poissons Ratio (x) = 0.11495 0.13452
# Poissons Ratio (y) = 0.04583 0.08390
# Poissons Ratio (z) = 0.09593 0.15007
#
# Static dielectric constant tensor:
#      x y z
#    x 1.995440 0.000000 0.062060 
#    y 0.000000 2.387450 0.000000 
#    z 0.062060 0.000000 2.076620 
# 
# From -- ./inp_files/13960.got.cif
#   From: 2010.05.17/outbox.cif.g08.bks.cpg/sg4_7_cif.got.tgz:13960.got - 2010.06.03 18:43:04.
