data_PCOD9116833
_publ_section_title
;
Structure prediction by ZEFSAII (Michael W. Deem and Ramdas Pophale) SiO2 
 PCOD9116833
Probable space group: P 21
;
_chemical_formula_sum "Si O2"
_cell_formula_units_Z 14
_cell_length_a 5.051016
_cell_length_b 8.749045
_cell_length_c 12.108261
_cell_angle_alpha 90.000000
_cell_angle_beta 83.970440
_cell_angle_gamma 90.000000
_cell_volume 532.122851
_symmetry_space_group_name_H-M "P 21"
_symmetry_group_IT_number 4
_symmetry_cell_setting 'monoclinic'
loop_
_space_group_symop_operation_xyz
x,y,z
-x,1/2+y,-z
loop_
_atom_site_type_symbol
_atom_site_label
_atom_site_fract_x
_atom_site_fract_y
_atom_site_fract_z
Si Si1 0.279277 0.342000 0.482247
Si Si2 0.315119 0.430381 0.040683
Si Si3 0.972159 0.654059 0.965921
Si Si4 0.611818 0.055329 0.724989
Si Si5 0.505391 0.475901 0.844300
Si Si6 0.246396 0.992040 0.408603
Si Si7 0.105438 0.224566 0.776141
O O1 0.285688 0.432318 0.365512
O O2 0.552061 0.385036 0.531371
O O3 0.041625 0.416025 0.563082
O O4 0.245614 0.163345 0.459275
O O5 0.051688 0.329922 0.066765
O O6 0.416113 0.479178 0.152599
O O7 0.507819 0.342592 0.947071
O O8 0.254477 0.562883 0.945210
O O9 0.742603 0.574645 0.907026
O O10 0.940380 0.652967 0.099079
O O11 0.327208 0.122397 0.706780
O O12 0.823836 0.192340 0.731008
O O13 0.652940 0.508847 0.720946
O O14 0.241664 0.386365 0.791559
#
# Coordination Sequence:
#
# PCOD9116833 Si02
#       7
#     2   2   2   2   2   2   2
#     4  12  29  53  79 112 153 203 261 322 379 457
#     4  10  23  42  69 107 144 197 240 307 373 454
#     4  10  22  41  64 107 149 188 240 293 374 445
#     4  11  23  48  72 105 147 194 245 301 381 441
#     4  11  25  43  72 108 150 191 252 308 380 444
#     4  12  30  52  81 113 151 205 262 321 385 454
#     4  10  24  39  75 108 144 196 236 308 368 451
#
# _framework density 26.309714
#
# number of rings (size 3 to 8) (size 9 to 14) (size 15 to 20)
#    0.000    1.143    1.429    2.571   14.000    0.000 
#    7.714    0.000    0.000    0.000    0.000    0.000 
#    0.000    0.000    0.000    0.000    0.000    0.000 
#
# Total GULP energy -78067.548980 kJ/mol
# GULP energy per Si atom -5576.253499 kJ/mol
# Density = 2.624983 g / cm^3
# Si number density = 26.309714 Si / 1000 Ang^3
#
#
#
# Elastic Constant Matrix: (Units=GPa)
#
#
# Indices 1 2 3 4 5 6 
#
# 1 165.8436 36.8168 32.7644 0.0000 0.3966 0.0000
# 2 36.8168 98.8484 35.1188 0.0000 -5.1832 0.0000
# 3 32.7644 35.1188 192.9385 0.0000 -14.1071 0.0000
# 4 0.0000 0.0000 0.0000 27.4999 0.0000 -0.0367
# 5 0.3966 -5.1832 -14.1071 0.0000 44.0840 0.0000
# 6 0.0000 0.0000 0.0000 -0.0367 0.0000 47.4346
#
#
#
# Elastic Compliance Matrix: (Units=1/GPa)
#
#
# Indices 1 2 3 4 5 6 
#
# 1 0.006681 -0.002246 -0.000767 0.000000 -0.000570 0.000000
# 2 -0.002246 0.011589 -0.001666 0.000000 0.000850 0.000000
# 3 -0.000767 -0.001666 0.005737 0.000000 0.001647 0.000000
# 4 0.000000 0.000000 0.000000 0.036364 0.000000 0.000028
# 5 -0.000570 0.000850 0.001647 0.000000 0.023316 0.000000
# 6 0.000000 0.000000 0.000000 0.000028 0.000000 0.021082
#
#
# Mechanical properties :
#
#
# Convention : Reuss Voigt Hill
#
# Bulk Modulus (GPa) = 68.26287 74.11449 71.18868
# Shear Modulus (GPa) = 42.01301 47.33240 44.67271
#
# Velocity S-wave (km/s) = 4.00041 4.24612 4.12510
# Velocity P-wave (km/s) = 6.88040 7.22984 7.05728
#
# Compressibility (1/GPa) = 0.01464925
#
# Stress axis : x y z
#
# Youngs Moduli (GPa) = 149.67127 86.28584 174.30712
#
# Poissons Ratio (x) = 0.19377 0.13378
# Poissons Ratio (y) = 0.33612 0.29040
# Poissons Ratio (z) = 0.11487 0.14375
#
# Static dielectric constant tensor:
#      x y z
#    x 2.171750 0.000000 -0.013260 
#    y 0.000000 2.295520 0.000000 
#    z -0.013260 0.000000 2.052870 
# 
# From -- ./inp_files/10290.got.cif
#   From: 2010.05.17/outbox.cif.g08.bks.cpg/sg4_6_cif.got.tgz:10290.got - 2010.06.03 18:43:04.
