data_PCOD9116709
_publ_section_title
;
Structure prediction by ZEFSAII (Michael W. Deem and Ramdas Pophale) SiO2 
 PCOD9116709
Probable space group: P 21
;
_chemical_formula_sum "Si O2"
_cell_formula_units_Z 16
_cell_length_a 6.460822
_cell_length_b 5.337630
_cell_length_c 21.952780
_cell_angle_alpha 90.000000
_cell_angle_beta 61.877021
_cell_angle_gamma 90.000000
_cell_volume 667.672930
_symmetry_space_group_name_H-M "P 21"
_symmetry_group_IT_number 4
_symmetry_cell_setting 'monoclinic'
loop_
_space_group_symop_operation_xyz
x,y,z
-x,1/2+y,-z
loop_
_atom_site_type_symbol
_atom_site_label
_atom_site_fract_x
_atom_site_fract_y
_atom_site_fract_z
Si Si1 0.392796 0.235700 0.148660
Si Si2 0.146023 0.734552 0.997090
Si Si3 0.271299 0.464474 0.462519
Si Si4 0.995190 0.694188 0.595810
Si Si5 0.567530 0.345191 0.659100
Si Si6 0.291143 0.739019 0.657609
Si Si7 0.627644 0.508621 0.226841
Si Si8 0.131025 0.741816 0.141269
O O1 0.524541 0.308130 0.193941
O O2 0.253030 0.489363 0.149985
O O3 0.223411 0.990434 0.164819
O O4 0.610463 0.199090 0.072357
O O5 0.198184 0.776124 0.061097
O O6 0.990038 0.482640 0.008698
O O7 0.189484 0.502982 0.542473
O O8 0.354049 0.700042 0.411754
O O9 0.490022 0.283908 0.419233
O O10 0.045899 0.373711 0.455476
O O11 0.074463 0.812992 0.647017
O O12 0.749110 0.567473 0.642069
O O13 0.313267 0.455077 0.677408
O O14 0.572210 0.194103 0.720783
O O15 0.303370 0.888171 0.718008
O O16 0.852117 0.673824 0.176023
#
# Coordination Sequence:
#
# PCOD9116709 Si02
#       8
#     2   2   2   2   2   2   2   2
#     4  12  28  49  82 115 160 211 267 323 388 479
#     4  12  24  48  83 120 165 201 258 337 389 456
#     4  10  22  40  63 101 134 175 239 299 389 447
#     4  11  22  42  71  98 137 184 236 317 379 471
#     4  10  24  45  67  99 140 182 244 309 378 469
#     4  10  26  42  69 100 141 187 248 308 388 467
#     4  11  28  52  70 110 153 204 258 324 387 472
#     4  12  28  48  83 117 156 216 264 317 406 465
#
# _framework density 23.963830000000002
#
# number of rings (size 3 to 8) (size 9 to 14) (size 15 to 20)
#    0.000    1.000    2.500    2.250    5.250    6.000 
#    0.000    0.000    0.000    0.000    0.000    0.000 
#    0.000    0.000    0.000    0.000    0.000    0.000 
#
# Total GULP energy -89349.165289 kJ/mol
# GULP energy per Si atom -5584.322831 kJ/mol
# Density = 2.390929 g / cm^3
# Si number density = 23.963830 Si / 1000 Ang^3
#
#
#
# Elastic Constant Matrix: (Units=GPa)
#
#
# Indices 1 2 3 4 5 6 
#
# 1 99.7868 44.8818 33.3818 0.0000 21.9532 0.0000
# 2 44.8818 121.2618 19.3309 0.0000 2.4934 0.0000
# 3 33.3818 19.3309 97.1109 0.0000 12.4017 0.0000
# 4 0.0000 0.0000 0.0000 27.0988 0.0000 7.6737
# 5 21.9532 2.4934 12.4017 0.0000 35.5826 0.0000
# 6 0.0000 0.0000 0.0000 7.6737 0.0000 35.8963
#
#
#
# Elastic Compliance Matrix: (Units=1/GPa)
#
#
# Indices 1 2 3 4 5 6 
#
# 1 0.015001 -0.004883 -0.003188 0.000000 -0.007802 0.000000
# 2 -0.004883 0.010107 -0.000657 0.000000 0.002534 0.000000
# 3 -0.003188 -0.000657 0.011792 0.000000 -0.002097 0.000000
# 4 0.000000 0.000000 0.000000 0.039280 0.000000 -0.008397
# 5 -0.007802 0.002534 -0.002097 0.000000 0.033470 0.000000
# 6 0.000000 0.000000 0.000000 -0.008397 0.000000 0.029653
#
#
# Mechanical properties :
#
#
# Convention : Reuss Voigt Hill
#
# Bulk Modulus (GPa) = 51.43284 57.03873 54.23578
# Shear Modulus (GPa) = 30.62977 34.41987 32.52482
#
# Velocity S-wave (km/s) = 3.57902 3.79400 3.68808
# Velocity P-wave (km/s) = 6.21197 6.56097 6.38885
#
# Compressibility (1/GPa) = 0.01944283
#
# Stress axis : x y z
#
# Youngs Moduli (GPa) = 66.66354 98.94430 84.80382
#
# Poissons Ratio (x) = 0.48319 0.27036
# Poissons Ratio (y) = 0.32555 0.05569
# Poissons Ratio (z) = 0.21253 0.06498
#
# Static dielectric constant tensor:
#      x y z
#    x 1.990320 0.000000 -0.035050 
#    y 0.000000 2.057850 0.000000 
#    z -0.035050 0.000000 1.898460 
# 
# From -- ./inp_files/4236.got.cif
#   From: 2010.05.17/outbox.cif.g08.bks.cpg/sg4_3_cif.got.tgz:4236.got - 2010.06.03 18:43:04.
