data_PCOD9116350
_publ_section_title
;
Structure prediction by ZEFSAII (Michael W. Deem and Ramdas Pophale) SiO2 
 PCOD9116350
Probable space group: P 21
;
_chemical_formula_sum "Si O2"
_cell_formula_units_Z 16
_cell_length_a 6.788032
_cell_length_b 20.920985
_cell_length_c 4.907034
_cell_angle_alpha 90.000000
_cell_angle_beta 74.523224
_cell_angle_gamma 90.000000
_cell_volume 671.590235
_symmetry_space_group_name_H-M "P 21"
_symmetry_group_IT_number 4
_symmetry_cell_setting 'monoclinic'
loop_
_space_group_symop_operation_xyz
x,y,z
-x,1/2+y,-z
loop_
_atom_site_type_symbol
_atom_site_label
_atom_site_fract_x
_atom_site_fract_y
_atom_site_fract_z
Si Si1 0.225112 0.890480 0.216342
Si Si2 0.868895 0.248319 0.656679
Si Si3 0.500649 0.370501 0.389260
Si Si4 0.600597 0.228897 0.254793
Si Si5 0.910944 0.633584 0.179661
Si Si6 0.748835 0.041015 0.123675
Si Si7 0.138568 0.465895 0.417306
Si Si8 0.653515 0.606546 0.744707
O O1 0.103557 0.823587 0.308277
O O2 0.423231 0.885582 0.336077
O O3 0.313324 0.892098 0.879481
O O4 0.077599 0.945586 0.377104
O O5 0.801123 0.232891 0.374286
O O6 0.044534 0.202402 0.703817
O O7 0.672156 0.232254 0.916400
O O8 0.480865 0.294327 0.361444
O O9 0.297398 0.408088 0.395878
O O10 0.472909 0.165144 0.342243
O O11 0.821160 0.590205 0.456319
O O12 0.759771 0.630145 0.980545
O O13 0.123808 0.604005 0.998528
O O14 0.773697 0.023290 0.428905
O O15 0.511988 0.051721 0.141558
O O16 0.850012 0.986451 0.900096
#
# Coordination Sequence:
#
# PCOD9116350 Si02
#       8
#     2   2   2   2   2   2   2   2
#     4  10  23  43  67 100 132 170 216 275 329 387
#     4  10  21  42  69  98 140 167 211 281 334 388
#     4  10  23  43  67 100 132 170 216 275 329 387
#     4  10  21  42  69  98 140 167 211 281 334 388
#     4  12  26  43  69 101 131 179 221 272 334 392
#     4  12  28  46  64  96 140 172 226 274 320 390
#     4  12  26  44  70  94 130 184 220 266 324 404
#     4  12  26  43  69 101 131 179 221 272 334 392
#
# _framework density 23.824051999999998
#
# number of rings (size 3 to 8) (size 9 to 14) (size 15 to 20)
#    0.000    1.000    1.250    4.500    3.500    6.000 
#    2.250    0.000    0.000    0.000    0.000    0.000 
#    0.000    0.000    0.000    0.000    0.000    0.000 
#
# Total GULP energy -89610.844478 kJ/mol
# GULP energy per Si atom -5600.677780 kJ/mol
# Density = 2.376983 g / cm^3
# Si number density = 23.824052 Si / 1000 Ang^3
#
#
#
# Elastic Constant Matrix: (Units=GPa)
#
#
# Indices 1 2 3 4 5 6 
#
# 1 49.3634 6.9858 8.6438 0.0000 -5.4647 0.0000
# 2 6.9858 48.4189 -0.4853 0.0000 -4.0649 0.0000
# 3 8.6438 -0.4853 90.7500 0.0000 3.0511 0.0000
# 4 0.0000 0.0000 0.0000 34.1436 0.0000 -3.1308
# 5 -5.4647 -4.0649 3.0511 0.0000 32.7450 0.0000
# 6 0.0000 0.0000 0.0000 -3.1308 0.0000 38.2785
#
#
#
# Elastic Compliance Matrix: (Units=1/GPa)
#
#
# Indices 1 2 3 4 5 6 
#
# 1 0.021417 -0.002824 -0.002170 0.000000 0.003426 0.000000
# 2 -0.002824 0.021243 0.000311 0.000000 0.002137 0.000000
# 3 -0.002170 0.000311 0.011274 0.000000 -0.001374 0.000000
# 4 0.000000 0.000000 0.000000 0.029509 0.000000 0.002414
# 5 0.003426 0.002137 -0.001374 0.000000 0.031504 0.000000
# 6 0.000000 0.000000 0.000000 0.002414 0.000000 0.026322
#
#
# Mechanical properties :
#
#
# Convention : Reuss Voigt Hill
#
# Bulk Modulus (GPa) = 22.43834 24.31345 23.37590
# Shear Modulus (GPa) = 30.21300 32.59260 31.40280
#
# Velocity S-wave (km/s) = 3.56500 3.70273 3.63452
# Velocity P-wave (km/s) = 5.13658 5.33928 5.23891
#
# Compressibility (1/GPa) = 0.04456657
#
# Stress axis : x y z
#
# Youngs Moduli (GPa) = 46.69217 47.07415 88.70088
#
# Poissons Ratio (x) = 0.13294 0.19250
# Poissons Ratio (y) = 0.13187 -0.02756
# Poissons Ratio (z) = 0.10133 -0.01463
#
# Static dielectric constant tensor:
#      x y z
#    x 1.866750 0.000000 -0.029220 
#    y 0.000000 1.928060 0.000000 
#    z -0.029220 0.000000 1.829250 
# 
# From -- ./inp_files/795.got.cif
#   From: 2010.05.17/outbox.cif.g08.bks.cpg/sg4_1_cif.got.tgz:795.got - 2010.06.03 18:43:04.
