data_PCOD9116180
_publ_section_title
;
Structure prediction by ZEFSAII (Michael W. Deem and Ramdas Pophale) SiO2 
 PCOD9116180
Probable space group: P 21
;
_chemical_formula_sum "Si O2"
_cell_formula_units_Z 16
_cell_length_a 16.126637
_cell_length_b 6.739844
_cell_length_c 9.795816
_cell_angle_alpha 90.000000
_cell_angle_beta 146.160534
_cell_angle_gamma 90.000000
_cell_volume 592.906810
_symmetry_space_group_name_H-M "P 21"
_symmetry_group_IT_number 4
_symmetry_cell_setting 'monoclinic'
loop_
_space_group_symop_operation_xyz
x,y,z
-x,1/2+y,-z
loop_
_atom_site_type_symbol
_atom_site_label
_atom_site_fract_x
_atom_site_fract_y
_atom_site_fract_z
Si Si1 0.326814 0.665470 0.466004
Si Si2 0.001443 0.151458 0.100270
Si Si3 0.816636 0.228460 0.252834
Si Si4 0.931365 0.895288 0.240540
Si Si5 0.156533 0.029561 0.048219
Si Si6 0.594635 0.575014 0.310807
Si Si7 0.576869 0.395566 0.754644
Si Si8 0.668903 0.942309 0.247762
O O1 0.163987 0.612009 0.187747
O O2 0.467318 0.580080 0.575203
O O3 0.361161 0.552380 0.653394
O O4 0.325624 0.891783 0.510557
O O5 0.119395 0.144039 0.139190
O O6 0.976887 0.366659 0.134443
O O7 0.028343 0.984102 0.249633
O O8 0.966689 0.343326 0.491246
O O9 0.825480 0.075341 0.139213
O O10 0.792664 0.080033 0.346510
O O11 0.687066 0.384071 0.039020
O O12 0.852337 0.700082 0.077821
O O13 0.304066 0.906238 0.206233
O O14 0.527434 0.710324 0.342369
O O15 0.679893 0.716705 0.317853
O O16 0.463218 0.472427 0.042079
#
# Coordination Sequence:
#
# PCOD9116180 Si02
#       8
#     2   2   2   2   2   2   2   2
#     4  11  25  48  76 119 160 211 256 335 401 484
#     4  12  28  53  79 112 161 216 267 322 410 483
#     4  11  25  47  79 116 156 207 269 340 403 471
#     4  12  27  52  78 112 161 208 271 332 398 477
#     4  12  26  53  76 111 156 211 269 323 388 488
#     4  10  21  42  71 114 164 198 257 327 404 477
#     4  10  25  47  79 118 155 200 267 328 408 467
#     4  10  21  40  72 114 151 205 258 321 404 467
#
# _framework density 26.985690999999999
#
# number of rings (size 3 to 8) (size 9 to 14) (size 15 to 20)
#    0.000    1.000    3.750    1.500    3.500    2.000 
#   11.250    0.000    0.000    0.000    0.000    0.000 
#    0.000    0.000    0.000    0.000    0.000    0.000 
#
# Total GULP energy -89484.310761 kJ/mol
# GULP energy per Si atom -5592.769423 kJ/mol
# Density = 2.692427 g / cm^3
# Si number density = 26.985691 Si / 1000 Ang^3
#
#
#
# Elastic Constant Matrix: (Units=GPa)
#
#
# Indices 1 2 3 4 5 6 
#
# 1 120.5976 31.8956 26.6212 0.0000 7.0294 0.0000
# 2 31.8956 159.7214 52.9008 0.0000 1.9172 0.0000
# 3 26.6212 52.9008 78.5581 0.0000 10.1822 0.0000
# 4 0.0000 0.0000 0.0000 48.5054 0.0000 -5.7043
# 5 7.0294 1.9172 10.1822 0.0000 37.3009 0.0000
# 6 0.0000 0.0000 0.0000 -5.7043 0.0000 43.0072
#
#
#
# Elastic Compliance Matrix: (Units=1/GPa)
#
#
# Indices 1 2 3 4 5 6 
#
# 1 0.009130 -0.001070 -0.002237 0.000000 -0.001055 0.000000
# 2 -0.001070 0.008228 -0.005338 0.000000 0.001236 0.000000
# 3 -0.002237 -0.005338 0.017615 0.000000 -0.004113 0.000000
# 4 0.000000 0.000000 0.000000 0.020943 0.000000 0.002778
# 5 -0.001055 0.001236 -0.004113 0.000000 0.028067 0.000000
# 6 0.000000 0.000000 0.000000 0.002778 0.000000 0.023620
#
#
# Mechanical properties :
#
#
# Convention : Reuss Voigt Hill
#
# Bulk Modulus (GPa) = 56.54979 64.63471 60.59225
# Shear Modulus (GPa) = 38.22990 42.26000 40.24495
#
# Velocity S-wave (km/s) = 3.76795 3.96158 3.86598
# Velocity P-wave (km/s) = 6.31909 6.70291 6.51383
#
# Compressibility (1/GPa) = 0.01768353
#
# Stress axis : x y z
#
# Youngs Moduli (GPa) = 109.52619 121.53991 56.76893
#
# Poissons Ratio (x) = 0.13001 0.12699
# Poissons Ratio (y) = 0.11716 0.30305
# Poissons Ratio (z) = 0.24500 0.64881
#
# Static dielectric constant tensor:
#      x y z
#    x 2.171920 0.000000 -0.012790 
#    y 0.000000 2.102720 0.000000 
#    z -0.012790 0.000000 2.166020 
# 
# From -- ./inp_files/13040.got.cif
#   From: 2010.05.17/outbox.cif.g08.bks.cpg/sg4_7_cif.got.tgz:13040.got - 2010.06.03 18:43:04.
