data_PCOD9116170
_publ_section_title
;
Structure prediction by ZEFSAII (Michael W. Deem and Ramdas Pophale) SiO2 
 PCOD9116170
Probable space group: P 21
;
_chemical_formula_sum "Si O2"
_cell_formula_units_Z 16
_cell_length_a 9.715753
_cell_length_b 16.849289
_cell_length_c 5.639722
_cell_angle_alpha 90.000000
_cell_angle_beta 40.628560
_cell_angle_gamma 90.000000
_cell_volume 601.171696
_symmetry_space_group_name_H-M "P 21"
_symmetry_group_IT_number 4
_symmetry_cell_setting 'monoclinic'
loop_
_space_group_symop_operation_xyz
x,y,z
-x,1/2+y,-z
loop_
_atom_site_type_symbol
_atom_site_label
_atom_site_fract_x
_atom_site_fract_y
_atom_site_fract_z
Si Si1 0.718052 0.578250 0.214134
Si Si2 0.447995 0.338732 0.013471
Si Si3 0.121075 0.449521 0.170125
Si Si4 0.727679 0.416647 0.000719
Si Si5 0.202355 0.631381 0.083696
Si Si6 0.139400 0.667047 0.672780
Si Si7 0.303870 0.158465 0.259539
Si Si8 0.097713 0.830664 0.844965
O O1 0.681115 0.484279 0.253809
O O2 0.634518 0.617330 0.567774
O O3 0.643959 0.612283 0.055053
O O4 0.970953 0.595882 0.892504
O O5 0.279681 0.391259 0.095979
O O6 0.516130 0.385705 0.159711
O O7 0.361986 0.251058 0.172876
O O8 0.672288 0.333631 0.581818
O O9 0.215454 0.536824 0.036526
O O10 0.051859 0.403758 0.024135
O O11 0.896009 0.455297 0.601725
O O12 0.848311 0.340788 0.951472
O O13 0.266149 0.660244 0.262571
O O14 0.952355 0.653232 0.407633
O O15 0.272148 0.668162 0.742029
O O16 0.006405 0.748665 0.865451
#
# Coordination Sequence:
#
# PCOD9116170 Si02
#       8
#     2   2   2   2   2   2   2   2
#     4  10  21  42  73  97 139 192 245 294 362 427
#     4  11  28  45  70 111 149 190 243 301 375 439
#     4  11  23  47  75 100 147 192 243 299 373 437
#     4  11  25  46  71 107 146 193 238 308 369 438
#     4  10  21  42  72 105 130 194 248 294 353 436
#     4  10  21  40  69 101 138 182 249 289 358 423
#     4  10  21  42  68 100 140 188 238 296 358 426
#     4  11  26  44  72 105 147 193 240 305 366 444
#
# _framework density 26.614692999999999
#
# number of rings (size 3 to 8) (size 9 to 14) (size 15 to 20)
#    0.000    1.500    2.500    3.000   10.500    1.000 
#    2.250    0.000    0.000    0.000    0.000    0.000 
#    0.000    0.000    0.000    0.000    0.000    0.000 
#
# Total GULP energy -89622.775920 kJ/mol
# GULP energy per Si atom -5601.423495 kJ/mol
# Density = 2.655412 g / cm^3
# Si number density = 26.614693 Si / 1000 Ang^3
#
#
#
# Elastic Constant Matrix: (Units=GPa)
#
#
# Indices 1 2 3 4 5 6 
#
# 1 166.0745 54.6077 8.9435 0.0000 33.3636 0.0000
# 2 54.6077 161.2591 7.7244 0.0000 -0.2581 0.0000
# 3 8.9435 7.7244 80.3743 0.0000 12.7815 0.0000
# 4 0.0000 0.0000 0.0000 35.4551 0.0000 -1.4920
# 5 33.3636 -0.2581 12.7815 0.0000 49.0414 0.0000
# 6 0.0000 0.0000 0.0000 -1.4920 0.0000 53.0152
#
#
#
# Elastic Compliance Matrix: (Units=1/GPa)
#
#
# Indices 1 2 3 4 5 6 
#
# 1 0.008020 -0.002737 0.000251 0.000000 -0.005536 0.000000
# 2 -0.002737 0.007166 -0.000716 0.000000 0.002086 0.000000
# 3 0.000251 -0.000716 0.013051 0.000000 -0.003576 0.000000
# 4 0.000000 0.000000 0.000000 0.028238 0.000000 0.000795
# 5 -0.005536 0.002086 -0.003576 0.000000 0.025100 0.000000
# 6 0.000000 0.000000 0.000000 0.000795 0.000000 0.018885
#
#
# Mechanical properties :
#
#
# Convention : Reuss Voigt Hill
#
# Bulk Modulus (GPa) = 45.80100 61.13990 53.47045
# Shear Modulus (GPa) = 43.80552 49.93116 46.86834
#
# Velocity S-wave (km/s) = 4.06139 4.33607 4.20097
# Velocity P-wave (km/s) = 6.26414 6.93475 6.60796
#
# Compressibility (1/GPa) = 0.02183359
#
# Stress axis : x y z
#
# Youngs Moduli (GPa) = 124.69042 139.55643 76.62044
#
# Poissons Ratio (x) = 0.38192 -0.01923
# Poissons Ratio (y) = 0.34124 0.05485
# Poissons Ratio (z) = -0.03129 0.09990
#
# Static dielectric constant tensor:
#      x y z
#    x 2.134400 0.000000 0.009810 
#    y 0.000000 2.032640 0.000000 
#    z 0.009810 0.000000 2.159580 
# 
# From -- ./inp_files/1910.got.cif
#   From: 2010.05.17/outbox.cif.g08.bks.cpg/sg4_1_cif.got.tgz:1910.got - 2010.06.03 18:43:04.
