data_PCOD9116132
_publ_section_title
;
Structure prediction by ZEFSAII (Michael W. Deem and Ramdas Pophale) SiO2 
 PCOD9116132
Probable space group: P 21
;
_chemical_formula_sum "Si O2"
_cell_formula_units_Z 16
_cell_length_a 7.107412
_cell_length_b 10.272576
_cell_length_c 10.366605
_cell_angle_alpha 90.000000
_cell_angle_beta 62.884394
_cell_angle_gamma 90.000000
_cell_volume 673.690912
_symmetry_space_group_name_H-M "P 21"
_symmetry_group_IT_number 4
_symmetry_cell_setting 'monoclinic'
loop_
_space_group_symop_operation_xyz
x,y,z
-x,1/2+y,-z
loop_
_atom_site_type_symbol
_atom_site_label
_atom_site_fract_x
_atom_site_fract_y
_atom_site_fract_z
Si Si1 0.028506 0.524820 0.156178
Si Si2 0.337041 0.303169 0.123948
Si Si3 0.331059 0.894266 0.182738
Si Si4 0.023520 0.310164 0.850354
Si Si5 0.040970 0.659507 0.887704
Si Si6 0.514558 0.632928 0.712070
Si Si7 0.392972 0.996592 0.570390
Si Si8 0.503765 0.265528 0.634837
O O1 0.221200 0.440635 0.145463
O O2 0.038614 0.673992 0.200432
O O3 0.016778 0.547537 0.004797
O O4 0.815878 0.468866 0.283615
O O5 0.410947 0.264720 0.243364
O O6 0.534157 0.314052 0.965037
O O7 0.161208 0.198659 0.132105
O O8 0.100872 0.916679 0.192378
O O9 0.324044 0.813775 0.317398
O O10 0.453487 0.025577 0.184439
O O11 0.943590 0.283964 0.019720
O O12 0.276540 0.304969 0.768545
O O13 0.267275 0.638130 0.752044
O O14 0.645169 0.576857 0.551512
O O15 0.514980 0.111106 0.609293
O O16 0.485428 0.858713 0.494268
#
# Coordination Sequence:
#
# PCOD9116132 Si02
#       8
#     2   2   2   2   2   2   2   2
#     4   9  21  43  62  90 132 163 209 263 306 392
#     4  12  21  39  67  95 123 166 210 261 323 365
#     4  11  20  41  68  93 128 166 207 263 327 371
#     4   9  19  41  63  93 123 168 200 257 322 373
#     4  10  21  40  65  93 126 160 214 262 313 374
#     4  11  25  40  61  98 130 157 214 272 303 384
#     4  10  23  46  62  94 132 172 214 260 319 384
#     4  10  22  44  66  90 134 174 212 264 317 387
#
# _framework density 23.749765
#
# number of rings (size 3 to 8) (size 9 to 14) (size 15 to 20)
#    0.750    1.000    3.750    0.000    1.750    3.000 
#   11.250    1.250    0.000    0.000    0.000    0.000 
#    0.000    0.000    0.000    0.000    0.000    0.000 
#
# Total GULP energy -89295.766963 kJ/mol
# GULP energy per Si atom -5580.985435 kJ/mol
# Density = 2.369571 g / cm^3
# Si number density = 23.749765 Si / 1000 Ang^3
#
#
#
# Elastic Constant Matrix: (Units=GPa)
#
#
# Indices 1 2 3 4 5 6 
#
# 1 80.0187 -13.2038 15.8792 0.0000 5.2150 0.0000
# 2 -13.2038 58.7734 -9.3988 0.0000 -1.2607 0.0000
# 3 15.8792 -9.3988 87.1582 0.0000 0.3070 0.0000
# 4 0.0000 0.0000 0.0000 37.3148 0.0000 2.4582
# 5 5.2150 -1.2607 0.3070 0.0000 22.1603 0.0000
# 6 0.0000 0.0000 0.0000 2.4582 0.0000 43.8288
#
#
#
# Elastic Compliance Matrix: (Units=1/GPa)
#
#
# Indices 1 2 3 4 5 6 
#
# 1 0.013560 0.002634 -0.002176 0.000000 -0.003011 0.000000
# 2 0.002634 0.017845 0.001443 0.000000 0.000375 0.000000
# 3 -0.002176 0.001443 0.012024 0.000000 0.000428 0.000000
# 4 0.000000 0.000000 0.000000 0.026898 0.000000 -0.001509
# 5 -0.003011 0.000375 0.000428 0.000000 0.045850 0.000000
# 6 0.000000 0.000000 0.000000 -0.001509 0.000000 0.022901
#
#
# Mechanical properties :
#
#
# Convention : Reuss Voigt Hill
#
# Bulk Modulus (GPa) = 21.17258 23.61148 22.39203
# Shear Modulus (GPa) = 33.10847 36.17237 34.64042
#
# Velocity S-wave (km/s) = 3.73775 3.90688 3.82325
# Velocity P-wave (km/s) = 5.24995 5.50590 5.37945
#
# Compressibility (1/GPa) = 0.04723090
#
# Stress axis : x y z
#
# Youngs Moduli (GPa) = 73.74807 56.03798 83.16759
#
# Poissons Ratio (x) = -0.14759 0.18095
# Poissons Ratio (y) = -0.19423 -0.12003
# Poissons Ratio (z) = 0.16046 -0.08087
#
# Static dielectric constant tensor:
#      x y z
#    x 1.882470 0.000000 0.020420 
#    y 0.000000 2.048950 0.000000 
#    z 0.020420 0.000000 1.870450 
# 
# From -- ./inp_files/10503.got.cif
#   From: 2010.05.17/outbox.cif.g08.bks.cpg/sg4_6_cif.got.tgz:10503.got - 2010.06.03 18:43:04.
