data_PCOD9116996
_publ_section_title
;
Structure prediction by ZEFSAII (Michael W. Deem and Ramdas Pophale) SiO2 
 PCOD9116996
Probable space group: P 21
;
_chemical_formula_sum "Si O2"
_cell_formula_units_Z 16
_cell_length_a 5.464378
_cell_length_b 11.660771
_cell_length_c 11.297930
_cell_angle_alpha 90.000000
_cell_angle_beta 68.244551
_cell_angle_gamma 90.000000
_cell_volume 668.616475
_symmetry_space_group_name_H-M "P 21"
_symmetry_group_IT_number 4
_symmetry_cell_setting 'monoclinic'
loop_
_space_group_symop_operation_xyz
x,y,z
-x,1/2+y,-z
loop_
_atom_site_type_symbol
_atom_site_label
_atom_site_fract_x
_atom_site_fract_y
_atom_site_fract_z
Si Si1 0.799058 0.220850 0.779269
Si Si2 0.551843 0.761982 0.850441
Si Si3 0.364433 0.833917 0.653562
Si Si4 0.847941 0.071718 0.058636
Si Si5 0.284752 0.333556 0.810135
Si Si6 0.984742 0.125500 0.299401
Si Si7 0.159897 0.378441 0.583548
Si Si8 0.928480 0.972416 0.807436
O O1 0.499251 0.259799 0.837868
O O2 0.994088 0.277209 0.845337
O O3 0.936185 0.281990 0.640107
O O4 0.800107 0.084743 0.772758
O O5 0.355024 0.826111 0.797665
O O6 0.372711 0.663934 0.942413
O O7 0.736664 0.863246 0.868133
O O8 0.741134 0.688566 0.728661
O O9 0.253078 0.712309 0.628411
O O10 0.651535 0.869258 0.560986
O O11 0.145892 0.930678 0.674859
O O12 0.988883 0.113321 0.153761
O O13 0.712429 0.956293 0.129819
O O14 0.016407 0.028292 0.917393
O O15 0.355298 0.352802 0.659882
O O16 0.956587 0.003468 0.366389
#
# Coordination Sequence:
#
# PCOD9116996 Si02
#       8
#     2   2   2   2   2   2   2   2
#     4  10  23  41  65 101 133 175 229 283 342 413
#     4  10  23  42  63  96 133 176 228 281 357 411
#     4  10  23  42  62  99 132 176 223 287 349 408
#     4  10  22  42  69  90 135 180 226 288 344 419
#     4   9  22  42  69 100 130 179 234 278 342 415
#     4   9  20  43  63  93 125 177 231 275 344 420
#     4   9  21  40  70  91 133 176 226 286 344 413
#     4  11  26  40  63 100 137 175 229 290 344 419
#
# _framework density 23.930012000000001
#
# number of rings (size 3 to 8) (size 9 to 14) (size 15 to 20)
#    0.750    1.500    0.000    0.750    5.250    6.000 
#    2.250    0.000    0.000    0.000    0.000    0.000 
#    0.000    0.000    0.000    0.000    0.000    0.000 
#
# Total GULP energy -89150.229917 kJ/mol
# GULP energy per Si atom -5571.889370 kJ/mol
# Density = 2.387555 g / cm^3
# Si number density = 23.930012 Si / 1000 Ang^3
#
#
#
# Elastic Constant Matrix: (Units=GPa)
#
#
# Indices 1 2 3 4 5 6 
#
# 1 73.9152 36.0164 5.5272 0.0000 -10.7155 0.0000
# 2 36.0164 144.8185 30.5537 0.0000 -8.7534 0.0000
# 3 5.5272 30.5537 44.1554 0.0000 -8.7323 0.0000
# 4 0.0000 0.0000 0.0000 26.0982 0.0000 -2.2648
# 5 -10.7155 -8.7534 -8.7323 0.0000 17.8061 0.0000
# 6 0.0000 0.0000 0.0000 -2.2648 0.0000 32.3391
#
#
#
# Elastic Compliance Matrix: (Units=1/GPa)
#
#
# Indices 1 2 3 4 5 6 
#
# 1 0.016700 -0.004143 0.002615 0.000000 0.009295 0.000000
# 2 -0.004143 0.009143 -0.005994 0.000000 -0.000938 0.000000
# 3 0.002615 -0.005994 0.029009 0.000000 0.012854 0.000000
# 4 0.000000 0.000000 0.000000 0.038551 0.000000 0.002700
# 5 0.009295 -0.000938 0.012854 0.000000 0.067597 0.000000
# 6 0.000000 0.000000 0.000000 0.002700 0.000000 0.031111
#
#
# Mechanical properties :
#
#
# Convention : Reuss Voigt Hill
#
# Bulk Modulus (GPa) = 25.12028 45.23152 35.17590
# Shear Modulus (GPa) = 22.68337 27.96815 25.32576
#
# Velocity S-wave (km/s) = 3.08215 3.42240 3.25672
# Velocity P-wave (km/s) = 4.81522 5.87875 5.37337
#
# Compressibility (1/GPa) = 0.03980848
#
# Stress axis : x y z
#
# Youngs Moduli (GPa) = 59.88091 109.36805 34.47163
#
# Poissons Ratio (x) = 0.45312 -0.09013
# Poissons Ratio (y) = 0.24809 0.20661
# Poissons Ratio (z) = -0.15657 0.65552
#
# Static dielectric constant tensor:
#      x y z
#    x 1.944080 0.000000 0.051790 
#    y 0.000000 1.889960 0.000000 
#    z 0.051790 0.000000 2.003780 
# 
# From -- ./inp_files/3003.got.cif
#   From: 2010.05.17/outbox.cif.g08.bks.cpg/sg4_2_cif.got.tgz:3003.got - 2010.06.03 18:43:04.
