data_PCOD9116080
_publ_section_title
;
Structure prediction by ZEFSAII (Michael W. Deem and Ramdas Pophale) SiO2 
 PCOD9116080
Probable space group: P 21
;
_chemical_formula_sum "Si O2"
_cell_formula_units_Z 16
_cell_length_a 8.588922
_cell_length_b 5.141553
_cell_length_c 18.273721
_cell_angle_alpha 90.000000
_cell_angle_beta 72.975894
_cell_angle_gamma 90.000000
_cell_volume 771.614492
_symmetry_space_group_name_H-M "P 21"
_symmetry_group_IT_number 4
_symmetry_cell_setting 'monoclinic'
loop_
_space_group_symop_operation_xyz
x,y,z
-x,1/2+y,-z
loop_
_atom_site_type_symbol
_atom_site_label
_atom_site_fract_x
_atom_site_fract_y
_atom_site_fract_z
Si Si1 0.271246 0.207600 0.707027
Si Si2 0.393653 0.665856 0.498916
Si Si3 0.978496 0.644438 0.953654
Si Si4 0.884562 0.846758 0.414989
Si Si5 0.717154 0.431470 0.150349
Si Si6 0.222795 0.031598 0.423225
Si Si7 0.608332 0.623436 0.005805
Si Si8 0.476166 0.727420 0.699177
O O1 0.141509 0.216320 0.659909
O O2 0.373264 0.471270 0.695271
O O3 0.392696 0.972734 0.672492
O O4 0.220053 0.135526 0.796796
O O5 0.235253 0.594060 0.567146
O O6 0.320899 0.775740 0.434249
O O7 0.496591 0.402337 0.488165
O O8 0.131392 0.737933 0.884118
O O9 0.793450 0.647769 0.947438
O O10 0.014971 0.361117 0.982255
O O11 0.831222 0.677296 0.493934
O O12 0.064122 0.943857 0.403249
O O13 0.653342 0.557241 0.084243
O O14 0.563699 0.288784 0.210410
O O15 0.342701 0.192176 0.354776
O O16 0.501168 0.884665 0.010134
#
# Coordination Sequence:
#
# PCOD9116080 Si02
#       8
#     2   2   2   2   2   2   2   2
#     4  10  26  43  72  97 136 190 233 287 349 428
#     4  12  26  40  70  97 129 174 239 298 347 417
#     4  10  21  39  76 103 141 188 233 280 330 416
#     4  12  27  45  69 103 135 178 243 306 360 407
#     4   9  24  47  74 103 148 179 249 273 350 424
#     4  12  27  45  69 103 139 177 238 313 360 405
#     4  11  23  40  74 114 147 182 230 285 349 408
#     4  10  26  43  72  98 137 192 229 290 357 421
#
# _framework density 20.735742999999999
#
# number of rings (size 3 to 8) (size 9 to 14) (size 15 to 20)
#    0.750    0.500    2.500    2.250   12.250    0.000 
#    0.000    2.500    0.000    3.000    0.000    0.000 
#    0.000    0.000    0.000    0.000    0.000    0.000 
#
# Total GULP energy -89254.073974 kJ/mol
# GULP energy per Si atom -5578.379623 kJ/mol
# Density = 2.068855 g / cm^3
# Si number density = 20.735743 Si / 1000 Ang^3
#
#
#
# Elastic Constant Matrix: (Units=GPa)
#
#
# Indices 1 2 3 4 5 6 
#
# 1 151.4394 46.9779 48.1251 0.0000 17.7135 0.0000
# 2 46.9779 112.6225 15.6251 0.0000 11.8650 0.0000
# 3 48.1251 15.6251 114.0794 0.0000 9.0424 0.0000
# 4 0.0000 0.0000 0.0000 26.7526 0.0000 -3.8297
# 5 17.7135 11.8650 9.0424 0.0000 9.1993 0.0000
# 6 0.0000 0.0000 0.0000 -3.8297 0.0000 40.7016
#
#
#
# Elastic Compliance Matrix: (Units=1/GPa)
#
#
# Indices 1 2 3 4 5 6 
#
# 1 0.009715 -0.002297 -0.002750 0.000000 -0.013041 0.000000
# 2 -0.002297 0.010834 0.000263 0.000000 -0.009809 0.000000
# 3 -0.002750 0.000263 0.010300 0.000000 -0.005167 0.000000
# 4 0.000000 0.000000 0.000000 0.037890 0.000000 0.003565
# 5 -0.013041 -0.009809 -0.005167 0.000000 0.151546 0.000000
# 6 0.000000 0.000000 0.000000 0.003565 0.000000 0.024904
#
#
# Mechanical properties :
#
#
# Convention : Reuss Voigt Hill
#
# Bulk Modulus (GPa) = 46.99245 66.62195 56.80720
# Shear Modulus (GPa) = 19.09475 33.15824 26.12649
#
# Velocity S-wave (km/s) = 3.03786 4.00320 3.55346
# Velocity P-wave (km/s) = 5.91748 7.31889 6.65518
#
# Compressibility (1/GPa) = 0.02128001
#
# Stress axis : x y z
#
# Youngs Moduli (GPa) = 102.93161 92.29904 97.09128
#
# Poissons Ratio (x) = 0.21201 0.26701
# Poissons Ratio (y) = 0.23644 -0.02549
# Poissons Ratio (z) = 0.28307 -0.02423
#
# Static dielectric constant tensor:
#      x y z
#    x 1.726240 0.000000 -0.029500 
#    y 0.000000 1.793960 0.000000 
#    z -0.029500 0.000000 1.815040 
# 
# From -- ./inp_files/8620.got.cif
#   From: 2010.05.17/outbox.cif.g08.bks.cpg/sg4_5_cif.got.tgz:8620.got - 2010.06.03 18:43:04.
