data_PCOD9116598
_publ_section_title
;
Structure prediction by ZEFSAII (Michael W. Deem and Ramdas Pophale) SiO2 
 PCOD9116598
Probable space group: P 21
;
_chemical_formula_sum "Si O2"
_cell_formula_units_Z 14
_cell_length_a 13.906197
_cell_length_b 8.698744
_cell_length_c 5.012944
_cell_angle_alpha 90.000000
_cell_angle_beta 62.194367
_cell_angle_gamma 90.000000
_cell_volume 536.380352
_symmetry_space_group_name_H-M "P 21"
_symmetry_group_IT_number 4
_symmetry_cell_setting 'monoclinic'
loop_
_space_group_symop_operation_xyz
x,y,z
-x,1/2+y,-z
loop_
_atom_site_type_symbol
_atom_site_label
_atom_site_fract_x
_atom_site_fract_y
_atom_site_fract_z
Si Si1 0.639937 0.695420 0.317768
Si Si2 0.063902 0.110068 0.422852
Si Si3 0.824317 0.123061 0.972674
Si Si4 0.501879 0.451363 0.282055
Si Si5 0.905057 0.403508 0.129018
Si Si6 0.855965 0.823422 0.281404
Si Si7 0.620205 0.993931 0.068212
O O1 0.612094 0.524858 0.252726
O O2 0.539718 0.777829 0.611046
O O3 0.752820 0.721306 0.323178
O O4 0.646205 0.811704 0.057150
O O5 0.079383 0.031703 0.119420
O O6 0.119599 0.271142 0.443382
O O7 0.112569 0.986207 0.569787
O O8 0.937032 0.123138 0.662605
O O9 0.818383 0.282467 0.137232
O O10 0.727957 0.090373 0.889486
O O11 0.825995 0.989319 0.196073
O O12 0.475718 0.500968 0.018633
O O13 0.414570 0.534546 0.586981
O O14 0.020694 0.312819 0.996012
#
# Coordination Sequence:
#
# PCOD9116598 Si02
#       7
#     2   2   2   2   2   2   2
#     4   9  22  42  63  89 120 163 206 259 315 374
#     4  10  22  38  60  93 127 159 209 263 304 370
#     4   9  20  40  64  87 125 172 209 250 318 394
#     4  10  22  40  62  90 118 157 210 258 310 365
#     4  10  22  39  59  93 127 162 209 258 306 374
#     4   9  20  42  63  90 125 175 206 254 323 389
#     4   9  22  37  63  86 116 160 205 248 312 374
#
# _framework density 26.100883
#
# number of rings (size 3 to 8) (size 9 to 14) (size 15 to 20)
#    0.857    1.714    0.000    0.000    4.000   10.286 
#    7.714    0.000    0.000    0.000    0.000    0.000 
#    0.000    0.000    0.000    0.000    0.000    0.000 
#
# Total GULP energy -78104.233182 kJ/mol
# GULP energy per Si atom -5578.873799 kJ/mol
# Density = 2.604148 g / cm^3
# Si number density = 26.100883 Si / 1000 Ang^3
#
#
#
# Elastic Constant Matrix: (Units=GPa)
#
#
# Indices 1 2 3 4 5 6 
#
# 1 57.3165 25.6515 -6.3698 0.0000 20.4152 0.0000
# 2 25.6515 88.5647 17.7849 0.0000 9.0391 0.0000
# 3 -6.3698 17.7849 54.7026 0.0000 21.9574 0.0000
# 4 0.0000 0.0000 0.0000 27.1748 0.0000 5.9440
# 5 20.4152 9.0391 21.9574 0.0000 32.5581 0.0000
# 6 0.0000 0.0000 0.0000 5.9440 0.0000 50.9953
#
#
#
# Elastic Compliance Matrix: (Units=1/GPa)
#
#
# Indices 1 2 3 4 5 6 
#
# 1 0.038107 -0.011937 0.022733 0.000000 -0.035912 0.000000
# 2 -0.011937 0.015841 -0.010667 0.000000 0.010281 0.000000
# 3 0.022733 -0.010667 0.039667 0.000000 -0.038044 0.000000
# 4 0.000000 0.000000 0.000000 0.037762 0.000000 -0.004401
# 5 -0.035912 0.010281 -0.038044 0.000000 0.076035 0.000000
# 6 0.000000 0.000000 0.000000 -0.004401 0.000000 0.020123
#
#
# Mechanical properties :
#
#
# Convention : Reuss Voigt Hill
#
# Bulk Modulus (GPa) = 10.65268 30.52411 20.58840
# Shear Modulus (GPa) = 19.33732 33.04678 26.19205
#
# Velocity S-wave (km/s) = 2.72484 3.56211 3.17123
# Velocity P-wave (km/s) = 3.74031 5.35147 4.61672
#
# Compressibility (1/GPa) = 0.09387310
#
# Stress axis : x y z
#
# Youngs Moduli (GPa) = 26.24200 63.12598 25.21007
#
# Poissons Ratio (x) = 0.75353 -0.57310
# Poissons Ratio (y) = 0.31325 0.26891
# Poissons Ratio (z) = -0.59656 0.67336
#
# Static dielectric constant tensor:
#      x y z
#    x 2.044030 0.000000 -0.054720 
#    y 0.000000 2.112380 0.000000 
#    z -0.054720 0.000000 2.077900 
# 
# From -- ./inp_files/3438.got.cif
#   From: 2010.05.17/outbox.cif.g08.bks.cpg/sg4_2_cif.got.tgz:3438.got - 2010.06.03 18:43:04.
