data_PCOD9116178
_publ_section_title
;
Structure prediction by ZEFSAII (Michael W. Deem and Ramdas Pophale) SiO2 
 PCOD9116178
Probable space group: P 21
;
_chemical_formula_sum "Si O2"
_cell_formula_units_Z 16
_cell_length_a 8.452746
_cell_length_b 7.907059
_cell_length_c 11.133489
_cell_angle_alpha 90.000000
_cell_angle_beta 54.292201
_cell_angle_gamma 90.000000
_cell_volume 604.230020
_symmetry_space_group_name_H-M "P 21"
_symmetry_group_IT_number 4
_symmetry_cell_setting 'monoclinic'
loop_
_space_group_symop_operation_xyz
x,y,z
-x,1/2+y,-z
loop_
_atom_site_type_symbol
_atom_site_label
_atom_site_fract_x
_atom_site_fract_y
_atom_site_fract_z
Si Si1 0.074126 0.420230 0.211613
Si Si2 0.789421 0.592588 0.745420
Si Si3 0.407213 0.692808 0.787311
Si Si4 0.503845 0.884133 0.523714
Si Si5 0.042128 0.300975 0.698897
Si Si6 0.500121 0.506258 0.086919
Si Si7 0.480115 0.202583 0.703605
Si Si8 0.106075 0.390801 0.934525
O O1 0.067046 0.253263 0.297950
O O2 0.987825 0.599074 0.293545
O O3 0.308880 0.449075 0.099869
O O4 0.000870 0.382208 0.108875
O O5 0.625284 0.626340 0.719600
O O6 0.907827 0.420261 0.677104
O O7 0.656249 0.574719 0.924635
O O8 0.400522 0.746663 0.652611
O O9 0.407907 0.854721 0.875766
O O10 0.232513 0.562813 0.884140
O O11 0.447386 0.856810 0.410442
O O12 0.735030 0.850390 0.424087
O O13 0.464146 0.055340 0.612368
O O14 0.000713 0.366532 0.854236
O O15 0.416045 0.636783 0.223647
O O16 0.268479 0.244699 0.851185
#
# Coordination Sequence:
#
# PCOD9116178 Si02
#       8
#     2   2   2   2   2   2   2   2
#     4  11  24  42  66 102 141 173 228 291 351 422
#     4  11  23  44  67 102 131 184 226 285 359 407
#     4  10  22  42  72  96 131 180 236 285 335 423
#     4  10  22  46  60 102 134 178 236 275 343 420
#     4  11  27  42  63  99 146 179 221 287 361 413
#     4  10  21  41  72 102 130 175 242 289 347 418
#     4  10  21  40  71  93 133 179 233 282 331 412
#     4  11  22  41  67 104 128 178 226 288 347 405
#
# _framework density 26.479982
#
# number of rings (size 3 to 8) (size 9 to 14) (size 15 to 20)
#    0.000    1.500    2.500    2.250    5.250    0.000 
#   22.500    0.000    0.000    0.000    0.000    0.000 
#    0.000    0.000    0.000    0.000    0.000    0.000 
#
# Total GULP energy -89587.413903 kJ/mol
# GULP energy per Si atom -5599.213369 kJ/mol
# Density = 2.641971 g / cm^3
# Si number density = 26.479982 Si / 1000 Ang^3
#
#
#
# Elastic Constant Matrix: (Units=GPa)
#
#
# Indices 1 2 3 4 5 6 
#
# 1 52.5982 18.1124 23.0168 0.0000 -14.2046 0.0000
# 2 18.1124 147.9118 34.8354 0.0000 -17.0347 0.0000
# 3 23.0168 34.8354 81.4305 0.0000 -5.2252 0.0000
# 4 0.0000 0.0000 0.0000 46.7927 0.0000 4.2922
# 5 -14.2046 -17.0347 -5.2252 0.0000 27.1145 0.0000
# 6 0.0000 0.0000 0.0000 4.2922 0.0000 45.2463
#
#
#
# Elastic Compliance Matrix: (Units=1/GPa)
#
#
# Indices 1 2 3 4 5 6 
#
# 1 0.024981 -0.000247 -0.006202 0.000000 0.011737 0.000000
# 2 -0.000247 0.008013 -0.003082 0.000000 0.004311 0.000000
# 3 -0.006202 -0.003082 0.015207 0.000000 -0.002255 0.000000
# 4 0.000000 0.000000 0.000000 0.021558 0.000000 -0.002045
# 5 0.011737 0.004311 -0.002255 0.000000 0.045303 0.000000
# 6 0.000000 0.000000 0.000000 -0.002045 0.000000 0.022295
#
#
# Mechanical properties :
#
#
# Convention : Reuss Voigt Hill
#
# Bulk Modulus (GPa) = 34.31716 48.20774 41.26245
# Shear Modulus (GPa) = 30.09644 37.56241 33.82943
#
# Velocity S-wave (km/s) = 3.37497 3.77041 3.57816
# Velocity P-wave (km/s) = 5.30801 6.09914 5.71728
#
# Compressibility (1/GPa) = 0.02913994
#
# Stress axis : x y z
#
# Youngs Moduli (GPa) = 40.03098 124.79276 65.75840
#
# Poissons Ratio (x) = 0.03077 0.40786
# Poissons Ratio (y) = 0.00987 0.20265
# Poissons Ratio (z) = 0.24829 0.38457
#
# Static dielectric constant tensor:
#      x y z
#    x 2.062470 0.000000 0.032070 
#    y 0.000000 2.184520 0.000000 
#    z 0.032070 0.000000 2.025090 
# 
# From -- ./inp_files/11042.got.cif
#   From: 2010.05.17/outbox.cif.g08.bks.cpg/sg4_6_cif.got.tgz:11042.got - 2010.06.03 18:43:04.
