data_PCOD9116034
_publ_section_title
;
Structure prediction by ZEFSAII (Michael W. Deem and Ramdas Pophale) SiO2 
 PCOD9116034
Probable space group: P 21
;
_chemical_formula_sum "Si O2"
_cell_formula_units_Z 14
_cell_length_a 8.511217
_cell_length_b 7.644762
_cell_length_c 9.200159
_cell_angle_alpha 90.000000
_cell_angle_beta 74.027571
_cell_angle_gamma 90.000000
_cell_volume 575.509469
_symmetry_space_group_name_H-M "P 21"
_symmetry_group_IT_number 4
_symmetry_cell_setting 'monoclinic'
loop_
_space_group_symop_operation_xyz
x,y,z
-x,1/2+y,-z
loop_
_atom_site_type_symbol
_atom_site_label
_atom_site_fract_x
_atom_site_fract_y
_atom_site_fract_z
Si Si1 0.625151 0.521540 0.067957
Si Si2 0.721559 0.257987 0.271884
Si Si3 0.177628 0.369076 0.398881
Si Si4 0.660188 0.209054 0.774686
Si Si5 0.671038 0.019819 0.066263
Si Si6 0.098655 0.237896 0.099610
Si Si7 0.196047 0.981538 0.468138
O O1 0.618389 0.374433 0.188534
O O2 0.535313 0.686032 0.166989
O O3 0.502437 0.479859 0.967715
O O4 0.808185 0.566451 0.978040
O O5 0.648477 0.071977 0.241429
O O6 0.734226 0.363229 0.417108
O O7 0.906516 0.238213 0.165628
O O8 0.282490 0.545254 0.344588
O O9 0.164721 0.284020 0.242608
O O10 0.999305 0.443343 0.488529
O O11 0.223917 0.191835 0.476957
O O12 0.729863 0.385284 0.690451
O O13 0.722704 0.164062 0.923540
O O14 0.821657 0.887766 0.018806
#
# Coordination Sequence:
#
# PCOD9116034 Si02
#       7
#     2   2   2   2   2   2   2
#     4  10  22  42  64  94 134 178 223 285 355 412
#     4  11  23  41  64 102 132 169 236 289 336 416
#     4  10  21  40  68  97 138 188 227 277 343 420
#     4   9  22  42  65  94 132 187 231 273 346 415
#     4   9  21  40  64  92 133 171 228 279 346 414
#     4  10  21  39  65 101 129 179 229 284 344 404
#     4  11  22  42  68  98 140 182 232 281 344 413
#
# _framework density 24.326270999999998
#
# number of rings (size 3 to 8) (size 9 to 14) (size 15 to 20)
#    0.857    1.143    1.429    1.714    2.000    0.000 
#    5.143    0.000    0.000    0.000    0.000    0.000 
#    0.000    0.000    0.000    0.000    0.000    0.000 
#
# Total GULP energy -77954.778974 kJ/mol
# GULP energy per Si atom -5568.198498 kJ/mol
# Density = 2.427090 g / cm^3
# Si number density = 24.326271 Si / 1000 Ang^3
#
#
#
# Elastic Constant Matrix: (Units=GPa)
#
#
# Indices 1 2 3 4 5 6 
#
# 1 46.2241 7.9322 9.0928 0.0000 6.0201 0.0000
# 2 7.9322 83.5181 18.2992 0.0000 10.3946 0.0000
# 3 9.0928 18.2992 74.1362 0.0000 -2.6302 0.0000
# 4 0.0000 0.0000 0.0000 47.9830 0.0000 1.2408
# 5 6.0201 10.3946 -2.6302 0.0000 28.4119 0.0000
# 6 0.0000 0.0000 0.0000 1.2408 0.0000 33.9281
#
#
#
# Elastic Compliance Matrix: (Units=1/GPa)
#
#
# Indices 1 2 3 4 5 6 
#
# 1 0.022962 -0.000988 -0.002741 0.000000 -0.004758 0.000000
# 2 -0.000988 0.013430 -0.003372 0.000000 -0.005016 0.000000
# 3 -0.002741 -0.003372 0.014770 0.000000 0.003182 0.000000
# 4 0.000000 0.000000 0.000000 0.020860 0.000000 -0.000763
# 5 -0.004758 -0.005016 0.003182 0.000000 0.038334 0.000000
# 6 0.000000 0.000000 0.000000 -0.000763 0.000000 0.029502
#
#
# Mechanical properties :
#
#
# Convention : Reuss Voigt Hill
#
# Bulk Modulus (GPa) = 27.05603 30.50297 28.77950
# Shear Modulus (GPa) = 30.05136 33.30156 31.67646
#
# Velocity S-wave (km/s) = 3.51856 3.70395 3.61245
# Velocity P-wave (km/s) = 5.25864 5.55506 5.40888
#
# Compressibility (1/GPa) = 0.03696034
#
# Stress axis : x y z
#
# Youngs Moduli (GPa) = 43.54989 74.45783 67.70453
#
# Poissons Ratio (x) = 0.07357 0.18559
# Poissons Ratio (y) = 0.04303 0.22829
# Poissons Ratio (z) = 0.11938 0.25106
#
# Static dielectric constant tensor:
#      x y z
#    x 1.969270 0.000000 -0.014890 
#    y 0.000000 2.341390 0.000000 
#    z -0.014890 0.000000 1.988450 
# 
# From -- ./inp_files/5348.got.cif
#   From: 2010.05.17/outbox.cif.g08.bks.cpg/sg4_3_cif.got.tgz:5348.got - 2010.06.03 18:43:04.
