data_PCOD9116280
_publ_section_title
;
Structure prediction by ZEFSAII (Michael W. Deem and Ramdas Pophale) SiO2 
 PCOD9116280
Probable space group: P 21
;
_chemical_formula_sum "Si O2"
_cell_formula_units_Z 16
_cell_length_a 24.985527
_cell_length_b 4.909572
_cell_length_c 31.291060
_cell_angle_alpha 90.000000
_cell_angle_beta 9.436664
_cell_angle_gamma 90.000000
_cell_volume 629.336661
_symmetry_space_group_name_H-M "P 21"
_symmetry_group_IT_number 4
_symmetry_cell_setting 'monoclinic'
loop_
_space_group_symop_operation_xyz
x,y,z
-x,1/2+y,-z
loop_
_atom_site_type_symbol
_atom_site_label
_atom_site_fract_x
_atom_site_fract_y
_atom_site_fract_z
Si Si1 0.866921 0.096790 0.906840
Si Si2 0.688034 0.951341 0.497649
Si Si3 0.815643 0.156631 0.045270
Si Si4 0.397207 0.586442 0.052826
Si Si5 0.557913 0.079664 0.758353
Si Si6 0.935290 0.825020 0.575236
Si Si7 0.201455 0.770989 0.515279
Si Si8 0.824548 0.695864 0.156712
O O1 0.561464 0.286061 0.133498
O O2 0.929597 0.193517 0.906654
O O3 0.750313 0.786255 0.999915
O O4 0.143685 0.190432 0.656027
O O5 0.395873 0.873252 0.760533
O O6 0.521292 0.117715 0.590747
O O7 0.920857 0.125034 0.345476
O O8 0.541044 0.922142 0.258358
O O9 0.121077 0.121007 0.836609
O O10 0.055916 0.474819 0.303702
O O11 0.415253 0.826939 0.073932
O O12 0.584213 0.720388 0.865891
O O13 0.711664 0.058574 0.590331
O O14 0.821987 0.226192 0.579270
O O15 0.952083 0.142869 0.553393
O O16 0.911677 0.005262 0.076026
#
# Coordination Sequence:
#
# PCOD9116280 Si02
#       8
#     2   2   2   2   2   2   2   2
#     4  11  26  42  72 103 141 186 239 289 353 427
#     4  11  24  44  71 110 139 190 236 300 346 435
#     4  10  23  44  70 103 141 196 227 296 358 421
#     4  12  28  47  71 104 137 188 244 294 354 433
#     4  11  25  48  66  99 141 187 235 294 358 432
#     4  12  27  47  69 101 142 188 232 303 363 417
#     4  11  24  45  75  97 142 186 243 289 364 423
#     4  10  21  41  70 103 143 183 238 287 354 426
#
# _framework density 25.423593
#
# number of rings (size 3 to 8) (size 9 to 14) (size 15 to 20)
#    0.000    1.000    3.750    1.500    8.750    1.000 
#    0.000    7.500    0.000    0.000    0.000    0.000 
#    0.000    0.000    0.000    0.000    0.000    0.000 
#
# Total GULP energy -89551.574555 kJ/mol
# GULP energy per Si atom -5596.973410 kJ/mol
# Density = 2.536573 g / cm^3
# Si number density = 25.423593 Si / 1000 Ang^3
#
#
#
# Elastic Constant Matrix: (Units=GPa)
#
#
# Indices 1 2 3 4 5 6 
#
# 1 153.0216 26.4952 32.3988 -0.0014 -5.8987 0.0038
# 2 26.4952 98.4684 25.4361 -0.0001 -0.0547 0.0014
# 3 32.3988 25.4361 63.6123 0.0027 3.0043 0.0088
# 4 -0.0014 -0.0001 0.0027 26.9829 -0.0003 -1.3253
# 5 -5.8987 -0.0547 3.0043 -0.0003 39.1455 -0.0043
# 6 0.0038 0.0014 0.0088 -1.3253 -0.0043 38.6984
#
#
#
# Elastic Compliance Matrix: (Units=1/GPa)
#
#
# Indices 1 2 3 4 5 6 
#
# 1 0.007513 -0.001132 -0.003440 0.000001 0.001395 0.000000
# 2 -0.001132 0.011501 -0.004030 0.000000 0.000155 0.000001
# 3 -0.003440 -0.004030 0.019178 -0.000002 -0.001996 -0.000004
# 4 0.000001 0.000000 -0.000002 0.037123 0.000001 0.001271
# 5 0.001395 0.000155 -0.001996 0.000001 0.025909 0.000003
# 6 0.000000 0.000001 -0.000004 0.001271 0.000003 0.025884
#
#
# Mechanical properties :
#
#
# Convention : Reuss Voigt Hill
#
# Bulk Modulus (GPa) = 47.64396 53.75140 50.69768
# Shear Modulus (GPa) = 33.04524 36.35017 34.69771
#
# Velocity S-wave (km/s) = 3.60917 3.78535 3.69831
# Velocity P-wave (km/s) = 6.01239 6.34771 6.18232
#
# Compressibility (1/GPa) = 0.02098902
#
# Stress axis : x y z
#
# Youngs Moduli (GPa) = 133.10085 86.94755 52.14413
#
# Poissons Ratio (x) = 0.09845 0.17936
# Poissons Ratio (y) = 0.15071 0.21012
# Poissons Ratio (z) = 0.45782 0.35036
#
# Static dielectric constant tensor:
#      x y z
#    x 2.057550 0.000000 -0.013270 
#    y 0.000000 1.989040 0.000000 
#    z -0.013270 0.000000 2.024990 
# 
# From -- ./inp_files/16560.got.cif
#   From: 2010.05.17/outbox.cif.g08.bks.cpg/sg4_9_cif.got.tgz:16560.got - 2010.06.03 18:43:04.
