data_PCOD9116986
_publ_section_title
;
Structure prediction by ZEFSAII (Michael W. Deem and Ramdas Pophale) SiO2 
 PCOD9116986
Probable space group: P 21
;
_chemical_formula_sum "Si O2"
_cell_formula_units_Z 16
_cell_length_a 6.674134
_cell_length_b 13.101352
_cell_length_c 8.639134
_cell_angle_alpha 90.000000
_cell_angle_beta 110.502910
_cell_angle_gamma 90.000000
_cell_volume 707.555687
_symmetry_space_group_name_H-M "P 21"
_symmetry_group_IT_number 4
_symmetry_cell_setting 'monoclinic'
loop_
_space_group_symop_operation_xyz
x,y,z
-x,1/2+y,-z
loop_
_atom_site_type_symbol
_atom_site_label
_atom_site_fract_x
_atom_site_fract_y
_atom_site_fract_z
Si Si1 0.224175 0.784560 0.460113
Si Si2 0.474048 0.301402 0.202915
Si Si3 0.746467 0.487658 0.702860
Si Si4 0.833368 0.955791 0.735041
Si Si5 0.240036 0.846977 0.001218
Si Si6 0.929778 0.656435 0.953919
Si Si7 0.091377 0.109594 0.695432
Si Si8 0.489657 0.614035 0.388431
O O1 0.305696 0.771510 0.655930
O O2 0.408087 0.726020 0.410338
O O3 0.020802 0.714112 0.381379
O O4 0.183612 0.899909 0.398779
O O5 0.359515 0.375880 0.297623
O O6 0.560515 0.343459 0.063123
O O7 0.291053 0.218834 0.130158
O O8 0.919428 0.568319 0.819274
O O9 0.563433 0.553308 0.564679
O O10 0.688673 0.415313 0.833386
O O11 0.700727 0.055734 0.751135
O O12 0.947016 0.009476 0.618310
O O13 0.030510 0.903519 0.874840
O O14 0.132359 0.734796 0.004602
O O15 0.891931 0.611266 0.114754
O O16 0.312004 0.107762 0.669603
#
# Coordination Sequence:
#
# PCOD9116986 Si02
#       8
#     2   2   2   2   2   2   2   2
#     4  11  25  45  66 103 139 179 234 285 337 427
#     4  11  24  44  69 100 140 185 228 287 354 407
#     4  12  24  46  70 102 142 178 240 286 340 426
#     4  10  22  42  68  94 136 174 234 282 336 420
#     4  11  25  46  68 101 137 185 227 293 349 408
#     4  11  25  45  66 103 139 179 234 285 337 427
#     4  11  24  44  69 100 140 185 228 287 354 407
#     4  11  25  46  68 101 137 185 227 293 349 408
#
# _framework density 22.613060000000001
#
# number of rings (size 3 to 8) (size 9 to 14) (size 15 to 20)
#    0.000    1.000    5.000    0.750    3.500    0.000 
#    0.000    6.250    0.000    0.000    0.000    0.000 
#    0.000    0.000    0.000    0.000    0.000    0.000 
#
# Total GULP energy -89102.557982 kJ/mol
# GULP energy per Si atom -5568.909874 kJ/mol
# Density = 2.256159 g / cm^3
# Si number density = 22.613060 Si / 1000 Ang^3
#
#
#
# Elastic Constant Matrix: (Units=GPa)
#
#
# Indices 1 2 3 4 5 6 
#
# 1 122.5006 40.2196 23.2610 0.0000 -13.4080 0.0000
# 2 40.2196 128.8066 40.2875 0.0000 1.8801 0.0000
# 3 23.2610 40.2875 29.9567 0.0000 17.0920 0.0000
# 4 0.0000 0.0000 0.0000 49.2733 0.0000 9.0675
# 5 -13.4080 1.8801 17.0920 0.0000 11.4438 0.0000
# 6 0.0000 0.0000 0.0000 9.0675 0.0000 9.1402
#
#
#
# Elastic Compliance Matrix: (Units=1/GPa)
#
#
# Indices 1 2 3 4 5 6 
#
# 1 0.004171 -0.007161 0.019829 0.000000 -0.023552 0.000000
# 2 -0.007161 0.006992 0.010813 0.000000 -0.025688 0.000000
# 3 0.019829 0.010813 -0.059517 0.000000 0.110347 0.000000
# 4 0.000000 0.000000 0.000000 0.024828 0.000000 -0.024630
# 5 -0.023552 -0.025688 0.110347 0.000000 -0.100800 0.000000
# 6 0.000000 0.000000 0.000000 -0.024630 0.000000 0.133841
#
#
# Mechanical properties :
#
#
# Convention : Reuss Voigt Hill
#
# Bulk Modulus (GPa) = -719.20414 54.31113 -332.44651
# Shear Modulus (GPa) = -131.89040 25.80453 -53.04294
#
# Velocity S-wave (km/s) = -7.64536 3.38173 -4.84847
# Velocity P-wave (km/s) = 19.91667 6.27040 13.36705
#
# Compressibility (1/GPa) = -0.00139043
#
# Stress axis : x y z
#
# Youngs Moduli (GPa) = 239.73869 143.01322 -16.80201
#
# Poissons Ratio (x) = 1.02407 0.33316
# Poissons Ratio (y) = 1.71668 0.18168
# Poissons Ratio (z) = -4.75375 -1.54642
#
# Static dielectric constant tensor:
#      x y z
#    x 1.828160 0.000000 0.002800 
#    y 0.000000 1.934580 0.000000 
#    z 0.002800 0.000000 1.897930 
# 
# From -- ./inp_files/4846.got.cif
#   From: 2010.05.17/outbox.cif.g08.bks.cpg/sg4_3_cif.got.tgz:4846.got - 2010.06.03 18:43:04.
