data_PCOD9116465
_publ_section_title
;
Structure prediction by ZEFSAII (Michael W. Deem and Ramdas Pophale) SiO2 
 PCOD9116465
Probable space group: P 21
;
_chemical_formula_sum "Si O2"
_cell_formula_units_Z 16
_cell_length_a 20.232392
_cell_length_b 9.288225
_cell_length_c 8.050364
_cell_angle_alpha 90.000000
_cell_angle_beta 29.177146
_cell_angle_gamma 90.000000
_cell_volume 737.531000
_symmetry_space_group_name_H-M "P 21"
_symmetry_group_IT_number 4
_symmetry_cell_setting 'monoclinic'
loop_
_space_group_symop_operation_xyz
x,y,z
-x,1/2+y,-z
loop_
_atom_site_type_symbol
_atom_site_label
_atom_site_fract_x
_atom_site_fract_y
_atom_site_fract_z
Si Si1 0.355281 0.193780 0.847259
Si Si2 0.524603 0.976106 0.314816
Si Si3 0.809850 0.860488 0.324537
Si Si4 0.330047 0.133159 0.537454
Si Si5 0.187388 0.581979 0.395008
Si Si6 0.943854 0.379093 0.395735
Si Si7 0.068976 0.188256 0.658338
Si Si8 0.079457 0.928445 0.167605
O O1 0.453837 0.307444 0.716385
O O2 0.424609 0.037030 0.677809
O O3 0.338203 0.225896 0.689710
O O4 0.209489 0.206839 0.250288
O O5 0.459245 0.030261 0.284552
O O6 0.672170 0.048164 0.005656
O O7 0.684809 0.750440 0.574726
O O8 0.914683 0.772554 0.208657
O O9 0.791150 0.007463 0.469483
O O10 0.893320 0.857798 0.969395
O O11 0.201700 0.023887 0.825985
O O12 0.147187 0.748590 0.468878
O O13 0.060588 0.503400 0.583317
O O14 0.934670 0.519888 0.302195
O O15 0.905555 0.423669 0.666710
O O16 0.943659 0.262687 0.838847
#
# Coordination Sequence:
#
# PCOD9116465 Si02
#       8
#     2   2   2   2   2   2   2   2
#     4  10  21  44  66  96 124 178 221 285 331 388
#     4  10  23  41  68  95 128 173 220 283 330 392
#     4  11  23  42  63  92 139 176 208 277 338 399
#     4  10  23  41  69  93 133 172 223 280 327 398
#     4  11  24  41  69  95 136 177 220 272 341 398
#     4  12  22  38  66 101 131 175 225 272 326 402
#     4  11  23  38  67  94 139 171 216 277 342 386
#     4  11  21  41  66 102 126 174 225 278 319 383
#
# _framework density 21.694002999999999
#
# number of rings (size 3 to 8) (size 9 to 14) (size 15 to 20)
#    0.750    0.500    5.000    2.250    5.250    0.000 
#    0.000    2.500    0.000    0.000    0.000    0.000 
#    0.000    0.000    0.000    0.000    0.000    0.000 
#
# Total GULP energy -89081.093775 kJ/mol
# GULP energy per Si atom -5567.568361 kJ/mol
# Density = 2.164463 g / cm^3
# Si number density = 21.694003 Si / 1000 Ang^3
#
#
#
# Elastic Constant Matrix: (Units=GPa)
#
#
# Indices 1 2 3 4 5 6 
#
# 1 56.7037 22.9634 15.0171 0.0000 -12.8141 0.0000
# 2 22.9634 113.5503 6.4188 0.0000 -7.7583 0.0000
# 3 15.0171 6.4188 45.8090 0.0000 -11.0261 0.0000
# 4 0.0000 0.0000 0.0000 26.1891 0.0000 -2.5183
# 5 -12.8141 -7.7583 -11.0261 0.0000 30.7965 0.0000
# 6 0.0000 0.0000 0.0000 -2.5183 0.0000 32.8640
#
#
#
# Elastic Compliance Matrix: (Units=1/GPa)
#
#
# Indices 1 2 3 4 5 6 
#
# 1 0.021936 -0.003711 -0.005142 0.000000 0.006351 0.000000
# 2 -0.003711 0.009614 0.000088 0.000000 0.000909 0.000000
# 3 -0.005142 0.000088 0.025162 0.000000 0.006891 0.000000
# 4 0.000000 0.000000 0.000000 0.038467 0.000000 0.002948
# 5 0.006351 0.000909 0.006891 0.000000 0.037810 0.000000
# 6 0.000000 0.000000 0.000000 0.002948 0.000000 0.030654
#
#
# Mechanical properties :
#
#
# Convention : Reuss Voigt Hill
#
# Bulk Modulus (GPa) = 25.52231 33.87350 29.69791
# Shear Modulus (GPa) = 25.74204 29.41415 27.57810
#
# Velocity S-wave (km/s) = 3.44844 3.68620 3.56930
# Velocity P-wave (km/s) = 5.25793 5.81082 5.54127
#
# Compressibility (1/GPa) = 0.03918141
#
# Stress axis : x y z
#
# Youngs Moduli (GPa) = 45.58787 104.01085 39.74271
#
# Poissons Ratio (x) = 0.38603 0.20436
# Poissons Ratio (y) = 0.16920 -0.00351
# Poissons Ratio (z) = 0.23442 -0.00920
#
# Static dielectric constant tensor:
#      x y z
#    x 1.808810 0.000000 0.017080 
#    y 0.000000 1.874250 0.000000 
#    z 0.017080 0.000000 1.870590 
# 
# From -- ./inp_files/9916.got.cif
#   From: 2010.05.17/outbox.cif.g08.bks.cpg/sg4_5_cif.got.tgz:9916.got - 2010.06.03 18:43:04.
