data_PCOD9116968
_publ_section_title
;
Structure prediction by ZEFSAII (Michael W. Deem and Ramdas Pophale) SiO2 
 PCOD9116968
Probable space group: P 21
;
_chemical_formula_sum "Si O2"
_cell_formula_units_Z 10
_cell_length_a 19.028338
_cell_length_b 4.873457
_cell_length_c 13.260123
_cell_angle_alpha 90.000000
_cell_angle_beta 160.546497
_cell_angle_gamma 90.000000
_cell_volume 409.528618
_symmetry_space_group_name_H-M "P 21"
_symmetry_group_IT_number 4
_symmetry_cell_setting 'monoclinic'
loop_
_space_group_symop_operation_xyz
x,y,z
-x,1/2+y,-z
loop_
_atom_site_type_symbol
_atom_site_label
_atom_site_fract_x
_atom_site_fract_y
_atom_site_fract_z
Si Si1 0.377779 0.188190 0.865292
Si Si2 0.880114 0.593206 0.301410
Si Si3 0.462496 0.772424 0.383796
Si Si4 0.951800 0.932935 0.201818
Si Si5 0.097172 0.177575 0.084616
O O1 0.330757 0.149519 0.920396
O O2 0.427153 0.500363 0.905212
O O3 0.173548 0.072976 0.530465
O O4 0.894273 0.709926 0.209307
O O5 0.945704 0.279451 0.404034
O O6 0.470988 0.086217 0.429308
O O7 0.651529 0.716061 0.561935
O O8 0.235782 0.655863 0.050805
O O9 0.959742 0.792874 0.102862
O O10 0.971139 0.365418 0.993135
#
# Coordination Sequence:
#
# PCOD9116968 Si02
#       5
#     2   2   2   2   2
#     4  11  24  43  67 101 132 165 221 275 319 383
#     4  10  22  42  67  94 126 172 219 257 319 402
#     4  10  22  42  67  94 126 172 219 257 319 402
#     4  10  24  46  68  90 136 182 208 266 332 380
#     4  11  24  43  67 101 132 165 221 275 319 383
#
# _framework density 24.418316000000001
#
# number of rings (size 3 to 8) (size 9 to 14) (size 15 to 20)
#    0.000    1.600    0.000    4.800    0.000   16.000 
#    0.000   16.000    0.000    0.000    0.000    0.000 
#    0.000    0.000    0.000    0.000    0.000    0.000 
#
# Total GULP energy -56027.047357 kJ/mol
# GULP energy per Si atom -5602.704736 kJ/mol
# Density = 2.436274 g / cm^3
# Si number density = 24.418316 Si / 1000 Ang^3
#
#
#
# Elastic Constant Matrix: (Units=GPa)
#
#
# Indices 1 2 3 4 5 6 
#
# 1 95.2941 5.8261 28.0347 0.0000 0.3681 0.0000
# 2 5.8261 73.8412 9.5497 0.0000 -3.2926 0.0000
# 3 28.0347 9.5497 107.3762 0.0000 -11.1286 0.0000
# 4 0.0000 0.0000 0.0000 36.8456 0.0000 8.2236
# 5 0.3681 -3.2926 -11.1286 0.0000 43.5842 0.0000
# 6 0.0000 0.0000 0.0000 8.2236 0.0000 46.0614
#
#
#
# Elastic Compliance Matrix: (Units=1/GPa)
#
#
# Indices 1 2 3 4 5 6 
#
# 1 0.011422 -0.000550 -0.003028 0.000000 -0.000911 0.000000
# 2 -0.000550 0.013750 -0.000997 0.000000 0.000789 0.000000
# 3 -0.003028 -0.000997 0.010464 0.000000 0.002622 0.000000
# 4 0.000000 0.000000 0.000000 0.028267 0.000000 -0.005047
# 5 -0.000911 0.000789 0.002622 0.000000 0.023681 0.000000
# 6 0.000000 0.000000 0.000000 -0.005047 0.000000 0.022611
#
#
# Mechanical properties :
#
#
# Convention : Reuss Voigt Hill
#
# Bulk Modulus (GPa) = 37.75693 40.37029 39.06361
# Shear Modulus (GPa) = 39.00965 40.83831 39.92398
#
# Velocity S-wave (km/s) = 4.00128 4.09399 4.04790
# Velocity P-wave (km/s) = 6.06985 6.23830 6.15465
#
# Compressibility (1/GPa) = 0.02648520
#
# Stress axis : x y z
#
# Youngs Moduli (GPa) = 87.55286 72.72645 95.56598
#
# Poissons Ratio (x) = 0.04002 0.28933
# Poissons Ratio (y) = 0.04818 0.09533
# Poissons Ratio (z) = 0.26507 0.07254
#
# Static dielectric constant tensor:
#      x y z
#    x 1.963150 0.000000 -0.018100 
#    y 0.000000 1.874620 0.000000 
#    z -0.018100 0.000000 1.983250 
# 
# From -- ./inp_files/1204.got.cif
#   From: 2010.05.17/outbox.cif.g08.bks.cpg/sg4_1_cif.got.tgz:1204.got - 2010.06.03 18:43:04.
