data_PCOD9116492
_publ_section_title
;
Structure prediction by ZEFSAII (Michael W. Deem and Ramdas Pophale) SiO2 
 PCOD9116492
Probable space group: P 21
;
_chemical_formula_sum "Si O2"
_cell_formula_units_Z 14
_cell_length_a 12.393832
_cell_length_b 8.675797
_cell_length_c 10.691054
_cell_angle_alpha 90.000000
_cell_angle_beta 144.732583
_cell_angle_gamma 90.000000
_cell_volume 663.754276
_symmetry_space_group_name_H-M "P 21"
_symmetry_group_IT_number 4
_symmetry_cell_setting 'monoclinic'
loop_
_space_group_symop_operation_xyz
x,y,z
-x,1/2+y,-z
loop_
_atom_site_type_symbol
_atom_site_label
_atom_site_fract_x
_atom_site_fract_y
_atom_site_fract_z
Si Si1 0.295747 0.553730 0.575565
Si Si2 0.125506 0.787720 0.582191
Si Si3 0.144470 0.290531 0.248942
Si Si4 0.709422 0.300444 0.813350
Si Si5 0.836039 0.621332 0.479937
Si Si6 0.527249 0.289184 0.911309
Si Si7 0.552189 0.639124 0.617782
O O1 0.137019 0.653451 0.490174
O O2 0.213231 0.440864 0.390463
O O3 0.404371 0.444000 0.775706
O O4 0.448750 0.661424 0.652159
O O5 0.972482 0.742982 0.540424
O O6 0.094730 0.952518 0.490396
O O7 0.328943 0.790139 0.839862
O O8 0.164244 0.156293 0.372713
O O9 0.278628 0.250285 0.260900
O O10 0.930468 0.300777 0.008224
O O11 0.649746 0.278813 0.900666
O O12 0.629220 0.465504 0.693833
O O13 0.604879 0.170939 0.634771
O O14 0.626730 0.654506 0.232960
#
# Coordination Sequence:
#
# PCOD9116492 Si02
#       7
#     2   2   2   2   2   2   2
#     4  10  24  43  65  99 136 173 216 277 320 396
#     4  12  24  41  68  97 133 172 224 262 332 389
#     4  11  23  45  66  96 139 172 219 274 334 387
#     4  11  24  42  70  92 131 175 217 275 334 385
#     4  11  23  40  67  97 131 173 216 274 319 392
#     4  10  21  45  66  90 134 174 214 272 325 374
#     4  11  23  44  68  95 134 169 220 276 326 397
#
# _framework density 21.092141000000002
#
# number of rings (size 3 to 8) (size 9 to 14) (size 15 to 20)
#    0.000    1.143    5.714    2.571    4.000    0.000 
#    0.000    1.429    0.000    0.000    0.000    0.000 
#    0.000    0.000    0.000    0.000    0.000    0.000 
#
# Total GULP energy -78259.987852 kJ/mol
# GULP energy per Si atom -5589.999132 kJ/mol
# Density = 2.104413 g / cm^3
# Si number density = 21.092141 Si / 1000 Ang^3
#
#
#
# Elastic Constant Matrix: (Units=GPa)
#
#
# Indices 1 2 3 4 5 6 
#
# 1 76.9679 11.5874 2.6798 0.0000 19.1675 0.0000
# 2 11.5874 42.8996 4.9426 0.0000 -5.4312 0.0000
# 3 2.6798 4.9426 74.1349 0.0000 26.8626 0.0000
# 4 0.0000 0.0000 0.0000 5.6926 0.0000 0.4572
# 5 19.1675 -5.4312 26.8626 0.0000 36.0901 0.0000
# 6 0.0000 0.0000 0.0000 0.4572 0.0000 43.1556
#
#
#
# Elastic Compliance Matrix: (Units=1/GPa)
#
#
# Indices 1 2 3 4 5 6 
#
# 1 0.017335 -0.007002 0.004872 0.000000 -0.013887 0.000000
# 2 -0.007002 0.027464 -0.006056 0.000000 0.012360 0.000000
# 3 0.004872 -0.006056 0.020518 0.000000 -0.018771 0.000000
# 4 0.000000 0.000000 0.000000 0.175816 0.000000 -0.001862
# 5 -0.013887 0.012360 -0.018771 0.000000 0.050915 0.000000
# 6 0.000000 0.000000 0.000000 -0.001862 0.000000 0.023192
#
#
# Mechanical properties :
#
#
# Convention : Reuss Voigt Hill
#
# Bulk Modulus (GPa) = 20.43105 25.82466 23.12785
# Shear Modulus (GPa) = 14.37079 28.64049 21.50564
#
# Velocity S-wave (km/s) = 2.61307 3.68893 3.19659
# Velocity P-wave (km/s) = 4.33725 5.51495 4.96117
#
# Compressibility (1/GPa) = 0.04894512
#
# Stress axis : x y z
#
# Youngs Moduli (GPa) = 57.68626 36.41133 48.73703
#
# Poissons Ratio (x) = 0.25494 -0.23745
# Poissons Ratio (y) = 0.40390 0.29517
# Poissons Ratio (z) = -0.28105 0.22052
#
# Static dielectric constant tensor:
#      x y z
#    x 1.751840 0.000000 0.004740 
#    y 0.000000 1.774320 0.000000 
#    z 0.004740 0.000000 1.726640 
# 
# From -- ./inp_files/7460.got.cif
#   From: 2010.05.17/outbox.cif.g08.bks.cpg/sg4_4_cif.got.tgz:7460.got - 2010.06.03 18:43:04.
