data_PCOD9116504
_publ_section_title
;
Structure prediction by ZEFSAII (Michael W. Deem and Ramdas Pophale) SiO2 
 PCOD9116504
Probable space group: P 21
;
_chemical_formula_sum "Si O2"
_cell_formula_units_Z 14
_cell_length_a 13.127835
_cell_length_b 10.768063
_cell_length_c 12.356053
_cell_angle_alpha 90.000000
_cell_angle_beta 158.894765
_cell_angle_gamma 90.000000
_cell_volume 628.943931
_symmetry_space_group_name_H-M "P 21"
_symmetry_group_IT_number 4
_symmetry_cell_setting 'monoclinic'
loop_
_space_group_symop_operation_xyz
x,y,z
-x,1/2+y,-z
loop_
_atom_site_type_symbol
_atom_site_label
_atom_site_fract_x
_atom_site_fract_y
_atom_site_fract_z
Si Si1 0.563418 0.816910 0.646811
Si Si2 0.777869 0.897020 0.627230
Si Si3 0.979110 0.714858 0.358658
Si Si4 0.064299 0.920634 0.283345
Si Si5 0.043277 0.183482 0.357806
Si Si6 0.707021 0.566508 0.890698
Si Si7 0.538378 0.198878 0.008767
O O1 0.637744 0.846219 0.597761
O O2 0.312293 0.901593 0.443046
O O3 0.554118 0.669487 0.662894
O O4 0.812262 0.856043 0.971915
O O5 0.872321 0.783939 0.646638
O O6 0.542236 0.972713 0.328134
O O7 0.040393 0.988051 0.913441
O O8 0.122642 0.834378 0.445569
O O9 0.231535 0.646432 0.675575
O O10 0.847503 0.627516 0.135952
O O11 0.706261 0.760845 0.158327
O O12 0.969643 0.056397 0.224522
O O13 0.784087 0.243581 0.169233
O O14 0.310291 0.141855 0.698151
#
# Coordination Sequence:
#
# PCOD9116504 Si02
#       7
#     2   2   2   2   2   2   2
#     4  11  25  42  73  98 132 181 228 265 339 405
#     4  12  26  42  69 100 142 176 211 288 335 396
#     4  10  21  45  71  94 131 176 229 273 321 408
#     4  11  23  46  71  99 133 175 224 283 324 408
#     4  11  25  45  63 108 137 169 222 277 340 396
#     4  11  24  46  67 101 134 177 228 272 335 395
#     4  10  22  44  66  98 133 176 222 264 342 386
#
# _framework density 22.259536000000001
#
# number of rings (size 3 to 8) (size 9 to 14) (size 15 to 20)
#    0.000    1.143    0.000    6.857    4.000    0.000 
#   25.714    0.000    0.000    0.000    0.000    0.000 
#    0.000    0.000    0.000    0.000    0.000    0.000 
#
# Total GULP energy -77955.859245 kJ/mol
# GULP energy per Si atom -5568.275660 kJ/mol
# Density = 2.220887 g / cm^3
# Si number density = 22.259536 Si / 1000 Ang^3
#
#
#
# Elastic Constant Matrix: (Units=GPa)
#
#
# Indices 1 2 3 4 5 6 
#
# 1 133.4131 27.5525 1.1583 0.0000 22.2315 0.0000
# 2 27.5525 95.6035 -16.2593 0.0000 3.9554 0.0000
# 3 1.1583 -16.2593 68.5171 0.0000 8.0498 0.0000
# 4 0.0000 0.0000 0.0000 19.9637 0.0000 7.2162
# 5 22.2315 3.9554 8.0498 0.0000 41.3047 0.0000
# 6 0.0000 0.0000 0.0000 7.2162 0.0000 -29.8140
#
#
#
# Elastic Compliance Matrix: (Units=1/GPa)
#
#
# Indices 1 2 3 4 5 6 
#
# 1 0.008724 -0.002363 -0.000187 0.000000 -0.004433 0.000000
# 2 -0.002363 0.011642 0.002849 0.000000 -0.000399 0.000000
# 3 -0.000187 0.002849 0.015653 0.000000 -0.003223 0.000000
# 4 0.000000 0.000000 0.000000 0.046061 0.000000 0.011149
# 5 -0.004433 -0.000399 -0.003223 0.000000 0.027262 0.000000
# 6 0.000000 0.000000 0.000000 0.011149 0.000000 -0.030843
#
#
# Mechanical properties :
#
#
# Convention : Reuss Voigt Hill
#
# Bulk Modulus (GPa) = 27.30953 35.82630 31.56791
# Shear Modulus (GPa) = 55.49039 25.29636 40.39338
#
# Velocity S-wave (km/s) = 4.99829 3.37475 4.26450
# Velocity P-wave (km/s) = 6.75321 5.59598 6.20165
#
# Compressibility (1/GPa) = 0.03661726
#
# Stress axis : x y z
#
# Youngs Moduli (GPa) = 114.63024 85.89701 63.88617
#
# Poissons Ratio (x) = 0.20294 0.01197
# Poissons Ratio (y) = 0.27083 -0.18204
# Poissons Ratio (z) = 0.02148 -0.24476
#
# Static dielectric constant tensor:
#      x y z
#    x 1.846220 0.000000 -0.014290 
#    y 0.000000 1.810790 0.000000 
#    z -0.014290 0.000000 1.813370 
# 
# From -- ./inp_files/12175.got.cif
#   From: 2010.05.17/outbox.cif.g08.bks.cpg/sg4_7_cif.got.tgz:12175.got - 2010.06.03 18:43:04.
