data_PCOD9116861
_publ_section_title
;
Structure prediction by ZEFSAII (Michael W. Deem and Ramdas Pophale) SiO2 
 PCOD9116861
Probable space group: P 21
;
_chemical_formula_sum "Si O2"
_cell_formula_units_Z 14
_cell_length_a 4.796285
_cell_length_b 10.992935
_cell_length_c 11.518572
_cell_angle_alpha 90.000000
_cell_angle_beta 87.447408
_cell_angle_gamma 90.000000
_cell_volume 606.716974
_symmetry_space_group_name_H-M "P 21"
_symmetry_group_IT_number 4
_symmetry_cell_setting 'monoclinic'
loop_
_space_group_symop_operation_xyz
x,y,z
-x,1/2+y,-z
loop_
_atom_site_type_symbol
_atom_site_label
_atom_site_fract_x
_atom_site_fract_y
_atom_site_fract_z
Si Si1 0.755675 0.500000 0.654661
Si Si2 0.255479 0.570613 0.185846
Si Si3 0.006731 0.224936 0.008921
Si Si4 0.492269 0.886765 0.995007
Si Si5 0.965094 0.104575 0.577050
Si Si6 0.472893 0.241136 0.642518
Si Si7 0.733052 0.052186 0.196397
O O1 0.886961 0.539069 0.530379
O O2 0.581780 0.376467 0.642773
O O3 0.523370 0.588986 0.715369
O O4 0.017632 0.489235 0.736661
O O5 0.428566 0.467662 0.117642
O O6 0.452225 0.675690 0.237095
O O7 0.089115 0.527309 0.304232
O O8 0.055654 0.634922 0.096347
O O9 0.828565 0.348295 0.993514
O O10 0.325844 0.263316 0.014341
O O11 0.881085 0.160797 0.124467
O O12 0.591392 0.962378 0.105002
O O13 0.156872 0.217143 0.615310
O O14 0.666414 0.161600 0.551882
#
# Coordination Sequence:
#
# PCOD9116861 Si02
#       7
#     2   2   2   2   2   2   2
#     4  12  23  45  65  93 130 169 220 259 335 383
#     4   9  24  41  67  91 131 160 225 254 322 392
#     4  11  24  40  64  97 129 167 209 267 328 377
#     4  11  23  40  66  95 127 169 211 264 323 383
#     4  10  24  42  63  96 120 169 216 268 305 388
#     4  10  22  41  66  91 121 172 210 259 320 380
#     4  11  24  41  65  97 130 168 213 271 317 397
#
# _framework density 23.075009000000001
#
# number of rings (size 3 to 8) (size 9 to 14) (size 15 to 20)
#    0.857    0.571    0.000    5.143    6.000    2.286 
#    7.714    0.000    0.000    0.000    0.000    0.000 
#    0.000    0.000    0.000    0.000    0.000    0.000 
#
# Total GULP energy -78307.505298 kJ/mol
# GULP energy per Si atom -5593.393236 kJ/mol
# Density = 2.302249 g / cm^3
# Si number density = 23.075009 Si / 1000 Ang^3
#
#
#
# Elastic Constant Matrix: (Units=GPa)
#
#
# Indices 1 2 3 4 5 6 
#
# 1 86.3702 -3.2742 22.8072 0.0000 -12.9179 0.0000
# 2 -3.2742 39.8062 27.7209 0.0000 -0.5014 0.0000
# 3 22.8072 27.7209 138.8432 0.0000 -31.1256 0.0000
# 4 0.0000 0.0000 0.0000 26.3434 0.0000 -5.9661
# 5 -12.9179 -0.5014 -31.1256 0.0000 38.0492 0.0000
# 6 0.0000 0.0000 0.0000 -5.9661 0.0000 36.0468
#
#
#
# Elastic Compliance Matrix: (Units=1/GPa)
#
#
# Indices 1 2 3 4 5 6 
#
# 1 0.012589 0.002423 -0.001943 0.000000 0.002717 0.000000
# 2 0.002423 0.030567 -0.007624 0.000000 -0.005012 0.000000
# 3 -0.001943 -0.007624 0.010866 0.000000 0.008129 0.000000
# 4 0.000000 0.000000 0.000000 0.039438 0.000000 0.006527
# 5 0.002717 -0.005012 0.008129 0.000000 0.033788 0.000000
# 6 0.000000 0.000000 0.000000 0.006527 0.000000 0.028822
#
#
# Mechanical properties :
#
#
# Convention : Reuss Voigt Hill
#
# Bulk Modulus (GPa) = 25.16754 39.94751 32.55752
# Shear Modulus (GPa) = 27.23243 34.60560 30.91901
#
# Velocity S-wave (km/s) = 3.43909 3.87680 3.66448
# Velocity P-wave (km/s) = 5.16723 6.11466 5.66080
#
# Compressibility (1/GPa) = 0.03973372
#
# Stress axis : x y z
#
# Youngs Moduli (GPa) = 79.43303 32.71452 92.02982
#
# Poissons Ratio (x) = -0.07925 0.17878
# Poissons Ratio (y) = -0.19243 0.70168
# Poissons Ratio (z) = 0.15430 0.24943
#
# Static dielectric constant tensor:
#      x y z
#    x 1.835690 0.000000 -0.028690 
#    y 0.000000 1.859660 0.000000 
#    z -0.028690 0.000000 1.887700 
# 
# From -- ./inp_files/10419.got.cif
#   From: 2010.05.17/outbox.cif.g08.bks.cpg/sg4_6_cif.got.tgz:10419.got - 2010.06.03 18:43:04.
