data_PCOD9116573
_publ_section_title
;
Structure prediction by ZEFSAII (Michael W. Deem and Ramdas Pophale) SiO2 
 PCOD9116573
Probable space group: P 21
;
_chemical_formula_sum "Si O2"
_cell_formula_units_Z 16
_cell_length_a 12.716460
_cell_length_b 7.989988
_cell_length_c 10.842455
_cell_angle_alpha 90.000000
_cell_angle_beta 144.624933
_cell_angle_gamma 90.000000
_cell_volume 637.768907
_symmetry_space_group_name_H-M "P 21"
_symmetry_group_IT_number 4
_symmetry_cell_setting 'monoclinic'
loop_
_space_group_symop_operation_xyz
x,y,z
-x,1/2+y,-z
loop_
_atom_site_type_symbol
_atom_site_label
_atom_site_fract_x
_atom_site_fract_y
_atom_site_fract_z
Si Si1 0.787425 0.611840 0.527280
Si Si2 0.530483 0.096324 0.406041
Si Si3 0.452470 0.482523 0.301512
Si Si4 0.933463 0.922594 0.061821
Si Si5 0.859678 0.116218 0.306416
Si Si6 0.723621 0.428305 0.032058
Si Si7 0.891922 0.937526 0.739830
Si Si8 0.126036 0.247168 0.744115
O O1 0.588240 0.539129 0.324786
O O2 0.775790 0.801427 0.555997
O O3 0.881327 0.514043 0.730653
O O4 0.943892 0.602607 0.575385
O O5 0.459005 0.282151 0.313375
O O6 0.489692 0.048066 0.508622
O O7 0.750862 0.091132 0.608411
O O8 0.430163 0.970888 0.215156
O O9 0.244334 0.539333 0.085714
O O10 0.905059 0.788219 0.141684
O O11 0.922690 0.876124 0.909463
O O12 0.735370 0.256372 0.121612
O O13 0.930718 0.191159 0.502988
O O14 0.803145 0.920632 0.250657
O O15 0.736904 0.591539 0.133666
O O16 0.915919 0.437838 0.143180
#
# Coordination Sequence:
#
# PCOD9116573 Si02
#       8
#     2   2   2   2   2   2   2   2
#     4  10  23  39  62  92 130 165 220 271 325 390
#     4  11  24  38  63  97 135 176 212 267 339 399
#     4  11  22  38  61  93 134 172 213 272 323 405
#     4  10  22  36  65  94 125 175 213 261 335 393
#     4  10  23  41  69 101 122 177 227 279 324 387
#     4  11  23  44  69  93 136 175 220 276 329 396
#     4  10  24  38  62  98 132 165 216 269 331 394
#     4  11  21  40  69  96 128 171 231 265 332 390
#
# _framework density 25.087457000000001
#
# number of rings (size 3 to 8) (size 9 to 14) (size 15 to 20)
#    0.000    1.500    2.500    2.250    5.250   10.000 
#    0.000    0.000    5.500    4.500    0.000    0.000 
#    0.000    0.000    0.000    0.000    0.000    0.000 
#
# Total GULP energy -89409.286151 kJ/mol
# GULP energy per Si atom -5588.080384 kJ/mol
# Density = 2.503036 g / cm^3
# Si number density = 25.087457 Si / 1000 Ang^3
#
#
#
# Elastic Constant Matrix: (Units=GPa)
#
#
# Indices 1 2 3 4 5 6 
#
# 1 38.4821 9.7790 29.0167 0.0000 0.8360 0.0000
# 2 9.7790 116.8463 21.9894 0.0000 -4.3136 0.0000
# 3 29.0167 21.9894 79.9476 0.0000 -4.5431 0.0000
# 4 0.0000 0.0000 0.0000 28.0051 0.0000 -0.7657
# 5 0.8360 -4.3136 -4.5431 0.0000 33.2163 0.0000
# 6 0.0000 0.0000 0.0000 -0.7657 0.0000 19.3909
#
#
#
# Elastic Compliance Matrix: (Units=1/GPa)
#
#
# Indices 1 2 3 4 5 6 
#
# 1 0.036067 -0.000662 -0.013066 0.000000 -0.002781 0.000000
# 2 -0.000662 0.009061 -0.002201 0.000000 0.000892 0.000000
# 3 -0.013066 -0.002201 0.017998 0.000000 0.002505 0.000000
# 4 0.000000 0.000000 0.000000 0.035746 0.000000 0.001412
# 5 -0.002781 0.000892 0.002505 0.000000 0.030634 0.000000
# 6 0.000000 0.000000 0.000000 0.001412 0.000000 0.051626
#
#
# Mechanical properties :
#
#
# Convention : Reuss Voigt Hill
#
# Bulk Modulus (GPa) = 31.98255 39.64959 35.81607
# Shear Modulus (GPa) = 22.37989 27.75521 25.06755
#
# Velocity S-wave (km/s) = 2.99000 3.32977 3.16445
# Velocity P-wave (km/s) = 4.96953 5.53372 5.25920
#
# Compressibility (1/GPa) = 0.03126705
#
# Stress axis : x y z
#
# Youngs Moduli (GPa) = 27.72597 110.36504 55.56073
#
# Poissons Ratio (x) = 0.07308 0.72598
# Poissons Ratio (y) = 0.01836 0.12230
# Poissons Ratio (z) = 0.36228 0.24293
#
# Static dielectric constant tensor:
#      x y z
#    x 1.985290 0.000000 -0.033070 
#    y 0.000000 2.064450 0.000000 
#    z -0.033070 0.000000 2.007890 
# 
# From -- ./inp_files/12669.got.cif
#   From: 2010.05.17/outbox.cif.g08.bks.cpg/sg4_7_cif.got.tgz:12669.got - 2010.06.03 18:43:04.
