data_PCOD9116820
_publ_section_title
;
Structure prediction by ZEFSAII (Michael W. Deem and Ramdas Pophale) SiO2 
 PCOD9116820
Probable space group: P 21
;
_chemical_formula_sum "Si O2"
_cell_formula_units_Z 14
_cell_length_a 9.007743
_cell_length_b 5.458431
_cell_length_c 17.478840
_cell_angle_alpha 90.000000
_cell_angle_beta 142.213784
_cell_angle_gamma 90.000000
_cell_volume 526.570237
_symmetry_space_group_name_H-M "P 21"
_symmetry_group_IT_number 4
_symmetry_cell_setting 'monoclinic'
loop_
_space_group_symop_operation_xyz
x,y,z
-x,1/2+y,-z
loop_
_atom_site_type_symbol
_atom_site_label
_atom_site_fract_x
_atom_site_fract_y
_atom_site_fract_z
Si Si1 0.443069 0.278430 0.348482
Si Si2 0.942838 0.279236 0.344300
Si Si3 0.206095 0.096928 0.600636
Si Si4 0.023634 0.629163 0.172135
Si Si5 0.322835 0.796538 0.150439
Si Si6 0.377710 0.284365 0.083253
Si Si7 0.726022 0.444733 0.611700
O O1 0.613531 0.370905 0.349853
O O2 0.168888 0.372580 0.221487
O O3 0.556439 0.405536 0.470292
O O4 0.432588 0.006909 0.377710
O O5 0.949054 0.546818 0.386399
O O6 0.668189 0.260072 0.203399
O O7 0.037805 0.136888 0.459334
O O8 0.109793 0.173445 0.346489
O O9 0.404938 0.295026 0.704413
O O10 0.140409 0.767280 0.146366
O O11 0.105226 0.731094 0.287641
O O12 0.743679 0.700143 0.046349
O O13 0.316071 0.558224 0.090670
O O14 0.282585 0.059620 0.096922
#
# Coordination Sequence:
#
# PCOD9116820 Si02
#       7
#     2   2   2   2   2   2   2
#     4  10  22  41  64  95 127 173 232 283 337 403
#     4  10  22  41  63 100 136 176 226 279 346 410
#     4   9  20  39  68  99 130 179 224 285 344 396
#     4  11  24  40  66  95 130 184 218 282 345 400
#     4  10  23  41  70  99 134 171 240 282 330 392
#     4  11  24  44  65 102 136 180 226 283 332 415
#     4  11  23  42  64  98 135 173 228 284 344 408
#
# _framework density 26.587143999999999
#
# number of rings (size 3 to 8) (size 9 to 14) (size 15 to 20)
#    0.000    1.714    1.429    1.714    8.000    1.143 
#    7.714    0.000    0.000    0.000    0.000    0.000 
#    0.000    0.000    0.000    0.000    0.000    0.000 
#
# Total GULP energy -78153.637633 kJ/mol
# GULP energy per Si atom -5582.402688 kJ/mol
# Density = 2.652663 g / cm^3
# Si number density = 26.587144 Si / 1000 Ang^3
#
#
#
# Elastic Constant Matrix: (Units=GPa)
#
#
# Indices 1 2 3 4 5 6 
#
# 1 62.5809 14.8352 17.1305 0.0000 -2.5969 0.0000
# 2 14.8352 83.9145 30.1251 0.0000 -7.9023 0.0000
# 3 17.1305 30.1251 170.3311 0.0000 14.1485 0.0000
# 4 0.0000 0.0000 0.0000 36.1571 0.0000 -9.0722
# 5 -2.5969 -7.9023 14.1485 0.0000 30.6140 0.0000
# 6 0.0000 0.0000 0.0000 -9.0722 0.0000 33.8473
#
#
#
# Elastic Compliance Matrix: (Units=1/GPa)
#
#
# Indices 1 2 3 4 5 6 
#
# 1 0.016987 -0.002355 -0.001415 0.000000 0.001487 0.000000
# 2 -0.002355 0.013676 -0.002557 0.000000 0.004512 0.000000
# 3 -0.001415 -0.002557 0.006791 0.000000 -0.003918 0.000000
# 4 0.000000 0.000000 0.000000 0.029651 0.000000 0.007948
# 5 0.001487 0.004512 -0.003918 0.000000 0.035767 0.000000
# 6 0.000000 0.000000 0.000000 0.007948 0.000000 0.031675
#
#
# Mechanical properties :
#
#
# Convention : Reuss Voigt Hill
#
# Bulk Modulus (GPa) = 40.32324 49.00089 44.66207
# Shear Modulus (GPa) = 32.16125 37.10606 34.63366
#
# Velocity S-wave (km/s) = 3.48178 3.73988 3.61314
# Velocity P-wave (km/s) = 5.60028 6.09256 5.85160
#
# Compressibility (1/GPa) = 0.02479959
#
# Stress axis : x y z
#
# Youngs Moduli (GPa) = 58.86948 73.12104 147.25500
#
# Poissons Ratio (x) = 0.17219 0.20843
# Poissons Ratio (y) = 0.13863 0.37649
# Poissons Ratio (z) = 0.08333 0.18695
#
# Static dielectric constant tensor:
#      x y z
#    x 2.040960 0.000000 0.033060 
#    y 0.000000 2.228330 0.000000 
#    z 0.033060 0.000000 2.178860 
# 
# From -- ./inp_files/7064.got.cif
#   From: 2010.05.17/outbox.cif.g08.bks.cpg/sg4_4_cif.got.tgz:7064.got - 2010.06.03 18:43:04.
