data_PCOD9116032
_publ_section_title
;
Structure prediction by ZEFSAII (Michael W. Deem and Ramdas Pophale) SiO2 
 PCOD9116032
Probable space group: P 21
;
_chemical_formula_sum "Si O2"
_cell_formula_units_Z 16
_cell_length_a 5.267637
_cell_length_b 12.592788
_cell_length_c 11.775804
_cell_angle_alpha 90.000000
_cell_angle_beta 106.453725
_cell_angle_gamma 90.000000
_cell_volume 749.150390
_symmetry_space_group_name_H-M "P 21"
_symmetry_group_IT_number 4
_symmetry_cell_setting 'monoclinic'
loop_
_space_group_symop_operation_xyz
x,y,z
-x,1/2+y,-z
loop_
_atom_site_type_symbol
_atom_site_label
_atom_site_fract_x
_atom_site_fract_y
_atom_site_fract_z
Si Si1 0.103207 0.942500 0.908537
Si Si2 0.395331 0.197199 0.552758
Si Si3 0.959654 0.270905 0.669760
Si Si4 0.187160 0.162969 0.277726
Si Si5 0.026154 0.453751 0.861690
Si Si6 0.280435 0.580021 0.240719
Si Si7 0.484518 0.603445 0.018210
Si Si8 0.615625 0.268038 0.175351
O O1 0.311364 0.885925 0.853257
O O2 0.055390 0.897601 0.028711
O O3 0.844967 0.966407 0.801650
O O4 0.224294 0.056633 0.953774
O O5 0.656595 0.273016 0.584048
O O6 0.299341 0.159568 0.418652
O O7 0.491547 0.094504 0.637342
O O8 0.166787 0.255396 0.594948
O O9 0.036571 0.366555 0.763572
O O10 0.939371 0.161887 0.739526
O O11 0.386641 0.237530 0.232632
O O12 0.894275 0.213737 0.245332
O O13 0.161109 0.048880 0.211000
O O14 0.293734 0.517259 0.930641
O O15 0.392406 0.617620 0.134707
O O16 0.465770 0.712772 0.951925
#
# Coordination Sequence:
#
# PCOD9116032 Si02
#       8
#     2   2   2   2   2   2   2   2
#     4  11  22  40  67 103 135 178 229 278 359 407
#     4  10  23  44  67  90 137 177 222 283 331 399
#     4  10  22  41  67 100 127 177 228 278 331 406
#     4  11  24  48  66  98 140 178 227 280 348 403
#     4  10  23  40  69 101 130 180 229 282 347 423
#     4   9  22  39  63  99 134 168 221 277 334 400
#     4  10  21  39  64  97 137 168 222 284 344 401
#     4  11  25  41  69  96 138 178 220 290 338 413
#
# _framework density 21.357524999999999
#
# number of rings (size 3 to 8) (size 9 to 14) (size 15 to 20)
#    0.750    1.000    1.250    2.250    5.250    1.000 
#    2.250    2.500    0.000    0.000    0.000    0.000 
#    0.000    0.000    0.000    0.000    0.000    0.000 
#
# Total GULP energy -89222.222100 kJ/mol
# GULP energy per Si atom -5576.388881 kJ/mol
# Density = 2.130891 g / cm^3
# Si number density = 21.357525 Si / 1000 Ang^3
#
#
#
# Elastic Constant Matrix: (Units=GPa)
#
#
# Indices 1 2 3 4 5 6 
#
# 1 80.9721 20.2778 5.1894 0.0000 -1.7527 0.0000
# 2 20.2778 47.3988 43.0946 0.0000 -6.3322 0.0000
# 3 5.1894 43.0946 91.5126 0.0000 1.0362 0.0000
# 4 0.0000 0.0000 0.0000 16.8602 0.0000 -5.0074
# 5 -1.7527 -6.3322 1.0362 0.0000 24.0185 0.0000
# 6 0.0000 0.0000 0.0000 -5.0074 0.0000 20.7397
#
#
#
# Elastic Compliance Matrix: (Units=1/GPa)
#
#
# Indices 1 2 3 4 5 6 
#
# 1 0.014572 -0.010028 0.003916 0.000000 -0.001749 0.000000
# 2 -0.010028 0.046635 -0.021534 0.000000 0.012492 0.000000
# 3 0.003916 -0.021534 0.020917 0.000000 -0.006294 0.000000
# 4 0.000000 0.000000 0.000000 0.063893 0.000000 0.015426
# 5 -0.001749 0.012492 -0.006294 0.000000 0.045072 0.000000
# 6 0.000000 0.000000 0.000000 0.015426 0.000000 0.051941
#
#
# Mechanical properties :
#
#
# Convention : Reuss Voigt Hill
#
# Bulk Modulus (GPa) = 37.26854 39.66746 38.46800
# Shear Modulus (GPa) = 16.27246 22.41179 19.34213
#
# Velocity S-wave (km/s) = 2.76326 3.24290 3.01264
# Velocity P-wave (km/s) = 5.26009 5.71273 5.49107
#
# Compressibility (1/GPa) = 0.02683228
#
# Stress axis : x y z
#
# Youngs Moduli (GPa) = 68.62245 21.44304 47.80734
#
# Poissons Ratio (x) = 0.21504 -0.18721
# Poissons Ratio (y) = 0.68817 1.02948
# Poissons Ratio (z) = -0.26872 0.46175
#
# Static dielectric constant tensor:
#      x y z
#    x 1.830330 0.000000 0.027920 
#    y 0.000000 1.794090 0.000000 
#    z 0.027920 0.000000 1.753470 
# 
# From -- ./inp_files/10433.got.cif
#   From: 2010.05.17/outbox.cif.g08.bks.cpg/sg4_6_cif.got.tgz:10433.got - 2010.06.03 18:43:04.
