data_PCOD9116021
_publ_section_title
;
Structure prediction by ZEFSAII (Michael W. Deem and Ramdas Pophale) SiO2 
 PCOD9116021
Probable space group: P 21
;
_chemical_formula_sum "Si O2"
_cell_formula_units_Z 12
_cell_length_a 10.773703
_cell_length_b 7.560571
_cell_length_c 10.877553
_cell_angle_alpha 90.000000
_cell_angle_beta 141.992114
_cell_angle_gamma 90.000000
_cell_volume 545.593615
_symmetry_space_group_name_H-M "P 21"
_symmetry_group_IT_number 4
_symmetry_cell_setting 'monoclinic'
loop_
_space_group_symop_operation_xyz
x,y,z
-x,1/2+y,-z
loop_
_atom_site_type_symbol
_atom_site_label
_atom_site_fract_x
_atom_site_fract_y
_atom_site_fract_z
Si Si1 0.982973 0.673670 0.116669
Si Si2 0.716164 0.443557 0.537356
Si Si3 0.897910 0.094504 0.228511
Si Si4 0.315275 0.856301 0.757734
Si Si5 0.737883 0.971452 0.841075
Si Si6 0.756962 0.719356 0.178477
O O1 0.157151 0.822889 0.270585
O O2 0.091876 0.531299 0.120643
O O3 0.890823 0.626231 0.176699
O O4 0.790858 0.766421 0.903924
O O5 0.703794 0.329555 0.402025
O O6 0.487467 0.497371 0.384051
O O7 0.869765 0.604028 0.630763
O O8 0.828879 0.247287 0.264543
O O9 0.867838 0.908969 0.280765
O O10 0.773519 0.066902 0.002724
O O11 0.282940 0.065975 0.754763
O O12 0.536630 0.786321 0.965904
#
# Coordination Sequence:
#
# PCOD9116021 Si02
#       6
#     2   2   2   2   2   2
#     4  10  24  41  64  93 120 165 214 254 315 366
#     4  10  22  41  63  93 126 160 209 264 305 379
#     4  10  24  40  63  97 124 170 206 253 319 374
#     4  12  20  41  66  92 133 160 208 259 318 376
#     4  10  21  46  63  85 132 160 208 263 303 374
#     4  10  21  39  63  94 123 169 201 253 322 365
#
# _framework density 21.994392000000001
#
# number of rings (size 3 to 8) (size 9 to 14) (size 15 to 20)
#    0.000    2.000    5.000    0.000    7.000    2.667 
#    0.000    0.000    0.000    0.000    0.000    0.000 
#    0.000    0.000    0.000    0.000    0.000    0.000 
#
# Total GULP energy -66889.992108 kJ/mol
# GULP energy per Si atom -5574.166009 kJ/mol
# Density = 2.194433 g / cm^3
# Si number density = 21.994392 Si / 1000 Ang^3
#
#
#
# Elastic Constant Matrix: (Units=GPa)
#
#
# Indices 1 2 3 4 5 6 
#
# 1 57.3570 9.3890 11.2148 0.0000 19.6718 0.0000
# 2 9.3890 46.5259 4.9834 0.0000 -1.2332 0.0000
# 3 11.2148 4.9834 76.1160 0.0000 28.6385 0.0000
# 4 0.0000 0.0000 0.0000 16.7890 0.0000 7.8723
# 5 19.6718 -1.2332 28.6385 0.0000 29.6680 0.0000
# 6 0.0000 0.0000 0.0000 7.8723 0.0000 45.7398
#
#
#
# Elastic Compliance Matrix: (Units=1/GPa)
#
#
# Indices 1 2 3 4 5 6 
#
# 1 0.024800 -0.006078 0.004752 0.000000 -0.021284 0.000000
# 2 -0.006078 0.023377 -0.003952 0.000000 0.008817 0.000000
# 3 0.004752 -0.003952 0.021896 0.000000 -0.024452 0.000000
# 4 0.000000 0.000000 0.000000 0.064792 0.000000 -0.011151
# 5 -0.021284 0.008817 -0.024452 0.000000 0.071789 0.000000
# 6 0.000000 0.000000 0.000000 -0.011151 0.000000 0.023782
#
#
# Mechanical properties :
#
#
# Convention : Reuss Voigt Hill
#
# Bulk Modulus (GPa) = 16.80195 25.68591 21.24393
# Shear Modulus (GPa) = 19.16946 28.73347 23.95146
#
# Velocity S-wave (km/s) = 2.95542 3.61834 3.30355
# Velocity P-wave (km/s) = 4.39338 5.40002 4.92250
#
# Compressibility (1/GPa) = 0.05951691
#
# Stress axis : x y z
#
# Youngs Moduli (GPa) = 40.32229 42.77719 45.66958
#
# Poissons Ratio (x) = 0.25999 -0.21702
# Poissons Ratio (y) = 0.24507 0.18050
# Poissons Ratio (z) = -0.19161 0.16907
#
# Static dielectric constant tensor:
#      x y z
#    x 1.837730 0.000000 0.003560 
#    y 0.000000 1.823010 0.000000 
#    z 0.003560 0.000000 1.869920 
# 
# From -- ./inp_files/12025.got.cif
#   From: 2010.05.17/outbox.cif.g08.bks.cpg/sg4_7_cif.got.tgz:12025.got - 2010.06.03 18:43:04.
