data_PCOD9116302
_publ_section_title
;
Structure prediction by ZEFSAII (Michael W. Deem and Ramdas Pophale) SiO2 
 PCOD9116302
Probable space group: P 21
;
_chemical_formula_sum "Si O2"
_cell_formula_units_Z 14
_cell_length_a 6.970231
_cell_length_b 5.184476
_cell_length_c 27.016513
_cell_angle_alpha 90.000000
_cell_angle_beta 144.542694
_cell_angle_gamma 90.000000
_cell_volume 566.345327
_symmetry_space_group_name_H-M "P 21"
_symmetry_group_IT_number 4
_symmetry_cell_setting 'monoclinic'
loop_
_space_group_symop_operation_xyz
x,y,z
-x,1/2+y,-z
loop_
_atom_site_type_symbol
_atom_site_label
_atom_site_fract_x
_atom_site_fract_y
_atom_site_fract_z
Si Si1 0.382996 0.042760 0.947832
Si Si2 0.415306 0.887107 0.548401
Si Si3 0.428981 0.721943 0.752719
Si Si4 0.250120 0.799821 0.821747
Si Si5 0.095305 0.891505 0.198050
Si Si6 0.506753 0.512110 0.331146
Si Si7 0.828945 0.386350 0.610035
O O1 0.017626 0.157827 0.860419
O O2 0.457307 0.938860 0.908266
O O3 0.569033 0.298128 0.006530
O O4 0.288289 0.949655 0.576739
O O5 0.581419 0.606699 0.578889
O O6 0.178075 0.904234 0.451229
O O7 0.690909 0.110224 0.597105
O O8 0.404928 0.843298 0.801166
O O9 0.336813 0.895574 0.685751
O O10 0.783163 0.610453 0.813084
O O11 0.181638 0.477529 0.703174
O O12 0.195251 0.505440 0.828999
O O13 0.863890 0.892434 0.737874
O O14 0.398458 0.803963 0.296465
#
# Coordination Sequence:
#
# PCOD9116302 Si02
#       7
#     2   2   2   2   2   2   2
#     4  11  22  44  77  99 132 180 215 267 344 402
#     4  10  21  42  64  93 132 184 229 277 341 383
#     4  11  23  40  67 106 132 177 232 276 329 398
#     4  10  21  42  72  95 134 179 220 270 339 395
#     4  10  23  40  70 100 132 174 222 277 324 409
#     4  10  22  38  63  96 137 172 228 282 326 402
#     4  10  22  40  67  93 133 182 228 281 333 393
#
# _framework density 24.719898000000001
#
# number of rings (size 3 to 8) (size 9 to 14) (size 15 to 20)
#    0.000    1.714    2.857    0.857    4.000    2.286 
#    2.571    0.000   12.571    0.000    0.000    0.000 
#    0.000    0.000    0.000    0.000    0.000    0.000 
#
# Total GULP energy -78231.754235 kJ/mol
# GULP energy per Si atom -5587.982445 kJ/mol
# Density = 2.466363 g / cm^3
# Si number density = 24.719898 Si / 1000 Ang^3
#
#
#
# Elastic Constant Matrix: (Units=GPa)
#
#
# Indices 1 2 3 4 5 6 
#
# 1 126.1944 36.2987 39.6232 0.0000 -56.1192 0.0000
# 2 36.2987 115.8080 28.2304 0.0000 -17.7725 0.0000
# 3 39.6232 28.2304 95.9609 0.0000 -38.7026 0.0000
# 4 0.0000 0.0000 0.0000 44.7897 0.0000 -2.5628
# 5 -56.1192 -17.7725 -38.7026 0.0000 45.4395 0.0000
# 6 0.0000 0.0000 0.0000 -2.5628 0.0000 20.2087
#
#
#
# Elastic Compliance Matrix: (Units=1/GPa)
#
#
# Indices 1 2 3 4 5 6 
#
# 1 0.018727 -0.002832 0.003019 0.000000 0.024593 0.000000
# 2 -0.002832 0.009850 -0.002415 0.000000 -0.001701 0.000000
# 3 0.003019 -0.002415 0.016768 0.000000 0.017066 0.000000
# 4 0.000000 0.000000 0.000000 0.022490 0.000000 0.002852
# 5 0.024593 -0.001701 0.017066 0.000000 0.066250 0.000000
# 6 0.000000 0.000000 0.000000 0.002852 0.000000 0.049845
#
#
# Mechanical properties :
#
#
# Convention : Reuss Voigt Hill
#
# Bulk Modulus (GPa) = 24.45564 60.69644 42.57604
# Shear Modulus (GPa) = 24.75056 37.67496 31.21276
#
# Velocity S-wave (km/s) = 3.16767 3.90817 3.55724
# Velocity P-wave (km/s) = 4.82633 6.70612 5.84232
#
# Compressibility (1/GPa) = 0.04089036
#
# Stress axis : x y z
#
# Youngs Moduli (GPa) = 53.39771 101.52206 59.63878
#
# Poissons Ratio (x) = 0.28748 -0.18005
# Poissons Ratio (y) = 0.15121 0.14401
# Poissons Ratio (z) = -0.16121 0.24514
#
# Static dielectric constant tensor:
#      x y z
#    x 1.965900 0.000000 0.009820 
#    y 0.000000 2.071950 0.000000 
#    z 0.009820 0.000000 2.004810 
# 
# From -- ./inp_files/4358.got.cif
#   From: 2010.05.17/outbox.cif.g08.bks.cpg/sg4_3_cif.got.tgz:4358.got - 2010.06.03 18:43:04.
