data_PCOD9116142
_publ_section_title
;
Structure prediction by ZEFSAII (Michael W. Deem and Ramdas Pophale) SiO2 
 PCOD9116142
Probable space group: P 21
;
_chemical_formula_sum "Si O2"
_cell_formula_units_Z 16
_cell_length_a 9.628733
_cell_length_b 11.698735
_cell_length_c 8.507282
_cell_angle_alpha 90.000000
_cell_angle_beta 133.084138
_cell_angle_gamma 90.000000
_cell_volume 699.891547
_symmetry_space_group_name_H-M "P 21"
_symmetry_group_IT_number 4
_symmetry_cell_setting 'monoclinic'
loop_
_space_group_symop_operation_xyz
x,y,z
-x,1/2+y,-z
loop_
_atom_site_type_symbol
_atom_site_label
_atom_site_fract_x
_atom_site_fract_y
_atom_site_fract_z
Si Si1 0.815310 0.613100 0.734843
Si Si2 0.394200 0.152047 0.756535
Si Si3 0.142936 0.861981 0.339062
Si Si4 0.476560 0.715495 0.670610
Si Si5 0.732503 0.839559 0.105002
Si Si6 0.180802 0.952249 0.728190
Si Si7 0.807803 0.064897 0.355665
Si Si8 0.822002 0.226458 0.093332
O O1 0.714260 0.632617 0.488599
O O2 0.856415 0.477187 0.764262
O O3 0.656710 0.655675 0.731921
O O4 0.009555 0.686935 0.890967
O O5 0.309598 0.261476 0.778130
O O6 0.343561 0.046855 0.833196
O O7 0.616248 0.173537 0.897711
O O8 0.320557 0.779480 0.440992
O O9 0.166655 0.895498 0.543020
O O10 0.932189 0.810171 0.176111
O O11 0.359464 0.619489 0.673510
O O12 0.563487 0.811419 0.854500
O O13 0.750771 0.966228 0.188512
O O14 0.203818 0.858924 0.881747
O O15 0.979090 0.016138 0.592055
O O16 0.882906 0.167381 0.305232
#
# Coordination Sequence:
#
# PCOD9116142 Si02
#       8
#     2   2   2   2   2   2   2   2
#     4  11  26  43  63  99 145 179 222 286 358 409
#     4  11  23  39  70  98 134 182 231 282 340 407
#     4  10  21  40  66  92 135 178 218 283 346 400
#     4  12  26  44  68 104 136 182 231 282 354 414
#     4  11  23  41  72  98 133 174 236 286 331 404
#     4  10  21  40  68 102 131 172 232 292 332 396
#     4  11  22  41  72 100 133 173 239 285 333 409
#     4  12  22  40  69 101 131 182 235 278 340 417
#
# _framework density 22.860685
#
# number of rings (size 3 to 8) (size 9 to 14) (size 15 to 20)
#    0.000    1.000    6.250    2.250    5.250    3.000 
#    0.000    1.250    0.000    0.000    0.000    0.000 
#    0.000    0.000    0.000    0.000    0.000    0.000 
#
# Total GULP energy -89479.187189 kJ/mol
# GULP energy per Si atom -5592.449199 kJ/mol
# Density = 2.280865 g / cm^3
# Si number density = 22.860685 Si / 1000 Ang^3
#
#
#
# Elastic Constant Matrix: (Units=GPa)
#
#
# Indices 1 2 3 4 5 6 
#
# 1 167.6865 44.8093 29.8555 0.0000 44.3320 0.0000
# 2 44.8093 56.4449 19.9778 0.0000 13.4859 0.0000
# 3 29.8555 19.9778 80.1410 0.0000 42.0712 0.0000
# 4 0.0000 0.0000 0.0000 26.6333 0.0000 16.2463
# 5 44.3320 13.4859 42.0712 0.0000 42.2102 0.0000
# 6 0.0000 0.0000 0.0000 16.2463 0.0000 29.1319
#
#
#
# Elastic Compliance Matrix: (Units=1/GPa)
#
#
# Indices 1 2 3 4 5 6 
#
# 1 0.010607 -0.006881 0.005155 0.000000 -0.014080 0.000000
# 2 -0.006881 0.024065 -0.006698 0.000000 0.006214 0.000000
# 3 0.005155 -0.006698 0.029252 0.000000 -0.032430 0.000000
# 4 0.000000 0.000000 0.000000 0.056905 0.000000 -0.031735
# 5 -0.014080 0.006214 -0.032430 0.000000 0.068816 0.000000
# 6 0.000000 0.000000 0.000000 -0.031735 0.000000 0.052025
#
#
# Mechanical properties :
#
#
# Convention : Reuss Voigt Hill
#
# Bulk Modulus (GPa) = 21.24188 54.83970 38.04079
# Shear Modulus (GPa) = 18.23432 33.57040 25.90236
#
# Velocity S-wave (km/s) = 2.82729 3.83623 3.36974
# Velocity P-wave (km/s) = 4.46880 6.60779 5.64062
#
# Compressibility (1/GPa) = 0.04707681
#
# Stress axis : x y z
#
# Youngs Moduli (GPa) = 94.28005 41.55456 34.18614
#
# Poissons Ratio (x) = 0.28593 -0.17624
# Poissons Ratio (y) = 0.64873 0.22896
# Poissons Ratio (z) = -0.48604 0.27831
#
# Static dielectric constant tensor:
#      x y z
#    x 1.870810 0.000000 0.005130 
#    y 0.000000 1.892890 0.000000 
#    z 0.005130 0.000000 1.885760 
# 
# From -- ./inp_files/6481.got.cif
#   From: 2010.05.17/outbox.cif.g08.bks.cpg/sg4_4_cif.got.tgz:6481.got - 2010.06.03 18:43:04.
