data_PCOD9116876
_publ_section_title
;
Structure prediction by ZEFSAII (Michael W. Deem and Ramdas Pophale) SiO2 
 PCOD9116876
Probable space group: P 21
;
_chemical_formula_sum "Si O2"
_cell_formula_units_Z 14
_cell_length_a 8.441072
_cell_length_b 9.108499
_cell_length_c 8.441100
_cell_angle_alpha 90.000000
_cell_angle_beta 63.059333
_cell_angle_gamma 90.000000
_cell_volume 578.566399
_symmetry_space_group_name_H-M "P 21"
_symmetry_group_IT_number 4
_symmetry_cell_setting 'monoclinic'
loop_
_space_group_symop_operation_xyz
x,y,z
-x,1/2+y,-z
loop_
_atom_site_type_symbol
_atom_site_label
_atom_site_fract_x
_atom_site_fract_y
_atom_site_fract_z
Si Si1 0.280604 0.917780 0.318400
Si Si2 0.818399 0.113399 0.780605
Si Si3 0.453678 0.509443 0.305354
Si Si4 0.636966 0.267247 0.429929
Si Si5 0.929929 0.763932 0.136965
Si Si6 0.194646 0.021736 0.046323
Si Si7 0.680972 0.015589 0.180973
O O1 0.285437 0.765590 0.214563
O O2 0.231256 0.861222 0.516513
O O3 0.472045 0.989337 0.258567
O O4 0.174877 0.022759 0.246037
O O5 0.016512 0.169956 0.731258
O O6 0.746037 0.008420 0.674877
O O7 0.758565 0.041841 0.972046
O O8 0.512715 0.374743 0.386524
O O9 0.466688 0.655552 0.406394
O O10 0.598188 0.515590 0.098188
O O11 0.723334 0.155433 0.268537
O O12 0.886525 0.656436 0.012714
O O13 0.768536 0.875743 0.223333
O O14 0.093606 0.875628 0.033312
#
# Coordination Sequence:
#
# PCOD9116876 Si02
#       7
#     2   2   2   2   2   2   2
#     4  10  22  41  67 104 129 172 235 283 334 409
#     4  10  22  41  67 104 129 172 235 283 334 409
#     4  11  23  42  72 100 139 177 242 291 334 414
#     4  11  23  41  67 108 136 177 224 296 355 400
#     4  11  23  41  67 108 136 177 224 296 355 400
#     4  11  23  42  72 100 139 177 242 291 334 414
#     4  12  22  40  72 100 140 176 218 296 346 410
#
# _framework density 24.197742999999999
#
# number of rings (size 3 to 8) (size 9 to 14) (size 15 to 20)
#    0.000    1.143    4.286    3.429    0.000    0.000 
#    0.000    0.000   28.286    0.000    0.000    0.000 
#    0.000    0.000    0.000    0.000    0.000    0.000 
#
# Total GULP energy -78172.520271 kJ/mol
# GULP energy per Si atom -5583.751448 kJ/mol
# Density = 2.414267 g / cm^3
# Si number density = 24.197743 Si / 1000 Ang^3
#
#
#
# Elastic Constant Matrix: (Units=GPa)
#
#
# Indices 1 2 3 4 5 6 
#
# 1 133.8577 64.2472 41.3670 0.0000 53.9759 0.0000
# 2 64.2472 108.3944 37.4033 0.0000 36.8749 0.0000
# 3 41.3670 37.4033 64.6605 0.0000 41.0853 0.0000
# 4 0.0000 0.0000 0.0000 45.1626 0.0000 5.2301
# 5 53.9759 36.8749 41.0853 0.0000 44.3082 0.0000
# 6 0.0000 0.0000 0.0000 5.2301 0.0000 48.9692
#
#
#
# Elastic Compliance Matrix: (Units=1/GPa)
#
#
# Indices 1 2 3 4 5 6 
#
# 1 0.016695 -0.004400 0.005989 0.000000 -0.022230 0.000000
# 2 -0.004400 0.014093 -0.003141 0.000000 -0.003456 0.000000
# 3 0.005989 -0.003141 0.039983 0.000000 -0.041756 0.000000
# 4 0.000000 0.000000 0.000000 0.022420 0.000000 -0.002395
# 5 -0.022230 -0.003456 -0.041756 0.000000 0.091244 0.000000
# 6 0.000000 0.000000 0.000000 -0.002395 0.000000 0.020677
#
#
# Mechanical properties :
#
#
# Convention : Reuss Voigt Hill
#
# Bulk Modulus (GPa) = 14.77840 65.88306 40.33073
# Shear Modulus (GPa) = 21.66645 38.61433 30.14039
#
# Velocity S-wave (km/s) = 2.99556 3.99906 3.53312
# Velocity P-wave (km/s) = 4.25266 6.97204 5.77470
#
# Compressibility (1/GPa) = 0.06766633
#
# Stress axis : x y z
#
# Youngs Moduli (GPa) = 59.89691 70.95649 25.01085
#
# Poissons Ratio (x) = 0.31220 -0.14979
# Poissons Ratio (y) = 0.26354 0.07857
# Poissons Ratio (z) = -0.35872 0.22291
#
# Static dielectric constant tensor:
#      x y z
#    x 1.956080 0.000000 -0.020620 
#    y 0.000000 1.942050 0.000000 
#    z -0.020620 0.000000 1.971090 
# 
# From -- ./inp_files/5360.got.cif
#   From: 2010.05.17/outbox.cif.g08.bks.cpg/sg4_3_cif.got.tgz:5360.got - 2010.06.03 18:43:04.
