data_PCOD9116993
_publ_section_title
;
Structure prediction by ZEFSAII (Michael W. Deem and Ramdas Pophale) SiO2 
 PCOD9116993
Probable space group: P 21
;
_chemical_formula_sum "Si O2"
_cell_formula_units_Z 16
_cell_length_a 5.672838
_cell_length_b 12.703461
_cell_length_c 11.816899
_cell_angle_alpha 90.000000
_cell_angle_beta 52.094444
_cell_angle_gamma 90.000000
_cell_volume 671.918285
_symmetry_space_group_name_H-M "P 21"
_symmetry_group_IT_number 4
_symmetry_cell_setting 'monoclinic'
loop_
_space_group_symop_operation_xyz
x,y,z
-x,1/2+y,-z
loop_
_atom_site_type_symbol
_atom_site_label
_atom_site_fract_x
_atom_site_fract_y
_atom_site_fract_z
Si Si1 0.890366 0.160930 0.197598
Si Si2 0.653126 0.277448 0.977959
Si Si3 0.582504 0.837257 0.722741
Si Si4 0.421602 0.040005 0.641827
Si Si5 0.036165 0.666971 0.569857
Si Si6 0.907958 0.071111 0.966413
Si Si7 0.312534 0.354309 0.861387
Si Si8 0.379289 0.990795 0.400376
O O1 0.710663 0.268817 0.226885
O O2 0.652961 0.068595 0.289836
O O3 0.035048 0.169042 0.276085
O O4 0.055146 0.122265 0.036361
O O5 0.652395 0.154562 0.011648
O O6 0.511195 0.293657 0.896640
O O7 0.002766 0.311362 0.895958
O O8 0.456432 0.339412 0.129848
O O9 0.860940 0.772437 0.587279
O O10 0.574858 0.953425 0.676535
O O11 0.362443 0.982354 0.539870
O O12 0.617345 0.144572 0.558024
O O13 0.124352 0.068120 0.796398
O O14 0.891830 0.560784 0.563970
O O15 0.792448 0.957630 0.037050
O O16 0.537954 0.388388 0.694869
#
# Coordination Sequence:
#
# PCOD9116993 Si02
#       8
#     2   2   2   2   2   2   2   2
#     4   8  19  41  69  90 135 179 237 303 362 426
#     4  11  26  46  77 113 140 192 248 317 370 433
#     4  10  22  42  70 101 136 193 243 301 369 439
#     4  11  23  45  67 100 151 188 246 297 377 441
#     4  10  22  42  68  99 135 198 237 296 370 442
#     4  10  23  46  71 108 145 185 247 317 363 446
#     4  11  25  48  76 107 143 193 248 301 381 438
#     4   9  22  42  64  96 139 188 236 292 364 437
#
# _framework density 23.812418000000001
#
# number of rings (size 3 to 8) (size 9 to 14) (size 15 to 20)
#    0.000    2.000    1.250    0.750    8.750    3.000 
#   11.250    0.000    0.000    0.000    0.000    0.000 
#    0.000    0.000    0.000    0.000    0.000    0.000 
#
# Total GULP energy -89331.804904 kJ/mol
# GULP energy per Si atom -5583.237807 kJ/mol
# Density = 2.375822 g / cm^3
# Si number density = 23.812418 Si / 1000 Ang^3
#
#
#
# Elastic Constant Matrix: (Units=GPa)
#
#
# Indices 1 2 3 4 5 6 
#
# 1 73.5457 14.4959 20.8184 0.0000 -0.8126 0.0000
# 2 14.4959 60.1158 7.2327 0.0000 -4.6893 0.0000
# 3 20.8184 7.2327 143.1298 0.0000 5.5211 0.0000
# 4 0.0000 0.0000 0.0000 18.9059 0.0000 16.1939
# 5 -0.8126 -4.6893 5.5211 0.0000 13.0062 0.0000
# 6 0.0000 0.0000 0.0000 16.1939 0.0000 5.1261
#
#
#
# Elastic Compliance Matrix: (Units=1/GPa)
#
#
# Indices 1 2 3 4 5 6 
#
# 1 0.014821 -0.003285 -0.002013 0.000000 0.000596 0.000000
# 2 -0.003285 0.018023 -0.000687 0.000000 0.006584 0.000000
# 3 -0.002013 -0.000687 0.007451 0.000000 -0.003536 0.000000
# 4 0.000000 0.000000 0.000000 -0.031005 0.000000 0.097949
# 5 0.000596 0.006584 -0.003536 0.000000 0.080799 0.000000
# 6 0.000000 0.000000 0.000000 0.097949 0.000000 -0.114353
#
#
# Mechanical properties :
#
#
# Convention : Reuss Voigt Hill
#
# Bulk Modulus (GPa) = 35.30470 40.20946 37.75708
# Shear Modulus (GPa) = -1752.11807 23.02393 -864.54707
#
# Velocity S-wave (km/s) = -27.15506 3.11285 -19.07495
# Velocity P-wave (km/s) = 31.11814 5.46282 21.66213
#
# Compressibility (1/GPa) = 0.02832484
#
# Stress axis : x y z
#
# Youngs Moduli (GPa) = 67.47279 55.48472 134.21864
#
# Poissons Ratio (x) = 0.18228 0.27014
# Poissons Ratio (y) = 0.22166 0.09220
# Poissons Ratio (z) = 0.13580 0.03811
#
# Static dielectric constant tensor:
#      x y z
#    x 2.221570 0.000000 -0.213510 
#    y 0.000000 1.939690 0.000000 
#    z -0.213510 0.000000 2.052390 
# 
# From -- ./inp_files/10578.got.cif
#   From: 2010.05.17/outbox.cif.g08.bks.cpg/sg4_6_cif.got.tgz:10578.got - 2010.06.03 18:43:04.
