data_PCOD9116261
_publ_section_title
;
Structure prediction by ZEFSAII (Michael W. Deem and Ramdas Pophale) SiO2 
 PCOD9116261
Probable space group: P 21
;
_chemical_formula_sum "Si O2"
_cell_formula_units_Z 16
_cell_length_a 16.946905
_cell_length_b 8.699924
_cell_length_c 12.209054
_cell_angle_alpha 90.000000
_cell_angle_beta 22.305049
_cell_angle_gamma 90.000000
_cell_volume 683.192008
_symmetry_space_group_name_H-M "P 21"
_symmetry_group_IT_number 4
_symmetry_cell_setting 'monoclinic'
loop_
_space_group_symop_operation_xyz
x,y,z
-x,1/2+y,-z
loop_
_atom_site_type_symbol
_atom_site_label
_atom_site_fract_x
_atom_site_fract_y
_atom_site_fract_z
Si Si1 0.334057 0.738120 0.152106
Si Si2 0.468300 0.708751 0.586687
Si Si3 0.498628 0.919723 0.144519
Si Si4 0.088634 0.349517 0.028842
Si Si5 0.878592 0.070382 0.187697
Si Si6 0.861729 0.739476 0.793412
Si Si7 0.575511 0.441508 0.170841
Si Si8 0.689747 0.420619 0.376033
O O1 0.387764 0.804593 0.202659
O O2 0.088542 0.705645 0.454507
O O3 0.457226 0.582075 0.968999
O O4 0.397803 0.866763 0.982197
O O5 0.370584 0.806154 0.811270
O O6 0.510856 0.530826 0.551317
O O7 0.366285 0.755005 0.602661
O O8 0.700419 0.774686 0.285054
O O9 0.364850 0.946563 0.426395
O O10 0.713952 0.842296 0.907201
O O11 0.091178 0.329832 0.154465
O O12 0.921607 0.238684 0.182028
O O13 0.088006 0.522251 0.983227
O O14 0.662933 0.999905 0.508676
O O15 0.088077 0.975619 0.957133
O O16 0.731093 0.584879 0.985707
#
# Coordination Sequence:
#
# PCOD9116261 Si02
#       8
#     2   2   2   2   2   2   2   2
#     4  12  28  51  75 105 147 202 251 315 366 437
#     4  10  21  41  68 103 147 181 239 304 372 444
#     4  12  27  50  77 105 150 196 260 308 368 447
#     4  10  22  41  66 106 143 190 242 295 377 434
#     4  10  24  40  71 107 146 189 237 302 378 450
#     4  12  26  48  75 106 143 200 253 307 369 440
#     4  11  24  47  72 108 146 188 249 307 377 441
#     4  11  22  44  68 108 142 192 239 306 377 449
#
# _framework density 23.419477000000001
#
# number of rings (size 3 to 8) (size 9 to 14) (size 15 to 20)
#    0.000    1.000    2.500    3.750    5.250    1.000 
#    2.250    0.000    0.000    0.000    0.000    0.000 
#    0.000    0.000    0.000    0.000    0.000    0.000 
#
# Total GULP energy -89464.517648 kJ/mol
# GULP energy per Si atom -5591.532353 kJ/mol
# Density = 2.336617 g / cm^3
# Si number density = 23.419477 Si / 1000 Ang^3
#
#
#
# Elastic Constant Matrix: (Units=GPa)
#
#
# Indices 1 2 3 4 5 6 
#
# 1 116.3964 22.0114 38.4387 0.0000 -0.9234 0.0000
# 2 22.0114 120.3746 50.9352 0.0000 -0.2070 0.0000
# 3 38.4387 50.9352 146.5729 0.0000 -15.2951 0.0000
# 4 0.0000 0.0000 0.0000 37.1860 0.0000 3.2408
# 5 -0.9234 -0.2070 -15.2951 0.0000 31.9812 0.0000
# 6 0.0000 0.0000 0.0000 3.2408 0.0000 38.5341
#
#
#
# Elastic Compliance Matrix: (Units=1/GPa)
#
#
# Indices 1 2 3 4 5 6 
#
# 1 0.009492 -0.000758 -0.002313 0.000000 -0.000837 0.000000
# 2 -0.000758 0.009882 -0.003401 0.000000 -0.001584 0.000000
# 3 -0.002313 -0.003401 0.009053 0.000000 0.004241 0.000000
# 4 0.000000 0.000000 0.000000 0.027090 0.000000 -0.002278
# 5 -0.000837 -0.001584 0.004241 0.000000 0.033262 0.000000
# 6 0.000000 0.000000 0.000000 -0.002278 0.000000 0.026143
#
#
# Mechanical properties :
#
#
# Convention : Reuss Voigt Hill
#
# Bulk Modulus (GPa) = 64.58453 67.34608 65.96531
# Shear Modulus (GPa) = 37.58596 39.67081 38.62839
#
# Velocity S-wave (km/s) = 4.01047 4.12020 4.06570
# Velocity P-wave (km/s) = 7.00588 7.17311 7.08999
#
# Compressibility (1/GPa) = 0.01548358
#
# Stress axis : x y z
#
# Youngs Moduli (GPa) = 105.35210 101.19125 110.45520
#
# Poissons Ratio (x) = 0.07674 0.25549
# Poissons Ratio (y) = 0.07990 0.37561
# Poissons Ratio (z) = 0.24369 0.34411
#
# Static dielectric constant tensor:
#      x y z
#    x 1.993030 0.000000 -0.077190 
#    y 0.000000 1.978880 0.000000 
#    z -0.077190 0.000000 1.886630 
# 
# From -- ./inp_files/12899.got.cif
#   From: 2010.05.17/outbox.cif.g08.bks.cpg/sg4_7_cif.got.tgz:12899.got - 2010.06.03 18:43:04.
