data_PCOD9116536
_publ_section_title
;
Structure prediction by ZEFSAII (Michael W. Deem and Ramdas Pophale) SiO2 
 PCOD9116536
Probable space group: P 21
;
_chemical_formula_sum "Si O2"
_cell_formula_units_Z 16
_cell_length_a 15.971193
_cell_length_b 7.656520
_cell_length_c 12.402378
_cell_angle_alpha 90.000000
_cell_angle_beta 153.291393
_cell_angle_gamma 90.000000
_cell_volume 681.644941
_symmetry_space_group_name_H-M "P 21"
_symmetry_group_IT_number 4
_symmetry_cell_setting 'monoclinic'
loop_
_space_group_symop_operation_xyz
x,y,z
-x,1/2+y,-z
loop_
_atom_site_type_symbol
_atom_site_label
_atom_site_fract_x
_atom_site_fract_y
_atom_site_fract_z
Si Si1 0.982530 0.473150 0.836724
Si Si2 0.236186 0.982699 0.201528
Si Si3 0.284034 0.241012 0.701609
Si Si4 0.377150 0.332994 0.277401
Si Si5 0.113859 0.851346 0.493219
Si Si6 0.954380 0.303798 0.210207
Si Si7 0.694407 0.712904 0.041025
Si Si8 0.333699 0.795099 0.950944
O O1 0.942292 0.667842 0.749264
O O2 0.907257 0.444705 0.868348
O O3 0.886873 0.344831 0.638466
O O4 0.206601 0.468134 0.086207
O O5 0.427002 0.885970 0.448776
O O6 0.293621 0.181698 0.255797
O O7 0.147893 0.935617 0.985414
O O8 0.370200 0.286747 0.917387
O O9 0.120620 0.373015 0.477154
O O10 0.174597 0.055148 0.584509
O O11 0.453900 0.235366 0.813513
O O12 0.398905 0.274026 0.177560
O O13 0.241824 0.758045 0.728883
O O14 0.906121 0.784126 0.279307
O O15 0.798737 0.217729 0.108896
O O16 0.674200 0.503211 0.030316
#
# Coordination Sequence:
#
# PCOD9116536 Si02
#       8
#     2   2   2   2   2   2   2   2
#     4  10  24  44  69  98 133 186 232 281 343 419
#     4  12  25  44  70  99 139 181 235 280 350 414
#     4  10  23  42  70 103 137 185 234 288 353 430
#     4  11  25  45  68 100 137 183 230 290 340 414
#     4   9  21  43  67  98 144 181 228 290 356 413
#     4  11  23  46  69 102 140 185 223 298 352 418
#     4  10  21  47  67 102 145 180 234 293 357 417
#     4  11  22  43  70 108 139 183 234 292 357 423
#
# _framework density 23.472629999999999
#
# number of rings (size 3 to 8) (size 9 to 14) (size 15 to 20)
#    0.000    1.500    2.500    1.500    1.750    5.000 
#   20.250    0.000    0.000    0.000    0.000    0.000 
#    0.000    0.000    0.000    0.000    0.000    0.000 
#
# Total GULP energy -89305.325316 kJ/mol
# GULP energy per Si atom -5581.582832 kJ/mol
# Density = 2.341921 g / cm^3
# Si number density = 23.472630 Si / 1000 Ang^3
#
#
#
# Elastic Constant Matrix: (Units=GPa)
#
#
# Indices 1 2 3 4 5 6 
#
# 1 133.0694 6.4205 31.8412 0.0000 5.5535 0.0000
# 2 6.4205 42.1087 26.9494 0.0000 1.6536 0.0000
# 3 31.8412 26.9494 69.1295 0.0000 9.0177 0.0000
# 4 0.0000 0.0000 0.0000 26.3501 0.0000 4.7194
# 5 5.5535 1.6536 9.0177 0.0000 32.3639 0.0000
# 6 0.0000 0.0000 0.0000 4.7194 0.0000 15.9820
#
#
#
# Elastic Compliance Matrix: (Units=1/GPa)
#
#
# Indices 1 2 3 4 5 6 
#
# 1 0.008530 0.001601 -0.004515 0.000000 -0.000287 0.000000
# 2 0.001601 0.032055 -0.013474 0.000000 0.001842 0.000000
# 3 -0.004515 -0.013474 0.022422 0.000000 -0.004784 0.000000
# 4 0.000000 0.000000 0.000000 0.040070 0.000000 -0.011832
# 5 -0.000287 0.001842 -0.004784 0.000000 0.032187 0.000000
# 6 0.000000 0.000000 0.000000 -0.011832 0.000000 0.066064
#
#
# Mechanical properties :
#
#
# Convention : Reuss Voigt Hill
#
# Bulk Modulus (GPa) = 33.07994 41.63665 37.35829
# Shear Modulus (GPa) = 20.47655 26.87898 23.67776
#
# Velocity S-wave (km/s) = 2.95678 3.38763 3.17951
# Velocity P-wave (km/s) = 5.07743 5.75137 5.42488
#
# Compressibility (1/GPa) = 0.03022980
#
# Stress axis : x y z
#
# Youngs Moduli (GPa) = 117.23171 31.19659 44.59889
#
# Poissons Ratio (x) = -0.04993 0.20138
# Poissons Ratio (y) = -0.18763 0.60091
# Poissons Ratio (z) = 0.52936 0.42033
#
# Static dielectric constant tensor:
#      x y z
#    x 1.873780 0.000000 -0.073050 
#    y 0.000000 1.989450 0.000000 
#    z -0.073050 0.000000 2.311580 
# 
# From -- ./inp_files/12685.got.cif
#   From: 2010.05.17/outbox.cif.g08.bks.cpg/sg4_7_cif.got.tgz:12685.got - 2010.06.03 18:43:04.
