data_PCOD9116200
_publ_section_title
;
Structure prediction by ZEFSAII (Michael W. Deem and Ramdas Pophale) SiO2 
 PCOD9116200
Probable space group: P 21
;
_chemical_formula_sum "Si O2"
_cell_formula_units_Z 16
_cell_length_a 9.435470
_cell_length_b 9.140813
_cell_length_c 8.572547
_cell_angle_alpha 90.000000
_cell_angle_beta 60.579235
_cell_angle_gamma 90.000000
_cell_volume 644.012450
_symmetry_space_group_name_H-M "P 21"
_symmetry_group_IT_number 4
_symmetry_cell_setting 'monoclinic'
loop_
_space_group_symop_operation_xyz
x,y,z
-x,1/2+y,-z
loop_
_atom_site_type_symbol
_atom_site_label
_atom_site_fract_x
_atom_site_fract_y
_atom_site_fract_z
Si Si1 0.968897 0.293030 0.366752
Si Si2 0.118925 0.004345 0.810534
Si Si3 0.137827 0.002178 0.314227
Si Si4 0.977835 0.303998 0.850424
Si Si5 0.698137 0.122790 0.826781
Si Si6 0.461814 0.887570 0.985212
Si Si7 0.537975 0.363603 0.391846
Si Si8 0.295926 0.599150 0.545507
O O1 0.013711 0.432307 0.237516
O O2 0.856742 0.386789 0.546814
O O3 0.862475 0.188052 0.310383
O O4 0.094876 0.172976 0.367478
O O5 0.100949 0.178049 0.832450
O O6 0.302613 0.963962 0.663509
O O7 0.079258 0.912772 0.985347
O O8 0.303794 0.982845 0.126571
O O9 0.987738 0.920040 0.305531
O O10 0.830148 0.206757 0.858987
O O11 0.550032 0.238961 0.912612
O O12 0.737539 0.099307 0.623768
O O13 0.623329 0.976331 0.935012
O O14 0.464978 0.854082 0.796912
O O15 0.374957 0.443682 0.538022
O O16 0.567674 0.212699 0.464692
#
# Coordination Sequence:
#
# PCOD9116200 Si02
#       8
#     2   2   2   2   2   2   2   2
#     4  11  23  40  64  92 126 169 205 260 315 369
#     4  11  23  40  64  92 126 169 205 260 315 369
#     4  11  22  43  62  92 129 161 213 260 310 376
#     4  11  22  43  62  92 129 161 213 260 310 376
#     4  10  21  41  63  92 124 161 205 258 308 367
#     4  10  21  41  63  92 124 161 205 258 308 367
#     4  10  22  42  65  90 127 161 205 254 311 373
#     4  10  22  42  65  90 127 161 205 254 311 373
#
# _framework density 24.844242999999999
#
# number of rings (size 3 to 8) (size 9 to 14) (size 15 to 20)
#    0.000    1.500    5.000    1.500    0.000    3.000 
#    4.500    0.000    0.000    0.000    0.000    0.000 
#    0.000    0.000    0.000    0.000    0.000    0.000 
#
# Total GULP energy -89090.846171 kJ/mol
# GULP energy per Si atom -5568.177886 kJ/mol
# Density = 2.478770 g / cm^3
# Si number density = 24.844243 Si / 1000 Ang^3
#
#
#
# Elastic Constant Matrix: (Units=GPa)
#
#
# Indices 1 2 3 4 5 6 
#
# 1 34.9703 -1.0292 8.6974 0.0000 -7.2939 0.0000
# 2 -1.0292 89.1301 15.7099 0.0000 -6.8951 0.0000
# 3 8.6974 15.7099 55.7673 0.0000 1.1581 0.0000
# 4 0.0000 0.0000 0.0000 44.8970 0.0000 -9.0269
# 5 -7.2939 -6.8951 1.1581 0.0000 20.8872 0.0000
# 6 0.0000 0.0000 0.0000 -9.0269 0.0000 40.1071
#
#
#
# Elastic Compliance Matrix: (Units=1/GPa)
#
#
# Indices 1 2 3 4 5 6 
#
# 1 0.032799 0.002420 -0.006059 0.000000 0.012589 0.000000
# 2 0.002420 0.012343 -0.003961 0.000000 0.005140 0.000000
# 3 -0.006059 -0.003961 0.020087 0.000000 -0.004537 0.000000
# 4 0.000000 0.000000 0.000000 0.023329 0.000000 0.005251
# 5 0.012589 0.005140 -0.004537 0.000000 0.054221 0.000000
# 6 0.000000 0.000000 0.000000 0.005251 0.000000 0.026115
#
#
# Mechanical properties :
#
#
# Convention : Reuss Voigt Hill
#
# Bulk Modulus (GPa) = 19.98787 25.18044 22.58416
# Shear Modulus (GPa) = 24.90415 31.61088 28.25752
#
# Velocity S-wave (km/s) = 3.16952 3.57089 3.37618
# Velocity P-wave (km/s) = 4.63220 5.21143 4.93033
#
# Compressibility (1/GPa) = 0.05003034
#
# Stress axis : x y z
#
# Youngs Moduli (GPa) = 30.48836 81.01536 49.78415
#
# Poissons Ratio (x) = -0.19610 0.30162
# Poissons Ratio (y) = -0.07380 0.19722
# Poissons Ratio (z) = 0.18472 0.32094
#
# Static dielectric constant tensor:
#      x y z
#    x 2.093360 0.000000 0.023230 
#    y 0.000000 2.020930 0.000000 
#    z 0.023230 0.000000 2.045120 
# 
# From -- ./inp_files/7665.got.cif
#   From: 2010.05.17/outbox.cif.g08.bks.cpg/sg4_4_cif.got.tgz:7665.got - 2010.06.03 18:43:04.
