data_PCOD9116843
_publ_section_title
;
Structure prediction by ZEFSAII (Michael W. Deem and Ramdas Pophale) SiO2 
 PCOD9116843
Probable space group: P 21
;
_chemical_formula_sum "Si O2"
_cell_formula_units_Z 16
_cell_length_a 5.039863
_cell_length_b 22.802746
_cell_length_c 5.894744
_cell_angle_alpha 90.000000
_cell_angle_beta 83.648271
_cell_angle_gamma 90.000000
_cell_volume 673.281509
_symmetry_space_group_name_H-M "P 21"
_symmetry_group_IT_number 4
_symmetry_cell_setting 'monoclinic'
loop_
_space_group_symop_operation_xyz
x,y,z
-x,1/2+y,-z
loop_
_atom_site_type_symbol
_atom_site_label
_atom_site_fract_x
_atom_site_fract_y
_atom_site_fract_z
Si Si1 0.737703 0.605440 0.676096
Si Si2 0.821590 0.408835 0.277920
Si Si3 0.263089 0.796378 0.005005
Si Si4 0.755167 0.049843 0.526316
Si Si5 0.227096 0.241566 0.220700
Si Si6 0.619923 0.937283 0.302459
Si Si7 0.883075 0.830974 0.412229
Si Si8 0.660338 0.513860 0.051581
O O1 0.445294 0.587861 0.613326
O O2 0.763789 0.673409 0.725529
O O3 0.965681 0.583376 0.479780
O O4 0.781596 0.567066 0.898883
O O5 0.714807 0.360321 0.112518
O O6 0.601575 0.422505 0.488528
O O7 0.055081 0.376130 0.389360
O O8 0.871918 0.471552 0.158070
O O9 0.537644 0.761698 0.968146
O O10 0.048924 0.760993 0.870937
O O11 0.143094 0.805023 0.266265
O O12 0.571061 0.037223 0.760761
O O13 0.805382 0.987479 0.396498
O O14 0.267217 0.278376 0.450293
O O15 0.753425 0.874695 0.240330
O O16 0.480207 0.969073 0.108474
#
# Coordination Sequence:
#
# PCOD9116843 Si02
#       8
#     2   2   2   2   2   2   2   2
#     4  11  25  49  69  99 141 183 235 288 336 410
#     4  10  22  42  63 100 140 177 227 282 352 417
#     4  11  25  41  72 100 134 182 230 283 350 408
#     4  10  25  42  69  99 133 178 228 284 347 405
#     4  11  26  47  69 102 139 183 238 283 338 415
#     4  10  22  41  64  99 140 175 223 286 349 416
#     4  11  25  41  69 101 141 183 225 290 353 412
#     4  10  24  43  69 102 136 183 228 286 353 413
#
# _framework density 23.764206999999999
#
# number of rings (size 3 to 8) (size 9 to 14) (size 15 to 20)
#    0.000    1.500    1.250    1.500   10.500    5.000 
#    2.250    0.000    0.000    0.000    0.000    0.000 
#    0.000    0.000    0.000    0.000    0.000    0.000 
#
# Total GULP energy -89599.892653 kJ/mol
# GULP energy per Si atom -5599.993291 kJ/mol
# Density = 2.371012 g / cm^3
# Si number density = 23.764207 Si / 1000 Ang^3
#
#
#
# Elastic Constant Matrix: (Units=GPa)
#
#
# Indices 1 2 3 4 5 6 
#
# 1 65.5032 39.7014 6.1243 0.0000 -10.5826 0.0000
# 2 39.7014 202.3452 45.2227 0.0000 -9.4898 0.0000
# 3 6.1243 45.2227 83.2155 0.0000 -13.2537 0.0000
# 4 0.0000 0.0000 0.0000 25.4224 0.0000 -2.8797
# 5 -10.5826 -9.4898 -13.2537 0.0000 33.0777 0.0000
# 6 0.0000 0.0000 0.0000 -2.8797 0.0000 34.6867
#
#
#
# Elastic Compliance Matrix: (Units=1/GPa)
#
#
# Indices 1 2 3 4 5 6 
#
# 1 0.018211 -0.003657 0.001504 0.000000 0.005380 0.000000
# 2 -0.003657 0.006365 -0.003296 0.000000 -0.000664 0.000000
# 3 0.001504 -0.003296 0.014552 0.000000 0.005366 0.000000
# 4 0.000000 0.000000 0.000000 0.039709 0.000000 0.003297
# 5 0.005380 -0.000664 0.005366 0.000000 0.033913 0.000000
# 6 0.000000 0.000000 0.000000 0.003297 0.000000 0.029103
#
#
# Mechanical properties :
#
#
# Convention : Reuss Voigt Hill
#
# Bulk Modulus (GPa) = 35.42207 59.24006 47.33107
# Shear Modulus (GPa) = 30.83357 35.97173 33.40265
#
# Velocity S-wave (km/s) = 3.60596 3.89484 3.75318
# Velocity P-wave (km/s) = 5.68113 6.72375 6.22431
#
# Compressibility (1/GPa) = 0.02823099
#
# Stress axis : x y z
#
# Youngs Moduli (GPa) = 54.91039 157.10972 68.71892
#
# Poissons Ratio (x) = 0.57455 -0.10335
# Poissons Ratio (y) = 0.20081 0.22648
# Poissons Ratio (z) = -0.08258 0.51778
#
# Static dielectric constant tensor:
#      x y z
#    x 1.940620 0.000000 0.063280 
#    y 0.000000 1.851850 0.000000 
#    z 0.063280 0.000000 1.946690 
# 
# From -- ./inp_files/484.got.cif
#   From: 2010.05.17/outbox.cif.g08.bks.cpg/sg4_1_cif.got.tgz:484.got - 2010.06.03 18:43:04.
