data_PCOD9116763
_publ_section_title
;
Structure prediction by ZEFSAII (Michael W. Deem and Ramdas Pophale) SiO2 
 PCOD9116763
Probable space group: P 21
;
_chemical_formula_sum "Si O2"
_cell_formula_units_Z 12
_cell_length_a 22.425139
_cell_length_b 5.045016
_cell_length_c 9.373314
_cell_angle_alpha 90.000000
_cell_angle_beta 152.020623
_cell_angle_gamma 90.000000
_cell_volume 497.514825
_symmetry_space_group_name_H-M "P 21"
_symmetry_group_IT_number 4
_symmetry_cell_setting 'monoclinic'
loop_
_space_group_symop_operation_xyz
x,y,z
-x,1/2+y,-z
loop_
_atom_site_type_symbol
_atom_site_label
_atom_site_fract_x
_atom_site_fract_y
_atom_site_fract_z
Si Si1 0.512703 0.388500 0.689884
Si Si2 0.426345 0.399698 0.805439
Si Si3 0.272724 0.192228 0.722429
Si Si4 0.052940 0.419197 0.689741
Si Si5 0.290355 0.498877 0.021389
Si Si6 0.964664 0.362397 0.830890
O O1 0.426849 0.306247 0.643471
O O2 0.412942 0.364144 0.352535
O O3 0.638970 0.244250 0.901118
O O4 0.585706 0.637650 0.915241
O O5 0.303060 0.333035 0.637490
O O6 0.458971 0.708256 0.896556
O O7 0.182125 0.946974 0.500888
O O8 0.217267 0.361134 0.735742
O O9 0.038493 0.133107 0.581979
O O10 0.026320 0.386557 0.802365
O O11 0.190892 0.535256 0.938147
O O12 0.982047 0.081604 0.944871
#
# Coordination Sequence:
#
# PCOD9116763 Si02
#       6
#     2   2   2   2   2   2
#     4  11  24  43  68 110 140 191 235 304 375 435
#     4  10  22  40  66  96 136 180 227 277 357 426
#     4  11  24  47  70  99 147 188 238 310 363 444
#     4  12  27  51  80 109 149 205 253 315 377 440
#     4  12  24  44  74 105 150 184 251 301 375 446
#     4  12  29  51  74 109 146 200 256 307 373 445
#
# _framework density 24.119885
#
# number of rings (size 3 to 8) (size 9 to 14) (size 15 to 20)
#    0.000    0.667    5.000    2.000    4.667    0.000 
#    9.000    0.000    0.000    0.000    0.000    0.000 
#    0.000    0.000    0.000    0.000    0.000    0.000 
#
# Total GULP energy -66882.875125 kJ/mol
# GULP energy per Si atom -5573.572927 kJ/mol
# Density = 2.406499 g / cm^3
# Si number density = 24.119885 Si / 1000 Ang^3
#
#
#
# Elastic Constant Matrix: (Units=GPa)
#
#
# Indices 1 2 3 4 5 6 
#
# 1 166.7386 -1.8038 14.8192 0.0000 7.8410 0.0000
# 2 -1.8038 45.6443 -4.1987 0.0000 -3.4712 0.0000
# 3 14.8192 -4.1987 77.5105 0.0000 5.0177 0.0000
# 4 0.0000 0.0000 0.0000 42.4890 0.0000 -3.6158
# 5 7.8410 -3.4712 5.0177 0.0000 26.4294 0.0000
# 6 0.0000 0.0000 0.0000 -3.6158 0.0000 22.9923
#
#
#
# Elastic Compliance Matrix: (Units=1/GPa)
#
#
# Indices 1 2 3 4 5 6 
#
# 1 0.006169 0.000022 -0.001073 0.000000 -0.001624 0.000000
# 2 0.000022 0.022210 0.001023 0.000000 0.002716 0.000000
# 3 -0.001073 0.001023 0.013296 0.000000 -0.002072 0.000000
# 4 0.000000 0.000000 0.000000 0.023855 0.000000 0.003751
# 5 -0.001624 0.002716 -0.002072 0.000000 0.039068 0.000000
# 6 0.000000 0.000000 0.000000 0.003751 0.000000 0.044083
#
#
# Mechanical properties :
#
#
# Convention : Reuss Voigt Hill
#
# Bulk Modulus (GPa) = 24.02769 34.16963 29.09866
# Shear Modulus (GPa) = 30.74813 37.12059 33.93436
#
# Velocity S-wave (km/s) = 3.57431 3.92727 3.75494
# Velocity P-wave (km/s) = 5.19785 5.89593 5.55786
#
# Compressibility (1/GPa) = 0.04161865
#
# Stress axis : x y z
#
# Youngs Moduli (GPa) = 162.09060 45.02459 75.20952
#
# Poissons Ratio (x) = -0.00097 0.08072
# Poissons Ratio (y) = -0.00350 -0.07695
# Poissons Ratio (z) = 0.17396 -0.04607
#
# Static dielectric constant tensor:
#      x y z
#    x 2.100970 0.000000 -0.002190 
#    y 0.000000 2.116810 0.000000 
#    z -0.002190 0.000000 1.988220 
# 
# From -- ./inp_files/7113.got.cif
#   From: 2010.05.17/outbox.cif.g08.bks.cpg/sg4_4_cif.got.tgz:7113.got - 2010.06.03 18:43:04.
