data_PCOD9116389
_publ_section_title
;
Structure prediction by ZEFSAII (Michael W. Deem and Ramdas Pophale) SiO2 
 PCOD9116389
Probable space group: P 21
;
_chemical_formula_sum "Si O2"
_cell_formula_units_Z 16
_cell_length_a 7.400466
_cell_length_b 8.783973
_cell_length_c 9.929197
_cell_angle_alpha 90.000000
_cell_angle_beta 87.081123
_cell_angle_gamma 90.000000
_cell_volume 644.614964
_symmetry_space_group_name_H-M "P 21"
_symmetry_group_IT_number 4
_symmetry_cell_setting 'monoclinic'
loop_
_space_group_symop_operation_xyz
x,y,z
-x,1/2+y,-z
loop_
_atom_site_type_symbol
_atom_site_label
_atom_site_fract_x
_atom_site_fract_y
_atom_site_fract_z
Si Si1 0.713955 0.740850 0.171062
Si Si2 0.342634 0.963498 0.018167
Si Si3 0.907792 0.185164 0.189970
Si Si4 0.391426 0.772444 0.372254
Si Si5 0.503469 0.729759 0.818382
Si Si6 0.036677 0.431271 0.013471
Si Si7 0.331401 0.415620 0.423572
Si Si8 0.014057 0.393943 0.635303
O O1 0.516733 0.781678 0.234521
O O2 0.791477 0.847431 0.052212
O O3 0.192003 0.843150 0.374863
O O4 0.705005 0.573571 0.108656
O O5 0.416696 0.073862 0.128709
O O6 0.147983 0.896903 0.061857
O O7 0.461622 0.834387 0.948238
O O8 0.696724 0.202573 0.233972
O O9 0.979779 0.061222 0.293555
O O10 0.997548 0.350383 0.158791
O O11 0.927049 0.102994 0.040608
O O12 0.370209 0.592903 0.398769
O O13 0.517440 0.854055 0.477694
O O14 0.863957 0.774754 0.281002
O O15 0.631684 0.815881 0.710217
O O16 0.131386 0.401165 0.493780
#
# Coordination Sequence:
#
# PCOD9116389 Si02
#       8
#     2   2   2   2   2   2   2   2
#     4  10  22  47  70 110 153 195 241 312 372 452
#     4  11  24  45  74 109 156 200 243 321 379 465
#     4  10  22  44  72 110 154 201 249 318 374 464
#     4  11  25  51  81 106 156 201 256 323 385 444
#     4  11  26  47  77 113 154 201 261 308 396 458
#     4  10  21  43  65 106 156 193 242 301 384 441
#     4  11  25  54  76 115 147 205 263 321 376 463
#     4  10  25  47  79 109 152 200 259 320 380 449
#
# _framework density 24.821019
#
# number of rings (size 3 to 8) (size 9 to 14) (size 15 to 20)
#    0.000    1.500    2.500    0.750    3.500    6.000 
#   20.250    0.000    0.000    0.000    0.000    0.000 
#    0.000    0.000    0.000    0.000    0.000    0.000 
#
# Total GULP energy -89478.670680 kJ/mol
# GULP energy per Si atom -5592.416918 kJ/mol
# Density = 2.476453 g / cm^3
# Si number density = 24.821019 Si / 1000 Ang^3
#
#
#
# Elastic Constant Matrix: (Units=GPa)
#
#
# Indices 1 2 3 4 5 6 
#
# 1 173.1520 33.6925 47.5306 0.0000 -36.8129 0.0000
# 2 33.6925 119.7765 27.5150 0.0000 -11.6532 0.0000
# 3 47.5306 27.5150 77.6834 0.0000 -28.0510 0.0000
# 4 0.0000 0.0000 0.0000 36.8209 0.0000 -0.5095
# 5 -36.8129 -11.6532 -28.0510 0.0000 37.3425 0.0000
# 6 0.0000 0.0000 0.0000 -0.5095 0.0000 39.0370
#
#
#
# Elastic Compliance Matrix: (Units=1/GPa)
#
#
# Indices 1 2 3 4 5 6 
#
# 1 0.007833 -0.001113 -0.002382 0.000000 0.005586 0.000000
# 2 -0.001113 0.009255 -0.002677 0.000000 -0.000219 0.000000
# 3 -0.002382 -0.002677 0.019387 0.000000 0.011380 0.000000
# 4 0.000000 0.000000 0.000000 0.027163 0.000000 0.000355
# 5 0.005586 -0.000219 0.011380 0.000000 0.040766 0.000000
# 6 0.000000 0.000000 0.000000 0.000355 0.000000 0.025621
#
#
# Mechanical properties :
#
#
# Convention : Reuss Voigt Hill
#
# Bulk Modulus (GPa) = 41.43533 65.34312 53.38922
# Shear Modulus (GPa) = 33.24176 40.09832 36.67004
#
# Velocity S-wave (km/s) = 3.66356 4.02369 3.84784
# Velocity P-wave (km/s) = 5.88434 6.92601 6.42631
#
# Compressibility (1/GPa) = 0.02413400
#
# Stress axis : x y z
#
# Youngs Moduli (GPa) = 127.66311 108.04462 51.58010
#
# Poissons Ratio (x) = 0.12024 0.12284
# Poissons Ratio (y) = 0.14208 0.13806
# Poissons Ratio (z) = 0.30403 0.28918
#
# Static dielectric constant tensor:
#      x y z
#    x 1.996570 0.000000 0.037360 
#    y 0.000000 1.967210 0.000000 
#    z 0.037360 0.000000 2.042300 
# 
# From -- ./inp_files/10939.got.cif
#   From: 2010.05.17/outbox.cif.g08.bks.cpg/sg4_6_cif.got.tgz:10939.got - 2010.06.03 18:43:04.
