data_PCOD9116891
_publ_section_title
;
Structure prediction by ZEFSAII (Michael W. Deem and Ramdas Pophale) SiO2 
 PCOD9116891
Probable space group: P 21
;
_chemical_formula_sum "Si O2"
_cell_formula_units_Z 16
_cell_length_a 5.188183
_cell_length_b 19.914620
_cell_length_c 6.448344
_cell_angle_alpha 90.000000
_cell_angle_beta 78.145378
_cell_angle_gamma 90.000000
_cell_volume 652.037640
_symmetry_space_group_name_H-M "P 21"
_symmetry_group_IT_number 4
_symmetry_cell_setting 'monoclinic'
loop_
_space_group_symop_operation_xyz
x,y,z
-x,1/2+y,-z
loop_
_atom_site_type_symbol
_atom_site_label
_atom_site_fract_x
_atom_site_fract_y
_atom_site_fract_z
Si Si1 0.436850 0.231810 0.419252
Si Si2 0.983630 0.685423 0.191149
Si Si3 0.357699 0.360563 0.158314
Si Si4 0.336832 0.125799 0.073922
Si Si5 0.540871 0.511525 0.646105
Si Si6 0.684415 0.127407 0.604692
Si Si7 0.097906 0.829383 0.102193
Si Si8 0.921590 0.931991 0.449689
O O1 0.368718 0.180327 0.247209
O O2 0.694623 0.197173 0.474881
O O3 0.248545 0.225390 0.650531
O O4 0.430086 0.303768 0.317859
O O5 0.026199 0.624986 0.351171
O O6 0.163569 0.750253 0.109534
O O7 0.937816 0.644854 0.987892
O O8 0.239953 0.421239 0.311965
O O9 0.131410 0.337186 0.033953
O O10 0.637467 0.370102 0.001334
O O11 0.389839 0.053021 0.158410
O O12 0.530502 0.135146 0.846963
O O13 0.440790 0.568144 0.500710
O O14 0.283738 0.463842 0.682739
O O15 0.810895 0.472872 0.551308
O O16 0.008804 0.861790 0.333338
#
# Coordination Sequence:
#
# PCOD9116891 Si02
#       8
#     2   2   2   2   2   2   2   2
#     4  10  22  41  68 111 149 185 232 306 383 436
#     4  11  23  41  76 113 152 183 247 310 388 445
#     4  12  26  47  77 110 150 193 245 307 381 443
#     4  10  23  44  69 110 141 193 239 311 368 443
#     4  11  28  48  77 102 150 204 253 300 372 435
#     4  10  25  41  72 107 146 192 243 305 369 448
#     4  12  27  46  78 116 146 194 247 312 382 447
#     4  12  28  52  73 107 152 202 254 309 359 451
#
# _framework density 24.538457999999999
#
# number of rings (size 3 to 8) (size 9 to 14) (size 15 to 20)
#    0.000    1.000    2.500    2.250   10.500    5.000 
#    0.000    0.000    0.000    0.000    0.000    0.000 
#    0.000    0.000    0.000    0.000    0.000    0.000 
#
# Total GULP energy -89276.530542 kJ/mol
# GULP energy per Si atom -5579.783159 kJ/mol
# Density = 2.448261 g / cm^3
# Si number density = 24.538458 Si / 1000 Ang^3
#
#
#
# Elastic Constant Matrix: (Units=GPa)
#
#
# Indices 1 2 3 4 5 6 
#
# 1 82.2350 31.2330 12.4934 0.0000 6.0798 0.0000
# 2 31.2330 77.3190 6.8297 0.0000 16.8195 0.0000
# 3 12.4934 6.8297 74.6289 0.0000 6.8275 0.0000
# 4 0.0000 0.0000 0.0000 26.9937 0.0000 -0.3804
# 5 6.0798 16.8195 6.8275 0.0000 46.3834 0.0000
# 6 0.0000 0.0000 0.0000 -0.3804 0.0000 30.6340
#
#
#
# Elastic Compliance Matrix: (Units=1/GPa)
#
#
# Indices 1 2 3 4 5 6 
#
# 1 0.014643 -0.005849 -0.001961 0.000000 0.000490 0.000000
# 2 -0.005849 0.016428 -0.000050 0.000000 -0.005183 0.000000
# 3 -0.001961 -0.000050 0.013894 0.000000 -0.001770 0.000000
# 4 0.000000 0.000000 0.000000 0.037052 0.000000 0.000460
# 5 0.000490 -0.005183 -0.001770 0.000000 0.023635 0.000000
# 6 0.000000 0.000000 0.000000 0.000460 0.000000 0.032649
#
#
# Mechanical properties :
#
#
# Convention : Reuss Voigt Hill
#
# Bulk Modulus (GPa) = 34.19241 37.25499 35.72370
# Shear Modulus (GPa) = 30.53060 33.04402 31.78731
#
# Velocity S-wave (km/s) = 3.53114 3.67362 3.60308
# Velocity P-wave (km/s) = 5.53080 5.76274 5.64796
#
# Compressibility (1/GPa) = 0.02924626
#
# Stress axis : x y z
#
# Youngs Moduli (GPa) = 68.29089 60.87217 71.97123
#
# Poissons Ratio (x) = 0.35601 0.14113
# Poissons Ratio (y) = 0.39940 0.00361
# Poissons Ratio (z) = 0.13392 0.00305
#
# Static dielectric constant tensor:
#      x y z
#    x 2.474400 0.000000 0.000560 
#    y 0.000000 1.970970 0.000000 
#    z 0.000560 0.000000 1.944700 
# 
# From -- ./inp_files/755.got.cif
#   From: 2010.05.17/outbox.cif.g08.bks.cpg/sg4_1_cif.got.tgz:755.got - 2010.06.03 18:43:04.
