data_PCOD9116221
_publ_section_title
;
Structure prediction by ZEFSAII (Michael W. Deem and Ramdas Pophale) SiO2 
 PCOD9116221
Probable space group: P 21
;
_chemical_formula_sum "Si O2"
_cell_formula_units_Z 16
_cell_length_a 13.557294
_cell_length_b 8.466161
_cell_length_c 15.901443
_cell_angle_alpha 90.000000
_cell_angle_beta 26.057316
_cell_angle_gamma 90.000000
_cell_volume 801.729117
_symmetry_space_group_name_H-M "P 21"
_symmetry_group_IT_number 4
_symmetry_cell_setting 'monoclinic'
loop_
_space_group_symop_operation_xyz
x,y,z
-x,1/2+y,-z
loop_
_atom_site_type_symbol
_atom_site_label
_atom_site_fract_x
_atom_site_fract_y
_atom_site_fract_z
Si Si1 0.810133 0.298420 0.583990
Si Si2 0.601893 0.003373 0.130385
Si Si3 0.671675 0.852538 0.429827
Si Si4 0.404336 0.496171 0.337514
Si Si5 0.537413 0.493458 0.576935
Si Si6 0.984085 0.934261 0.719995
Si Si7 0.200062 0.848331 0.056026
Si Si8 0.977015 0.281035 0.642794
O O1 0.646193 0.450867 0.708051
O O2 0.018123 0.332085 0.362869
O O3 0.878210 0.262398 0.626302
O O4 0.680878 0.158396 0.636340
O O5 0.604859 0.979777 0.228254
O O6 0.672947 0.182448 0.056856
O O7 0.781314 0.905787 0.938520
O O8 0.598774 0.974553 0.559447
O O9 0.579750 0.678757 0.524541
O O10 0.942816 0.843226 0.221812
O O11 0.577203 0.909904 0.413725
O O12 0.219401 0.363968 0.451969
O O13 0.648062 0.467515 0.112171
O O14 0.779964 0.416856 0.412263
O O15 0.988497 0.113805 0.681558
O O16 0.176191 0.880938 0.174326
#
# Coordination Sequence:
#
# PCOD9116221 Si02
#       8
#     2   2   2   2   2   2   2   2
#     4  11  24  35  63 101 121 167 217 255 311 373
#     4  10  21  42  63  88 130 165 205 259 315 377
#     4  11  24  41  66  94 120 167 207 259 324 374
#     4  11  22  42  61  90 135 161 205 271 310 372
#     4  11  22  42  65  92 121 165 210 254 322 377
#     4  10  21  44  64  86 131 169 203 262 319 367
#     4  10  21  43  63  85 128 169 204 257 325 370
#     4  10  21  41  65  88 124 173 213 255 318 368
#
# _framework density 19.956866000000002
#
# number of rings (size 3 to 8) (size 9 to 14) (size 15 to 20)
#    0.000    1.500    5.000    1.500    3.500    6.000 
#    0.000    0.000    0.000    0.000    0.000    0.000 
#    0.000    0.000    0.000    0.000    0.000    0.000 
#
# Total GULP energy -89300.228114 kJ/mol
# GULP energy per Si atom -5581.264257 kJ/mol
# Density = 1.991144 g / cm^3
# Si number density = 19.956866 Si / 1000 Ang^3
#
#
#
# Elastic Constant Matrix: (Units=GPa)
#
#
# Indices 1 2 3 4 5 6 
#
# 1 134.0176 20.5002 40.5239 0.0000 24.6222 0.0000
# 2 20.5002 18.1790 16.2317 0.0000 2.6186 0.0000
# 3 40.5239 16.2317 136.6632 0.0000 31.2754 0.0000
# 4 0.0000 0.0000 0.0000 23.5425 0.0000 -0.1877
# 5 24.6222 2.6186 31.2754 0.0000 19.3088 0.0000
# 6 0.0000 0.0000 0.0000 -0.1877 0.0000 21.9407
#
#
#
# Elastic Compliance Matrix: (Units=1/GPa)
#
#
# Indices 1 2 3 4 5 6 
#
# 1 0.011824 -0.012497 0.001654 0.000000 -0.016062 0.000000
# 2 -0.012497 0.075119 -0.010379 0.000000 0.022560 0.000000
# 3 0.001654 -0.010379 0.013062 0.000000 -0.021858 0.000000
# 4 0.000000 0.000000 0.000000 0.042479 0.000000 0.000363
# 5 -0.016062 0.022560 -0.021858 0.000000 0.104617 0.000000
# 6 0.000000 0.000000 0.000000 0.000363 0.000000 0.045581
#
#
# Mechanical properties :
#
#
# Convention : Reuss Voigt Hill
#
# Bulk Modulus (GPa) = 17.37307 49.26349 33.31828
# Shear Modulus (GPa) = 14.11182 27.06534 20.58858
#
# Velocity S-wave (km/s) = 2.66205 3.68665 3.21542
# Velocity P-wave (km/s) = 4.26297 6.54678 5.52419
#
# Compressibility (1/GPa) = 0.05756034
#
# Stress axis : x y z
#
# Youngs Moduli (GPa) = 84.57236 13.31228 76.55870
#
# Poissons Ratio (x) = 0.16636 -0.12662
# Poissons Ratio (y) = 1.05690 0.79461
# Poissons Ratio (z) = -0.13988 0.13817
#
# Static dielectric constant tensor:
#      x y z
#    x 1.671420 0.000000 0.014930 
#    y 0.000000 1.770370 0.000000 
#    z 0.014930 0.000000 1.720030 
# 
# From -- ./inp_files/12553.got.cif
#   From: 2010.05.17/outbox.cif.g08.bks.cpg/sg4_7_cif.got.tgz:12553.got - 2010.06.03 18:43:04.
