data_PCOD9116472
_publ_section_title
;
Structure prediction by ZEFSAII (Michael W. Deem and Ramdas Pophale) SiO2 
 PCOD9116472
Probable space group: P 21
;
_chemical_formula_sum "Si O2"
_cell_formula_units_Z 14
_cell_length_a 16.621057
_cell_length_b 7.817944
_cell_length_c 6.253943
_cell_angle_alpha 90.000000
_cell_angle_beta 137.742575
_cell_angle_gamma 90.000000
_cell_volume 546.478815
_symmetry_space_group_name_H-M "P 21"
_symmetry_group_IT_number 4
_symmetry_cell_setting 'monoclinic'
loop_
_space_group_symop_operation_xyz
x,y,z
-x,1/2+y,-z
loop_
_atom_site_type_symbol
_atom_site_label
_atom_site_fract_x
_atom_site_fract_y
_atom_site_fract_z
Si Si1 0.698106 0.543500 0.327647
Si Si2 0.824496 0.115365 0.665531
Si Si3 0.295995 0.338187 0.343842
Si Si4 0.940171 0.581538 0.623765
Si Si5 0.347284 0.814144 0.421698
Si Si6 0.553356 0.631036 0.649773
Si Si7 0.111510 0.457137 0.615853
O O1 0.740992 0.664773 0.604867
O O2 0.818855 0.485832 0.448200
O O3 0.617596 0.394267 0.275509
O O4 0.622898 0.650987 0.010076
O O5 0.786146 0.261211 0.764284
O O6 0.717313 0.981390 0.501926
O O7 0.836967 0.105889 0.434843
O O8 0.954288 0.053138 0.999351
O O9 0.415285 0.280447 0.457210
O O10 0.203734 0.396695 0.979948
O O11 0.912079 0.783192 0.560210
O O12 0.993080 0.522410 0.501853
O O13 0.416558 0.655048 0.451688
O O14 0.385854 0.964853 0.336788
#
# Coordination Sequence:
#
# PCOD9116472 Si02
#       7
#     2   2   2   2   2   2   2
#     4  11  25  43  73  99 139 184 230 290 353 417
#     4  11  25  41  67 103 141 180 233 283 347 423
#     4  10  21  44  68  98 130 187 222 286 349 413
#     4  11  26  40  69 101 141 185 231 286 353 414
#     4  11  28  43  73 101 136 183 235 289 353 423
#     4  11  24  48  70 100 139 176 236 293 352 411
#     4  11  25  41  68  98 144 183 231 287 345 417
#
# _framework density 25.618558
#
# number of rings (size 3 to 8) (size 9 to 14) (size 15 to 20)
#    0.000    1.143    2.857    0.857    8.000    5.714 
#    0.000    0.000    0.000    0.000    0.000    0.000 
#    0.000    0.000    0.000    0.000    0.000    0.000 
#
# Total GULP energy -78075.168498 kJ/mol
# GULP energy per Si atom -5576.797750 kJ/mol
# Density = 2.556025 g / cm^3
# Si number density = 25.618558 Si / 1000 Ang^3
#
#
#
# Elastic Constant Matrix: (Units=GPa)
#
#
# Indices 1 2 3 4 5 6 
#
# 1 204.3224 37.9004 30.0767 0.0000 -10.7482 0.0000
# 2 37.9004 98.1526 -3.4967 0.0000 -14.3861 0.0000
# 3 30.0767 -3.4967 44.1693 0.0000 -14.1845 0.0000
# 4 0.0000 0.0000 0.0000 12.1920 0.0000 -2.7805
# 5 -10.7482 -14.3861 -14.1845 0.0000 27.3354 0.0000
# 6 0.0000 0.0000 0.0000 -2.7805 0.0000 48.7515
#
#
#
# Elastic Compliance Matrix: (Units=1/GPa)
#
#
# Indices 1 2 3 4 5 6 
#
# 1 0.006028 -0.002730 -0.004825 0.000000 -0.001570 0.000000
# 2 -0.002730 0.012689 0.005596 0.000000 0.008508 0.000000
# 3 -0.004825 0.005596 0.032045 0.000000 0.017676 0.000000
# 4 0.000000 0.000000 0.000000 0.083102 0.000000 0.004740
# 5 -0.001570 0.008508 0.017676 0.000000 0.049615 0.000000
# 6 0.000000 0.000000 0.000000 0.004740 0.000000 0.020782
#
#
# Mechanical properties :
#
#
# Convention : Reuss Voigt Hill
#
# Bulk Modulus (GPa) = 21.34775 52.84503 37.09639
# Shear Modulus (GPa) = 22.34186 36.46671 29.40428
#
# Velocity S-wave (km/s) = 2.95633 3.77696 3.39155
# Velocity P-wave (km/s) = 4.47261 6.30023 5.46338
#
# Compressibility (1/GPa) = 0.04684335
#
# Stress axis : x y z
#
# Youngs Moduli (GPa) = 165.88502 78.81061 31.20581
#
# Poissons Ratio (x) = 0.21514 0.15058
# Poissons Ratio (y) = 0.45283 -0.17462
# Poissons Ratio (z) = 0.80044 -0.44099
#
# Static dielectric constant tensor:
#      x y z
#    x 2.002830 0.000000 -0.014370 
#    y 0.000000 2.238790 0.000000 
#    z -0.014370 0.000000 1.971900 
# 
# From -- ./inp_files/2403.got.cif
#   From: 2010.05.17/outbox.cif.g08.bks.cpg/sg4_2_cif.got.tgz:2403.got - 2010.06.03 18:43:04.
