data_PCOD9116243
_publ_section_title
;
Structure prediction by ZEFSAII (Michael W. Deem and Ramdas Pophale) SiO2 
 PCOD9116243
Probable space group: P 21
;
_chemical_formula_sum "Si O2"
_cell_formula_units_Z 14
_cell_length_a 5.627692
_cell_length_b 11.336482
_cell_length_c 9.111090
_cell_angle_alpha 90.000000
_cell_angle_beta 71.901409
_cell_angle_gamma 90.000000
_cell_volume 552.512057
_symmetry_space_group_name_H-M "P 21"
_symmetry_group_IT_number 4
_symmetry_cell_setting 'monoclinic'
loop_
_space_group_symop_operation_xyz
x,y,z
-x,1/2+y,-z
loop_
_atom_site_type_symbol
_atom_site_label
_atom_site_fract_x
_atom_site_fract_y
_atom_site_fract_z
Si Si1 0.486895 0.413660 0.017052
Si Si2 0.055250 0.764035 0.102767
Si Si3 0.193821 0.548990 0.281960
Si Si4 0.829789 0.629399 0.910825
Si Si5 0.267871 0.468832 0.759463
Si Si6 0.576802 0.154368 0.508456
Si Si7 0.886711 0.669603 0.564803
O O1 0.681030 0.309689 0.010619
O O2 0.634411 0.537345 0.009904
O O3 0.447554 0.418470 0.848937
O O4 0.264253 0.432907 0.177532
O O5 0.097189 0.647183 0.187547
O O6 0.935388 0.866018 0.227503
O O7 0.863303 0.742292 0.005900
O O8 0.430501 0.602792 0.326789
O O9 0.983204 0.554196 0.452140
O O10 0.786597 0.647449 0.746785
O O11 0.101813 0.569060 0.869850
O O12 0.387189 0.538861 0.602475
O O13 0.338218 0.220393 0.489151
O O14 0.838709 0.226985 0.461205
#
# Coordination Sequence:
#
# PCOD9116243 Si02
#       7
#     2   2   2   2   2   2   2
#     4  11  23  41  69 100 136 185 237 293 351 423
#     4  11  25  39  69 108 134 187 242 290 352 427
#     4  10  24  40  71 101 139 182 232 296 354 412
#     4  10  21  42  68  93 141 177 233 287 354 405
#     4  10  21  41  66  99 135 187 232 289 347 423
#     4   9  20  40  70  94 133 183 226 283 359 407
#     4   9  20  39  71  95 128 187 224 278 359 413
#
# _framework density 25.338812999999998
#
# number of rings (size 3 to 8) (size 9 to 14) (size 15 to 20)
#    0.857    1.143    2.857    0.000    4.000    0.000 
#    0.000    2.857    0.000    0.000    0.000    0.000 
#    0.000    0.000    0.000    0.000    0.000    0.000 
#
# Total GULP energy -78064.556186 kJ/mol
# GULP energy per Si atom -5576.039728 kJ/mol
# Density = 2.528114 g / cm^3
# Si number density = 25.338813 Si / 1000 Ang^3
#
#
#
# Elastic Constant Matrix: (Units=GPa)
#
#
# Indices 1 2 3 4 5 6 
#
# 1 116.8756 0.6511 17.8838 0.0000 19.9041 0.0000
# 2 0.6511 60.9118 28.8299 0.0000 -5.6420 0.0000
# 3 17.8838 28.8299 135.2131 0.0000 6.2603 0.0000
# 4 0.0000 0.0000 0.0000 22.3102 0.0000 -7.8237
# 5 19.9041 -5.6420 6.2603 0.0000 44.2094 0.0000
# 6 0.0000 0.0000 0.0000 -7.8237 0.0000 34.4973
#
#
#
# Elastic Compliance Matrix: (Units=1/GPa)
#
#
# Indices 1 2 3 4 5 6 
#
# 1 0.009414 0.000023 -0.001061 0.000000 -0.004085 0.000000
# 2 0.000023 0.018637 -0.004113 0.000000 0.002951 0.000000
# 3 -0.001061 -0.004113 0.008471 0.000000 -0.001247 0.000000
# 4 0.000000 0.000000 0.000000 0.048695 0.000000 0.011044
# 5 -0.004085 0.002951 -0.001247 0.000000 0.025012 0.000000
# 6 0.000000 0.000000 0.000000 0.011044 0.000000 0.031492
#
#
# Mechanical properties :
#
#
# Convention : Reuss Voigt Hill
#
# Bulk Modulus (GPa) = 38.13954 45.30336 41.72145
# Shear Modulus (GPa) = 31.10147 37.91242 34.50695
#
# Velocity S-wave (km/s) = 3.50726 3.87230 3.69429
# Velocity P-wave (km/s) = 5.61121 6.15717 5.89052
#
# Compressibility (1/GPa) = 0.02621951
#
# Stress axis : x y z
#
# Youngs Moduli (GPa) = 106.22433 53.65628 118.05202
#
# Poissons Ratio (x) = -0.00124 0.12524
# Poissons Ratio (y) = -0.00245 0.48560
# Poissons Ratio (z) = 0.11270 0.22071
#
# Static dielectric constant tensor:
#      x y z
#    x 2.131420 0.000000 -0.006270 
#    y 0.000000 2.006240 0.000000 
#    z -0.006270 0.000000 2.018290 
# 
# From -- ./inp_files/4537.got.cif
#   From: 2010.05.17/outbox.cif.g08.bks.cpg/sg4_3_cif.got.tgz:4537.got - 2010.06.03 18:43:04.
