data_PCOD9116634
_publ_section_title
;
Structure prediction by ZEFSAII (Michael W. Deem and Ramdas Pophale) SiO2 
 PCOD9116634
Probable space group: P 21
;
_chemical_formula_sum "Si O2"
_cell_formula_units_Z 16
_cell_length_a 16.649277
_cell_length_b 4.935969
_cell_length_c 9.973571
_cell_angle_alpha 90.000000
_cell_angle_beta 128.399472
_cell_angle_gamma 90.000000
_cell_volume 642.344307
_symmetry_space_group_name_H-M "P 21"
_symmetry_group_IT_number 4
_symmetry_cell_setting 'monoclinic'
loop_
_space_group_symop_operation_xyz
x,y,z
-x,1/2+y,-z
loop_
_atom_site_type_symbol
_atom_site_label
_atom_site_fract_x
_atom_site_fract_y
_atom_site_fract_z
Si Si1 0.387158 0.873430 0.773599
Si Si2 0.094876 0.295680 0.472689
Si Si3 0.959111 0.794455 0.285450
Si Si4 0.517906 0.957181 0.429676
Si Si5 0.271594 0.231770 0.457365
Si Si6 0.624411 0.882003 0.063461
Si Si7 0.795936 0.767851 0.902848
Si Si8 0.312303 0.751330 0.098487
O O1 0.320549 0.969824 0.580463
O O2 0.374922 0.566491 0.804332
O O3 0.357408 0.077137 0.866956
O O4 0.509507 0.902769 0.883991
O O5 0.106634 0.330705 0.645301
O O6 0.192480 0.352913 0.482674
O O7 0.055696 0.992795 0.404255
O O8 0.002741 0.492080 0.333908
O O9 0.899732 0.850371 0.086338
O O10 0.497520 0.261058 0.457229
O O11 0.627316 0.898569 0.479575
O O12 0.426670 0.862152 0.237922
O O13 0.208579 0.171855 0.255468
O O14 0.694009 0.053714 0.035229
O O15 0.724256 0.034336 0.829126
O O16 0.754704 0.519960 0.951869
#
# Coordination Sequence:
#
# PCOD9116634 Si02
#       8
#     2   2   2   2   2   2   2   2
#     4  10  23  39  58  93 137 171 228 284 333 383
#     4  10  25  46  78  97 139 170 242 287 362 416
#     4  10  24  52  69 103 131 186 220 306 359 417
#     4  12  24  44  64  96 154 194 226 274 337 416
#     4  12  26  44  70 113 136 188 231 290 340 428
#     4  10  22  39  60  88 133 188 225 276 324 393
#     4  12  27  42  74 100 143 180 237 274 361 418
#     4  12  23  42  65 100 135 197 227 273 332 417
#
# _framework density 24.908760999999998
#
# number of rings (size 3 to 8) (size 9 to 14) (size 15 to 20)
#    0.000    1.000    3.750    1.500    3.500    6.000 
#    0.000    0.000    0.000    0.000    0.000    0.000 
#    0.000    0.000    0.000    0.000    0.000    0.000 
#
# Total GULP energy -89568.820218 kJ/mol
# GULP energy per Si atom -5598.051264 kJ/mol
# Density = 2.485207 g / cm^3
# Si number density = 24.908761 Si / 1000 Ang^3
#
#
#
# Elastic Constant Matrix: (Units=GPa)
#
#
# Indices 1 2 3 4 5 6 
#
# 1 109.1550 0.5041 28.3263 0.0000 -2.0501 0.0000
# 2 0.5041 80.7020 -4.8484 0.0000 -2.8901 0.0000
# 3 28.3263 -4.8484 154.6850 0.0000 4.2287 0.0000
# 4 0.0000 0.0000 0.0000 37.6581 0.0000 -3.5891
# 5 -2.0501 -2.8901 4.2287 0.0000 21.9560 0.0000
# 6 0.0000 0.0000 0.0000 -3.5891 0.0000 26.8738
#
#
#
# Elastic Compliance Matrix: (Units=1/GPa)
#
#
# Indices 1 2 3 4 5 6 
#
# 1 0.009654 -0.000125 -0.001805 0.000000 0.001233 0.000000
# 2 -0.000125 0.012470 0.000371 0.000000 0.001558 0.000000
# 3 -0.001805 0.000371 0.006846 0.000000 -0.001438 0.000000
# 4 0.000000 0.000000 0.000000 0.026897 0.000000 0.003592
# 5 0.001233 0.001558 -0.001438 0.000000 0.046143 0.000000
# 6 0.000000 0.000000 0.000000 0.003592 0.000000 0.037691
#
#
# Mechanical properties :
#
#
# Convention : Reuss Voigt Hill
#
# Bulk Modulus (GPa) = 38.68154 43.61178 41.14666
# Shear Modulus (GPa) = 33.01728 38.66825 35.84277
#
# Velocity S-wave (km/s) = 3.64473 3.94432 3.79748
# Velocity P-wave (km/s) = 5.76846 6.18790 5.98186
#
# Compressibility (1/GPa) = 0.02585213
#
# Stress axis : x y z
#
# Youngs Moduli (GPa) = 103.58920 80.19153 146.06411
#
# Poissons Ratio (x) = 0.00999 0.26370
# Poissons Ratio (y) = 0.01291 -0.05420
# Poissons Ratio (z) = 0.18702 -0.02976
#
# Static dielectric constant tensor:
#      x y z
#    x 2.014970 0.000000 -0.039850 
#    y 0.000000 1.902410 0.000000 
#    z -0.039850 0.000000 2.019410 
# 
# From -- ./inp_files/8963.got.cif
#   From: 2010.05.17/outbox.cif.g08.bks.cpg/sg4_5_cif.got.tgz:8963.got - 2010.06.03 18:43:04.
