data_PCOD9116125
_publ_section_title
;
Structure prediction by ZEFSAII (Michael W. Deem and Ramdas Pophale) SiO2 
 PCOD9116125
Probable space group: P 21
;
_chemical_formula_sum "Si O2"
_cell_formula_units_Z 16
_cell_length_a 5.323384
_cell_length_b 10.258716
_cell_length_c 11.165647
_cell_angle_alpha 90.000000
_cell_angle_beta 100.812875
_cell_angle_gamma 90.000000
_cell_volume 598.941733
_symmetry_space_group_name_H-M "P 21"
_symmetry_group_IT_number 4
_symmetry_cell_setting 'monoclinic'
loop_
_space_group_symop_operation_xyz
x,y,z
-x,1/2+y,-z
loop_
_atom_site_type_symbol
_atom_site_label
_atom_site_fract_x
_atom_site_fract_y
_atom_site_fract_z
Si Si1 0.964717 0.485850 0.075438
Si Si2 0.879321 0.743812 0.466500
Si Si3 0.816203 0.036996 0.668853
Si Si4 0.464746 0.035014 0.453157
Si Si5 0.280034 0.714985 0.140540
Si Si6 0.990034 0.422253 0.716155
Si Si7 0.469227 0.337053 0.044014
Si Si8 0.764952 0.184706 0.280368
O O1 0.989691 0.472497 0.222383
O O2 0.060287 0.630792 0.053251
O O3 0.191383 0.392980 0.046926
O O4 0.675626 0.448475 0.023568
O O5 0.636854 0.662077 0.487004
O O6 0.812619 0.846747 0.353876
O O7 0.046903 0.640673 0.403265
O O8 0.055190 0.758521 0.604220
O O9 0.650290 0.957530 0.560131
O O10 0.640455 0.112058 0.750479
O O11 0.577714 0.096979 0.344349
O O12 0.228539 0.946151 0.401554
O O13 0.137981 0.833653 0.194077
O O14 0.507394 0.748937 0.072370
O O15 0.072135 0.566106 0.766059
O O16 0.599615 0.264753 0.169319
#
# Coordination Sequence:
#
# PCOD9116125 Si02
#       8
#     2   2   2   2   2   2   2   2
#     4  10  27  46  73 105 139 194 239 298 361 428
#     4   9  20  39  62  94 137 181 233 294 357 433
#     4   8  20  42  64 101 127 185 232 287 358 430
#     4  10  21  40  64  99 140 181 233 299 357 432
#     4   9  24  48  70 102 139 192 246 292 371 425
#     4  10  22  42  68 100 139 187 242 300 360 438
#     4  12  27  48  73 107 146 190 240 308 352 436
#     4  10  25  39  64 104 139 186 237 298 370 422
#
# _framework density 26.713781000000001
#
# number of rings (size 3 to 8) (size 9 to 14) (size 15 to 20)
#    0.750    1.500    0.000    0.000    8.750    7.000 
#    6.750    0.000    0.000    0.000    0.000    0.000 
#    0.000    0.000    0.000    0.000    0.000    0.000 
#
# Total GULP energy -89391.152411 kJ/mol
# GULP energy per Si atom -5586.947026 kJ/mol
# Density = 2.665298 g / cm^3
# Si number density = 26.713781 Si / 1000 Ang^3
#
#
#
# Elastic Constant Matrix: (Units=GPa)
#
#
# Indices 1 2 3 4 5 6 
#
# 1 28.3546 17.8527 0.2841 0.0000 -0.0427 0.0000
# 2 17.8527 82.8315 21.2918 0.0000 -6.9259 0.0000
# 3 0.2841 21.2918 103.2326 0.0000 -16.7181 0.0000
# 4 0.0000 0.0000 0.0000 32.1526 0.0000 -10.1981
# 5 -0.0427 -6.9259 -16.7181 0.0000 33.8133 0.0000
# 6 0.0000 0.0000 0.0000 -10.1981 0.0000 34.1395
#
#
#
# Elastic Compliance Matrix: (Units=1/GPa)
#
#
# Indices 1 2 3 4 5 6 
#
# 1 0.041157 -0.009383 0.001651 0.000000 -0.001053 0.000000
# 2 -0.009383 0.014951 -0.002787 0.000000 0.001673 0.000000
# 3 0.001651 -0.002787 0.011050 0.000000 0.004895 0.000000
# 4 0.000000 0.000000 0.000000 0.034357 0.000000 0.010263
# 5 -0.001053 0.001673 0.004895 0.000000 0.032335 0.000000
# 6 0.000000 0.000000 0.000000 0.010263 0.000000 0.032357
#
#
# Mechanical properties :
#
#
# Convention : Reuss Voigt Hill
#
# Bulk Modulus (GPa) = 21.68215 32.58620 27.13417
# Shear Modulus (GPa) = 24.67679 31.68708 28.18194
#
# Velocity S-wave (km/s) = 3.04262 3.44782 3.25154
# Velocity P-wave (km/s) = 4.52520 5.29856 4.92708
#
# Compressibility (1/GPa) = 0.04612089
#
# Stress axis : x y z
#
# Youngs Moduli (GPa) = 24.29693 66.88366 90.49943
#
# Poissons Ratio (x) = 0.62759 -0.14945
# Poissons Ratio (y) = 0.22798 0.25222
# Poissons Ratio (z) = -0.04012 0.18641
#
# Static dielectric constant tensor:
#      x y z
#    x 2.081900 0.000000 0.044930 
#    y 0.000000 2.174230 0.000000 
#    z 0.044930 0.000000 2.082230 
# 
# From -- ./inp_files/10518.got.cif
#   From: 2010.05.17/outbox.cif.g08.bks.cpg/sg4_6_cif.got.tgz:10518.got - 2010.06.03 18:43:04.
