data_PCOD9116594
_publ_section_title
;
Structure prediction by ZEFSAII (Michael W. Deem and Ramdas Pophale) SiO2 
 PCOD9116594
Probable space group: P 21
;
_chemical_formula_sum "Si O2"
_cell_formula_units_Z 16
_cell_length_a 20.718991
_cell_length_b 5.671212
_cell_length_c 8.014985
_cell_angle_alpha 90.000000
_cell_angle_beta 139.656663
_cell_angle_gamma 90.000000
_cell_volume 609.673601
_symmetry_space_group_name_H-M "P 21"
_symmetry_group_IT_number 4
_symmetry_cell_setting 'monoclinic'
loop_
_space_group_symop_operation_xyz
x,y,z
-x,1/2+y,-z
loop_
_atom_site_type_symbol
_atom_site_label
_atom_site_fract_x
_atom_site_fract_y
_atom_site_fract_z
Si Si1 0.362401 0.790460 0.612370
Si Si2 0.227439 0.315716 0.002913
Si Si3 0.967125 0.993812 0.504777
Si Si4 0.587641 0.107967 0.664507
Si Si5 0.031749 0.335576 0.132925
Si Si6 0.775324 0.979100 0.631002
Si Si7 0.591597 0.753678 0.156958
Si Si8 0.637282 0.556511 0.880209
O O1 0.383531 0.703043 0.462405
O O2 0.236567 0.759251 0.384357
O O3 0.365118 0.078681 0.620033
O O4 0.474344 0.786876 0.927450
O O5 0.343779 0.373722 0.185794
O O6 0.206752 0.370741 0.152827
O O7 0.248297 0.056848 0.974872
O O8 0.151543 0.467112 0.747839
O O9 0.003065 0.917223 0.756023
O O10 0.001363 0.763847 0.463673
O O11 0.625491 0.269480 0.888131
O O12 0.471225 0.056886 0.433730
O O13 0.151491 0.359215 0.351646
O O14 0.999153 0.563501 0.956044
O O15 0.656867 0.983561 0.339706
O O16 0.624691 0.671123 0.039265
#
# Coordination Sequence:
#
# PCOD9116594 Si02
#       8
#     2   2   2   2   2   2   2   2
#     4  10  22  38  59  90 132 179 225 276 340 414
#     4  11  24  44  68  97 134 182 229 285 354 426
#     4  12  28  53  81 112 146 190 245 311 375 443
#     4  10  22  38  59  90 132 179 225 276 340 414
#     4  12  28  53  81 112 146 190 245 311 375 443
#     4  11  24  44  68  97 134 182 229 285 354 426
#     4  11  22  37  60  93 132 177 227 280 339 415
#     4  11  22  37  60  93 132 177 227 280 339 415
#
# _framework density 26.243552999999999
#
# number of rings (size 3 to 8) (size 9 to 14) (size 15 to 20)
#    0.000    1.000    2.500    3.750    3.500    3.000 
#    0.000    0.000    0.000    0.000    0.000    0.000 
#    0.000    0.000    0.000    0.000    0.000    0.000 
#
# Total GULP energy -89086.033627 kJ/mol
# GULP energy per Si atom -5567.877102 kJ/mol
# Density = 2.618382 g / cm^3
# Si number density = 26.243553 Si / 1000 Ang^3
#
#
#
# Elastic Constant Matrix: (Units=GPa)
#
#
# Indices 1 2 3 4 5 6 
#
# 1 57.2042 17.9496 3.0642 0.0000 -13.7525 0.0000
# 2 17.9496 64.9365 16.0925 0.0000 6.1822 0.0000
# 3 3.0642 16.0925 63.2206 0.0000 7.6299 0.0000
# 4 0.0000 0.0000 0.0000 26.3991 0.0000 -23.1824
# 5 -13.7525 6.1822 7.6299 0.0000 43.0438 0.0000
# 6 0.0000 0.0000 0.0000 -23.1824 0.0000 26.0805
#
#
#
# Elastic Compliance Matrix: (Units=1/GPa)
#
#
# Indices 1 2 3 4 5 6 
#
# 1 0.021459 -0.006604 -0.000308 0.000000 0.007859 0.000000
# 2 -0.006604 0.018585 -0.003918 0.000000 -0.004085 0.000000
# 3 -0.000308 -0.003918 0.017140 0.000000 -0.002574 0.000000
# 4 0.000000 0.000000 0.000000 0.172628 0.000000 0.153445
# 5 0.007859 -0.004085 -0.002574 0.000000 0.026786 0.000000
# 6 0.000000 0.000000 0.000000 0.153445 0.000000 0.174737
#
#
# Mechanical properties :
#
#
# Convention : Reuss Voigt Hill
#
# Bulk Modulus (GPa) = 28.14806 28.84156 28.49481
# Shear Modulus (GPa) = 10.75651 28.98836 19.87243
#
# Velocity S-wave (km/s) = 2.02673 3.32714 2.75477
# Velocity P-wave (km/s) = 4.02813 5.07678 4.58255
#
# Compressibility (1/GPa) = 0.03552643
#
# Stress axis : x y z
#
# Youngs Moduli (GPa) = 46.59994 53.80747 58.34171
#
# Poissons Ratio (x) = 0.35533 0.01795
# Poissons Ratio (y) = 0.30773 0.22856
# Poissons Ratio (z) = 0.01434 0.21080
#
# Static dielectric constant tensor:
#      x y z
#    x 2.079490 0.000000 0.133280 
#    y 0.000000 2.548220 0.000000 
#    z 0.133280 0.000000 2.167060 
# 
# From -- ./inp_files/9879.got.cif
#   From: 2010.05.17/outbox.cif.g08.bks.cpg/sg4_5_cif.got.tgz:9879.got - 2010.06.03 18:43:04.
