data_PCOD9116801
_publ_section_title
;
Structure prediction by ZEFSAII (Michael W. Deem and Ramdas Pophale) SiO2 
 PCOD9116801
Probable space group: P 21
;
_chemical_formula_sum "Si O2"
_cell_formula_units_Z 16
_cell_length_a 15.516444
_cell_length_b 5.475906
_cell_length_c 27.167462
_cell_angle_alpha 90.000000
_cell_angle_beta 18.404949
_cell_angle_gamma 90.000000
_cell_volume 728.810248
_symmetry_space_group_name_H-M "P 21"
_symmetry_group_IT_number 4
_symmetry_cell_setting 'monoclinic'
loop_
_space_group_symop_operation_xyz
x,y,z
-x,1/2+y,-z
loop_
_atom_site_type_symbol
_atom_site_label
_atom_site_fract_x
_atom_site_fract_y
_atom_site_fract_z
Si Si1 0.434932 0.255210 0.380615
Si Si2 0.839128 0.007079 0.083047
Si Si3 0.052206 0.666026 0.542493
Si Si4 0.153769 0.401938 0.697694
Si Si5 0.361465 0.858599 0.283412
Si Si6 0.846222 0.070228 0.700573
Si Si7 0.709515 0.402147 0.332932
Si Si8 0.359791 0.797083 0.090848
O O1 0.636341 0.116555 0.234557
O O2 0.260915 0.469964 0.449977
O O3 0.600718 0.352226 0.337249
O O4 0.170803 0.094802 0.537213
O O5 0.675349 0.924743 0.122456
O O6 0.025432 0.249725 0.972630
O O7 0.250648 0.802912 0.397673
O O8 0.813615 0.590852 0.635166
O O9 0.860962 0.779637 0.688745
O O10 0.444743 0.407243 0.512230
O O11 0.119332 0.663878 0.742894
O O12 0.925488 0.359109 0.780575
O O13 0.153615 0.166742 0.733849
O O14 0.262783 0.671042 0.293616
O O15 0.681668 0.207611 0.830983
O O16 0.474159 0.549821 0.003160
#
# Coordination Sequence:
#
# PCOD9116801 Si02
#       8
#     2   2   2   2   2   2   2   2
#     4  11  24  43  72 106 135 189 250 292 351 431
#     4  12  28  47  66 100 155 199 223 286 364 445
#     4  11  21  39  79 108 141 179 250 315 351 410
#     4  10  22  43  68  98 134 175 223 300 356 404
#     4  11  22  43  69 108 142 187 240 300 359 430
#     4  11  25  43  77 105 135 192 249 313 347 429
#     4  10  22  40  73 100 129 172 238 292 338 416
#     4  12  28  50  70 103 149 187 239 304 374 427
#
# _framework density 21.953586999999999
#
# number of rings (size 3 to 8) (size 9 to 14) (size 15 to 20)
#    0.000    1.000    3.750    2.250    7.000    1.000 
#    6.750    0.000    0.000    0.000    0.000    0.000 
#    0.000    0.000    0.000    0.000    0.000    0.000 
#
# Total GULP energy -89080.091674 kJ/mol
# GULP energy per Si atom -5567.505730 kJ/mol
# Density = 2.190362 g / cm^3
# Si number density = 21.953587 Si / 1000 Ang^3
#
#
#
# Elastic Constant Matrix: (Units=GPa)
#
#
# Indices 1 2 3 4 5 6 
#
# 1 248.2681 240.5307 -36.2400 0.0000 69.9979 0.0000
# 2 240.5307 389.9758 -18.9113 0.0000 94.7291 0.0000
# 3 -36.2400 -18.9113 44.9577 0.0000 -25.2502 0.0000
# 4 0.0000 0.0000 0.0000 11.9851 0.0000 41.2717
# 5 69.9979 94.7291 -25.2502 0.0000 61.8101 0.0000
# 6 0.0000 0.0000 0.0000 41.2717 0.0000 -115.0478
#
#
#
# Elastic Compliance Matrix: (Units=1/GPa)
#
#
# Indices 1 2 3 4 5 6 
#
# 1 0.011601 -0.006838 0.006466 0.000000 -0.000017 0.000000
# 2 -0.006838 0.008313 -0.006257 0.000000 -0.007553 0.000000
# 3 0.006466 -0.006257 0.033867 0.000000 0.016102 0.000000
# 4 0.000000 0.000000 0.000000 0.037326 0.000000 0.013390
# 5 -0.000017 -0.007553 0.016102 0.000000 0.034351 0.000000
# 6 0.000000 0.000000 0.000000 0.013390 0.000000 -0.003888
#
#
# Mechanical properties :
#
#
# Convention : Reuss Voigt Hill
#
# Bulk Modulus (GPa) = 24.67754 117.10671 70.89212
# Shear Modulus (GPa) = 33.70739 24.93763 29.32251
#
# Velocity S-wave (km/s) = 3.92266 3.37401 3.65863
# Velocity P-wave (km/s) = 5.63751 8.28476 7.08586
#
# Compressibility (1/GPa) = 0.04052268
#
# Stress axis : x y z
#
# Youngs Moduli (GPa) = 86.19880 120.29657 29.52749
#
# Poissons Ratio (x) = 0.82254 -0.19091
# Poissons Ratio (y) = 0.58939 0.18475
# Poissons Ratio (z) = -0.55732 0.75269
#
# Static dielectric constant tensor:
#      x y z
#    x 1.788370 0.000000 -0.000170 
#    y 0.000000 1.836030 0.000000 
#    z -0.000170 0.000000 1.893640 
# 
# From -- ./inp_files/7412.got.cif
#   From: 2010.05.17/outbox.cif.g08.bks.cpg/sg4_4_cif.got.tgz:7412.got - 2010.06.03 18:43:04.
