data_PCOD9116325
_publ_section_title
;
Structure prediction by ZEFSAII (Michael W. Deem and Ramdas Pophale) SiO2 
 PCOD9116325
Probable space group: P 21
;
_chemical_formula_sum "Si O2"
_cell_formula_units_Z 16
_cell_length_a 17.001420
_cell_length_b 9.053630
_cell_length_c 13.424987
_cell_angle_alpha 90.000000
_cell_angle_beta 23.805077
_cell_angle_gamma 90.000000
_cell_volume 834.067778
_symmetry_space_group_name_H-M "P 21"
_symmetry_group_IT_number 4
_symmetry_cell_setting 'monoclinic'
loop_
_space_group_symop_operation_xyz
x,y,z
-x,1/2+y,-z
loop_
_atom_site_type_symbol
_atom_site_label
_atom_site_fract_x
_atom_site_fract_y
_atom_site_fract_z
Si Si1 0.145664 0.280140 0.238035
Si Si2 0.154637 0.740494 0.722757
Si Si3 0.154576 0.397539 0.013935
Si Si4 0.426320 0.766730 0.823288
Si Si5 0.828888 0.928552 0.401783
Si Si6 0.497776 0.422329 0.743799
Si Si7 0.944922 0.434282 0.656604
Si Si8 0.822198 0.228220 0.074357
O O1 0.070964 0.337409 0.216333
O O2 0.037829 0.367886 0.449563
O O3 0.117080 0.105450 0.281746
O O4 0.373927 0.326290 0.966410
O O5 0.179821 0.592732 0.631114
O O6 0.284770 0.868937 0.522486
O O7 0.216930 0.716097 0.763727
O O8 0.932403 0.795942 0.970867
O O9 0.384447 0.389524 0.770621
O O10 0.111810 0.568048 0.042812
O O11 0.622424 0.852740 0.621237
O O12 0.463071 0.594335 0.805113
O O13 0.359195 0.774505 0.785212
O O14 0.242612 0.836799 0.094364
O O15 0.896738 0.926633 0.437974
O O16 0.002430 0.842147 0.144937
#
# Coordination Sequence:
#
# PCOD9116325 Si02
#       8
#     2   2   2   2   2   2   2   2
#     4  10  21  42  67  87 127 158 202 260 310 372
#     4  12  21  38  63  91 125 164 211 254 309 368
#     4   9  21  42  59  86 126 163 199 260 302 367
#     4  10  22  41  60  90 129 160 204 256 298 375
#     4  11  23  39  61  95 126 156 213 260 303 372
#     4   9  21  40  60  86 124 163 201 252 305 361
#     4  11  22  42  65  96 118 167 205 253 323 366
#     4  10  23  38  63  89 125 169 205 251 314 365
#
# _framework density 19.183094000000001
#
# number of rings (size 3 to 8) (size 9 to 14) (size 15 to 20)
#    0.750    1.000    1.250    3.000    1.750    3.000 
#    2.250    0.000    0.000    0.000    0.000    0.000 
#    0.000    0.000    0.000    0.000    0.000    0.000 
#
# Total GULP energy -89210.349211 kJ/mol
# GULP energy per Si atom -5575.646826 kJ/mol
# Density = 1.913943 g / cm^3
# Si number density = 19.183094 Si / 1000 Ang^3
#
#
#
# Elastic Constant Matrix: (Units=GPa)
#
#
# Indices 1 2 3 4 5 6 
#
# 1 63.2935 22.5244 19.7977 0.0000 5.8453 0.0000
# 2 22.5244 81.1280 21.4459 0.0000 12.0125 0.0000
# 3 19.7977 21.4459 35.8269 0.0000 -6.7854 0.0000
# 4 0.0000 0.0000 0.0000 5.5943 0.0000 -9.3750
# 5 5.8453 12.0125 -6.7854 0.0000 25.1804 0.0000
# 6 0.0000 0.0000 0.0000 -9.3750 0.0000 28.1614
#
#
#
# Elastic Compliance Matrix: (Units=1/GPa)
#
#
# Indices 1 2 3 4 5 6 
#
# 1 0.020751 -0.001523 -0.011939 0.000000 -0.007308 0.000000
# 2 -0.001523 0.017510 -0.011755 0.000000 -0.011167 0.000000
# 3 -0.011939 -0.011755 0.045452 0.000000 0.020627 0.000000
# 4 0.000000 0.000000 0.000000 0.404313 0.000000 0.134596
# 5 -0.007308 -0.011167 0.020627 0.000000 0.052295 0.000000
# 6 0.000000 0.000000 0.000000 0.134596 0.000000 0.080317
#
#
# Mechanical properties :
#
#
# Convention : Reuss Voigt Hill
#
# Bulk Modulus (GPa) = 30.04864 34.19826 32.12345
# Shear Modulus (GPa) = 7.32960 19.55258 13.44109
#
# Velocity S-wave (km/s) = 1.95682 3.19605 2.64990
# Velocity P-wave (km/s) = 4.56110 5.61121 5.11318
#
# Compressibility (1/GPa) = 0.03327938
#
# Stress axis : x y z
#
# Youngs Moduli (GPa) = 48.19103 57.11047 22.00102
#
# Poissons Ratio (x) = 0.08699 0.26267
# Poissons Ratio (y) = 0.07340 0.25862
# Poissons Ratio (z) = 0.57535 0.67132
#
# Static dielectric constant tensor:
#      x y z
#    x 1.684990 0.000000 -0.013460 
#    y 0.000000 1.656320 0.000000 
#    z -0.013460 0.000000 1.640870 
# 
# From -- ./inp_files/12645.got.cif
#   From: 2010.05.17/outbox.cif.g08.bks.cpg/sg4_7_cif.got.tgz:12645.got - 2010.06.03 18:43:04.
