data_PCOD9116045
_publ_section_title
;
Structure prediction by ZEFSAII (Michael W. Deem and Ramdas Pophale) SiO2 
 PCOD9116045
Probable space group: P 21
;
_chemical_formula_sum "Si O2"
_cell_formula_units_Z 10
_cell_length_a 5.005704
_cell_length_b 5.084514
_cell_length_c 15.470028
_cell_angle_alpha 90.000000
_cell_angle_beta 114.503505
_cell_angle_gamma 90.000000
_cell_volume 358.275006
_symmetry_space_group_name_H-M "P 21"
_symmetry_group_IT_number 4
_symmetry_cell_setting 'monoclinic'
loop_
_space_group_symop_operation_xyz
x,y,z
-x,1/2+y,-z
loop_
_atom_site_type_symbol
_atom_site_label
_atom_site_fract_x
_atom_site_fract_y
_atom_site_fract_z
Si Si1 0.289203 0.410320 0.086344
Si Si2 0.347173 0.734056 0.721735
Si Si3 0.832904 0.723744 0.118441
Si Si4 0.206487 0.610291 0.315457
Si Si5 0.995972 0.883440 0.440905
O O1 0.477685 0.197095 0.164843
O O2 0.520993 0.648903 0.116153
O O3 0.997596 0.464937 0.101457
O O4 0.210389 0.378114 0.975914
O O5 0.269815 0.476104 0.657043
O O6 0.538013 0.934095 0.689446
O O7 0.048657 0.893903 0.699851
O O8 0.059679 0.802931 0.223475
O O9 0.241638 0.772644 0.408269
O O10 0.071852 0.146093 0.503458
#
# Coordination Sequence:
#
# PCOD9116045 Si02
#       5
#     2   2   2   2   2
#     4  10  21  39  66 104 146 194 245 302 375 457
#     4  10  24  49  73 108 155 201 255 322 390 462
#     4  10  21  39  66 104 146 194 245 302 375 457
#     4  10  24  49  73 108 155 201 255 322 390 462
#     4  12  26  54  80 116 152 210 266 332 396 464
#
# _framework density 27.911518999999998
#
# number of rings (size 3 to 8) (size 9 to 14) (size 15 to 20)
#    0.000    1.600    2.000    1.200    2.800    1.600 
#    7.200    0.000    0.000    0.000    0.000    0.000 
#    0.000    0.000    0.000    0.000    0.000    0.000 
#
# Total GULP energy -56060.828070 kJ/mol
# GULP energy per Si atom -5606.082807 kJ/mol
# Density = 2.784799 g / cm^3
# Si number density = 27.911519 Si / 1000 Ang^3
#
#
#
# Elastic Constant Matrix: (Units=GPa)
#
#
# Indices 1 2 3 4 5 6 
#
# 1 141.5548 44.0159 29.3299 0.0000 -15.8889 0.0000
# 2 44.0159 151.3153 63.9857 0.0000 -10.3385 0.0000
# 3 29.3299 63.9857 162.8203 0.0000 -23.3078 0.0000
# 4 0.0000 0.0000 0.0000 64.3266 0.0000 -7.6918
# 5 -15.8889 -10.3385 -23.3078 0.0000 42.8741 0.0000
# 6 0.0000 0.0000 0.0000 -7.6918 0.0000 22.0149
#
#
#
# Elastic Compliance Matrix: (Units=1/GPa)
#
#
# Indices 1 2 3 4 5 6 
#
# 1 0.008024 -0.002045 -0.000311 0.000000 0.002312 0.000000
# 2 -0.002045 0.008449 -0.003002 0.000000 -0.000353 0.000000
# 3 -0.000311 -0.003002 0.007870 0.000000 0.003439 0.000000
# 4 0.000000 0.000000 0.000000 0.016223 0.000000 0.005668
# 5 0.002312 -0.000353 0.003439 0.000000 0.025965 0.000000
# 6 0.000000 0.000000 0.000000 0.005668 0.000000 0.047404
#
#
# Mechanical properties :
#
#
# Convention : Reuss Voigt Hill
#
# Bulk Modulus (GPa) = 73.38484 81.15039 77.26761
# Shear Modulus (GPa) = 38.70124 47.06705 42.88414
#
# Velocity S-wave (km/s) = 3.72771 4.11091 3.92399
# Velocity P-wave (km/s) = 6.69901 7.18819 6.94790
#
# Compressibility (1/GPa) = 0.01362679
#
# Stress axis : x y z
#
# Youngs Moduli (GPa) = 124.62480 118.35664 127.06461
#
# Poissons Ratio (x) = 0.24200 0.03952
# Poissons Ratio (y) = 0.25482 0.38151
# Poissons Ratio (z) = 0.03876 0.35537
#
# Static dielectric constant tensor:
#      x y z
#    x 2.152320 0.000000 0.033110 
#    y 0.000000 2.175710 0.000000 
#    z 0.033110 0.000000 2.232910 
# 
# From -- ./inp_files/3932.got.cif
#   From: 2010.05.17/outbox.cif.g08.bks.cpg/sg4_2_cif.got.tgz:3932.got - 2010.06.03 18:43:04.
