data_PCOD9116691
_publ_section_title
;
Structure prediction by ZEFSAII (Michael W. Deem and Ramdas Pophale) SiO2 
 PCOD9116691
Probable space group: P 21
;
_chemical_formula_sum "Si O2"
_cell_formula_units_Z 10
_cell_length_a 11.240330
_cell_length_b 6.028515
_cell_length_c 6.572673
_cell_angle_alpha 90.000000
_cell_angle_beta 102.904236
_cell_angle_gamma 90.000000
_cell_volume 434.132511
_symmetry_space_group_name_H-M "P 21"
_symmetry_group_IT_number 4
_symmetry_cell_setting 'monoclinic'
loop_
_space_group_symop_operation_xyz
x,y,z
-x,1/2+y,-z
loop_
_atom_site_type_symbol
_atom_site_label
_atom_site_fract_x
_atom_site_fract_y
_atom_site_fract_z
Si Si1 0.821833 0.747460 0.987069
Si Si2 0.926014 0.400036 0.741187
Si Si3 0.718539 0.161796 0.914957
Si Si4 0.226622 0.889621 0.685762
Si Si5 0.443778 0.882263 0.450940
O O1 0.782750 0.574092 0.143773
O O2 0.936740 0.868311 0.136192
O O3 0.876640 0.632127 0.808277
O O4 0.709532 0.900508 0.876302
O O5 0.839201 0.228838 0.831910
O O6 0.896783 0.372874 0.492700
O O7 0.612745 0.318275 0.791232
O O8 0.740692 0.180722 0.163065
O O9 0.332635 0.924400 0.564455
O O10 0.493138 0.628879 0.530153
#
# Coordination Sequence:
#
# PCOD9116691 Si02
#       5
#     2   2   2   2   2
#     4  11  22  39  68  99 150 184 228 281 349 431
#     4  10  22  40  61 102 144 189 219 277 352 421
#     4  10  24  44  68  99 137 181 236 288 346 430
#     4  10  26  41  68 103 134 185 240 290 347 433
#     4  11  28  50  77  99 139 187 243 310 366 403
#
# _framework density 23.034441000000001
#
# number of rings (size 3 to 8) (size 9 to 14) (size 15 to 20)
#    0.000    1.600    2.000    0.000   14.000    3.200 
#    0.000    0.000    0.000    0.000    0.000    0.000 
#    0.000    0.000    0.000    0.000    0.000    0.000 
#
# Total GULP energy -55712.776703 kJ/mol
# GULP energy per Si atom -5571.277670 kJ/mol
# Density = 2.298201 g / cm^3
# Si number density = 23.034441 Si / 1000 Ang^3
#
#
#
# Elastic Constant Matrix: (Units=GPa)
#
#
# Indices 1 2 3 4 5 6 
#
# 1 35.9430 21.4547 8.8935 0.0000 9.7383 0.0000
# 2 21.4547 81.1476 17.3297 0.0000 25.7629 0.0000
# 3 8.8935 17.3297 119.0385 0.0000 22.0785 0.0000
# 4 0.0000 0.0000 0.0000 20.0199 0.0000 11.4934
# 5 9.7383 25.7629 22.0785 0.0000 27.7487 0.0000
# 6 0.0000 0.0000 0.0000 11.4934 0.0000 45.1569
#
#
#
# Elastic Compliance Matrix: (Units=1/GPa)
#
#
# Indices 1 2 3 4 5 6 
#
# 1 0.033557 -0.007313 -0.000607 0.000000 -0.004505 0.000000
# 2 -0.007313 0.019098 0.000679 0.000000 -0.015705 0.000000
# 3 -0.000607 0.000679 0.009883 0.000000 -0.008281 0.000000
# 4 0.000000 0.000000 0.000000 0.058498 0.000000 -0.014889
# 5 -0.004505 -0.015705 -0.008281 0.000000 0.058788 0.000000
# 6 0.000000 0.000000 0.000000 -0.014889 0.000000 0.025935
#
#
# Mechanical properties :
#
#
# Convention : Reuss Voigt Hill
#
# Bulk Modulus (GPa) = 20.80877 36.83166 28.82021
# Shear Modulus (GPa) = 21.16321 31.14851 26.15586
#
# Velocity S-wave (km/s) = 3.03440 3.68130 3.37339
# Velocity P-wave (km/s) = 4.61846 5.83899 5.26422
#
# Compressibility (1/GPa) = 0.04805666
#
# Stress axis : x y z
#
# Youngs Moduli (GPa) = 29.79964 52.36269 101.18360
#
# Poissons Ratio (x) = 0.38290 0.06142
# Poissons Ratio (y) = 0.21791 -0.06869
# Poissons Ratio (z) = 0.01809 -0.03555
#
# Static dielectric constant tensor:
#      x y z
#    x 1.835430 0.000000 0.061050 
#    y 0.000000 2.003460 0.000000 
#    z 0.061050 0.000000 1.863860 
# 
# From -- ./inp_files/2269.got.cif
#   From: 2010.05.17/outbox.cif.g08.bks.cpg/sg4_2_cif.got.tgz:2269.got - 2010.06.03 18:43:04.
