data_PCOD9116063
_publ_section_title
;
Structure prediction by ZEFSAII (Michael W. Deem and Ramdas Pophale) SiO2 
 PCOD9116063
Probable space group: P 21
;
_chemical_formula_sum "Si O2"
_cell_formula_units_Z 16
_cell_length_a 11.872001
_cell_length_b 7.308319
_cell_length_c 10.505681
_cell_angle_alpha 90.000000
_cell_angle_beta 51.263638
_cell_angle_gamma 90.000000
_cell_volume 711.015152
_symmetry_space_group_name_H-M "P 21"
_symmetry_group_IT_number 4
_symmetry_cell_setting 'monoclinic'
loop_
_space_group_symop_operation_xyz
x,y,z
-x,1/2+y,-z
loop_
_atom_site_type_symbol
_atom_site_label
_atom_site_fract_x
_atom_site_fract_y
_atom_site_fract_z
Si Si1 0.126143 0.048430 0.602149
Si Si2 0.718212 0.021880 0.724377
Si Si3 0.253964 0.082833 0.251506
Si Si4 0.597591 0.610130 0.090868
Si Si5 0.218807 0.017178 0.804765
Si Si6 0.087334 0.618074 0.895749
Si Si7 0.819610 0.947812 0.907544
Si Si8 0.950720 0.969856 0.354556
O O1 0.214389 0.992874 0.414596
O O2 0.058585 0.250041 0.626446
O O3 0.233588 0.069149 0.646563
O O4 0.986405 0.922877 0.737199
O O5 0.711073 0.796632 0.738756
O O6 0.755492 0.077377 0.842342
O O7 0.845533 0.053437 0.534730
O O8 0.573423 0.116796 0.780242
O O9 0.374197 0.014291 0.067113
O O10 0.108246 0.048243 0.273121
O O11 0.655338 0.523501 0.181212
O O12 0.699804 0.788842 0.006061
O O13 0.159879 0.813038 0.839248
O O14 0.083112 0.133297 0.953793
O O15 0.097738 0.516786 0.754187
O O16 0.157538 0.526679 0.969344
#
# Coordination Sequence:
#
# PCOD9116063 Si02
#       8
#     2   2   2   2   2   2   2   2
#     4  10  21  39  68 103 130 165 229 285 325 383
#     4  10  24  43  64  98 139 173 220 271 339 408
#     4  10  22  40  69  98 128 174 224 275 328 394
#     4  11  23  43  65  93 139 181 211 273 341 408
#     4  11  22  37  61  95 134 172 220 281 333 393
#     4  11  22  36  64  98 127 168 234 279 327 384
#     4  10  21  41  65  96 133 170 224 276 328 394
#     4  11  21  41  68 101 128 175 224 282 327 386
#
# _framework density 22.503038
#
# number of rings (size 3 to 8) (size 9 to 14) (size 15 to 20)
#    0.000    1.500    2.500    3.750    3.500    2.000 
#    0.000    5.000    0.000    0.000    0.000    0.000 
#    0.000    0.000    0.000    0.000    0.000    0.000 
#
# Total GULP energy -89296.238016 kJ/mol
# GULP energy per Si atom -5581.014876 kJ/mol
# Density = 2.245182 g / cm^3
# Si number density = 22.503038 Si / 1000 Ang^3
#
#
#
# Elastic Constant Matrix: (Units=GPa)
#
#
# Indices 1 2 3 4 5 6 
#
# 1 126.1081 14.7650 31.8129 0.0000 20.2560 0.0000
# 2 14.7650 59.1757 18.7419 0.0000 2.8865 0.0000
# 3 31.8129 18.7419 66.8429 0.0000 11.6338 0.0000
# 4 0.0000 0.0000 0.0000 11.5554 0.0000 -3.1226
# 5 20.2560 2.8865 11.6338 0.0000 45.3992 0.0000
# 6 0.0000 0.0000 0.0000 -3.1226 0.0000 20.1911
#
#
#
# Elastic Compliance Matrix: (Units=1/GPa)
#
#
# Indices 1 2 3 4 5 6 
#
# 1 0.009496 -0.001052 -0.003662 0.000000 -0.003231 0.000000
# 2 -0.001052 0.018663 -0.004823 0.000000 0.000519 0.000000
# 3 -0.003662 -0.004823 0.018545 0.000000 -0.002812 0.000000
# 4 0.000000 0.000000 0.000000 0.090314 0.000000 0.013967
# 5 -0.003231 0.000519 -0.002812 0.000000 0.024156 0.000000
# 6 0.000000 0.000000 0.000000 0.013967 0.000000 0.051687
#
#
# Mechanical properties :
#
#
# Convention : Reuss Voigt Hill
#
# Bulk Modulus (GPa) = 36.19114 42.52960 39.36037
# Shear Modulus (GPa) = 20.73451 27.88293 24.30872
#
# Velocity S-wave (km/s) = 3.03877 3.52387 3.29027
# Velocity P-wave (km/s) = 5.33196 5.95797 5.65364
#
# Compressibility (1/GPa) = 0.02763107
#
# Stress axis : x y z
#
# Youngs Moduli (GPa) = 105.31070 53.58090 53.92321
#
# Poissons Ratio (x) = 0.05636 0.19747
# Poissons Ratio (y) = 0.11077 0.26005
# Poissons Ratio (z) = 0.38565 0.25840
#
# Static dielectric constant tensor:
#      x y z
#    x 1.820120 0.000000 0.059970 
#    y 0.000000 1.934610 0.000000 
#    z 0.059970 0.000000 1.823230 
# 
# From -- ./inp_files/12112.got.cif
#   From: 2010.05.17/outbox.cif.g08.bks.cpg/sg4_7_cif.got.tgz:12112.got - 2010.06.03 18:43:04.
