data_PCOD9116375
_publ_section_title
;
Structure prediction by ZEFSAII (Michael W. Deem and Ramdas Pophale) SiO2 
 PCOD9116375
Probable space group: P 21
;
_chemical_formula_sum "Si O2"
_cell_formula_units_Z 16
_cell_length_a 8.636953
_cell_length_b 12.457673
_cell_length_c 9.699170
_cell_angle_alpha 90.000000
_cell_angle_beta 133.728585
_cell_angle_gamma 90.000000
_cell_volume 754.125208
_symmetry_space_group_name_H-M "P 21"
_symmetry_group_IT_number 4
_symmetry_cell_setting 'monoclinic'
loop_
_space_group_symop_operation_xyz
x,y,z
-x,1/2+y,-z
loop_
_atom_site_type_symbol
_atom_site_label
_atom_site_fract_x
_atom_site_fract_y
_atom_site_fract_z
Si Si1 0.709078 0.353100 0.927526
Si Si2 0.729776 0.861722 0.475421
Si Si3 0.177723 0.293162 0.162153
Si Si4 0.185872 0.461540 0.923031
Si Si5 0.335157 0.962065 0.812847
Si Si6 0.075093 0.825720 0.464468
Si Si7 0.079883 0.588955 0.359176
Si Si8 0.899995 0.573443 0.948109
O O1 0.485092 0.319548 0.727011
O O2 0.762375 0.468205 0.892446
O O3 0.689071 0.377078 0.076818
O O4 0.918468 0.285439 0.020100
O O5 0.735566 0.827639 0.637385
O O6 0.926906 0.814848 0.509062
O O7 0.766182 0.991550 0.497573
O O8 0.218680 0.380106 0.070794
O O9 0.247819 0.176787 0.156890
O O10 0.421638 0.502189 0.029707
O O11 0.067745 0.394012 0.731474
O O12 0.031588 0.551844 0.889781
O O13 0.273879 0.898722 0.635810
O O14 0.155117 0.052691 0.727826
O O15 0.131639 0.708794 0.440337
O O16 0.052230 0.585581 0.176221
#
# Coordination Sequence:
#
# PCOD9116375 Si02
#       8
#     2   2   2   2   2   2   2   2
#     4  10  21  43  64  86 130 167 198 256 315 361
#     4  11  22  42  65  92 125 165 207 253 312 365
#     4  11  22  42  64  90 129 164 203 257 309 367
#     4  11  22  40  65  93 124 160 210 255 302 370
#     4  10  22  42  64  91 124 163 207 257 305 366
#     4  11  22  40  67  93 121 165 210 252 303 373
#     4  10  21  43  63  91 130 161 202 258 314 364
#     4  10  22  42  62  92 131 163 199 260 312 362
#
# _framework density 21.216636999999999
#
# number of rings (size 3 to 8) (size 9 to 14) (size 15 to 20)
#    0.000    1.500    7.500    0.000    0.000    6.000 
#    2.250    0.000    0.000    0.000    0.000    0.000 
#    0.000    0.000    0.000    0.000    0.000    0.000 
#
# Total GULP energy -89342.012764 kJ/mol
# GULP energy per Si atom -5583.875798 kJ/mol
# Density = 2.116835 g / cm^3
# Si number density = 21.216637 Si / 1000 Ang^3
#
#
#
# Elastic Constant Matrix: (Units=GPa)
#
#
# Indices 1 2 3 4 5 6 
#
# 1 30.2488 -20.9309 18.9109 0.0000 -2.5369 0.0000
# 2 -20.9309 60.9015 -8.6834 0.0000 -3.9232 0.0000
# 3 18.9109 -8.6834 75.5746 0.0000 6.8222 0.0000
# 4 0.0000 0.0000 0.0000 23.6454 0.0000 -8.9213
# 5 -2.5369 -3.9232 6.8222 0.0000 30.8532 0.0000
# 6 0.0000 0.0000 0.0000 -8.9213 0.0000 -1.1803
#
#
#
# Elastic Compliance Matrix: (Units=1/GPa)
#
#
# Indices 1 2 3 4 5 6 
#
# 1 0.053378 0.017201 -0.012218 0.000000 0.009278 0.000000
# 2 0.017201 0.022328 -0.002166 0.000000 0.004732 0.000000
# 3 -0.012218 -0.002166 0.016485 0.000000 -0.004925 0.000000
# 4 0.000000 0.000000 0.000000 0.010980 0.000000 -0.082991
# 5 0.009278 0.004732 -0.004925 0.000000 0.034865 0.000000
# 6 0.000000 0.000000 0.000000 -0.082991 0.000000 -0.219964
#
#
# Mechanical properties :
#
#
# Convention : Reuss Voigt Hill
#
# Bulk Modulus (GPa) = 10.22240 16.14645 13.18443
# Shear Modulus (GPa) = -90.98350 22.49222 -34.24564
#
# Velocity S-wave (km/s) = -6.55562 3.25948 -4.02194
# Velocity P-wave (km/s) = 7.24383 4.66824 3.91667
#
# Compressibility (1/GPa) = 0.09782438
#
# Stress axis : x y z
#
# Youngs Moduli (GPa) = 18.73438 44.78761 60.66140
#
# Poissons Ratio (x) = -0.77038 0.74115
# Poissons Ratio (y) = -0.32224 0.13139
# Poissons Ratio (z) = 0.22889 0.09701
#
# Static dielectric constant tensor:
#      x y z
#    x 1.795530 0.000000 0.023180 
#    y 0.000000 1.786350 0.000000 
#    z 0.023180 0.000000 1.759730 
# 
# From -- ./inp_files/6466.got.cif
#   From: 2010.05.17/outbox.cif.g08.bks.cpg/sg4_4_cif.got.tgz:6466.got - 2010.06.03 18:43:04.
