data_PCOD9116979
_publ_section_title
;
Structure prediction by ZEFSAII (Michael W. Deem and Ramdas Pophale) SiO2 
 PCOD9116979
Probable space group: P 21
;
_chemical_formula_sum "Si O2"
_cell_formula_units_Z 16
_cell_length_a 4.895130
_cell_length_b 22.700796
_cell_length_c 7.152114
_cell_angle_alpha 90.000000
_cell_angle_beta 133.670873
_cell_angle_gamma 90.000000
_cell_volume 574.869383
_symmetry_space_group_name_H-M "P 21"
_symmetry_group_IT_number 4
_symmetry_cell_setting 'monoclinic'
loop_
_space_group_symop_operation_xyz
x,y,z
-x,1/2+y,-z
loop_
_atom_site_type_symbol
_atom_site_label
_atom_site_fract_x
_atom_site_fract_y
_atom_site_fract_z
Si Si1 0.246983 0.942440 0.106985
Si Si2 0.450375 0.090678 0.713409
Si Si3 0.410849 0.690179 0.799139
Si Si4 0.534967 0.295995 0.455611
Si Si5 0.161201 0.872501 0.742575
Si Si6 0.367395 0.963286 0.577889
Si Si7 0.262602 0.711283 0.154926
Si Si8 0.315434 0.072232 0.069666
O O1 0.285645 0.931592 0.343785
O O2 0.395542 0.892455 0.036695
O O3 0.798107 0.949834 0.848004
O O4 0.432844 0.005354 0.153926
O O5 0.435083 0.159690 0.649496
O O6 0.262645 0.080516 0.823743
O O7 0.904564 0.082410 0.965689
O O8 0.340481 0.034074 0.538767
O O9 0.237527 0.708785 0.916479
O O10 0.375864 0.621403 0.729645
O O11 0.860614 0.694083 0.047580
O O12 0.373244 0.734516 0.610325
O O13 0.678581 0.338555 0.359452
O O14 0.664262 0.275288 0.723833
O O15 0.146482 0.328389 0.321380
O O16 0.101836 0.936665 0.615059
#
# Coordination Sequence:
#
# PCOD9116979 Si02
#       8
#     2   2   2   2   2   2   2   2
#     4  11  25  48  75 108 145 189 241 299 363 425
#     4   9  19  40  68 102 140 175 231 295 359 421
#     4  10  22  42  68 101 136 180 231 290 352 419
#     4  12  26  44  70  98 140 186 236 284 356 428
#     4  12  26  48  64 106 142 192 240 292 352 434
#     4  11  25  48  75 108 145 189 241 299 363 425
#     4  10  22  42  68 101 136 180 231 290 352 419
#     4   9  19  40  68 102 140 175 231 295 359 421
#
# _framework density 27.832408000000001
#
# number of rings (size 3 to 8) (size 9 to 14) (size 15 to 20)
#    0.000    1.500    2.500    1.500    1.750    4.000 
#    4.500    0.000    0.000    0.000    0.000    0.000 
#    0.000    0.000    0.000    0.000    0.000    0.000 
#
# Total GULP energy -89465.971167 kJ/mol
# GULP energy per Si atom -5591.623198 kJ/mol
# Density = 2.776906 g / cm^3
# Si number density = 27.832408 Si / 1000 Ang^3
#
#
#
# Elastic Constant Matrix: (Units=GPa)
#
#
# Indices 1 2 3 4 5 6 
#
# 1 113.8508 22.4204 47.3500 0.0000 -36.5484 0.0000
# 2 22.4204 107.7167 46.2749 0.0000 -22.6737 0.0000
# 3 47.3500 46.2749 155.7481 0.0000 -30.4977 0.0000
# 4 0.0000 0.0000 0.0000 57.0446 0.0000 -17.1110
# 5 -36.5484 -22.6737 -30.4977 0.0000 44.1201 0.0000
# 6 0.0000 0.0000 0.0000 -17.1110 0.0000 42.8961
#
#
#
# Elastic Compliance Matrix: (Units=1/GPa)
#
#
# Indices 1 2 3 4 5 6 
#
# 1 0.012511 0.000194 -0.002096 0.000000 0.009015 0.000000
# 2 0.000194 0.011225 -0.002583 0.000000 0.004144 0.000000
# 3 -0.002096 -0.002583 0.008356 0.000000 0.002713 0.000000
# 4 0.000000 0.000000 0.000000 0.019913 0.000000 0.007943
# 5 0.009015 0.004144 0.002713 0.000000 0.034138 0.000000
# 6 0.000000 0.000000 0.000000 0.007943 0.000000 0.026481
#
#
# Mechanical properties :
#
#
# Convention : Reuss Voigt Hill
#
# Bulk Modulus (GPa) = 43.24702 67.71181 55.47942
# Shear Modulus (GPa) = 38.66969 46.23018 42.44993
#
# Velocity S-wave (km/s) = 3.73148 4.07998 3.90962
# Velocity P-wave (km/s) = 5.84272 6.82468 6.35270
#
# Compressibility (1/GPa) = 0.02312298
#
# Stress axis : x y z
#
# Youngs Moduli (GPa) = 79.93102 89.08658 119.66946
#
# Poissons Ratio (x) = -0.01727 0.25082
# Poissons Ratio (y) = -0.01550 0.30906
# Poissons Ratio (z) = 0.16753 0.23007
#
# Static dielectric constant tensor:
#      x y z
#    x 2.143090 0.000000 0.079280 
#    y 0.000000 2.327600 0.000000 
#    z 0.079280 0.000000 2.143760 
# 
# From -- ./inp_files/737.got.cif
#   From: 2010.05.17/outbox.cif.g08.bks.cpg/sg4_1_cif.got.tgz:737.got - 2010.06.03 18:43:04.
