data_PCOD9116987
_publ_section_title
;
Structure prediction by ZEFSAII (Michael W. Deem and Ramdas Pophale) SiO2 
 PCOD9116987
Probable space group: P 21
;
_chemical_formula_sum "Si O2"
_cell_formula_units_Z 16
_cell_length_a 9.046743
_cell_length_b 11.134180
_cell_length_c 11.775542
_cell_angle_alpha 90.000000
_cell_angle_beta 38.122770
_cell_angle_gamma 90.000000
_cell_volume 732.254145
_symmetry_space_group_name_H-M "P 21"
_symmetry_group_IT_number 4
_symmetry_cell_setting 'monoclinic'
loop_
_space_group_symop_operation_xyz
x,y,z
-x,1/2+y,-z
loop_
_atom_site_type_symbol
_atom_site_label
_atom_site_fract_x
_atom_site_fract_y
_atom_site_fract_z
Si Si1 0.639951 0.651320 0.786987
Si Si2 0.860566 0.435613 0.532340
Si Si3 0.009178 0.838164 0.299299
Si Si4 0.566192 0.993038 0.566577
Si Si5 0.181486 0.570373 0.163820
Si Si6 0.936686 0.405286 0.151353
Si Si7 0.123682 0.724492 0.623501
Si Si8 0.662426 0.384186 0.096435
O O1 0.694730 0.548001 0.662748
O O2 0.502154 0.765561 0.816575
O O3 0.893519 0.685193 0.689126
O O4 0.459579 0.602656 0.992328
O O5 0.943721 0.378262 0.600533
O O6 0.748294 0.328317 0.527363
O O7 0.081762 0.484408 0.322527
O O8 0.044529 0.696937 0.258236
O O9 0.746469 0.885304 0.428791
O O10 0.208682 0.902790 0.100565
O O11 0.313039 0.970433 0.660843
O O12 0.497831 0.982998 0.742351
O O13 0.702065 0.114635 0.460000
O O14 0.131347 0.500766 0.075346
O O15 0.964287 0.285437 0.207611
O O16 0.881878 0.371851 0.054662
#
# Coordination Sequence:
#
# PCOD9116987 Si02
#       8
#     2   2   2   2   2   2   2   2
#     4  11  23  44  71 103 137 178 222 294 339 405
#     4  11  23  42  67 103 138 173 225 285 341 402
#     4  11  22  42  69  95 132 183 225 275 347 395
#     4  10  22  42  68  94 138 176 220 278 334 404
#     4  10  24  45  68  98 140 175 234 278 348 404
#     4   9  24  46  69  96 140 176 226 282 333 414
#     4  11  23  43  71 105 130 180 232 274 346 408
#     4   9  23  46  69  98 139 177 224 280 338 408
#
# _framework density 21.850335999999999
#
# number of rings (size 3 to 8) (size 9 to 14) (size 15 to 20)
#    0.750    1.000    1.250    2.250    1.750    6.000 
#   11.250    2.500    0.000    0.000    0.000    0.000 
#    0.000    0.000    0.000    0.000    0.000    0.000 
#
# Total GULP energy -89294.516879 kJ/mol
# GULP energy per Si atom -5580.907305 kJ/mol
# Density = 2.180060 g / cm^3
# Si number density = 21.850336 Si / 1000 Ang^3
#
#
#
# Elastic Constant Matrix: (Units=GPa)
#
#
# Indices 1 2 3 4 5 6 
#
# 1 56.5906 19.6164 -6.7474 0.0000 2.2616 0.0000
# 2 19.6164 68.4671 18.2211 0.0000 4.5794 0.0000
# 3 -6.7474 18.2211 61.4738 0.0000 -0.5741 0.0000
# 4 0.0000 0.0000 0.0000 5.7546 0.0000 8.4532
# 5 2.2616 4.5794 -0.5741 0.0000 22.7448 0.0000
# 6 0.0000 0.0000 0.0000 8.4532 0.0000 21.5908
#
#
#
# Elastic Compliance Matrix: (Units=1/GPa)
#
#
# Indices 1 2 3 4 5 6 
#
# 1 0.020650 -0.007038 0.004348 0.000000 -0.000527 0.000000
# 2 -0.007038 0.018509 -0.006288 0.000000 -0.003185 0.000000
# 3 0.004348 -0.006288 0.018620 0.000000 0.001304 0.000000
# 4 0.000000 0.000000 0.000000 0.408990 0.000000 -0.160128
# 5 -0.000527 -0.003185 0.001304 0.000000 0.044693 0.000000
# 6 0.000000 0.000000 0.000000 -0.160128 0.000000 0.109009
#
#
# Mechanical properties :
#
#
# Convention : Reuss Voigt Hill
#
# Bulk Modulus (GPa) = 25.11209 27.63462 26.37336
# Shear Modulus (GPa) = 7.67222 20.38082 14.02652
#
# Velocity S-wave (km/s) = 1.87587 3.05740 2.53639
# Velocity P-wave (km/s) = 4.02611 5.01381 4.54686
#
# Compressibility (1/GPa) = 0.03982145
#
# Stress axis : x y z
#
# Youngs Moduli (GPa) = 48.42628 54.02891 53.70465
#
# Poissons Ratio (x) = 0.38027 -0.23350
# Poissons Ratio (y) = 0.34084 0.33771
# Poissons Ratio (z) = -0.21055 0.33975
#
# Static dielectric constant tensor:
#      x y z
#    x 1.809130 0.000000 0.011490 
#    y 0.000000 1.801400 0.000000 
#    z 0.011490 0.000000 1.789400 
# 
# From -- ./inp_files/11329.got.cif
#   From: 2010.05.17/outbox.cif.g08.bks.cpg/sg4_6_cif.got.tgz:11329.got - 2010.06.03 18:43:04.
