data_PCOD9116825
_publ_section_title
;
Structure prediction by ZEFSAII (Michael W. Deem and Ramdas Pophale) SiO2 
 PCOD9116825
Probable space group: P 21
;
_chemical_formula_sum "Si O2"
_cell_formula_units_Z 16
_cell_length_a 11.170316
_cell_length_b 4.782243
_cell_length_c 12.172301
_cell_angle_alpha 90.000000
_cell_angle_beta 70.951105
_cell_angle_gamma 90.000000
_cell_volume 614.627598
_symmetry_space_group_name_H-M "P 21"
_symmetry_group_IT_number 4
_symmetry_cell_setting 'monoclinic'
loop_
_space_group_symop_operation_xyz
x,y,z
-x,1/2+y,-z
loop_
_atom_site_type_symbol
_atom_site_label
_atom_site_fract_x
_atom_site_fract_y
_atom_site_fract_z
Si Si1 0.910326 0.326980 0.400796
Si Si2 0.917147 0.324506 0.644104
Si Si3 0.546082 0.791001 0.420282
Si Si4 0.190007 0.428527 0.742819
Si Si5 0.551711 0.554161 0.776116
Si Si6 0.705900 0.132102 0.056040
Si Si7 0.311055 0.538266 0.175935
Si Si8 0.041454 0.936803 0.050839
O O1 0.860488 0.276788 0.538641
O O2 0.827626 0.204680 0.327181
O O3 0.952096 0.647530 0.388528
O O4 0.039630 0.142906 0.355148
O O5 0.817713 0.195731 0.755627
O O6 0.518195 0.999549 0.529705
O O7 0.696026 0.762090 0.350150
O O8 0.482780 0.937454 0.333204
O O9 0.046812 0.341611 0.821410
O O10 0.244360 0.486817 0.848292
O O11 0.585486 0.281496 0.836913
O O12 0.433681 0.718916 0.865105
O O13 0.663973 0.776853 0.752389
O O14 0.692430 0.951259 0.949962
O O15 0.811342 0.362910 0.994667
O O16 0.014648 0.261028 0.036022
#
# Coordination Sequence:
#
# PCOD9116825 Si02
#       8
#     2   2   2   2   2   2   2   2
#     4  10  22  41  63  93 131 168 222 275 336 382
#     4  10  23  41  63  94 128 175 221 274 322 405
#     4  11  26  46  69 101 136 180 228 283 334 403
#     4  10  24  43  70 102 137 177 225 284 343 406
#     4  11  26  43  68  99 134 180 230 271 335 398
#     4  10  24  44  67 101 138 173 227 279 336 404
#     4  12  24  43  69  94 137 181 226 270 336 398
#     4  10  23  41  67  98 135 176 217 276 346 400
#
# _framework density 26.032024
#
# number of rings (size 3 to 8) (size 9 to 14) (size 15 to 20)
#    0.000    1.500    0.000    3.000    3.500   15.000 
#    0.000    0.000    0.000    0.000    0.000    0.000 
#    0.000    0.000    0.000    0.000    0.000    0.000 
#
# Total GULP energy -89519.001950 kJ/mol
# GULP energy per Si atom -5594.937622 kJ/mol
# Density = 2.597277 g / cm^3
# Si number density = 26.032024 Si / 1000 Ang^3
#
#
#
# Elastic Constant Matrix: (Units=GPa)
#
#
# Indices 1 2 3 4 5 6 
#
# 1 101.8980 30.0582 34.5464 0.0000 -5.9070 0.0000
# 2 30.0582 100.0954 10.8705 0.0000 -5.3020 0.0000
# 3 34.5464 10.8705 126.8220 0.0000 4.2140 0.0000
# 4 0.0000 0.0000 0.0000 26.9676 0.0000 0.0315
# 5 -5.9070 -5.3020 4.2140 0.0000 47.1663 0.0000
# 6 0.0000 0.0000 0.0000 0.0315 0.0000 35.8642
#
#
#
# Elastic Compliance Matrix: (Units=1/GPa)
#
#
# Indices 1 2 3 4 5 6 
#
# 1 0.011844 -0.003157 -0.003002 0.000000 0.001397 0.000000
# 2 -0.003157 0.010995 -0.000111 0.000000 0.000851 0.000000
# 3 -0.003002 -0.000111 0.008751 0.000000 -0.001170 0.000000
# 4 0.000000 0.000000 0.000000 0.037082 0.000000 -0.000033
# 5 0.001397 0.000851 -0.001170 0.000000 0.021577 0.000000
# 6 0.000000 0.000000 0.000000 -0.000033 0.000000 0.027883
#
#
# Mechanical properties :
#
#
# Convention : Reuss Voigt Hill
#
# Bulk Modulus (GPa) = 52.48989 53.30728 52.89858
# Shear Modulus (GPa) = 36.49076 38.88897 37.68987
#
# Velocity S-wave (km/s) = 3.74808 3.86928 3.80916
# Velocity P-wave (km/s) = 6.24004 6.36269 6.30166
#
# Compressibility (1/GPa) = 0.01905129
#
# Stress axis : x y z
#
# Youngs Moduli (GPa) = 84.43366 90.94650 114.26980
#
# Poissons Ratio (x) = 0.28708 0.34304
# Poissons Ratio (y) = 0.26652 0.01267
# Poissons Ratio (z) = 0.25347 0.01008
#
# Static dielectric constant tensor:
#      x y z
#    x 2.116380 0.000000 0.027930 
#    y 0.000000 1.999160 0.000000 
#    z 0.027930 0.000000 2.027450 
# 
# From -- ./inp_files/11625.got.cif
#   From: 2010.05.17/outbox.cif.g08.bks.cpg/sg4_6_cif.got.tgz:11625.got - 2010.06.03 18:43:04.
