data_PCOD9116457
_publ_section_title
;
Structure prediction by ZEFSAII (Michael W. Deem and Ramdas Pophale) SiO2 
 PCOD9116457
Probable space group: P 21
;
_chemical_formula_sum "Si O2"
_cell_formula_units_Z 16
_cell_length_a 6.705211
_cell_length_b 8.025341
_cell_length_c 19.604472
_cell_angle_alpha 90.000000
_cell_angle_beta 43.549329
_cell_angle_gamma 90.000000
_cell_volume 726.836911
_symmetry_space_group_name_H-M "P 21"
_symmetry_group_IT_number 4
_symmetry_cell_setting 'monoclinic'
loop_
_space_group_symop_operation_xyz
x,y,z
-x,1/2+y,-z
loop_
_atom_site_type_symbol
_atom_site_label
_atom_site_fract_x
_atom_site_fract_y
_atom_site_fract_z
Si Si1 0.675367 0.404620 0.944572
Si Si2 0.707267 0.729943 0.188786
Si Si3 0.461645 0.612345 0.117782
Si Si4 0.542343 0.858177 0.506393
Si Si5 0.452358 0.027985 0.404710
Si Si6 0.169604 0.009715 0.714337
Si Si7 0.813142 0.493633 0.669280
Si Si8 0.947108 0.641156 0.775303
O O1 0.514034 0.277463 0.934407
O O2 0.981793 0.319324 0.887000
O O3 0.734793 0.568439 0.884119
O O4 0.519336 0.460656 0.052069
O O5 0.674389 0.621770 0.128497
O O6 0.687864 0.611325 0.259549
O O7 0.443589 0.861730 0.253179
O O8 0.133125 0.600795 0.226817
O O9 0.534843 0.683462 0.546958
O O10 0.377633 0.982870 0.598773
O O11 0.873482 0.908306 0.411822
O O12 0.391181 0.872600 0.469593
O O13 0.775388 0.017069 0.294063
O O14 0.247466 0.059976 0.391778
O O15 0.073388 0.822537 0.759084
O O16 0.820345 0.625200 0.729925
#
# Coordination Sequence:
#
# PCOD9116457 Si02
#       8
#     2   2   2   2   2   2   2   2
#     4  11  23  44  69  96 132 172 223 280 346 410
#     4  11  25  43  69  99 136 178 227 283 341 419
#     4  11  25  44  69  99 132 181 219 284 345 409
#     4  10  25  38  66  96 135 174 226 272 332 401
#     4  10  23  40  62  95 129 178 219 275 330 394
#     4  10  25  43  65  98 137 174 229 283 336 403
#     4  11  23  40  70  94 135 182 224 275 346 399
#     4  10  21  44  64  93 132 173 221 280 336 401
#
# _framework density 22.013192
#
# number of rings (size 3 to 8) (size 9 to 14) (size 15 to 20)
#    0.000    1.500    2.500    0.750    5.250    7.000 
#    2.250    0.000    0.000    0.000    0.000    0.000 
#    0.000    0.000    0.000    0.000    0.000    0.000 
#
# Total GULP energy -89415.538908 kJ/mol
# GULP energy per Si atom -5588.471182 kJ/mol
# Density = 2.196309 g / cm^3
# Si number density = 22.013192 Si / 1000 Ang^3
#
#
#
# Elastic Constant Matrix: (Units=GPa)
#
#
# Indices 1 2 3 4 5 6 
#
# 1 94.2834 2.0627 15.6212 0.0000 14.9327 0.0000
# 2 2.0627 53.0558 5.8017 0.0000 4.4710 0.0000
# 3 15.6212 5.8017 77.0276 0.0000 4.0185 0.0000
# 4 0.0000 0.0000 0.0000 39.5887 0.0000 6.4226
# 5 14.9327 4.4710 4.0185 0.0000 17.7765 0.0000
# 6 0.0000 0.0000 0.0000 6.4226 0.0000 26.1735
#
#
#
# Elastic Compliance Matrix: (Units=1/GPa)
#
#
# Indices 1 2 3 4 5 6 
#
# 1 0.012555 0.000599 -0.002057 0.000000 -0.010232 0.000000
# 2 0.000599 0.019397 -0.001317 0.000000 -0.005084 0.000000
# 3 -0.002057 -0.001317 0.013551 0.000000 -0.001004 0.000000
# 4 0.000000 0.000000 0.000000 0.026307 0.000000 -0.006455
# 5 -0.010232 -0.005084 -0.001004 0.000000 0.066354 0.000000
# 6 0.000000 0.000000 0.000000 -0.006455 0.000000 0.039791
#
#
# Mechanical properties :
#
#
# Convention : Reuss Voigt Hill
#
# Bulk Modulus (GPa) = 25.03009 30.14867 27.58938
# Shear Modulus (GPa) = 25.40346 30.09984 27.75165
#
# Velocity S-wave (km/s) = 3.40076 3.70179 3.55446
# Velocity P-wave (km/s) = 5.17836 5.65654 5.42272
#
# Compressibility (1/GPa) = 0.03995192
#
# Stress axis : x y z
#
# Youngs Moduli (GPa) = 79.65206 51.55367 73.79433
#
# Poissons Ratio (x) = -0.03089 0.15183
# Poissons Ratio (y) = -0.04772 0.09721
# Poissons Ratio (z) = 0.16388 0.06791
#
# Static dielectric constant tensor:
#      x y z
#    x 1.791220 0.000000 0.006060 
#    y 0.000000 1.869540 0.000000 
#    z 0.006060 0.000000 1.817450 
# 
# From -- ./inp_files/3412.got.cif
#   From: 2010.05.17/outbox.cif.g08.bks.cpg/sg4_2_cif.got.tgz:3412.got - 2010.06.03 18:43:04.
