data_PCOD9116095
_publ_section_title
;
Structure prediction by ZEFSAII (Michael W. Deem and Ramdas Pophale) SiO2 
 PCOD9116095
Probable space group: P 21
;
_chemical_formula_sum "Si O2"
_cell_formula_units_Z 16
_cell_length_a 8.648620
_cell_length_b 11.914868
_cell_length_c 7.095830
_cell_angle_alpha 90.000000
_cell_angle_beta 64.520176
_cell_angle_gamma 90.000000
_cell_volume 660.085835
_symmetry_space_group_name_H-M "P 21"
_symmetry_group_IT_number 4
_symmetry_cell_setting 'monoclinic'
loop_
_space_group_symop_operation_xyz
x,y,z
-x,1/2+y,-z
loop_
_atom_site_type_symbol
_atom_site_label
_atom_site_fract_x
_atom_site_fract_y
_atom_site_fract_z
Si Si1 0.440734 0.098590 0.768186
Si Si2 0.896638 0.554447 0.516019
Si Si3 0.215971 0.647925 0.513824
Si Si4 0.732000 0.218184 0.118414
Si Si5 0.118194 0.200048 0.801610
Si Si6 0.165474 0.393329 0.480433
Si Si7 0.515504 0.523387 0.694484
Si Si8 0.479093 0.383853 0.041584
O O1 0.622929 0.159488 0.707629
O O2 0.271802 0.174776 0.864856
O O3 0.455872 0.048682 0.544353
O O4 0.441377 0.996975 0.909661
O O5 0.910915 0.581026 0.288060
O O6 0.700580 0.565926 0.671882
O O7 0.023060 0.649610 0.538098
O O8 0.974376 0.432051 0.520205
O O9 0.217293 0.511807 0.554472
O O10 0.258090 0.730828 0.660476
O O11 0.928761 0.233194 0.961045
O O12 0.646571 0.095265 0.150692
O O13 0.601545 0.293265 0.072496
O O14 0.180505 0.292419 0.618214
O O15 0.290749 0.375729 0.236623
O O16 0.486298 0.404296 0.812918
#
# Coordination Sequence:
#
# PCOD9116095 Si02
#       8
#     2   2   2   2   2   2   2   2
#     4   9  21  39  63  86 119 158 194 248 293 353
#     4   9  19  37  61  83 116 159 188 249 291 349
#     4   8  19  39  58  83 116 152 193 246 294 340
#     4  11  23  37  59  91 119 153 198 248 288 360
#     4  11  21  37  60  87 120 156 201 238 299 353
#     4   9  19  37  62  81 116 160 190 243 298 350
#     4  10  21  40  61  89 121 153 200 243 295 352
#     4  11  21  40  64  86 121 157 196 247 300 343
#
# _framework density 24.239273000000001
#
# number of rings (size 3 to 8) (size 9 to 14) (size 15 to 20)
#    0.750    1.500    0.000    3.750    1.750    0.000 
#    6.750    3.750    8.250    0.000    0.000    0.000 
#    0.000    0.000    0.000    0.000    0.000    0.000 
#
# Total GULP energy -89090.426526 kJ/mol
# GULP energy per Si atom -5568.151658 kJ/mol
# Density = 2.418410 g / cm^3
# Si number density = 24.239273 Si / 1000 Ang^3
#
#
#
# Elastic Constant Matrix: (Units=GPa)
#
#
# Indices 1 2 3 4 5 6 
#
# 1 90.5601 1.2714 10.6066 0.0000 -17.1742 0.0000
# 2 1.2714 39.3452 11.0152 0.0000 -0.0417 0.0000
# 3 10.6066 11.0152 78.7535 0.0000 2.8730 0.0000
# 4 0.0000 0.0000 0.0000 31.9318 0.0000 1.8328
# 5 -17.1742 -0.0417 2.8730 0.0000 21.5971 0.0000
# 6 0.0000 0.0000 0.0000 1.8328 0.0000 34.9893
#
#
#
# Elastic Compliance Matrix: (Units=1/GPa)
#
#
# Indices 1 2 3 4 5 6 
#
# 1 0.013374 0.000203 -0.002228 0.000000 0.010932 0.000000
# 2 0.000203 0.026461 -0.003755 0.000000 0.000712 0.000000
# 3 -0.002228 -0.003755 0.013654 0.000000 -0.003596 0.000000
# 4 0.000000 0.000000 0.000000 0.031411 0.000000 -0.001645
# 5 0.010932 0.000712 -0.003596 0.000000 0.055475 0.000000
# 6 0.000000 0.000000 0.000000 -0.001645 0.000000 0.028666
#
#
# Mechanical properties :
#
#
# Convention : Reuss Voigt Hill
#
# Bulk Modulus (GPa) = 23.84919 28.27169 26.06044
# Shear Modulus (GPa) = 25.69663 30.08801 27.89232
#
# Velocity S-wave (km/s) = 3.25949 3.52702 3.39589
# Velocity P-wave (km/s) = 4.90164 5.31746 5.11378
#
# Compressibility (1/GPa) = 0.04193014
#
# Stress axis : x y z
#
# Youngs Moduli (GPa) = 74.77376 37.79094 73.23702
#
# Poissons Ratio (x) = -0.00768 0.16320
# Poissons Ratio (y) = -0.01520 0.27497
# Poissons Ratio (z) = 0.16663 0.14189
#
# Static dielectric constant tensor:
#      x y z
#    x 2.067870 0.000000 0.046950 
#    y 0.000000 1.993980 0.000000 
#    z 0.046950 0.000000 1.984350 
# 
# From -- ./inp_files/6067.got.cif
#   From: 2010.05.17/outbox.cif.g08.bks.cpg/sg4_4_cif.got.tgz:6067.got - 2010.06.03 18:43:04.
