data_PCOD9116120
_publ_section_title
;
Structure prediction by ZEFSAII (Michael W. Deem and Ramdas Pophale) SiO2 
 PCOD9116120
Probable space group: P 21
;
_chemical_formula_sum "Si O2"
_cell_formula_units_Z 16
_cell_length_a 14.756617
_cell_length_b 8.184821
_cell_length_c 11.268579
_cell_angle_alpha 90.000000
_cell_angle_beta 33.206086
_cell_angle_gamma 90.000000
_cell_volume 745.366559
_symmetry_space_group_name_H-M "P 21"
_symmetry_group_IT_number 4
_symmetry_cell_setting 'monoclinic'
loop_
_space_group_symop_operation_xyz
x,y,z
-x,1/2+y,-z
loop_
_atom_site_type_symbol
_atom_site_label
_atom_site_fract_x
_atom_site_fract_y
_atom_site_fract_z
Si Si1 0.690396 0.944490 0.798580
Si Si2 0.634406 0.463205 0.724851
Si Si3 0.867351 0.269813 0.619337
Si Si4 0.544323 0.397946 0.349327
Si Si5 0.516388 0.783334 0.325395
Si Si6 0.173232 0.255747 0.147404
Si Si7 0.255537 0.290294 0.503756
Si Si8 0.106263 0.884015 0.147109
O O1 0.732506 0.782323 0.829601
O O2 0.667895 0.898493 0.687358
O O3 0.834849 0.078002 0.642363
O O4 0.540355 0.027716 0.033570
O O5 0.708580 0.372751 0.757155
O O6 0.596342 0.332789 0.662760
O O7 0.739890 0.607301 0.552347
O O8 0.915990 0.299553 0.700818
O O9 0.997067 0.326378 0.376805
O O10 0.521699 0.589056 0.341442
O O11 0.541433 0.372677 0.493191
O O12 0.385285 0.305820 0.468501
O O13 0.720661 0.334561 0.104882
O O14 0.703609 0.834677 0.082449
O O15 0.136400 0.074207 0.144158
O O16 0.066546 0.349534 0.731683
#
# Coordination Sequence:
#
# PCOD9116120 Si02
#       8
#     2   2   2   2   2   2   2   2
#     4  11  21  37  63  94 133 173 210 262 323 388
#     4  11  24  38  63  97 129 174 214 263 323 389
#     4  12  21  38  61  98 134 163 213 261 326 384
#     4  11  24  47  68  91 127 169 222 273 322 380
#     4  10  24  46  67  90 125 170 219 270 324 379
#     4  10  21  40  64  90 131 165 209 264 321 377
#     4  12  23  41  63  97 131 170 221 257 325 388
#     4  11  24  41  65  97 132 172 210 266 322 385
#
# _framework density 21.465948000000001
#
# number of rings (size 3 to 8) (size 9 to 14) (size 15 to 20)
#    0.000    1.000    2.500    4.500    1.750    3.000 
#    2.250    0.000    0.000    0.000    0.000    0.000 
#    0.000    0.000    0.000    0.000    0.000    0.000 
#
# Total GULP energy -89309.199920 kJ/mol
# GULP energy per Si atom -5581.824995 kJ/mol
# Density = 2.141709 g / cm^3
# Si number density = 21.465948 Si / 1000 Ang^3
#
#
#
# Elastic Constant Matrix: (Units=GPa)
#
#
# Indices 1 2 3 4 5 6 
#
# 1 45.3105 -7.4751 28.1336 0.0000 -12.2585 0.0000
# 2 -7.4751 52.9017 13.2727 0.0000 -5.6969 0.0000
# 3 28.1336 13.2727 122.2608 0.0000 -1.2208 0.0000
# 4 0.0000 0.0000 0.0000 24.4446 0.0000 0.2195
# 5 -12.2585 -5.6969 -1.2208 0.0000 24.1468 0.0000
# 6 0.0000 0.0000 0.0000 0.2195 0.0000 33.0695
#
#
#
# Elastic Compliance Matrix: (Units=1/GPa)
#
#
# Indices 1 2 3 4 5 6 
#
# 1 0.034046 0.009018 -0.008624 0.000000 0.018976 0.000000
# 2 0.009018 0.022318 -0.004402 0.000000 0.009621 0.000000
# 3 -0.008624 -0.004402 0.010593 0.000000 -0.004881 0.000000
# 4 0.000000 0.000000 0.000000 0.040911 0.000000 -0.000272
# 5 0.018976 0.009621 -0.004881 0.000000 0.053070 0.000000
# 6 0.000000 0.000000 0.000000 -0.000272 0.000000 0.030241
#
#
# Mechanical properties :
#
#
# Convention : Reuss Voigt Hill
#
# Bulk Modulus (GPa) = 16.96620 32.03727 24.50174
# Shear Modulus (GPa) = 22.84763 28.76831 25.80797
#
# Velocity S-wave (km/s) = 3.26600 3.66482 3.47115
# Velocity P-wave (km/s) = 4.70567 5.73280 5.24444
#
# Compressibility (1/GPa) = 0.05894071
#
# Stress axis : x y z
#
# Youngs Moduli (GPa) = 29.37204 44.80757 94.40364
#
# Poissons Ratio (x) = -0.40407 0.81412
# Poissons Ratio (y) = -0.26487 0.41555
# Poissons Ratio (z) = 0.25330 0.19724
#
# Static dielectric constant tensor:
#      x y z
#    x 1.753300 0.000000 -0.053620 
#    y 0.000000 1.781280 0.000000 
#    z -0.053620 0.000000 1.799420 
# 
# From -- ./inp_files/12097.got.cif
#   From: 2010.05.17/outbox.cif.g08.bks.cpg/sg4_7_cif.got.tgz:12097.got - 2010.06.03 18:43:04.
