data_PCOD9116684
_publ_section_title
;
Structure prediction by ZEFSAII (Michael W. Deem and Ramdas Pophale) SiO2 
 PCOD9116684
Probable space group: P 21
;
_chemical_formula_sum "Si O2"
_cell_formula_units_Z 16
_cell_length_a 6.865113
_cell_length_b 10.783086
_cell_length_c 8.870491
_cell_angle_alpha 90.000000
_cell_angle_beta 81.113921
_cell_angle_gamma 90.000000
_cell_volume 648.775187
_symmetry_space_group_name_H-M "P 21"
_symmetry_group_IT_number 4
_symmetry_cell_setting 'monoclinic'
loop_
_space_group_symop_operation_xyz
x,y,z
-x,1/2+y,-z
loop_
_atom_site_type_symbol
_atom_site_label
_atom_site_fract_x
_atom_site_fract_y
_atom_site_fract_z
Si Si1 0.742033 0.890140 0.239942
Si Si2 0.346311 0.144772 0.911147
Si Si3 0.409121 0.912227 0.775727
Si Si4 0.465943 0.128491 0.246392
Si Si5 0.826250 0.702148 0.494817
Si Si6 0.927838 0.096215 0.796904
Si Si7 0.993614 0.342813 0.252950
Si Si8 0.141975 0.823564 0.046658
O O1 0.644093 0.789197 0.139028
O O2 0.739853 0.814412 0.399917
O O3 0.973646 0.893732 0.161082
O O4 0.638614 0.024622 0.241965
O O5 0.472625 0.054979 0.781446
O O6 0.121366 0.107898 0.883092
O O7 0.385434 0.127109 0.084254
O O8 0.500428 0.777722 0.735523
O O9 0.217715 0.905270 0.689535
O O10 0.321777 0.898553 0.957382
O O11 0.322630 0.107091 0.406416
O O12 0.988988 0.635410 0.373745
O O13 0.935911 0.762307 0.622027
O O14 0.788233 0.202985 0.874219
O O15 0.859957 0.955646 0.802470
O O16 0.955737 0.277622 0.099299
#
# Coordination Sequence:
#
# PCOD9116684 Si02
#       8
#     2   2   2   2   2   2   2   2
#     4  10  23  38  64  87 127 160 198 260 305 361
#     4   9  19  40  59  88 120 157 198 255 306 349
#     4   9  21  36  65  92 122 152 208 259 302 357
#     4  12  23  38  64  94 122 166 206 246 317 372
#     4  10  22  40  57  88 129 162 203 250 309 371
#     4   9  19  38  60  85 124 157 200 261 300 354
#     4   9  19  37  63  86 115 167 198 256 306 359
#     4   8  18  37  60  88 113 149 209 251 303 335
#
# _framework density 24.661856
#
# number of rings (size 3 to 8) (size 9 to 14) (size 15 to 20)
#    0.750    2.000    0.000    2.250    1.750    4.000 
#    4.500    0.000   13.750    0.000    0.000    0.000 
#    0.000    0.000    0.000    0.000    0.000    0.000 
#
# Total GULP energy -89088.771733 kJ/mol
# GULP energy per Si atom -5568.048233 kJ/mol
# Density = 2.460572 g / cm^3
# Si number density = 24.661856 Si / 1000 Ang^3
#
#
#
# Elastic Constant Matrix: (Units=GPa)
#
#
# Indices 1 2 3 4 5 6 
#
# 1 17.8890 -2.1589 -2.0044 0.0000 -0.6083 0.0000
# 2 -2.1589 103.1353 9.8996 0.0000 -11.8969 0.0000
# 3 -2.0044 9.8996 96.0732 0.0000 -14.6403 0.0000
# 4 0.0000 0.0000 0.0000 28.1867 0.0000 1.6899
# 5 -0.6083 -11.8969 -14.6403 0.0000 12.8387 0.0000
# 6 0.0000 0.0000 0.0000 1.6899 0.0000 43.8277
#
#
#
# Elastic Compliance Matrix: (Units=1/GPa)
#
#
# Indices 1 2 3 4 5 6 
#
# 1 0.056560 0.001752 0.002003 0.000000 0.006587 0.000000
# 2 0.001752 0.010931 0.000564 0.000000 0.010856 0.000000
# 3 0.002003 0.000564 0.012692 0.000000 0.015091 0.000000
# 4 0.000000 0.000000 0.000000 0.035560 0.000000 -0.001371
# 5 0.006587 0.010856 0.015091 0.000000 0.105470 0.000000
# 6 0.000000 0.000000 0.000000 -0.001371 0.000000 0.022870
#
#
# Mechanical properties :
#
#
# Convention : Reuss Voigt Hill
#
# Bulk Modulus (GPa) = 11.25853 25.39668 18.32761
# Shear Modulus (GPa) = 18.86433 31.06135 24.96284
#
# Velocity S-wave (km/s) = 2.76872 3.55278 3.18497
# Velocity P-wave (km/s) = 3.84657 5.21056 4.57963
#
# Compressibility (1/GPa) = 0.08882152
#
# Stress axis : x y z
#
# Youngs Moduli (GPa) = 17.68032 91.48546 78.78958
#
# Poissons Ratio (x) = -0.16024 -0.15785
# Poissons Ratio (y) = -0.03097 -0.04447
# Poissons Ratio (z) = -0.03542 -0.05164
#
# Static dielectric constant tensor:
#      x y z
#    x 2.185330 0.000000 -0.089050 
#    y 0.000000 2.182710 0.000000 
#    z -0.089050 0.000000 1.921280 
# 
# From -- ./inp_files/6257.got.cif
#   From: 2010.05.17/outbox.cif.g08.bks.cpg/sg4_4_cif.got.tgz:6257.got - 2010.06.03 18:43:04.
