data_PCOD9116471
_publ_section_title
;
Structure prediction by ZEFSAII (Michael W. Deem and Ramdas Pophale) SiO2 
 PCOD9116471
Probable space group: P 21
;
_chemical_formula_sum "Si O2"
_cell_formula_units_Z 16
_cell_length_a 7.570101
_cell_length_b 13.613603
_cell_length_c 9.344147
_cell_angle_alpha 90.000000
_cell_angle_beta 136.691210
_cell_angle_gamma 90.000000
_cell_volume 660.532533
_symmetry_space_group_name_H-M "P 21"
_symmetry_group_IT_number 4
_symmetry_cell_setting 'monoclinic'
loop_
_space_group_symop_operation_xyz
x,y,z
-x,1/2+y,-z
loop_
_atom_site_type_symbol
_atom_site_label
_atom_site_fract_x
_atom_site_fract_y
_atom_site_fract_z
Si Si1 0.322635 0.281110 0.766021
Si Si2 0.242609 0.777184 0.492064
Si Si3 0.233934 0.191860 0.156592
Si Si4 0.791105 0.350270 0.241016
Si Si5 0.761098 0.516017 0.022870
Si Si6 0.069313 0.879101 0.132188
Si Si7 0.834580 0.664167 0.554629
Si Si8 0.190832 0.487428 0.751295
O O1 0.547535 0.305848 0.009327
O O2 0.237681 0.393038 0.676701
O O3 0.054537 0.242537 0.676939
O O4 0.391873 0.202182 0.684622
O O5 0.456162 0.700683 0.664852
O O6 0.273675 0.822841 0.354310
O O7 0.282064 0.861391 0.636093
O O8 0.198914 0.152337 0.296413
O O9 0.133720 0.116874 0.978370
O O10 0.102562 0.297361 0.050909
O O11 0.882870 0.448811 0.217864
O O12 0.987512 0.260618 0.350364
O O13 0.787335 0.445492 0.898926
O O14 0.474376 0.534775 0.915908
O O15 0.897662 0.940790 0.146945
O O16 0.981961 0.568261 0.587574
#
# Coordination Sequence:
#
# PCOD9116471 Si02
#       8
#     2   2   2   2   2   2   2   2
#     4   9  21  41  67  93 130 179 223 279 336 395
#     4  10  22  41  67  95 131 176 220 277 341 397
#     4  12  24  41  71 103 142 178 227 284 344 411
#     4  10  21  44  68  96 133 180 227 282 338 400
#     4  11  22  42  73  99 136 183 229 282 343 406
#     4  11  24  47  68 100 142 178 229 287 339 407
#     4  11  22  40  67 101 136 177 226 284 344 404
#     4  10  22  42  69  97 140 175 231 283 335 400
#
# _framework density 24.22288
#
# number of rings (size 3 to 8) (size 9 to 14) (size 15 to 20)
#    0.000    1.500    2.500    3.750    3.500    0.000 
#    0.000   32.500    0.000    0.000    0.000    0.000 
#    0.000    0.000    0.000    0.000    0.000    0.000 
#
# Total GULP energy -89227.039778 kJ/mol
# GULP energy per Si atom -5576.689986 kJ/mol
# Density = 2.416775 g / cm^3
# Si number density = 24.222880 Si / 1000 Ang^3
#
#
#
# Elastic Constant Matrix: (Units=GPa)
#
#
# Indices 1 2 3 4 5 6 
#
# 1 73.0130 25.5169 9.5275 0.0000 -22.9241 0.0000
# 2 25.5169 62.9134 2.4102 0.0000 -11.4647 0.0000
# 3 9.5275 2.4102 79.2702 0.0000 -20.6323 0.0000
# 4 0.0000 0.0000 0.0000 36.6110 0.0000 -15.5240
# 5 -22.9241 -11.4647 -20.6323 0.0000 34.6822 0.0000
# 6 0.0000 0.0000 0.0000 -15.5240 0.0000 38.2161
#
#
#
# Elastic Compliance Matrix: (Units=1/GPa)
#
#
# Indices 1 2 3 4 5 6 
#
# 1 0.019120 -0.005742 0.000795 0.000000 0.011212 0.000000
# 2 -0.005742 0.018722 0.000880 0.000000 0.002917 0.000000
# 3 0.000795 0.000880 0.015033 0.000000 0.009759 0.000000
# 4 0.000000 0.000000 0.000000 0.032998 0.000000 0.013404
# 5 0.011212 0.002917 0.009759 0.000000 0.043014 0.000000
# 6 0.000000 0.000000 0.000000 0.013404 0.000000 0.031612
#
#
# Mechanical properties :
#
#
# Convention : Reuss Voigt Hill
#
# Bulk Modulus (GPa) = 22.35115 32.23398 27.29257
# Shear Modulus (GPa) = 27.24121 33.75134 30.49627
#
# Velocity S-wave (km/s) = 3.35715 3.73683 3.55207
# Velocity P-wave (km/s) = 4.92693 5.65285 5.30233
#
# Compressibility (1/GPa) = 0.04474043
#
# Stress axis : x y z
#
# Youngs Moduli (GPa) = 52.30251 53.41442 66.52065
#
# Poissons Ratio (x) = 0.30670 -0.05288
# Poissons Ratio (y) = 0.30031 -0.05855
# Poissons Ratio (z) = -0.04158 -0.04701
#
# Static dielectric constant tensor:
#      x y z
#    x 2.033460 0.000000 -0.010630 
#    y 0.000000 1.966650 0.000000 
#    z -0.010630 0.000000 2.086140 
# 
# From -- ./inp_files/6797.got.cif
#   From: 2010.05.17/outbox.cif.g08.bks.cpg/sg4_4_cif.got.tgz:6797.got - 2010.06.03 18:43:04.
