data_PCOD9116347
_publ_section_title
;
Structure prediction by ZEFSAII (Michael W. Deem and Ramdas Pophale) SiO2 
 PCOD9116347
Probable space group: P 21
;
_chemical_formula_sum "Si O2"
_cell_formula_units_Z 16
_cell_length_a 16.114937
_cell_length_b 8.519300
_cell_length_c 16.973596
_cell_angle_alpha 90.000000
_cell_angle_beta 17.800916
_cell_angle_gamma 90.000000
_cell_volume 712.388300
_symmetry_space_group_name_H-M "P 21"
_symmetry_group_IT_number 4
_symmetry_cell_setting 'monoclinic'
loop_
_space_group_symop_operation_xyz
x,y,z
-x,1/2+y,-z
loop_
_atom_site_type_symbol
_atom_site_label
_atom_site_fract_x
_atom_site_fract_y
_atom_site_fract_z
Si Si1 0.541085 0.900400 0.067951
Si Si2 0.399094 0.043337 0.629850
Si Si3 0.861884 0.356835 0.432432
Si Si4 0.886346 0.984648 0.448141
Si Si5 0.933817 0.085447 0.941099
Si Si6 0.487427 0.029990 0.944548
Si Si7 0.393171 0.283348 0.435800
Si Si8 0.459505 0.370392 0.655048
O O1 0.527968 0.716520 0.056097
O O2 0.835089 0.922579 0.841219
O O3 0.303890 0.930182 0.344713
O O4 0.517210 0.997258 0.009687
O O5 0.494668 0.201658 0.584194
O O6 0.088771 0.081975 0.885911
O O7 0.477167 0.905114 0.618689
O O8 0.523358 0.989674 0.434023
O O9 0.862758 0.168227 0.444531
O O10 0.699802 0.388400 0.499844
O O11 0.206381 0.954145 0.167861
O O12 0.732210 0.878578 0.523948
O O13 0.737394 0.967271 0.666859
O O14 0.146588 0.183858 0.696311
O O15 0.650551 0.175470 0.183274
O O16 0.819603 0.905049 0.045498
#
# Coordination Sequence:
#
# PCOD9116347 Si02
#       8
#     2   2   2   2   2   2   2   2
#     4  10  22  43  67 101 133 181 226 288 352 432
#     4  12  25  47  72 101 140 194 238 296 357 420
#     4  10  23  42  70  98 139 182 235 284 358 426
#     4  10  21  43  69 101 130 188 228 289 351 436
#     4  12  26  46  64 102 141 183 239 296 355 425
#     4  10  21  42  69  97 137 171 234 277 359 430
#     4  12  25  47  69 101 141 184 242 293 357 425
#     4  12  25  48  72 103 145 191 244 299 359 428
#
# _framework density 22.459662000000002
#
# number of rings (size 3 to 8) (size 9 to 14) (size 15 to 20)
#    0.000    1.000    3.750    2.250    1.750    0.000 
#    6.750    0.000    0.000    0.000    0.000    0.000 
#    0.000    0.000    0.000    0.000    0.000    0.000 
#
# Total GULP energy -89386.466254 kJ/mol
# GULP energy per Si atom -5586.654141 kJ/mol
# Density = 2.240854 g / cm^3
# Si number density = 22.459662 Si / 1000 Ang^3
#
#
#
# Elastic Constant Matrix: (Units=GPa)
#
#
# Indices 1 2 3 4 5 6 
#
# 1 84.0282 7.2747 -2.5949 0.0000 -0.2339 0.0000
# 2 7.2747 48.2261 32.9552 0.0000 7.5491 0.0000
# 3 -2.5949 32.9552 87.8956 0.0000 -1.0124 0.0000
# 4 0.0000 0.0000 0.0000 23.9660 0.0000 1.7234
# 5 -0.2339 7.5491 -1.0124 0.0000 35.6951 0.0000
# 6 0.0000 0.0000 0.0000 1.7234 0.0000 40.3044
#
#
#
# Elastic Compliance Matrix: (Units=1/GPa)
#
#
# Indices 1 2 3 4 5 6 
#
# 1 0.012206 -0.002972 0.001483 0.000000 0.000751 0.000000
# 2 -0.002972 0.030042 -0.011429 0.000000 -0.006697 0.000000
# 3 0.001483 -0.011429 0.015739 0.000000 0.002873 0.000000
# 4 0.000000 0.000000 0.000000 0.041855 0.000000 -0.001790
# 5 0.000751 -0.006697 0.002873 0.000000 0.029518 0.000000
# 6 0.000000 0.000000 0.000000 -0.001790 0.000000 0.024888
#
#
# Mechanical properties :
#
#
# Convention : Reuss Voigt Hill
#
# Bulk Modulus (GPa) = 31.10250 32.82444 31.96347
# Shear Modulus (GPa) = 26.20540 32.16075 29.18307
#
# Velocity S-wave (km/s) = 3.41952 3.78820 3.60857
# Velocity P-wave (km/s) = 5.42854 5.81210 5.62359
#
# Compressibility (1/GPa) = 0.03215175
#
# Stress axis : x y z
#
# Youngs Moduli (GPa) = 81.92684 33.28644 63.53603
#
# Poissons Ratio (x) = 0.09894 -0.09425
# Poissons Ratio (y) = 0.24353 0.72614
# Poissons Ratio (z) = -0.12154 0.38042
#
# Static dielectric constant tensor:
#      x y z
#    x 1.788450 0.000000 0.022230 
#    y 0.000000 1.861030 0.000000 
#    z 0.022230 0.000000 1.903260 
# 
# From -- ./inp_files/14185.got.cif
#   From: 2010.05.17/outbox.cif.g08.bks.cpg/sg4_8_cif.got.tgz:14185.got - 2010.06.03 18:43:04.
