data_PCOD9116209
_publ_section_title
;
Structure prediction by ZEFSAII (Michael W. Deem and Ramdas Pophale) SiO2 
 PCOD9116209
Probable space group: P 21
;
_chemical_formula_sum "Si O2"
_cell_formula_units_Z 14
_cell_length_a 14.911899
_cell_length_b 4.995604
_cell_length_c 9.801769
_cell_angle_alpha 90.000000
_cell_angle_beta 46.256205
_cell_angle_gamma 90.000000
_cell_volume 527.504917
_symmetry_space_group_name_H-M "P 21"
_symmetry_group_IT_number 4
_symmetry_cell_setting 'monoclinic'
loop_
_space_group_symop_operation_xyz
x,y,z
-x,1/2+y,-z
loop_
_atom_site_type_symbol
_atom_site_label
_atom_site_fract_x
_atom_site_fract_y
_atom_site_fract_z
Si Si1 0.205335 0.697350 0.648481
Si Si2 0.478386 0.889749 0.428751
Si Si3 0.903031 0.722899 0.375519
Si Si4 0.841280 0.190189 0.992943
Si Si5 0.557077 0.870122 0.880935
Si Si6 0.805430 0.830326 0.759626
Si Si7 0.634814 0.534117 0.110954
O O1 0.343387 0.821349 0.512249
O O2 0.202568 0.421104 0.569074
O O3 0.124646 0.926392 0.654820
O O4 0.154997 0.610506 0.851799
O O5 0.512620 0.670587 0.507757
O O6 0.589873 0.826757 0.205730
O O7 0.903436 0.752761 0.539666
O O8 0.029757 0.835309 0.177285
O O9 0.838934 0.986598 0.864200
O O10 0.718026 0.371655 0.126938
O O11 0.495295 0.910566 0.799082
O O12 0.690301 0.960869 0.796829
O O13 0.465150 0.060131 0.064813
O O14 0.738679 0.564089 0.885090
#
# Coordination Sequence:
#
# PCOD9116209 Si02
#       7
#     2   2   2   2   2   2   2
#     4  12  28  54  76 115 159 212 261 325 404 474
#     4  12  25  45  76 114 153 198 260 324 396 477
#     4  12  31  49  80 112 164 207 269 325 395 469
#     4  12  27  50  80 109 156 212 272 318 392 475
#     4  10  21  41  64 101 141 184 231 307 383 444
#     4  11  27  46  78 111 154 198 265 319 397 463
#     4  11  25  43  76 110 151 197 256 322 397 464
#
# _framework density 26.540037000000002
#
# number of rings (size 3 to 8) (size 9 to 14) (size 15 to 20)
#    0.000    0.571    2.857    3.429    8.000    4.571 
#    0.000    0.000    0.000    0.000    0.000    0.000 
#    0.000    0.000    0.000    0.000    0.000    0.000 
#
# Total GULP energy -78165.629844 kJ/mol
# GULP energy per Si atom -5583.259275 kJ/mol
# Density = 2.647963 g / cm^3
# Si number density = 26.540037 Si / 1000 Ang^3
#
#
#
# Elastic Constant Matrix: (Units=GPa)
#
#
# Indices 1 2 3 4 5 6 
#
# 1 101.3053 18.7525 22.4885 0.0000 9.4788 0.0000
# 2 18.7525 56.3430 22.3802 0.0000 31.1494 0.0000
# 3 22.4885 22.3802 149.5973 0.0000 18.7618 0.0000
# 4 0.0000 0.0000 0.0000 27.6195 0.0000 2.7620
# 5 9.4788 31.1494 18.7618 0.0000 44.8146 0.0000
# 6 0.0000 0.0000 0.0000 2.7620 0.0000 47.1711
#
#
#
# Elastic Compliance Matrix: (Units=1/GPa)
#
#
# Indices 1 2 3 4 5 6 
#
# 1 0.010711 -0.003440 -0.001173 0.000000 0.000616 0.000000
# 2 -0.003440 0.030450 -0.001557 0.000000 -0.019786 0.000000
# 3 -0.001173 -0.001557 0.007311 0.000000 -0.001730 0.000000
# 4 0.000000 0.000000 0.000000 0.036420 0.000000 -0.002132
# 5 0.000616 -0.019786 -0.001730 0.000000 0.036661 0.000000
# 6 0.000000 0.000000 0.000000 -0.002132 0.000000 0.021324
#
#
# Mechanical properties :
#
#
# Convention : Reuss Voigt Hill
#
# Bulk Modulus (GPa) = 27.67562 48.27643 37.97603
# Shear Modulus (GPa) = 29.89363 40.16265 35.02814
#
# Velocity S-wave (km/s) = 3.35977 3.89432 3.63688
# Velocity P-wave (km/s) = 5.04988 6.20084 5.65472
#
# Compressibility (1/GPa) = 0.03613289
#
# Stress axis : x y z
#
# Youngs Moduli (GPa) = 93.36595 32.84032 136.78267
#
# Poissons Ratio (x) = 0.11296 0.16042
# Poissons Ratio (y) = 0.32115 0.21296
# Poissons Ratio (z) = 0.10950 0.05113
#
# Static dielectric constant tensor:
#      x y z
#    x 2.203290 0.000000 0.078590 
#    y 0.000000 2.093320 0.000000 
#    z 0.078590 0.000000 2.135510 
# 
# From -- ./inp_files/8758.got.cif
#   From: 2010.05.17/outbox.cif.g08.bks.cpg/sg4_5_cif.got.tgz:8758.got - 2010.06.03 18:43:04.
