data_PCOD9116367
_publ_section_title
;
Structure prediction by ZEFSAII (Michael W. Deem and Ramdas Pophale) SiO2 
 PCOD9116367
Probable space group: P 21
;
_chemical_formula_sum "Si O2"
_cell_formula_units_Z 16
_cell_length_a 10.946820
_cell_length_b 6.661982
_cell_length_c 9.991203
_cell_angle_alpha 90.000000
_cell_angle_beta 54.617421
_cell_angle_gamma 90.000000
_cell_volume 594.057837
_symmetry_space_group_name_H-M "P 21"
_symmetry_group_IT_number 4
_symmetry_cell_setting 'monoclinic'
loop_
_space_group_symop_operation_xyz
x,y,z
-x,1/2+y,-z
loop_
_atom_site_type_symbol
_atom_site_label
_atom_site_fract_x
_atom_site_fract_y
_atom_site_fract_z
Si Si1 0.409664 0.308520 0.428230
Si Si2 0.123500 0.956372 0.936876
Si Si3 0.055363 0.661114 0.182625
Si Si4 0.594469 0.610204 0.126902
Si Si5 0.153299 0.242914 0.436156
Si Si6 0.319578 0.812542 0.162029
Si Si7 0.292440 0.633652 0.667077
Si Si8 0.874545 0.213472 0.483583
O O1 0.496384 0.482804 0.294021
O O2 0.322113 0.190904 0.367639
O O3 0.300594 0.403812 0.610453
O O4 0.533604 0.175988 0.419188
O O5 0.245631 0.127334 0.897146
O O6 0.209876 0.748500 0.840588
O O7 0.042075 0.884104 0.123644
O O8 0.013079 0.017313 0.887803
O O9 0.227904 0.648178 0.127266
O O10 0.949020 0.653200 0.379708
O O11 0.472530 0.762507 0.143577
O O12 0.641924 0.484310 0.966281
O O13 0.161218 0.484847 0.452437
O O14 0.053926 0.225865 0.366087
O O15 0.191857 0.850215 0.355186
O O16 0.218320 0.749412 0.589854
#
# Coordination Sequence:
#
# PCOD9116367 Si02
#       8
#     2   2   2   2   2   2   2   2
#     4  10  22  40  61  91 123 158 208 250 312 363
#     4  10  24  41  62  92 125 161 208 252 310 369
#     4  10  24  41  62  92 125 161 208 252 310 369
#     4  10  21  43  59  88 122 157 203 254 296 373
#     4  10  22  39  63  89 126 156 204 255 302 374
#     4  10  21  43  59  88 122 157 203 254 296 373
#     4  10  22  39  63  89 126 156 204 255 302 374
#     4  10  22  40  61  91 123 158 208 250 312 363
#
# _framework density 26.933406000000002
#
# number of rings (size 3 to 8) (size 9 to 14) (size 15 to 20)
#    0.000    2.000    2.500    0.000   10.500    1.000 
#   13.500    0.000    0.000    0.000    0.000    0.000 
#    0.000    0.000    0.000    0.000    0.000    0.000 
#
# Total GULP energy -89322.842661 kJ/mol
# GULP energy per Si atom -5582.677666 kJ/mol
# Density = 2.687210 g / cm^3
# Si number density = 26.933406 Si / 1000 Ang^3
#
#
#
# Elastic Constant Matrix: (Units=GPa)
#
#
# Indices 1 2 3 4 5 6 
#
# 1 169.0548 13.5428 26.2188 0.0000 -7.9777 0.0000
# 2 13.5428 30.5806 5.2362 0.0000 -2.5935 0.0000
# 3 26.2188 5.2362 94.2927 0.0000 3.9044 0.0000
# 4 0.0000 0.0000 0.0000 38.8347 0.0000 6.9370
# 5 -7.9777 -2.5935 3.9044 0.0000 44.8122 0.0000
# 6 0.0000 0.0000 0.0000 6.9370 0.0000 49.1740
#
#
#
# Elastic Compliance Matrix: (Units=1/GPa)
#
#
# Indices 1 2 3 4 5 6 
#
# 1 0.006430 -0.002459 -0.001699 0.000000 0.001150 0.000000
# 2 -0.002459 0.034149 -0.001281 0.000000 0.001650 0.000000
# 3 -0.001699 -0.001281 0.011205 0.000000 -0.001353 0.000000
# 4 0.000000 0.000000 0.000000 0.026416 0.000000 -0.003727
# 5 0.001150 0.001650 -0.001353 0.000000 0.022734 0.000000
# 6 0.000000 0.000000 0.000000 -0.003727 0.000000 0.020862
#
#
# Mechanical properties :
#
#
# Convention : Reuss Voigt Hill
#
# Bulk Modulus (GPa) = 24.44650 42.65821 33.55235
# Shear Modulus (GPa) = 34.17451 43.15952 38.66701
#
# Velocity S-wave (km/s) = 3.56596 4.00741 3.79311
# Velocity P-wave (km/s) = 5.10403 6.10616 5.62745
#
# Compressibility (1/GPa) = 0.04090566
#
# Stress axis : x y z
#
# Youngs Moduli (GPa) = 155.52042 29.28362 89.24709
#
# Poissons Ratio (x) = 0.07201 0.15163
# Poissons Ratio (y) = 0.38244 0.11432
# Poissons Ratio (z) = 0.26423 0.03751
#
# Static dielectric constant tensor:
#      x y z
#    x 2.132540 0.000000 0.000380 
#    y 0.000000 2.255620 0.000000 
#    z 0.000380 0.000000 2.149900 
# 
# From -- ./inp_files/12114.got.cif
#   From: 2010.05.17/outbox.cif.g08.bks.cpg/sg4_7_cif.got.tgz:12114.got - 2010.06.03 18:43:04.
