data_PCOD9116812
_publ_section_title
;
Structure prediction by ZEFSAII (Michael W. Deem and Ramdas Pophale) SiO2 
 PCOD9116812
Probable space group: P 21
;
_chemical_formula_sum "Si O2"
_cell_formula_units_Z 16
_cell_length_a 7.877098
_cell_length_b 8.388002
_cell_length_c 9.235712
_cell_angle_alpha 90.000000
_cell_angle_beta 87.986436
_cell_angle_gamma 90.000000
_cell_volume 609.855454
_symmetry_space_group_name_H-M "P 21"
_symmetry_group_IT_number 4
_symmetry_cell_setting 'monoclinic'
loop_
_space_group_symop_operation_xyz
x,y,z
-x,1/2+y,-z
loop_
_atom_site_type_symbol
_atom_site_label
_atom_site_fract_x
_atom_site_fract_y
_atom_site_fract_z
Si Si1 0.145426 0.633950 0.821044
Si Si2 0.982239 0.850894 0.018871
Si Si3 0.492466 0.003321 0.105968
Si Si4 0.330747 0.856623 0.357947
Si Si5 0.347016 0.344358 0.159315
Si Si6 0.854350 0.683041 0.315888
Si Si7 0.967051 0.995636 0.450323
Si Si8 0.492963 0.536298 0.401899
O O1 0.006286 0.520739 0.903692
O O2 0.323293 0.543762 0.831143
O O3 0.091022 0.638318 0.656125
O O4 0.141656 0.788424 0.922451
O O5 0.918718 0.737978 0.154819
O O6 0.839939 0.870527 0.898126
O O7 0.386200 0.161584 0.129411
O O8 0.395838 0.863613 0.192581
O O9 0.532136 0.952401 0.943853
O O10 0.145212 0.925030 0.385340
O O11 0.361734 0.680646 0.414258
O O12 0.450876 0.973233 0.445164
O O13 0.399833 0.397046 0.316588
O O14 0.985900 0.564027 0.393713
O O15 0.668516 0.601839 0.324105
O O16 0.848266 0.843379 0.417284
#
# Coordination Sequence:
#
# PCOD9116812 Si02
#       8
#     2   2   2   2   2   2   2   2
#     4  10  23  40  60  90 126 165 208 262 318 377
#     4  10  22  41  61  90 126 163 210 262 316 380
#     4  11  23  41  63  92 129 168 215 268 320 384
#     4  11  23  41  64  93 128 166 213 263 318 389
#     4  11  23  40  65  92 123 171 216 265 326 381
#     4  10  23  43  63  93 129 162 210 264 319 383
#     4  10  23  40  64  92 125 167 208 259 321 379
#     4  11  24  42  64  92 126 168 214 269 324 383
#
# _framework density 26.235723
#
# number of rings (size 3 to 8) (size 9 to 14) (size 15 to 20)
#    0.000    1.500    0.000    5.250    0.000   14.000 
#    0.000    1.250    0.000    0.000    0.000    0.000 
#    0.000    0.000    0.000    0.000    0.000    0.000 
#
# Total GULP energy -89654.820344 kJ/mol
# GULP energy per Si atom -5603.426272 kJ/mol
# Density = 2.617601 g / cm^3
# Si number density = 26.235723 Si / 1000 Ang^3
#
#
#
# Elastic Constant Matrix: (Units=GPa)
#
#
# Indices 1 2 3 4 5 6 
#
# 1 97.6735 6.9302 49.3215 0.0000 8.8904 0.0000
# 2 6.9302 50.2474 7.3250 0.0000 -0.1863 0.0000
# 3 49.3215 7.3250 97.8393 0.0000 6.6692 0.0000
# 4 0.0000 0.0000 0.0000 45.7771 0.0000 11.5169
# 5 8.8904 -0.1863 6.6692 0.0000 39.9070 0.0000
# 6 0.0000 0.0000 0.0000 11.5169 0.0000 31.1249
#
#
#
# Elastic Compliance Matrix: (Units=1/GPa)
#
#
# Indices 1 2 3 4 5 6 
#
# 1 0.013925 -0.000934 -0.006816 0.000000 -0.001968 0.000000
# 2 -0.000934 0.020189 -0.001073 0.000000 0.000482 0.000000
# 3 -0.006816 -0.001073 0.013791 0.000000 -0.000791 0.000000
# 4 0.000000 0.000000 0.000000 0.024087 0.000000 -0.008913
# 5 -0.001968 0.000482 -0.000791 0.000000 0.025631 0.000000
# 6 0.000000 0.000000 0.000000 -0.008913 0.000000 0.035427
#
#
# Mechanical properties :
#
#
# Convention : Reuss Voigt Hill
#
# Bulk Modulus (GPa) = 33.04897 41.43486 37.24191
# Shear Modulus (GPa) = 31.09784 35.50736 33.30260
#
# Velocity S-wave (km/s) = 3.44659 3.68285 3.56667
# Velocity P-wave (km/s) = 5.33506 5.82341 5.58458
#
# Compressibility (1/GPa) = 0.03025813
#
# Stress axis : x y z
#
# Youngs Moduli (GPa) = 71.81178 49.53284 72.51096
#
# Poissons Ratio (x) = 0.04628 0.49422
# Poissons Ratio (y) = 0.06709 0.07783
# Poissons Ratio (z) = 0.48945 0.05317
#
# Static dielectric constant tensor:
#      x y z
#    x 2.063020 0.000000 -0.026770 
#    y 0.000000 2.079720 0.000000 
#    z -0.026770 0.000000 1.994460 
# 
# From -- ./inp_files/5613.got.cif
#   From: 2010.05.17/outbox.cif.g08.bks.cpg/sg4_3_cif.got.tgz:5613.got - 2010.06.03 18:43:04.
