data_PCOD9116353
_publ_section_title
;
Structure prediction by ZEFSAII (Michael W. Deem and Ramdas Pophale) SiO2 
 PCOD9116353
Probable space group: P 21
;
_chemical_formula_sum "Si O2"
_cell_formula_units_Z 16
_cell_length_a 14.346088
_cell_length_b 5.764047
_cell_length_c 12.183025
_cell_angle_alpha 90.000000
_cell_angle_beta 39.377230
_cell_angle_gamma 90.000000
_cell_volume 639.138990
_symmetry_space_group_name_H-M "P 21"
_symmetry_group_IT_number 4
_symmetry_cell_setting 'monoclinic'
loop_
_space_group_symop_operation_xyz
x,y,z
-x,1/2+y,-z
loop_
_atom_site_type_symbol
_atom_site_label
_atom_site_fract_x
_atom_site_fract_y
_atom_site_fract_z
Si Si1 0.429573 0.545750 0.685875
Si Si2 0.429292 0.373826 0.913282
Si Si3 0.031688 0.039845 0.762958
Si Si4 0.325246 0.138441 0.217789
Si Si5 0.772401 0.940278 0.525909
Si Si6 0.253703 0.778461 0.003749
Si Si7 0.933879 0.645874 0.687918
Si Si8 0.715010 0.271501 0.381077
O O1 0.399796 0.354450 0.809701
O O2 0.591191 0.474225 0.498163
O O3 0.329843 0.588118 0.671352
O O4 0.389970 0.778438 0.793547
O O5 0.596473 0.436236 0.788250
O O6 0.392205 0.186660 0.037923
O O7 0.325230 0.603281 0.029844
O O8 0.149622 0.225821 0.609641
O O9 0.881792 0.158721 0.939116
O O10 0.122766 0.884906 0.766202
O O11 0.968319 0.883077 0.720684
O O12 0.346474 0.350970 0.281027
O O13 0.154365 0.126931 0.344600
O O14 0.715128 0.125520 0.492726
O O15 0.905871 0.045441 0.472792
O O16 0.166244 0.989825 0.137687
#
# Coordination Sequence:
#
# PCOD9116353 Si02
#       8
#     2   2   2   2   2   2   2   2
#     4  10  25  48  68 105 140 184 247 296 371 426
#     4  10  24  41  64 102 137 182 235 285 355 433
#     4  10  21  48  65 104 137 183 246 285 356 429
#     4  12  23  40  68 103 141 187 225 295 354 434
#     4  10  26  42  73 102 141 187 241 287 366 433
#     4   9  21  46  65  98 141 178 235 294 345 434
#     4  10  21  42  70  97 141 186 229 293 357 419
#     4  11  25  47  73 101 142 193 232 313 356 430
#
# _framework density 25.033677999999998
#
# number of rings (size 3 to 8) (size 9 to 14) (size 15 to 20)
#    0.750    1.000    1.250    1.500    7.000    0.000 
#   15.750    0.000    0.000    0.000    0.000    0.000 
#    0.000    0.000    0.000    0.000    0.000    0.000 
#
# Total GULP energy -89152.361223 kJ/mol
# GULP energy per Si atom -5572.022576 kJ/mol
# Density = 2.497670 g / cm^3
# Si number density = 25.033678 Si / 1000 Ang^3
#
#
#
# Elastic Constant Matrix: (Units=GPa)
#
#
# Indices 1 2 3 4 5 6 
#
# 1 198.1467 39.5485 38.5240 0.0000 -1.0600 0.0000
# 2 39.5485 59.1348 18.4008 0.0000 -14.7260 0.0000
# 3 38.5240 18.4008 68.4413 0.0000 3.2127 0.0000
# 4 0.0000 0.0000 0.0000 37.6190 0.0000 -15.8102
# 5 -1.0600 -14.7260 3.2127 0.0000 17.5574 0.0000
# 6 0.0000 0.0000 0.0000 -15.8102 0.0000 36.4273
#
#
#
# Elastic Compliance Matrix: (Units=1/GPa)
#
#
# Indices 1 2 3 4 5 6 
#
# 1 0.006314 -0.004179 -0.002304 0.000000 -0.002702 0.000000
# 2 -0.004179 0.027626 -0.006204 0.000000 0.024054 0.000000
# 3 -0.002304 -0.006204 0.017981 0.000000 -0.008633 0.000000
# 4 0.000000 0.000000 0.000000 0.032513 0.000000 0.014111
# 5 -0.002702 0.024054 -0.008633 0.000000 0.078547 0.000000
# 6 0.000000 0.000000 0.000000 0.014111 0.000000 0.033577
#
#
# Mechanical properties :
#
#
# Convention : Reuss Voigt Hill
#
# Bulk Modulus (GPa) = 37.66864 57.62994 47.64929
# Shear Modulus (GPa) = 21.66554 33.60403 27.63479
#
# Velocity S-wave (km/s) = 2.94505 3.66779 3.32611
# Velocity P-wave (km/s) = 5.16181 6.40374 5.81602
#
# Compressibility (1/GPa) = 0.02654728
#
# Stress axis : x y z
#
# Youngs Moduli (GPa) = 158.37039 36.19795 55.61403
#
# Poissons Ratio (x) = 0.15127 0.12812
# Poissons Ratio (y) = 0.66183 0.34504
# Poissons Ratio (z) = 0.36485 0.22458
#
# Static dielectric constant tensor:
#      x y z
#    x 1.987460 0.000000 -0.013430 
#    y 0.000000 2.112970 0.000000 
#    z -0.013430 0.000000 1.987310 
# 
# From -- ./inp_files/12493.got.cif
#   From: 2010.05.17/outbox.cif.g08.bks.cpg/sg4_7_cif.got.tgz:12493.got - 2010.06.03 18:43:04.
