data_PCOD9116914
_publ_section_title
;
Structure prediction by ZEFSAII (Michael W. Deem and Ramdas Pophale) SiO2 
 PCOD9116914
Probable space group: P 21
;
_chemical_formula_sum "Si O2"
_cell_formula_units_Z 16
_cell_length_a 11.109097
_cell_length_b 6.962894
_cell_length_c 8.976813
_cell_angle_alpha 90.000000
_cell_angle_beta 113.075953
_cell_angle_gamma 90.000000
_cell_volume 638.810399
_symmetry_space_group_name_H-M "P 21"
_symmetry_group_IT_number 4
_symmetry_cell_setting 'monoclinic'
loop_
_space_group_symop_operation_xyz
x,y,z
-x,1/2+y,-z
loop_
_atom_site_type_symbol
_atom_site_label
_atom_site_fract_x
_atom_site_fract_y
_atom_site_fract_z
Si Si1 0.671821 0.865070 0.508904
Si Si2 0.345438 0.342686 0.812827
Si Si3 0.820611 0.951372 0.852336
Si Si4 0.130290 0.835415 0.397032
Si Si5 0.113749 0.040686 0.719381
Si Si6 0.423201 0.572388 0.123379
Si Si7 0.105565 0.027523 0.050572
Si Si8 0.592463 0.423477 0.441286
O O1 0.693343 0.943567 0.356735
O O2 0.655651 0.634483 0.484720
O O3 0.797287 0.902743 0.669442
O O4 0.528737 0.916856 0.503911
O O5 0.243680 0.171836 0.784054
O O6 0.490850 0.257017 0.862669
O O7 0.353756 0.491162 0.946954
O O8 0.697513 0.087400 0.824692
O O9 0.821833 0.734894 0.920415
O O10 0.949385 0.054562 0.968428
O O11 0.110641 0.935964 0.554186
O O12 0.124876 0.939828 0.227721
O O13 0.285741 0.785633 0.475978
O O14 0.012587 0.681543 0.335490
O O15 0.124459 0.937177 0.890188
O O16 0.520852 0.416584 0.246541
#
# Coordination Sequence:
#
# PCOD9116914 Si02
#       8
#     2   2   2   2   2   2   2   2
#     4  10  22  41  70  92 138 170 229 285 335 414
#     4  11  22  45  63 101 132 177 224 285 349 403
#     4  11  23  45  68  98 134 179 230 285 342 416
#     4  12  26  48  69 104 144 187 235 285 353 419
#     4  12  27  45  72 104 144 186 233 292 347 419
#     4  10  22  43  65  91 138 165 225 281 335 413
#     4  12  24  46  71 100 144 186 233 285 349 419
#     4  10  22  43  64  98 130 178 223 278 342 407
#
# _framework density 25.046555999999999
#
# number of rings (size 3 to 8) (size 9 to 14) (size 15 to 20)
#    0.000    1.000    6.250    0.000    3.500    6.000 
#    6.750    0.000    0.000    0.000    0.000    0.000 
#    0.000    0.000    0.000    0.000    0.000    0.000 
#
# Total GULP energy -89218.318992 kJ/mol
# GULP energy per Si atom -5576.144937 kJ/mol
# Density = 2.498955 g / cm^3
# Si number density = 25.046556 Si / 1000 Ang^3
#
#
#
# Elastic Constant Matrix: (Units=GPa)
#
#
# Indices 1 2 3 4 5 6 
#
# 1 92.8529 8.4572 37.8322 0.0000 -2.5030 0.0000
# 2 8.4572 34.9438 37.8604 0.0000 -16.1927 0.0000
# 3 37.8322 37.8604 200.1588 0.0000 -29.2190 0.0000
# 4 0.0000 0.0000 0.0000 39.8181 0.0000 -5.5172
# 5 -2.5030 -16.1927 -29.2190 0.0000 53.4682 0.0000
# 6 0.0000 0.0000 0.0000 -5.5172 0.0000 33.3248
#
#
#
# Elastic Compliance Matrix: (Units=1/GPa)
#
#
# Indices 1 2 3 4 5 6 
#
# 1 0.011714 -0.000899 -0.002177 0.000000 -0.000914 0.000000
# 2 -0.000899 0.039330 -0.006017 0.000000 0.008581 0.000000
# 3 -0.002177 -0.006017 0.006808 0.000000 0.001796 0.000000
# 4 0.000000 0.000000 0.000000 0.025704 0.000000 0.004256
# 5 -0.000914 0.008581 0.001796 0.000000 0.022240 0.000000
# 6 0.000000 0.000000 0.000000 0.004256 0.000000 0.030712
#
#
# Mechanical properties :
#
#
# Convention : Reuss Voigt Hill
#
# Bulk Modulus (GPa) = 25.21104 55.13947 40.17526
# Shear Modulus (GPa) = 29.77651 41.57594 35.67622
#
# Velocity S-wave (km/s) = 3.45171 4.07866 3.77821
# Velocity P-wave (km/s) = 5.09639 6.65156 5.92522
#
# Compressibility (1/GPa) = 0.03966516
#
# Stress axis : x y z
#
# Youngs Moduli (GPa) = 85.36672 25.42567 146.88857
#
# Poissons Ratio (x) = 0.02287 0.31983
# Poissons Ratio (y) = 0.07678 0.88379
# Poissons Ratio (z) = 0.18588 0.15298
#
# Static dielectric constant tensor:
#      x y z
#    x 2.042120 0.000000 -0.061560 
#    y 0.000000 2.068800 0.000000 
#    z -0.061560 0.000000 2.022390 
# 
# From -- ./inp_files/7889.got.cif
#   From: 2010.05.17/outbox.cif.g08.bks.cpg/sg4_4_cif.got.tgz:7889.got - 2010.06.03 18:43:04.
