data_PCOD9116147
_publ_section_title
;
Structure prediction by ZEFSAII (Michael W. Deem and Ramdas Pophale) SiO2 
 PCOD9116147
Probable space group: P 21
;
_chemical_formula_sum "Si O2"
_cell_formula_units_Z 16
_cell_length_a 7.606761
_cell_length_b 12.127735
_cell_length_c 7.781768
_cell_angle_alpha 90.000000
_cell_angle_beta 122.988856
_cell_angle_gamma 90.000000
_cell_volume 602.149035
_symmetry_space_group_name_H-M "P 21"
_symmetry_group_IT_number 4
_symmetry_cell_setting 'monoclinic'
loop_
_space_group_symop_operation_xyz
x,y,z
-x,1/2+y,-z
loop_
_atom_site_type_symbol
_atom_site_label
_atom_site_fract_x
_atom_site_fract_y
_atom_site_fract_z
Si Si1 0.489632 0.723990 0.348985
Si Si2 0.062716 0.032971 0.264581
Si Si3 0.731062 0.535633 0.275356
Si Si4 0.354691 0.459053 0.862945
Si Si5 0.772409 0.737750 0.071639
Si Si6 0.938792 0.778580 0.634202
Si Si7 0.339540 0.676949 0.648888
Si Si8 0.874549 0.359708 0.962036
O O1 0.575730 0.614294 0.305687
O O2 0.691330 0.801376 0.487173
O O3 0.375385 0.699095 0.467761
O O4 0.327677 0.783914 0.139066
O O5 0.125102 0.991247 0.491214
O O6 0.089027 0.162553 0.277061
O O7 0.819038 0.012090 0.102443
O O8 0.179866 0.966525 0.179392
O O9 0.835192 0.625582 0.202903
O O10 0.576597 0.463892 0.076698
O O11 0.271112 0.334669 0.814319
O O12 0.338648 0.546682 0.698966
O O13 0.951829 0.790089 0.050551
O O14 0.551693 0.718808 0.857364
O O15 0.127011 0.738702 0.604562
O O16 0.032402 0.875452 0.800039
#
# Coordination Sequence:
#
# PCOD9116147 Si02
#       8
#     2   2   2   2   2   2   2   2
#     4  11  23  39  66  95 127 169 211 265 319 377
#     4   9  21  38  67  89 127 167 210 263 319 372
#     4  10  22  42  61  93 133 168 210 272 314 377
#     4   9  20  40  65  90 129 169 211 262 323 378
#     4  10  21  40  66  94 130 173 213 262 326 381
#     4  10  22  45  63  89 135 167 208 270 319 378
#     4  10  21  42  65  91 130 171 211 265 320 381
#     4  11  22  38  67  97 123 170 216 259 322 382
#
# _framework density 26.571494999999999
#
# number of rings (size 3 to 8) (size 9 to 14) (size 15 to 20)
#    0.000    2.000    1.250    2.250    7.000    0.000 
#    9.000    0.000    2.750    0.000    0.000    0.000 
#    0.000    0.000    0.000    0.000    0.000    0.000 
#
# Total GULP energy -89445.634529 kJ/mol
# GULP energy per Si atom -5590.352158 kJ/mol
# Density = 2.651102 g / cm^3
# Si number density = 26.571495 Si / 1000 Ang^3
#
#
#
# Elastic Constant Matrix: (Units=GPa)
#
#
# Indices 1 2 3 4 5 6 
#
# 1 127.0966 1.6129 13.8242 0.0000 11.0361 0.0000
# 2 1.6129 65.8177 -7.8912 0.0000 7.4952 0.0000
# 3 13.8242 -7.8912 68.0508 0.0000 9.6345 0.0000
# 4 0.0000 0.0000 0.0000 28.6239 0.0000 -7.1060
# 5 11.0361 7.4952 9.6345 0.0000 54.5057 0.0000
# 6 0.0000 0.0000 0.0000 -7.1060 0.0000 28.6822
#
#
#
# Elastic Compliance Matrix: (Units=1/GPa)
#
#
# Indices 1 2 3 4 5 6 
#
# 1 0.008151 -0.000224 -0.001490 0.000000 -0.001356 0.000000
# 2 -0.000224 0.015752 0.002228 0.000000 -0.002515 0.000000
# 3 -0.001490 0.002228 0.015648 0.000000 -0.002771 0.000000
# 4 0.000000 0.000000 0.000000 0.037225 0.000000 0.009223
# 5 -0.001356 -0.002515 -0.002771 0.000000 0.019457 0.000000
# 6 0.000000 0.000000 0.000000 0.009223 0.000000 0.037150
#
#
# Mechanical properties :
#
#
# Convention : Reuss Voigt Hill
#
# Bulk Modulus (GPa) = 24.64241 30.67299 27.65770
# Shear Modulus (GPa) = 34.27447 39.25696 36.76572
#
# Velocity S-wave (km/s) = 3.59541 3.84788 3.72378
# Velocity P-wave (km/s) = 5.15074 5.59555 5.37774
#
# Compressibility (1/GPa) = 0.04058045
#
# Stress axis : x y z
#
# Youngs Moduli (GPa) = 122.68923 63.48203 63.90513
#
# Poissons Ratio (x) = 0.01421 0.09520
# Poissons Ratio (y) = 0.02747 -0.14239
# Poissons Ratio (z) = 0.18277 -0.14145
#
# Static dielectric constant tensor:
#      x y z
#    x 2.081840 0.000000 -0.042370 
#    y 0.000000 2.162710 0.000000 
#    z -0.042370 0.000000 2.207950 
# 
# From -- ./inp_files/6675.got.cif
#   From: 2010.05.17/outbox.cif.g08.bks.cpg/sg4_4_cif.got.tgz:6675.got - 2010.06.03 18:43:04.
