data_PCOD9116343
_publ_section_title
;
Structure prediction by ZEFSAII (Michael W. Deem and Ramdas Pophale) SiO2 
 PCOD9116343
Probable space group: P 21
;
_chemical_formula_sum "Si O2"
_cell_formula_units_Z 16
_cell_length_a 11.203912
_cell_length_b 9.078465
_cell_length_c 8.869268
_cell_angle_alpha 90.000000
_cell_angle_beta 136.604174
_cell_angle_gamma 90.000000
_cell_volume 619.795596
_symmetry_space_group_name_H-M "P 21"
_symmetry_group_IT_number 4
_symmetry_cell_setting 'monoclinic'
loop_
_space_group_symop_operation_xyz
x,y,z
-x,1/2+y,-z
loop_
_atom_site_type_symbol
_atom_site_label
_atom_site_fract_x
_atom_site_fract_y
_atom_site_fract_z
Si Si1 0.820964 0.966050 0.199136
Si Si2 0.405807 0.781996 0.527796
Si Si3 0.131561 0.954591 0.109558
Si Si4 0.334437 0.305047 0.654104
Si Si5 0.710113 0.688702 0.951075
Si Si6 0.798030 0.515813 0.333993
Si Si7 0.727280 0.285301 0.040978
Si Si8 0.733070 0.969702 0.701493
O O1 0.723808 0.890734 0.249846
O O2 0.817274 0.836934 0.073818
O O3 0.008716 0.014977 0.426583
O O4 0.729228 0.110263 0.053562
O O5 0.573297 0.873743 0.623138
O O6 0.349123 0.631367 0.395561
O O7 0.503412 0.722017 0.767877
O O8 0.236998 0.884461 0.347764
O O9 0.152972 0.843484 0.985578
O O10 0.929696 0.991205 0.942171
O O11 0.233351 0.100751 0.146183
O O12 0.236885 0.382314 0.428017
O O13 0.304468 0.129816 0.651695
O O14 0.536452 0.334554 0.817223
O O15 0.770833 0.591463 0.146759
O O16 0.762040 0.349690 0.241775
#
# Coordination Sequence:
#
# PCOD9116343 Si02
#       8
#     2   2   2   2   2   2   2   2
#     4  11  23  40  72 107 143 193 249 309 379 459
#     4  12  26  49  75 107 154 199 264 321 376 464
#     4  11  25  48  72 107 152 200 250 316 384 458
#     4  11  22  44  68 101 146 193 239 314 384 449
#     4  10  23  45  70 107 152 197 247 311 384 455
#     4  10  21  42  69 105 145 190 243 305 382 459
#     4  11  21  40  67 105 146 189 247 303 378 459
#     4  12  27  48  77 105 148 203 261 325 391 451
#
# _framework density 25.814961
#
# number of rings (size 3 to 8) (size 9 to 14) (size 15 to 20)
#    0.000    1.000    2.500    5.250    3.500    1.000 
#    0.000    5.000    0.000    0.000    0.000    0.000 
#    0.000    0.000    0.000    0.000    0.000    0.000 
#
# Total GULP energy -89449.678274 kJ/mol
# GULP energy per Si atom -5590.604892 kJ/mol
# Density = 2.575621 g / cm^3
# Si number density = 25.814961 Si / 1000 Ang^3
#
#
#
# Elastic Constant Matrix: (Units=GPa)
#
#
# Indices 1 2 3 4 5 6 
#
# 1 55.1982 16.8142 17.6778 0.0000 21.4477 0.0000
# 2 16.8142 125.0068 17.7718 0.0000 1.9156 0.0000
# 3 17.6778 17.7718 193.7002 0.0000 36.9459 0.0000
# 4 0.0000 0.0000 0.0000 45.1682 0.0000 -5.8354
# 5 21.4477 1.9156 36.9459 0.0000 33.1743 0.0000
# 6 0.0000 0.0000 0.0000 -5.8354 0.0000 27.1231
#
#
#
# Elastic Compliance Matrix: (Units=1/GPa)
#
#
# Indices 1 2 3 4 5 6 
#
# 1 0.025676 -0.003376 0.001391 0.000000 -0.017954 0.000000
# 2 -0.003376 0.008555 -0.001014 0.000000 0.002818 0.000000
# 3 0.001391 -0.001014 0.006716 0.000000 -0.008320 0.000000
# 4 0.000000 0.000000 0.000000 0.022772 0.000000 0.004899
# 5 -0.017954 0.002818 -0.008320 0.000000 0.050854 0.000000
# 6 0.000000 0.000000 0.000000 0.004899 0.000000 0.037923
#
#
# Mechanical properties :
#
#
# Convention : Reuss Voigt Hill
#
# Bulk Modulus (GPa) = 28.61485 53.15920 40.88702
# Shear Modulus (GPa) = 29.38693 42.53588 35.96140
#
# Velocity S-wave (km/s) = 3.37763 4.06362 3.73640
# Velocity P-wave (km/s) = 5.13029 6.53104 5.87258
#
# Compressibility (1/GPa) = 0.03494689
#
# Stress axis : x y z
#
# Youngs Moduli (GPa) = 38.94747 116.89487 148.90601
#
# Poissons Ratio (x) = 0.39466 -0.20713
# Poissons Ratio (y) = 0.13149 0.15104
# Poissons Ratio (z) = -0.05418 0.11857
#
# Static dielectric constant tensor:
#      x y z
#    x 2.064350 0.000000 -0.095140 
#    y 0.000000 2.123620 0.000000 
#    z -0.095140 0.000000 2.033390 
# 
# From -- ./inp_files/12672.got.cif
#   From: 2010.05.17/outbox.cif.g08.bks.cpg/sg4_7_cif.got.tgz:12672.got - 2010.06.03 18:43:04.
