data_PCOD9116452
_publ_section_title
;
Structure prediction by ZEFSAII (Michael W. Deem and Ramdas Pophale) SiO2 
 PCOD9116452
Probable space group: P 21
;
_chemical_formula_sum "Si O2"
_cell_formula_units_Z 12
_cell_length_a 8.685253
_cell_length_b 7.247258
_cell_length_c 8.687775
_cell_angle_alpha 90.000000
_cell_angle_beta 55.104918
_cell_angle_gamma 90.000000
_cell_volume 448.523339
_symmetry_space_group_name_H-M "P 21"
_symmetry_group_IT_number 4
_symmetry_cell_setting 'monoclinic'
loop_
_space_group_symop_operation_xyz
x,y,z
-x,1/2+y,-z
loop_
_atom_site_type_symbol
_atom_site_label
_atom_site_fract_x
_atom_site_fract_y
_atom_site_fract_z
Si Si1 0.862175 0.543100 0.380381
Si Si2 0.840756 0.689849 0.054516
Si Si3 0.744603 0.928469 0.525257
Si Si4 0.156220 0.814411 0.327434
Si Si5 0.575762 0.403975 0.074076
Si Si6 0.261738 0.597744 0.785893
O O1 0.836102 0.570034 0.214817
O O2 0.728021 0.706469 0.518540
O O3 0.827272 0.360003 0.500243
O O4 0.065550 0.629338 0.307235
O O5 0.706936 0.582072 0.019053
O O6 0.773393 0.896596 0.120198
O O7 0.054862 0.683763 0.879817
O O8 0.626068 0.962186 0.746514
O O9 0.660387 0.039152 0.427723
O O10 0.973396 0.946975 0.391216
O O11 0.355883 0.848178 0.134436
O O12 0.641679 0.239217 0.151847
#
# Coordination Sequence:
#
# PCOD9116452 Si02
#       6
#     2   2   2   2   2   2
#     4   9  21  41  61  91 130 162 225 257 322 400
#     4  11  20  40  67 101 125 175 215 272 339 383
#     4   9  23  40  62  98 129 168 220 272 327 389
#     4  10  21  44  62  89 130 175 211 270 325 391
#     4  12  23  42  71  94 137 165 224 282 325 395
#     4  11  20  39  65 101 131 165 223 273 328 392
#
# _framework density 26.754459000000001
#
# number of rings (size 3 to 8) (size 9 to 14) (size 15 to 20)
#    1.000    0.667    5.000    0.000    4.667    2.667 
#    3.000    1.667    0.000    0.000    0.000    0.000 
#    0.000    0.000    0.000    0.000    0.000    0.000 
#
# Total GULP energy -66933.823561 kJ/mol
# GULP energy per Si atom -5577.818630 kJ/mol
# Density = 2.669356 g / cm^3
# Si number density = 26.754459 Si / 1000 Ang^3
#
#
#
# Elastic Constant Matrix: (Units=GPa)
#
#
# Indices 1 2 3 4 5 6 
#
# 1 44.3992 29.7822 19.4192 0.0000 -3.8125 0.0000
# 2 29.7822 117.3642 4.4727 0.0000 12.6680 0.0000
# 3 19.4192 4.4727 167.5460 0.0000 -13.6452 0.0000
# 4 0.0000 0.0000 0.0000 33.8678 0.0000 18.2107
# 5 -3.8125 12.6680 -13.6452 0.0000 23.9548 0.0000
# 6 0.0000 0.0000 0.0000 18.2107 0.0000 38.5150
#
#
#
# Elastic Compliance Matrix: (Units=1/GPa)
#
#
# Indices 1 2 3 4 5 6 
#
# 1 0.029905 -0.008316 -0.002620 0.000000 0.007665 0.000000
# 2 -0.008316 0.011419 0.000062 0.000000 -0.007327 0.000000
# 3 -0.002620 0.000062 0.006537 0.000000 0.003274 0.000000
# 4 0.000000 0.000000 0.000000 0.039592 0.000000 -0.018720
# 5 0.007665 -0.007327 0.003274 0.000000 0.048705 0.000000
# 6 0.000000 0.000000 0.000000 -0.018720 0.000000 0.034815
#
#
# Mechanical properties :
#
#
# Convention : Reuss Voigt Hill
#
# Bulk Modulus (GPa) = 38.29338 48.51749 43.40543
# Shear Modulus (GPa) = 24.82298 37.64322 31.23310
#
# Velocity S-wave (km/s) = 3.04930 3.75505 3.42043
# Velocity P-wave (km/s) = 5.17123 6.08065 5.64428
#
# Compressibility (1/GPa) = 0.02611418
#
# Stress axis : x y z
#
# Youngs Moduli (GPa) = 33.43876 87.57117 152.97246
#
# Poissons Ratio (x) = 0.72826 0.40077
# Poissons Ratio (y) = 0.27809 -0.00954
# Poissons Ratio (z) = 0.08761 -0.00546
#
# Static dielectric constant tensor:
#      x y z
#    x 2.103660 0.000000 0.017640 
#    y 0.000000 2.172070 0.000000 
#    z 0.017640 0.000000 2.069830 
# 
# From -- ./inp_files/11954.got.cif
#   From: 2010.05.17/outbox.cif.g08.bks.cpg/sg4_6_cif.got.tgz:11954.got - 2010.06.03 18:43:04.
