data_PCOD9116732
_publ_section_title
;
Structure prediction by ZEFSAII (Michael W. Deem and Ramdas Pophale) SiO2 
 PCOD9116732
Probable space group: P 21
;
_chemical_formula_sum "Si O2"
_cell_formula_units_Z 14
_cell_length_a 10.909231
_cell_length_b 5.365342
_cell_length_c 20.041995
_cell_angle_alpha 90.000000
_cell_angle_beta 30.164214
_cell_angle_gamma 90.000000
_cell_volume 589.455887
_symmetry_space_group_name_H-M "P 21"
_symmetry_group_IT_number 4
_symmetry_cell_setting 'monoclinic'
loop_
_space_group_symop_operation_xyz
x,y,z
-x,1/2+y,-z
loop_
_atom_site_type_symbol
_atom_site_label
_atom_site_fract_x
_atom_site_fract_y
_atom_site_fract_z
Si Si1 0.286579 0.660830 0.444088
Si Si2 0.625412 0.362780 0.358240
Si Si3 0.262566 0.366082 0.696219
Si Si4 0.749757 0.684241 0.742003
Si Si5 0.645977 0.815355 0.933702
Si Si6 0.045849 0.191946 0.082847
Si Si7 0.516078 0.172212 0.796632
O O1 0.358455 0.422267 0.456528
O O2 0.361670 0.636568 0.332457
O O3 0.006530 0.722533 0.584497
O O4 0.487358 0.852228 0.378708
O O5 0.691786 0.115643 0.366585
O O6 0.787359 0.331742 0.213053
O O7 0.740624 0.605265 0.338421
O O8 0.037073 0.418499 0.851409
O O9 0.790113 0.710915 0.801979
O O10 0.635752 0.418851 0.773850
O O11 0.571532 0.914208 0.808646
O O12 0.793894 0.800117 0.932187
O O13 0.437230 0.600585 0.037697
O O14 0.221127 0.203693 0.937383
#
# Coordination Sequence:
#
# PCOD9116732 Si02
#       7
#     2   2   2   2   2   2   2
#     4  10  24  42  63  90 133 164 208 241 319 369
#     4   8  20  37  61  87 122 160 200 258 294 368
#     4   8  20  37  61  87 122 160 200 258 294 368
#     4  12  26  42  61  95 125 169 207 254 303 376
#     4  12  24  43  64  92 122 164 205 260 310 359
#     4  10  22  40  64  91 126 150 220 247 319 344
#     4  12  26  37  66  92 130 167 204 256 303 372
#
# _framework density 23.750715
#
# number of rings (size 3 to 8) (size 9 to 14) (size 15 to 20)
#    1.714    0.000    2.857    0.857    8.000    1.143 
#    0.000    1.429    0.000    0.000    0.000    0.000 
#    0.000    0.000    0.000    0.000    0.000    0.000 
#
# Total GULP energy -77960.950046 kJ/mol
# GULP energy per Si atom -5568.639289 kJ/mol
# Density = 2.369666 g / cm^3
# Si number density = 23.750715 Si / 1000 Ang^3
#
#
#
# Elastic Constant Matrix: (Units=GPa)
#
#
# Indices 1 2 3 4 5 6 
#
# 1 28.4225 14.0899 -0.1028 0.0000 4.7076 0.0000
# 2 14.0899 116.9174 -21.0820 0.0000 -3.9042 0.0000
# 3 -0.1028 -21.0820 140.9535 0.0000 10.3856 0.0000
# 4 0.0000 0.0000 0.0000 -5.4059 0.0000 -15.8920
# 5 4.7076 -3.9042 10.3856 0.0000 41.5091 0.0000
# 6 0.0000 0.0000 0.0000 -15.8920 0.0000 17.0123
#
#
#
# Elastic Compliance Matrix: (Units=1/GPa)
#
#
# Indices 1 2 3 4 5 6 
#
# 1 0.038365 -0.004844 -0.000349 0.000000 -0.004719 0.000000
# 2 -0.004844 0.009412 0.001323 0.000000 0.001104 0.000000
# 3 -0.000349 0.001323 0.007417 0.000000 -0.001692 0.000000
# 4 0.000000 0.000000 0.000000 -0.049379 0.000000 -0.046128
# 5 -0.004719 0.001104 -0.001692 0.000000 0.025153 0.000000
# 6 0.000000 0.000000 0.000000 -0.046128 0.000000 0.015691
#
#
# Mechanical properties :
#
#
# Convention : Reuss Voigt Hill
#
# Bulk Modulus (GPa) = 21.07283 30.23374 25.65328
# Shear Modulus (GPa) = 71.20803 30.18232 50.69518
#
# Velocity S-wave (km/s) = 5.48147 3.56869 4.62504
# Velocity P-wave (km/s) = 6.99670 5.45325 6.27263
#
# Compressibility (1/GPa) = 0.04745447
#
# Stress axis : x y z
#
# Youngs Moduli (GPa) = 26.06535 106.24516 134.82919
#
# Poissons Ratio (x) = 0.51464 0.04703
# Poissons Ratio (y) = 0.12626 -0.17837
# Poissons Ratio (z) = 0.00909 -0.14055
#
# Static dielectric constant tensor:
#      x y z
#    x 1.859320 0.000000 0.005330 
#    y 0.000000 2.036270 0.000000 
#    z 0.005330 0.000000 1.954500 
# 
# From -- ./inp_files/15654.got.cif
#   From: 2010.05.17/outbox.cif.g08.bks.cpg/sg4_8_cif.got.tgz:15654.got - 2010.06.03 18:43:04.
