data_PCOD9116636
_publ_section_title
;
Structure prediction by ZEFSAII (Michael W. Deem and Ramdas Pophale) SiO2 
 PCOD9116636
Probable space group: P 21
;
_chemical_formula_sum "Si O2"
_cell_formula_units_Z 14
_cell_length_a 9.715019
_cell_length_b 5.150928
_cell_length_c 20.816407
_cell_angle_alpha 90.000000
_cell_angle_beta 35.256012
_cell_angle_gamma 90.000000
_cell_volume 601.290660
_symmetry_space_group_name_H-M "P 21"
_symmetry_group_IT_number 4
_symmetry_cell_setting 'monoclinic'
loop_
_space_group_symop_operation_xyz
x,y,z
-x,1/2+y,-z
loop_
_atom_site_type_symbol
_atom_site_label
_atom_site_fract_x
_atom_site_fract_y
_atom_site_fract_z
Si Si1 0.807810 0.125000 0.854409
Si Si2 0.421435 0.121754 0.115960
Si Si3 0.356219 0.662926 0.572457
Si Si4 0.724199 0.890884 0.272940
Si Si5 0.493475 0.565448 0.769809
Si Si6 0.190645 0.727701 0.512617
Si Si7 0.805821 0.064636 0.623544
O O1 0.724624 0.360293 0.840972
O O2 0.066036 0.198656 0.785170
O O3 0.751184 0.863850 0.836047
O O4 0.631483 0.124114 0.983040
O O5 0.538241 0.119638 0.142312
O O6 0.562796 0.452583 0.477002
O O7 0.273327 0.625664 0.676278
O O8 0.168296 0.589924 0.588880
O O9 0.713421 0.989693 0.203257
O O10 0.465199 0.768161 0.387213
O O11 0.620042 0.826436 0.696914
O O12 0.669932 0.319406 0.697913
O O13 0.099023 0.579413 0.485538
O O14 0.037045 0.987689 0.575817
#
# Coordination Sequence:
#
# PCOD9116636 Si02
#       7
#     2   2   2   2   2   2   2
#     4  10  23  45  74  98 134 179 224 288 349 422
#     4  10  23  47  69 101 135 174 230 283 357 420
#     4  10  22  39  61  88 134 176 215 266 323 385
#     4  10  23  43  68 100 136 172 233 277 339 395
#     4  11  24  43  68 101 135 179 232 286 341 408
#     4  10  22  42  61  93 139 177 229 265 329 393
#     4  11  23  39  65  95 139 187 227 277 336 401
#
# _framework density 23.283246999999999
#
# number of rings (size 3 to 8) (size 9 to 14) (size 15 to 20)
#    0.000    1.714    0.000    3.429    2.000    8.000 
#   12.857    7.143    0.000    0.000    0.000    0.000 
#    0.000    0.000    0.000    0.000    0.000    0.000 
#
# Total GULP energy -78179.679627 kJ/mol
# GULP energy per Si atom -5584.262830 kJ/mol
# Density = 2.323025 g / cm^3
# Si number density = 23.283247 Si / 1000 Ang^3
#
#
#
# Elastic Constant Matrix: (Units=GPa)
#
#
# Indices 1 2 3 4 5 6 
#
# 1 186.1888 31.5709 32.7582 0.0000 29.7732 0.0000
# 2 31.5709 116.1166 12.1636 0.0000 1.2256 0.0000
# 3 32.7582 12.1636 45.2512 0.0000 0.0301 0.0000
# 4 0.0000 0.0000 0.0000 23.4626 0.0000 -2.5439
# 5 29.7732 1.2256 0.0301 0.0000 44.9595 0.0000
# 6 0.0000 0.0000 0.0000 -2.5439 0.0000 33.7001
#
#
#
# Elastic Compliance Matrix: (Units=1/GPa)
#
#
# Indices 1 2 3 4 5 6 
#
# 1 0.007220 -0.001405 -0.004845 0.000000 -0.004739 0.000000
# 2 -0.001405 0.009138 -0.001439 0.000000 0.000683 0.000000
# 3 -0.004845 -0.001439 0.025991 0.000000 0.003231 0.000000
# 4 0.000000 0.000000 0.000000 0.042973 0.000000 0.003244
# 5 -0.004739 0.000683 0.003231 0.000000 0.025360 0.000000
# 6 0.000000 0.000000 0.000000 0.003244 0.000000 0.029918
#
#
# Mechanical properties :
#
#
# Convention : Reuss Voigt Hill
#
# Bulk Modulus (GPa) = 37.08054 55.61577 46.34816
# Shear Modulus (GPa) = 30.30864 38.49536 34.40200
#
# Velocity S-wave (km/s) = 3.61187 4.07055 3.84805
# Velocity P-wave (km/s) = 5.77534 6.78461 6.30022
#
# Compressibility (1/GPa) = 0.02696832
#
# Stress axis : x y z
#
# Youngs Moduli (GPa) = 138.51228 109.43679 38.47435
#
# Poissons Ratio (x) = 0.15379 0.18643
# Poissons Ratio (y) = 0.19465 0.05538
# Poissons Ratio (z) = 0.67116 0.15752
#
# Static dielectric constant tensor:
#      x y z
#    x 1.975940 0.000000 -0.012670 
#    y 0.000000 1.927980 0.000000 
#    z -0.012670 0.000000 1.866220 
# 
# From -- ./inp_files/16072.got.cif
#   From: 2010.05.17/outbox.cif.g08.bks.cpg/sg4_9_cif.got.tgz:16072.got - 2010.06.03 18:43:04.
