data_PCOD9116477
_publ_section_title
;
Structure prediction by ZEFSAII (Michael W. Deem and Ramdas Pophale) SiO2 
 PCOD9116477
Probable space group: P 21
;
_chemical_formula_sum "Si O2"
_cell_formula_units_Z 16
_cell_length_a 12.471821
_cell_length_b 8.923236
_cell_length_c 8.400739
_cell_angle_alpha 90.000000
_cell_angle_beta 43.904494
_cell_angle_gamma 90.000000
_cell_volume 648.321042
_symmetry_space_group_name_H-M "P 21"
_symmetry_group_IT_number 4
_symmetry_cell_setting 'monoclinic'
loop_
_space_group_symop_operation_xyz
x,y,z
-x,1/2+y,-z
loop_
_atom_site_type_symbol
_atom_site_label
_atom_site_fract_x
_atom_site_fract_y
_atom_site_fract_z
Si Si1 0.247626 0.781580 0.026720
Si Si2 0.281847 0.425186 0.011086
Si Si3 0.919122 0.348660 0.122520
Si Si4 0.761286 0.103466 0.510184
Si Si5 0.571617 0.354222 0.892425
Si Si6 0.065074 0.348160 0.483192
Si Si7 0.233318 0.095615 0.507356
Si Si8 0.287585 0.345591 0.663663
O O1 0.263435 0.602097 0.004312
O O2 0.397346 0.848078 0.953184
O O3 0.114943 0.829302 0.295097
O O4 0.187676 0.840562 0.921879
O O5 0.118797 0.357839 0.243799
O O6 0.395667 0.378946 0.031596
O O7 0.345977 0.356251 0.780165
O O8 0.865757 0.212072 0.290651
O O9 0.880498 0.498364 0.261315
O O10 0.098521 0.342609 0.881516
O O11 0.642054 0.202398 0.739992
O O12 0.870338 0.999951 0.504297
O O13 0.678108 0.991674 0.476387
O O14 0.660774 0.489091 0.710631
O O15 0.140393 0.207770 0.493275
O O16 0.332232 0.196957 0.522348
#
# Coordination Sequence:
#
# PCOD9116477 Si02
#       8
#     2   2   2   2   2   2   2   2
#     4  12  25  45  76 107 141 189 243 304 356 422
#     4  12  28  47  70 107 148 195 235 292 369 438
#     4  11  21  42  73 108 140 181 242 311 360 414
#     4  10  21  44  70 103 140 186 237 297 358 421
#     4  11  28  46  69 100 153 194 233 289 362 446
#     4  11  25  42  76 107 143 186 243 307 353 424
#     4  10  24  43  66 109 138 186 238 298 364 418
#     4  11  22  41  72 103 143 179 245 302 358 421
#
# _framework density 24.679131000000002
#
# number of rings (size 3 to 8) (size 9 to 14) (size 15 to 20)
#    0.000    1.000    5.000    1.500    7.000    2.000 
#    0.000    0.000    0.000    0.000    0.000    0.000 
#    0.000    0.000    0.000    0.000    0.000    0.000 
#
# Total GULP energy -89743.917181 kJ/mol
# GULP energy per Si atom -5608.994824 kJ/mol
# Density = 2.462296 g / cm^3
# Si number density = 24.679131 Si / 1000 Ang^3
#
#
#
# Elastic Constant Matrix: (Units=GPa)
#
#
# Indices 1 2 3 4 5 6 
#
# 1 124.0127 29.0718 20.7629 0.0000 11.0273 0.0000
# 2 29.0718 133.5574 39.8365 0.0000 4.1855 0.0000
# 3 20.7629 39.8365 90.5307 0.0000 -2.2635 0.0000
# 4 0.0000 0.0000 0.0000 28.4943 0.0000 5.4207
# 5 11.0273 4.1855 -2.2635 0.0000 27.3229 0.0000
# 6 0.0000 0.0000 0.0000 5.4207 0.0000 15.6094
#
#
#
# Elastic Compliance Matrix: (Units=1/GPa)
#
#
# Indices 1 2 3 4 5 6 
#
# 1 0.008959 -0.001382 -0.001535 0.000000 -0.003531 0.000000
# 2 -0.001382 0.008905 -0.003630 0.000000 -0.001107 0.000000
# 3 -0.001535 -0.003630 0.013052 0.000000 0.002257 0.000000
# 4 0.000000 0.000000 0.000000 0.037577 0.000000 -0.013049
# 5 -0.003531 -0.001107 0.002257 0.000000 0.038381 0.000000
# 6 0.000000 0.000000 0.000000 -0.013049 0.000000 0.068596
#
#
# Mechanical properties :
#
#
# Convention : Reuss Voigt Hill
#
# Bulk Modulus (GPa) = 56.10580 58.60480 57.35530
# Shear Modulus (GPa) = 25.70659 31.51396 28.61027
#
# Velocity S-wave (km/s) = 3.23093 3.57732 3.40853
# Velocity P-wave (km/s) = 6.05822 6.39228 6.22749
#
# Compressibility (1/GPa) = 0.01782347
#
# Stress axis : x y z
#
# Youngs Moduli (GPa) = 111.62533 112.29116 76.61925
#
# Poissons Ratio (x) = 0.15513 0.11761
# Poissons Ratio (y) = 0.15421 0.27809
# Poissons Ratio (z) = 0.17134 0.40756
#
# Static dielectric constant tensor:
#      x y z
#    x 2.039640 0.000000 -0.068470 
#    y 0.000000 1.912710 0.000000 
#    z -0.068470 0.000000 1.998240 
# 
# From -- ./inp_files/7996.got.cif
#   From: 2010.05.17/outbox.cif.g08.bks.cpg/sg4_4_cif.got.tgz:7996.got - 2010.06.03 18:43:04.
