data_PCOD9116572
_publ_section_title
;
Structure prediction by ZEFSAII (Michael W. Deem and Ramdas Pophale) SiO2 
 PCOD9116572
Probable space group: P 21
;
_chemical_formula_sum "Si O2"
_cell_formula_units_Z 14
_cell_length_a 8.773031
_cell_length_b 5.109616
_cell_length_c 14.328714
_cell_angle_alpha 90.000000
_cell_angle_beta 113.131605
_cell_angle_gamma 90.000000
_cell_volume 590.672072
_symmetry_space_group_name_H-M "P 21"
_symmetry_group_IT_number 4
_symmetry_cell_setting 'monoclinic'
loop_
_space_group_symop_operation_xyz
x,y,z
-x,1/2+y,-z
loop_
_atom_site_type_symbol
_atom_site_label
_atom_site_fract_x
_atom_site_fract_y
_atom_site_fract_z
Si Si1 0.234261 0.264770 0.729906
Si Si2 0.245359 0.035720 0.999575
Si Si3 0.763633 0.574122 0.782106
Si Si4 0.907033 0.134648 0.445157
Si Si5 0.606214 0.170672 0.110445
Si Si6 0.968490 0.088562 0.798487
Si Si7 0.417182 0.862647 0.684155
O O1 0.119711 0.496921 0.660719
O O2 0.342896 0.388626 0.838010
O O3 0.095877 0.084106 0.743482
O O4 0.356628 0.166384 0.676230
O O5 0.277770 0.780864 0.942864
O O6 0.081238 0.162032 0.916253
O O7 0.239019 0.998043 0.108790
O O8 0.418030 0.190347 0.031545
O O9 0.826493 0.307335 0.749348
O O10 0.591148 0.717050 0.711438
O O11 0.893733 0.805777 0.798369
O O12 0.979422 0.893108 0.522237
O O13 0.720265 0.237425 0.416710
O O14 0.610064 0.325762 0.209854
#
# Coordination Sequence:
#
# PCOD9116572 Si02
#       7
#     2   2   2   2   2   2   2
#     4  11  23  43  72 102 138 174 234 280 359 409
#     4  11  22  40  61  93 138 183 245 290 332 380
#     4  11  28  41  65  93 142 188 231 274 341 398
#     4  11  23  41  75 113 129 158 217 289 345 414
#     4  10  22  36  64  99 130 182 235 297 341 391
#     4  12  25  43  61  97 135 189 227 282 331 406
#     4  10  23  44  68 101 134 176 221 282 347 416
#
# _framework density 23.701815
#
# number of rings (size 3 to 8) (size 9 to 14) (size 15 to 20)
#    0.000    1.143    2.857    2.571    8.000    2.286 
#    0.000    0.000    0.000    3.429    0.000    0.000 
#    0.000    0.000    0.000    0.000    0.000    0.000 
#
# Total GULP energy -78021.017064 kJ/mol
# GULP energy per Si atom -5572.929790 kJ/mol
# Density = 2.364787 g / cm^3
# Si number density = 23.701815 Si / 1000 Ang^3
#
#
#
# Elastic Constant Matrix: (Units=GPa)
#
#
# Indices 1 2 3 4 5 6 
#
# 1 60.0621 19.0351 -4.1042 0.0000 24.1475 0.0000
# 2 19.0351 90.3921 10.6536 0.0000 10.9999 0.0000
# 3 -4.1042 10.6536 95.7506 0.0000 32.4430 0.0000
# 4 0.0000 0.0000 0.0000 48.0069 0.0000 2.4869
# 5 24.1475 10.9999 32.4430 0.0000 25.5296 0.0000
# 6 0.0000 0.0000 0.0000 2.4869 0.0000 42.2539
#
#
#
# Elastic Compliance Matrix: (Units=1/GPa)
#
#
# Indices 1 2 3 4 5 6 
#
# 1 0.068843 -0.005244 0.043609 0.000000 -0.118274 0.000000
# 2 -0.005244 0.012102 -0.002608 0.000000 0.003060 0.000000
# 3 0.043609 -0.002608 0.046009 0.000000 -0.098593 0.000000
# 4 0.000000 0.000000 0.000000 0.020894 0.000000 -0.001230
# 5 -0.118274 0.003060 -0.098593 0.000000 0.275015 0.000000
# 6 0.000000 0.000000 0.000000 -0.001230 0.000000 0.023739
#
#
# Mechanical properties :
#
#
# Convention : Reuss Voigt Hill
#
# Bulk Modulus (GPa) = 5.03859 33.04154 19.04006
# Shear Modulus (GPa) = 11.33160 37.86610 24.59885
#
# Velocity S-wave (km/s) = 2.18890 4.00134 3.22506
# Velocity P-wave (km/s) = 2.91870 5.94293 4.68173
#
# Compressibility (1/GPa) = 0.19846827
#
# Stress axis : x y z
#
# Youngs Moduli (GPa) = 14.52588 82.62944 21.73470
#
# Poissons Ratio (x) = 0.43330 -0.94783
# Poissons Ratio (y) = 0.07617 0.05669
# Poissons Ratio (z) = -0.63346 0.21551
#
# Static dielectric constant tensor:
#      x y z
#    x 1.913050 0.000000 0.014170 
#    y 0.000000 2.257610 0.000000 
#    z 0.014170 0.000000 1.974640 
# 
# From -- ./inp_files/14843.got.cif
#   From: 2010.05.17/outbox.cif.g08.bks.cpg/sg4_8_cif.got.tgz:14843.got - 2010.06.03 18:43:04.
