data_PCOD9116052
_publ_section_title
;
Structure prediction by ZEFSAII (Michael W. Deem and Ramdas Pophale) SiO2 
 PCOD9116052
Probable space group: P 21
;
_chemical_formula_sum "Si O2"
_cell_formula_units_Z 16
_cell_length_a 8.902370
_cell_length_b 12.498158
_cell_length_c 7.343382
_cell_angle_alpha 90.000000
_cell_angle_beta 52.517972
_cell_angle_gamma 90.000000
_cell_volume 648.364043
_symmetry_space_group_name_H-M "P 21"
_symmetry_group_IT_number 4
_symmetry_cell_setting 'monoclinic'
loop_
_space_group_symop_operation_xyz
x,y,z
-x,1/2+y,-z
loop_
_atom_site_type_symbol
_atom_site_label
_atom_site_fract_x
_atom_site_fract_y
_atom_site_fract_z
Si Si1 0.917163 0.750000 0.760241
Si Si2 0.061293 0.481672 0.372083
Si Si3 0.231329 0.975225 0.845430
Si Si4 0.832025 0.922282 0.324585
Si Si5 0.947494 0.218389 0.721317
Si Si6 0.771158 0.244947 0.202254
Si Si7 0.485649 0.549116 0.616156
Si Si8 0.678518 0.544251 0.840991
O O1 0.065539 0.736839 0.484029
O O2 0.756237 0.664505 0.827602
O O3 0.876766 0.876338 0.783540
O O4 0.022296 0.718631 0.867638
O O5 0.849862 0.479669 0.616025
O O6 0.180697 0.482253 0.471069
O O7 0.268050 0.864771 0.711253
O O8 0.942686 0.090109 0.739703
O O9 0.352074 0.992090 0.940417
O O10 0.015512 0.967055 0.077470
O O11 0.645534 0.950543 0.351239
O O12 0.881310 0.798576 0.341958
O O13 0.782331 0.254460 0.975924
O O14 0.684549 0.556718 0.362515
O O15 0.628466 0.154111 0.356971
O O16 0.517627 0.547297 0.808877
#
# Coordination Sequence:
#
# PCOD9116052 Si02
#       8
#     2   2   2   2   2   2   2   2
#     4  10  21  39  66  98 134 180 227 279 343 406
#     4   9  18  39  69  97 135 180 226 281 339 405
#     4  10  24  48  67  93 139 176 223 291 337 407
#     4   9  21  43  70  98 132 183 229 270 349 417
#     4   9  20  39  66  99 133 171 222 280 330 401
#     4  11  24  41  66  98 132 180 230 275 347 416
#     4  12  25  43  69 101 135 176 230 285 342 412
#     4  10  23  42  65 100 140 178 229 285 345 410
#
# _framework density 24.677492999999998
#
# number of rings (size 3 to 8) (size 9 to 14) (size 15 to 20)
#    0.000    2.000    0.000    3.750    0.000   12.000 
#    0.000   10.000    0.000    0.000    0.000    0.000 
#    0.000    0.000    0.000    0.000    0.000    0.000 
#
# Total GULP energy -89310.571946 kJ/mol
# GULP energy per Si atom -5581.910747 kJ/mol
# Density = 2.462133 g / cm^3
# Si number density = 24.677493 Si / 1000 Ang^3
#
#
#
# Elastic Constant Matrix: (Units=GPa)
#
#
# Indices 1 2 3 4 5 6 
#
# 1 129.1162 40.1111 28.3932 0.0000 24.5122 0.0000
# 2 40.1111 156.2466 5.5488 0.0000 5.3515 0.0000
# 3 28.3932 5.5488 64.7325 0.0000 12.4047 0.0000
# 4 0.0000 0.0000 0.0000 24.1323 0.0000 6.7393
# 5 24.5122 5.3515 12.4047 0.0000 38.2230 0.0000
# 6 0.0000 0.0000 0.0000 6.7393 0.0000 28.9657
#
#
#
# Elastic Compliance Matrix: (Units=1/GPa)
#
#
# Indices 1 2 3 4 5 6 
#
# 1 0.010158 -0.002316 -0.003274 0.000000 -0.005127 0.000000
# 2 -0.002316 0.006969 0.000342 0.000000 0.000398 0.000000
# 3 -0.003274 0.000342 0.017554 0.000000 -0.003645 0.000000
# 4 0.000000 0.000000 0.000000 0.044318 0.000000 -0.010311
# 5 -0.005127 0.000398 -0.003645 0.000000 0.030577 0.000000
# 6 0.000000 0.000000 0.000000 -0.010311 0.000000 0.036923
#
#
# Mechanical properties :
#
#
# Convention : Reuss Voigt Hill
#
# Bulk Modulus (GPa) = 41.34975 55.35571 48.35273
# Shear Modulus (GPa) = 30.29278 36.66701 33.47989
#
# Velocity S-wave (km/s) = 3.50744 3.85885 3.68733
# Velocity P-wave (km/s) = 5.76153 6.50651 6.14532
#
# Compressibility (1/GPa) = 0.02418394
#
# Stress axis : x y z
#
# Youngs Moduli (GPa) = 98.44620 143.49576 56.96845
#
# Poissons Ratio (x) = 0.33231 0.18654
# Poissons Ratio (y) = 0.22798 -0.01949
# Poissons Ratio (z) = 0.32235 -0.04908
#
# Static dielectric constant tensor:
#      x y z
#    x 1.995160 0.000000 0.000860 
#    y 0.000000 2.034450 0.000000 
#    z 0.000860 0.000000 1.959280 
# 
# From -- ./inp_files/11165.got.cif
#   From: 2010.05.17/outbox.cif.g08.bks.cpg/sg4_6_cif.got.tgz:11165.got - 2010.06.03 18:43:04.
