data_PCOD9116884
_publ_section_title
;
Structure prediction by ZEFSAII (Michael W. Deem and Ramdas Pophale) SiO2 
 PCOD9116884
Probable space group: P 21
;
_chemical_formula_sum "Si O2"
_cell_formula_units_Z 14
_cell_length_a 5.639455
_cell_length_b 11.006765
_cell_length_c 9.292318
_cell_angle_alpha 90.000000
_cell_angle_beta 71.554679
_cell_angle_gamma 90.000000
_cell_volume 547.162007
_symmetry_space_group_name_H-M "P 21"
_symmetry_group_IT_number 4
_symmetry_cell_setting 'monoclinic'
loop_
_space_group_symop_operation_xyz
x,y,z
-x,1/2+y,-z
loop_
_atom_site_type_symbol
_atom_site_label
_atom_site_fract_x
_atom_site_fract_y
_atom_site_fract_z
Si Si1 0.205176 0.159570 0.960521
Si Si2 0.555463 0.484220 0.258461
Si Si3 0.531198 0.884368 0.416363
Si Si4 0.971167 0.239652 0.757453
Si Si5 0.784602 0.492249 0.762695
Si Si6 0.895981 0.181458 0.455979
Si Si7 0.106320 0.365826 0.187819
O O1 0.237431 0.066180 0.085052
O O2 0.194687 0.289423 0.034111
O O3 0.959830 0.161805 0.904926
O O4 0.402260 0.121330 0.801944
O O5 0.458842 0.457635 0.435627
O O6 0.344512 0.440260 0.190955
O O7 0.834645 0.423817 0.203334
O O8 0.780777 0.823719 0.308736
O O9 0.353166 0.766247 0.488356
O O10 0.419623 0.984106 0.325672
O O11 0.779508 0.349749 0.801759
O O12 0.963416 0.165083 0.610965
O O13 0.026869 0.557084 0.640968
O O14 0.067034 0.275365 0.331703
#
# Coordination Sequence:
#
# PCOD9116884 Si02
#       7
#     2   2   2   2   2   2   2
#     4  11  25  42  67  99 136 189 225 286 359 417
#     4  11  23  45  70  98 141 183 231 288 350 412
#     4  10  22  41  67  98 129 175 231 287 336 416
#     4  11  22  43  66  98 131 172 238 287 341 425
#     4  10  23  43  64  96 136 178 228 286 350 410
#     4   9  20  42  65  92 131 174 225 286 344 405
#     4  10  23  44  67  99 138 179 234 286 344 419
#
# _framework density 25.586572
#
# number of rings (size 3 to 8) (size 9 to 14) (size 15 to 20)
#    0.000    1.714    1.429    1.714    2.000    3.429 
#   12.857    0.000    0.000    0.000    0.000    0.000 
#    0.000    0.000    0.000    0.000    0.000    0.000 
#
# Total GULP energy -78065.481743 kJ/mol
# GULP energy per Si atom -5576.105839 kJ/mol
# Density = 2.552834 g / cm^3
# Si number density = 25.586572 Si / 1000 Ang^3
#
#
#
# Elastic Constant Matrix: (Units=GPa)
#
#
# Indices 1 2 3 4 5 6 
#
# 1 97.7770 34.4501 52.6879 0.0000 6.7527 0.0000
# 2 34.4501 72.6985 45.7280 0.0000 -10.1683 0.0000
# 3 52.6879 45.7280 156.4765 0.0000 15.5206 0.0000
# 4 0.0000 0.0000 0.0000 59.8469 0.0000 12.0982
# 5 6.7527 -10.1683 15.5206 0.0000 26.9066 0.0000
# 6 0.0000 0.0000 0.0000 12.0982 0.0000 17.0697
#
#
#
# Elastic Compliance Matrix: (Units=1/GPa)
#
#
# Indices 1 2 3 4 5 6 
#
# 1 0.013866 -0.005441 -0.002683 0.000000 -0.003988 0.000000
# 2 -0.005441 0.021815 -0.005830 0.000000 0.012973 0.000000
# 3 -0.002683 -0.005830 0.009705 0.000000 -0.007128 0.000000
# 4 0.000000 0.000000 0.000000 0.019504 0.000000 -0.013823
# 5 -0.003988 0.012973 -0.007128 0.000000 0.047181 0.000000
# 6 0.000000 0.000000 0.000000 -0.013823 0.000000 0.068381
#
#
# Mechanical properties :
#
#
# Convention : Reuss Voigt Hill
#
# Bulk Modulus (GPa) = 57.21446 65.85378 61.53412
# Shear Modulus (GPa) = 23.34434 33.70369 28.52402
#
# Velocity S-wave (km/s) = 3.02382 3.63332 3.34249
# Velocity P-wave (km/s) = 5.88226 6.58748 6.24483
#
# Compressibility (1/GPa) = 0.01747810
#
# Stress axis : x y z
#
# Youngs Moduli (GPa) = 72.12109 45.83961 103.04028
#
# Poissons Ratio (x) = 0.24940 0.27648
# Poissons Ratio (y) = 0.39238 0.60072
# Poissons Ratio (z) = 0.19352 0.26724
#
# Static dielectric constant tensor:
#      x y z
#    x 2.178830 0.000000 0.059470 
#    y 0.000000 2.067120 0.000000 
#    z 0.059470 0.000000 1.967470 
# 
# From -- ./inp_files/1117.got.cif
#   From: 2010.05.17/outbox.cif.g08.bks.cpg/sg4_1_cif.got.tgz:1117.got - 2010.06.03 18:43:04.
