data_PCOD9116867
_publ_section_title
;
Structure prediction by ZEFSAII (Michael W. Deem and Ramdas Pophale) SiO2 
 PCOD9116867
Probable space group: P 21
;
_chemical_formula_sum "Si O2"
_cell_formula_units_Z 16
_cell_length_a 7.763112
_cell_length_b 12.038514
_cell_length_c 11.697660
_cell_angle_alpha 90.000000
_cell_angle_beta 138.176198
_cell_angle_gamma 90.000000
_cell_volume 729.005390
_symmetry_space_group_name_H-M "P 21"
_symmetry_group_IT_number 4
_symmetry_cell_setting 'monoclinic'
loop_
_space_group_symop_operation_xyz
x,y,z
-x,1/2+y,-z
loop_
_atom_site_type_symbol
_atom_site_label
_atom_site_fract_x
_atom_site_fract_y
_atom_site_fract_z
Si Si1 0.472565 0.208330 0.842842
Si Si2 0.323323 0.963642 0.802481
Si Si3 0.897938 0.390019 0.064565
Si Si4 0.302150 0.266051 0.000586
Si Si5 0.366571 0.002167 0.266244
Si Si6 0.821427 0.347192 0.642396
Si Si7 0.625679 0.739314 0.707042
Si Si8 0.129750 0.409017 0.593047
O O1 0.450074 0.210876 0.969501
O O2 0.260821 0.288135 0.678222
O O3 0.406746 0.080888 0.788517
O O4 0.734205 0.277683 0.952440
O O5 0.215366 0.952521 0.879600
O O6 0.095571 0.913696 0.611552
O O7 0.577477 0.888334 0.928019
O O8 0.180832 0.340118 0.224068
O O9 0.855597 0.469581 0.934959
O O10 0.010177 0.273625 0.813733
O O11 0.349550 0.214767 0.145978
O O12 0.364978 0.909418 0.363390
O O13 0.638588 0.989837 0.332728
O O14 0.316948 0.116472 0.308807
O O15 0.655335 0.274755 0.473069
O O16 0.999348 0.428234 0.652769
#
# Coordination Sequence:
#
# PCOD9116867 Si02
#       8
#     2   2   2   2   2   2   2   2
#     4   9  22  40  67  99 131 183 226 283 345 400
#     4  11  21  42  70  95 135 184 225 284 349 398
#     4  10  23  44  66 102 137 175 238 286 333 426
#     4  10  22  41  66  96 135 168 235 278 323 420
#     4  11  25  46  69 100 143 177 228 291 339 409
#     4  11  24  47  64 103 140 171 233 286 324 425
#     4  12  24  45  70  99 136 190 219 284 362 391
#     4  10  23  43  66 102 137 172 236 278 333 421
#
# _framework density 21.947710000000001
#
# number of rings (size 3 to 8) (size 9 to 14) (size 15 to 20)
#    0.000    1.500    2.500    2.250    5.250    0.000 
#   11.250    0.000    0.000    0.000    0.000    0.000 
#    0.000    0.000    0.000    0.000    0.000    0.000 
#
# Total GULP energy -89232.925835 kJ/mol
# GULP energy per Si atom -5577.057865 kJ/mol
# Density = 2.189776 g / cm^3
# Si number density = 21.947710 Si / 1000 Ang^3
#
#
#
# Elastic Constant Matrix: (Units=GPa)
#
#
# Indices 1 2 3 4 5 6 
#
# 1 31.9648 -5.2638 4.8879 0.0000 -3.1823 0.0000
# 2 -5.2638 50.3146 5.4511 0.0000 9.9768 0.0000
# 3 4.8879 5.4511 123.7250 0.0000 14.9884 0.0000
# 4 0.0000 0.0000 0.0000 16.8097 0.0000 -0.4575
# 5 -3.1823 9.9768 14.9884 0.0000 28.9545 0.0000
# 6 0.0000 0.0000 0.0000 -0.4575 0.0000 11.8082
#
#
#
# Elastic Compliance Matrix: (Units=1/GPa)
#
#
# Indices 1 2 3 4 5 6 
#
# 1 0.032390 0.002891 -0.001832 0.000000 0.003512 0.000000
# 2 0.002891 0.021591 -0.000216 0.000000 -0.007010 0.000000
# 3 -0.001832 -0.000216 0.008727 0.000000 -0.004644 0.000000
# 4 0.000000 0.000000 0.000000 0.059552 0.000000 0.002307
# 5 0.003512 -0.007010 -0.004644 0.000000 0.039743 0.000000
# 6 0.000000 0.000000 0.000000 0.002307 0.000000 0.084776
#
#
# Mechanical properties :
#
#
# Convention : Reuss Voigt Hill
#
# Bulk Modulus (GPa) = 15.52990 24.01720 19.77355
# Shear Modulus (GPa) = 18.75754 24.90976 21.83365
#
# Velocity S-wave (km/s) = 2.92661 3.37257 3.15747
# Velocity P-wave (km/s) = 4.30247 5.11198 4.72459
#
# Compressibility (1/GPa) = 0.06439193
#
# Stress axis : x y z
#
# Youngs Moduli (GPa) = 30.87340 46.31610 114.58692
#
# Poissons Ratio (x) = -0.13388 0.20998
# Poissons Ratio (y) = -0.08924 0.02478
# Poissons Ratio (z) = 0.05657 0.01002
#
# Static dielectric constant tensor:
#      x y z
#    x 1.859160 0.000000 0.017680 
#    y 0.000000 1.889200 0.000000 
#    z 0.017680 0.000000 1.807670 
# 
# From -- ./inp_files/11199.got.cif
#   From: 2010.05.17/outbox.cif.g08.bks.cpg/sg4_6_cif.got.tgz:11199.got - 2010.06.03 18:43:04.
