data_PCOD9116602
_publ_section_title
;
Structure prediction by ZEFSAII (Michael W. Deem and Ramdas Pophale) SiO2 
 PCOD9116602
Probable space group: P 21
;
_chemical_formula_sum "Si O2"
_cell_formula_units_Z 14
_cell_length_a 7.299940
_cell_length_b 8.914928
_cell_length_c 16.357997
_cell_angle_alpha 90.000000
_cell_angle_beta 146.906514
_cell_angle_gamma 90.000000
_cell_volume 581.253044
_symmetry_space_group_name_H-M "P 21"
_symmetry_group_IT_number 4
_symmetry_cell_setting 'monoclinic'
loop_
_space_group_symop_operation_xyz
x,y,z
-x,1/2+y,-z
loop_
_atom_site_type_symbol
_atom_site_label
_atom_site_fract_x
_atom_site_fract_y
_atom_site_fract_z
Si Si1 0.183479 0.796430 0.141526
Si Si2 0.922506 0.218008 0.285241
Si Si3 0.045604 0.883411 0.338567
Si Si4 0.335053 0.405764 0.556814
Si Si5 0.597320 0.849385 0.027969
Si Si6 0.508524 0.239273 0.368145
Si Si7 0.010311 0.952046 0.912408
O O1 0.525227 0.800664 0.319848
O O2 0.917888 0.899620 0.094541
O O3 0.081194 0.622391 0.102081
O O4 0.178103 0.868849 0.051407
O O5 0.010396 0.336665 0.389709
O O6 0.224484 0.221474 0.332416
O O7 0.593679 0.249077 0.109568
O O8 0.906066 0.047041 0.306821
O O9 0.381592 0.900949 0.408913
O O10 0.174428 0.812832 0.469485
O O11 0.785566 0.796282 0.181631
O O12 0.360852 0.572829 0.603297
O O13 0.288997 0.950451 0.944270
O O14 0.312982 0.349490 0.232914
#
# Coordination Sequence:
#
# PCOD9116602 Si02
#       7
#     2   2   2   2   2   2   2
#     4  11  23  40  63  90 122 159 201 249 301 359
#     4   9  17  31  54  83 114 151 196 244 296 354
#     4   9  17  31  54  83 114 151 196 244 296 354
#     4   9  18  33  54  82 117 155 196 243 297 355
#     4  10  22  38  62  90 120 156 198 248 300 356
#     4   9  18  33  54  82 117 155 196 243 297 355
#     4  11  23  40  63  90 122 159 201 249 301 359
#
# _framework density 24.085892999999999
#
# number of rings (size 3 to 8) (size 9 to 14) (size 15 to 20)
#    0.000    2.286    0.000    2.571    0.000   11.429 
#    0.000    1.429    0.000    0.000    0.000    0.000 
#    0.000    0.000    0.000    0.000    0.000    0.000 
#
# Total GULP energy -78097.146707 kJ/mol
# GULP energy per Si atom -5578.367622 kJ/mol
# Density = 2.403107 g / cm^3
# Si number density = 24.085893 Si / 1000 Ang^3
#
#
#
# Elastic Constant Matrix: (Units=GPa)
#
#
# Indices 1 2 3 4 5 6 
#
# 1 90.0683 18.9514 24.1695 0.0000 2.5907 0.0000
# 2 18.9514 100.7255 28.1106 0.0000 -13.9392 0.0000
# 3 24.1695 28.1106 98.5017 0.0000 -7.6539 0.0000
# 4 0.0000 0.0000 0.0000 44.2517 0.0000 -8.0541
# 5 2.5907 -13.9392 -7.6539 0.0000 30.3690 0.0000
# 6 0.0000 0.0000 0.0000 -8.0541 0.0000 13.6808
#
#
#
# Elastic Compliance Matrix: (Units=1/GPa)
#
#
# Indices 1 2 3 4 5 6 
#
# 1 0.012300 -0.001930 -0.002670 0.000000 -0.002608 0.000000
# 2 -0.001930 0.011658 -0.002473 0.000000 0.004892 0.000000
# 3 -0.002670 -0.002473 0.011671 0.000000 0.002034 0.000000
# 4 0.000000 0.000000 0.000000 0.025310 0.000000 0.014900
# 5 -0.002608 0.004892 0.002034 0.000000 0.035909 0.000000
# 6 0.000000 0.000000 0.000000 0.014900 0.000000 0.081867
#
#
# Mechanical properties :
#
#
# Convention : Reuss Voigt Hill
#
# Bulk Modulus (GPa) = 46.54838 47.97317 47.26078
# Shear Modulus (GPa) = 24.99703 32.19792 28.59747
#
# Velocity S-wave (km/s) = 3.22503 3.66019 3.44948
# Velocity P-wave (km/s) = 5.76504 6.15007 5.96067
#
# Compressibility (1/GPa) = 0.02148302
#
# Stress axis : x y z
#
# Youngs Moduli (GPa) = 81.29890 85.77484 85.68137
#
# Poissons Ratio (x) = 0.16555 0.22877
# Poissons Ratio (y) = 0.15691 0.21192
# Poissons Ratio (z) = 0.21707 0.21215
#
# Static dielectric constant tensor:
#      x y z
#    x 2.004760 0.000000 0.058630 
#    y 0.000000 1.937440 0.000000 
#    z 0.058630 0.000000 1.957610 
# 
# From -- ./inp_files/5483.got.cif
#   From: 2010.05.17/outbox.cif.g08.bks.cpg/sg4_3_cif.got.tgz:5483.got - 2010.06.03 18:43:04.
