data_PCOD9116831
_publ_section_title
;
Structure prediction by ZEFSAII (Michael W. Deem and Ramdas Pophale) SiO2 
 PCOD9116831
Probable space group: P 21
;
_chemical_formula_sum "Si O2"
_cell_formula_units_Z 14
_cell_length_a 13.706438
_cell_length_b 9.190755
_cell_length_c 5.420004
_cell_angle_alpha 90.000000
_cell_angle_beta 58.202861
_cell_angle_gamma 90.000000
_cell_volume 580.300497
_symmetry_space_group_name_H-M "P 21"
_symmetry_group_IT_number 4
_symmetry_cell_setting 'monoclinic'
loop_
_space_group_symop_operation_xyz
x,y,z
-x,1/2+y,-z
loop_
_atom_site_type_symbol
_atom_site_label
_atom_site_fract_x
_atom_site_fract_y
_atom_site_fract_z
Si Si1 0.592649 0.036520 0.868869
Si Si2 0.383435 0.002337 0.455488
Si Si3 0.566300 0.201241 0.388692
Si Si4 0.029308 0.892571 0.382607
Si Si5 0.844970 0.611980 0.105919
Si Si6 0.931610 0.098184 0.885448
Si Si7 0.201650 0.406793 0.642881
O O1 0.586707 0.131774 0.630413
O O2 0.687924 0.916309 0.678554
O O3 0.626817 0.128587 0.068083
O O4 0.466332 0.976774 0.110169
O O5 0.409594 0.870516 0.607393
O O6 0.436262 0.150954 0.498523
O O7 0.247981 0.023496 0.606252
O O8 0.076906 0.729528 0.296107
O O9 0.913281 0.896116 0.370529
O O10 0.983548 0.951833 0.699427
O O11 0.124443 0.008813 0.163927
O O12 0.794296 0.773914 0.170380
O O13 0.969606 0.638544 0.054957
O O14 0.817649 0.055530 0.180017
#
# Coordination Sequence:
#
# PCOD9116831 Si02
#       7
#     2   2   2   2   2   2   2
#     4  10  26  43  72 101 139 182 236 283 353 412
#     4  10  26  44  71  99 142 178 241 285 351 416
#     4  10  26  45  68 102 136 185 228 289 349 408
#     4  10  22  41  64 103 130 185 227 294 343 422
#     4  10  23  43  66 100 131 183 230 287 347 415
#     4  10  22  42  67  97 141 176 234 286 356 413
#     4  10  23  42  68  92 139 181 230 286 355 416
#
# _framework density 24.125432
#
# number of rings (size 3 to 8) (size 9 to 14) (size 15 to 20)
#    0.857    1.143    0.000    0.857   10.000    2.286 
#    2.571    0.000    0.000    0.000    0.000    0.000 
#    0.000    0.000    0.000    0.000    0.000    0.000 
#
# Total GULP energy -78037.130899 kJ/mol
# GULP energy per Si atom -5574.080778 kJ/mol
# Density = 2.407052 g / cm^3
# Si number density = 24.125432 Si / 1000 Ang^3
#
#
#
# Elastic Constant Matrix: (Units=GPa)
#
#
# Indices 1 2 3 4 5 6 
#
# 1 47.7747 4.6690 29.4678 0.0000 -11.8583 0.0000
# 2 4.6690 79.1790 36.8630 0.0000 -6.3092 0.0000
# 3 29.4678 36.8630 153.1858 0.0000 -27.2988 0.0000
# 4 0.0000 0.0000 0.0000 30.4634 0.0000 -0.4201
# 5 -11.8583 -6.3092 -27.2988 0.0000 41.1842 0.0000
# 6 0.0000 0.0000 0.0000 -0.4201 0.0000 25.8600
#
#
#
# Elastic Compliance Matrix: (Units=1/GPa)
#
#
# Indices 1 2 3 4 5 6 
#
# 1 0.024495 0.000827 -0.004118 0.000000 0.004450 0.000000
# 2 0.000827 0.014251 -0.003580 0.000000 0.000048 0.000000
# 3 -0.004118 -0.003580 0.008927 0.000000 0.004183 0.000000
# 4 0.000000 0.000000 0.000000 0.032834 0.000000 0.000533
# 5 0.004450 0.000048 0.004183 0.000000 0.028343 0.000000
# 6 0.000000 0.000000 0.000000 0.000533 0.000000 0.038678
#
#
# Mechanical properties :
#
#
# Convention : Reuss Voigt Hill
#
# Bulk Modulus (GPa) = 29.47025 46.90434 38.18729
# Shear Modulus (GPa) = 28.97188 33.44417 31.20803
#
# Velocity S-wave (km/s) = 3.46914 3.72729 3.60053
# Velocity P-wave (km/s) = 5.31869 6.16504 5.75744
#
# Compressibility (1/GPa) = 0.03393253
#
# Stress axis : x y z
#
# Youngs Moduli (GPa) = 40.82394 70.16846 112.01722
#
# Poissons Ratio (x) = -0.05806 0.46131
# Poissons Ratio (y) = -0.03378 0.40102
# Poissons Ratio (z) = 0.16812 0.25121
#
# Static dielectric constant tensor:
#      x y z
#    x 1.920810 0.000000 -0.003480 
#    y 0.000000 1.967490 0.000000 
#    z -0.003480 0.000000 1.918300 
# 
# From -- ./inp_files/4088.got.cif
#   From: 2010.05.17/outbox.cif.g08.bks.cpg/sg4_3_cif.got.tgz:4088.got - 2010.06.03 18:43:04.
