data_PCOD9116699
_publ_section_title
;
Structure prediction by ZEFSAII (Michael W. Deem and Ramdas Pophale) SiO2 
 PCOD9116699
Probable space group: P 21
;
_chemical_formula_sum "Si O2"
_cell_formula_units_Z 16
_cell_length_a 9.650992
_cell_length_b 7.511393
_cell_length_c 9.449037
_cell_angle_alpha 90.000000
_cell_angle_beta 102.923907
_cell_angle_gamma 90.000000
_cell_volume 667.631284
_symmetry_space_group_name_H-M "P 21"
_symmetry_group_IT_number 4
_symmetry_cell_setting 'monoclinic'
loop_
_space_group_symop_operation_xyz
x,y,z
-x,1/2+y,-z
loop_
_atom_site_type_symbol
_atom_site_label
_atom_site_fract_x
_atom_site_fract_y
_atom_site_fract_z
Si Si1 0.599074 0.959940 0.160303
Si Si2 0.890971 0.471460 0.438034
Si Si3 0.632670 0.726394 0.428975
Si Si4 0.089265 0.603263 0.720606
Si Si5 0.646514 0.057211 0.612170
Si Si6 0.406681 0.297043 0.140682
Si Si7 0.065799 0.655780 0.229441
Si Si8 0.917551 0.787664 0.932923
O O1 0.583670 0.798178 0.265824
O O2 0.764449 0.014476 0.198745
O O3 0.509499 0.131068 0.186260
O O4 0.553890 0.895316 0.995627
O O5 0.745460 0.569737 0.444164
O O6 0.875014 0.276174 0.368736
O O7 0.992311 0.479003 0.598588
O O8 0.964008 0.589774 0.331222
O O9 0.698610 0.900752 0.519367
O O10 0.490970 0.660073 0.474877
O O11 0.001799 0.676336 0.834162
O O12 0.595622 0.944101 0.736730
O O13 0.776025 0.188993 0.676006
O O14 0.244831 0.224913 0.088750
O O15 0.088765 0.482875 0.134869
O O16 0.995033 0.787982 0.101921
#
# Coordination Sequence:
#
# PCOD9116699 Si02
#       8
#     2   2   2   2   2   2   2   2
#     4  12  25  43  65  95 130 171 218 270 326 388
#     4  11  23  41  67  97 130 169 216 270 325 384
#     4  12  25  44  66  94 129 170 216 269 326 389
#     4  11  23  41  67  97 130 170 216 269 326 384
#     4  11  24  44  65  93 129 168 214 267 321 389
#     4  11  24  43  64  94 130 169 216 268 321 388
#     4  10  22  40  62  91 124 161 207 258 313 375
#     4  10  22  40  62  89 124 162 207 259 314 377
#
# _framework density 23.965320999999999
#
# number of rings (size 3 to 8) (size 9 to 14) (size 15 to 20)
#    0.000    1.000    0.000    8.250    0.000    5.000 
#    0.000    0.000    0.000    0.000    0.000    0.000 
#    0.000    0.000    0.000    0.000    0.000    0.000 
#
# Total GULP energy -89708.578115 kJ/mol
# GULP energy per Si atom -5606.786132 kJ/mol
# Density = 2.391077 g / cm^3
# Si number density = 23.965321 Si / 1000 Ang^3
#
#
#
# Elastic Constant Matrix: (Units=GPa)
#
#
# Indices 1 2 3 4 5 6 
#
# 1 125.1994 29.3622 0.2161 0.0000 17.5288 0.0000
# 2 29.3622 77.5896 -6.6009 0.0000 10.4914 0.0000
# 3 0.2161 -6.6009 92.9512 0.0000 -3.6398 0.0000
# 4 0.0000 0.0000 0.0000 39.2697 0.0000 7.0369
# 5 17.5288 10.4914 -3.6398 0.0000 32.2362 0.0000
# 6 0.0000 0.0000 0.0000 7.0369 0.0000 33.4462
#
#
#
# Elastic Compliance Matrix: (Units=1/GPa)
#
#
# Indices 1 2 3 4 5 6 
#
# 1 0.009263 -0.002983 -0.000394 0.000000 -0.004111 0.000000
# 2 -0.002983 0.014500 0.000919 0.000000 -0.002993 0.000000
# 3 -0.000394 0.000919 0.010869 0.000000 0.001142 0.000000
# 4 0.000000 0.000000 0.000000 0.026463 0.000000 -0.005568
# 5 -0.004111 -0.002993 0.001142 0.000000 0.034359 0.000000
# 6 0.000000 0.000000 0.000000 -0.005568 0.000000 0.031070
#
#
# Mechanical properties :
#
#
# Convention : Reuss Voigt Hill
#
# Bulk Modulus (GPa) = 33.65143 37.96613 35.80878
# Shear Modulus (GPa) = 35.37415 39.17461 37.27438
#
# Velocity S-wave (km/s) = 3.84612 4.04745 3.94807
# Velocity P-wave (km/s) = 5.81340 6.14158 5.97974
#
# Compressibility (1/GPa) = 0.02971642
#
# Stress axis : x y z
#
# Youngs Moduli (GPa) = 107.95555 68.96461 92.00244
#
# Poissons Ratio (x) = 0.20573 0.03628
# Poissons Ratio (y) = 0.32205 -0.08459
# Poissons Ratio (z) = 0.04257 -0.06341
#
# Static dielectric constant tensor:
#      x y z
#    x 1.890530 0.000000 -0.000800 
#    y 0.000000 1.922510 0.000000 
#    z -0.000800 0.000000 1.918740 
# 
# From -- ./inp_files/5492.got.cif
#   From: 2010.05.17/outbox.cif.g08.bks.cpg/sg4_3_cif.got.tgz:5492.got - 2010.06.03 18:43:04.
