data_PCOD9116756
_publ_section_title
;
Structure prediction by ZEFSAII (Michael W. Deem and Ramdas Pophale) SiO2 
 PCOD9116756
Probable space group: P 21
;
_chemical_formula_sum "Si O2"
_cell_formula_units_Z 12
_cell_length_a 5.537260
_cell_length_b 8.153897
_cell_length_c 14.388534
_cell_angle_alpha 90.000000
_cell_angle_beta 125.060786
_cell_angle_gamma 90.000000
_cell_volume 531.763126
_symmetry_space_group_name_H-M "P 21"
_symmetry_group_IT_number 4
_symmetry_cell_setting 'monoclinic'
loop_
_space_group_symop_operation_xyz
x,y,z
-x,1/2+y,-z
loop_
_atom_site_type_symbol
_atom_site_label
_atom_site_fract_x
_atom_site_fract_y
_atom_site_fract_z
Si Si1 0.958277 0.408730 0.747246
Si Si2 0.379551 0.560973 0.318423
Si Si3 0.722911 0.065028 0.007945
Si Si4 0.886082 0.769012 0.407231
Si Si5 0.084148 0.933086 0.908345
Si Si6 0.406674 0.541429 0.540686
O O1 0.803495 0.232653 0.730806
O O2 0.703364 0.538615 0.665613
O O3 0.148527 0.466859 0.875065
O O4 0.124026 0.380087 0.686671
O O5 0.689307 0.608830 0.340782
O O6 0.455054 0.528429 0.441710
O O7 0.170240 0.428721 0.225947
O O8 0.792760 0.255755 0.037671
O O9 0.370244 0.032234 0.933092
O O10 0.907943 0.008636 0.957983
O O11 0.202159 0.699639 0.505449
O O12 0.758689 0.877848 0.461442
#
# Coordination Sequence:
#
# PCOD9116756 Si02
#       6
#     2   2   2   2   2   2
#     4  10  23  42  67 100 137 186 236 292 351 423
#     4  10  23  42  67 100 137 186 236 292 351 423
#     4  12  28  49  75 107 144 191 244 299 360 429
#     4  10  22  40  68  98 144 178 230 292 352 428
#     4  12  28  49  75 107 144 191 244 299 360 429
#     4  10  22  40  66 102 138 182 228 288 354 422
#
# _framework density 22.566438000000002
#
# number of rings (size 3 to 8) (size 9 to 14) (size 15 to 20)
#    0.000    1.333    0.000    4.000   11.667    6.667 
#    0.000    0.000    0.000    0.000    0.000    0.000 
#    0.000    0.000    0.000    0.000    0.000    0.000 
#
# Total GULP energy -67090.316924 kJ/mol
# GULP energy per Si atom -5590.859744 kJ/mol
# Density = 2.251508 g / cm^3
# Si number density = 22.566438 Si / 1000 Ang^3
#
#
#
# Elastic Constant Matrix: (Units=GPa)
#
#
# Indices 1 2 3 4 5 6 
#
# 1 100.8095 22.0024 11.4629 0.0000 6.8987 0.0000
# 2 22.0024 72.7013 -12.2222 0.0000 1.8421 0.0000
# 3 11.4629 -12.2222 60.0775 0.0000 10.3002 0.0000
# 4 0.0000 0.0000 0.0000 29.2653 0.0000 -3.4173
# 5 6.8987 1.8421 10.3002 0.0000 22.8142 0.0000
# 6 0.0000 0.0000 0.0000 -3.4173 0.0000 34.0901
#
#
#
# Elastic Compliance Matrix: (Units=1/GPa)
#
#
# Indices 1 2 3 4 5 6 
#
# 1 0.011164 -0.003762 -0.002567 0.000000 -0.001913 0.000000
# 2 -0.003762 0.015661 0.004255 0.000000 -0.002048 0.000000
# 3 -0.002567 0.004255 0.019430 0.000000 -0.008340 0.000000
# 4 0.000000 0.000000 0.000000 0.034575 0.000000 0.003466
# 5 -0.001913 -0.002048 -0.008340 0.000000 0.048341 0.000000
# 6 0.000000 0.000000 0.000000 0.003466 0.000000 0.029681
#
#
# Mechanical properties :
#
#
# Convention : Reuss Voigt Hill
#
# Bulk Modulus (GPa) = 23.74949 30.67495 27.21222
# Shear Modulus (GPa) = 28.24286 31.39029 29.81657
#
# Velocity S-wave (km/s) = 3.54155 3.73368 3.63888
# Velocity P-wave (km/s) = 5.22212 5.67537 5.45346
#
# Compressibility (1/GPa) = 0.04210617
#
# Stress axis : x y z
#
# Youngs Moduli (GPa) = 89.57724 63.85476 51.46556
#
# Poissons Ratio (x) = 0.24020 0.13213
# Poissons Ratio (y) = 0.33696 -0.21898
# Poissons Ratio (z) = 0.22998 -0.27169
#
# Static dielectric constant tensor:
#      x y z
#    x 1.891240 0.000000 0.021700 
#    y 0.000000 1.853000 0.000000 
#    z 0.021700 0.000000 1.791380 
# 
# From -- ./inp_files/2450.got.cif
#   From: 2010.05.17/outbox.cif.g08.bks.cpg/sg4_2_cif.got.tgz:2450.got - 2010.06.03 18:43:04.
