data_PCOD9116143
_publ_section_title
;
Structure prediction by ZEFSAII (Michael W. Deem and Ramdas Pophale) SiO2 
 PCOD9116143
Probable space group: P 21
;
_chemical_formula_sum "Si O2"
_cell_formula_units_Z 14
_cell_length_a 6.090911
_cell_length_b 13.059333
_cell_length_c 8.267329
_cell_angle_alpha 90.000000
_cell_angle_beta 125.388599
_cell_angle_gamma 90.000000
_cell_volume 536.112057
_symmetry_space_group_name_H-M "P 21"
_symmetry_group_IT_number 4
_symmetry_cell_setting 'monoclinic'
loop_
_space_group_symop_operation_xyz
x,y,z
-x,1/2+y,-z
loop_
_atom_site_type_symbol
_atom_site_label
_atom_site_fract_x
_atom_site_fract_y
_atom_site_fract_z
Si Si1 0.392910 0.825790 0.287264
Si Si2 0.803726 0.150790 0.586638
Si Si3 0.849620 0.271038 0.269442
Si Si4 0.646315 0.446093 0.387157
Si Si5 0.218015 0.105865 0.335533
Si Si6 0.696630 0.755222 0.143015
Si Si7 0.081992 0.439027 0.987615
O O1 0.308034 0.712612 0.304417
O O2 0.369558 0.884326 0.448447
O O3 0.663811 0.808032 0.304617
O O4 0.195945 0.884825 0.077146
O O5 0.817979 0.215412 0.428298
O O6 0.533790 0.086032 0.430826
O O7 0.118588 0.153785 0.774185
O O8 0.797872 0.387504 0.305889
O O9 0.117418 0.223297 0.300077
O O10 0.594947 0.234020 0.054795
O O11 0.805624 0.548387 0.502155
O O12 0.334485 0.461087 0.207515
O O13 0.018099 0.043398 0.135754
O O14 0.819361 0.847471 0.088961
#
# Coordination Sequence:
#
# PCOD9116143 Si02
#       7
#     2   2   2   2   2   2   2
#     4   9  19  38  64  89 119 165 213 265 326 390
#     4  10  22  38  58  90 126 164 211 268 326 388
#     4  10  23  42  66  95 131 175 224 276 331 394
#     4   9  21  44  67  96 136 177 222 273 334 392
#     4  11  23  39  65  97 135 175 225 278 329 392
#     4  10  21  40  66  93 124 168 218 270 332 392
#     4   9  21  39  60  92 129 168 219 270 324 394
#
# _framework density 26.113938999999998
#
# number of rings (size 3 to 8) (size 9 to 14) (size 15 to 20)
#    0.000    2.286    0.000    1.714    0.000   11.429 
#    0.000    5.714    0.000    3.429    0.000    0.000 
#    0.000    0.000    0.000    0.000    0.000    0.000 
#
# Total GULP energy -78005.574381 kJ/mol
# GULP energy per Si atom -5571.826741 kJ/mol
# Density = 2.605450 g / cm^3
# Si number density = 26.113939 Si / 1000 Ang^3
#
#
#
# Elastic Constant Matrix: (Units=GPa)
#
#
# Indices 1 2 3 4 5 6 
#
# 1 73.5511 19.8341 25.7355 0.0000 13.0892 0.0000
# 2 19.8341 62.8406 20.8868 0.0000 16.4672 0.0000
# 3 25.7355 20.8868 154.5404 0.0000 33.0381 0.0000
# 4 0.0000 0.0000 0.0000 36.7741 0.0000 11.2512
# 5 13.0892 16.4672 33.0381 0.0000 34.5108 0.0000
# 6 0.0000 0.0000 0.0000 11.2512 0.0000 30.6351
#
#
#
# Elastic Compliance Matrix: (Units=1/GPa)
#
#
# Indices 1 2 3 4 5 6 
#
# 1 0.015609 -0.003716 -0.001522 0.000000 -0.002690 0.000000
# 2 -0.003716 0.019143 -0.000399 0.000000 -0.007343 0.000000
# 3 -0.001522 -0.000399 0.008316 0.000000 -0.007194 0.000000
# 4 0.000000 0.000000 0.000000 0.030635 0.000000 -0.011251
# 5 -0.002690 -0.007343 -0.007194 0.000000 0.040387 0.000000
# 6 0.000000 0.000000 0.000000 -0.011251 0.000000 0.036774
#
#
# Mechanical properties :
#
#
# Convention : Reuss Voigt Hill
#
# Bulk Modulus (GPa) = 31.45133 47.09389 39.27261
# Shear Modulus (GPa) = 28.94573 35.34904 32.14739
#
# Velocity S-wave (km/s) = 3.33294 3.68318 3.51243
# Velocity P-wave (km/s) = 5.18472 6.01340 5.61437
#
# Compressibility (1/GPa) = 0.03179516
#
# Stress axis : x y z
#
# Youngs Moduli (GPa) = 64.06422 52.23874 120.24959
#
# Poissons Ratio (x) = 0.19411 0.18303
# Poissons Ratio (y) = 0.23805 0.04793
# Poissons Ratio (z) = 0.09751 0.02082
#
# Static dielectric constant tensor:
#      x y z
#    x 2.073130 0.000000 0.050590 
#    y 0.000000 2.152600 0.000000 
#    z 0.050590 0.000000 2.117930 
# 
# From -- ./inp_files/4725.got.cif
#   From: 2010.05.17/outbox.cif.g08.bks.cpg/sg4_3_cif.got.tgz:4725.got - 2010.06.03 18:43:04.
