data_PCOD9116259
_publ_section_title
;
Structure prediction by ZEFSAII (Michael W. Deem and Ramdas Pophale) SiO2 
 PCOD9116259
Probable space group: P 21
;
_chemical_formula_sum "Si O2"
_cell_formula_units_Z 16
_cell_length_a 12.648727
_cell_length_b 7.629407
_cell_length_c 8.307180
_cell_angle_alpha 90.000000
_cell_angle_beta 121.375730
_cell_angle_gamma 90.000000
_cell_volume 684.435984
_symmetry_space_group_name_H-M "P 21"
_symmetry_group_IT_number 4
_symmetry_cell_setting 'monoclinic'
loop_
_space_group_symop_operation_xyz
x,y,z
-x,1/2+y,-z
loop_
_atom_site_type_symbol
_atom_site_label
_atom_site_fract_x
_atom_site_fract_y
_atom_site_fract_z
Si Si1 0.497574 0.528970 0.072189
Si Si2 0.940699 0.840837 0.588119
Si Si3 0.648196 0.839430 0.292090
Si Si4 0.371547 0.806401 0.575798
Si Si5 0.393735 0.173149 0.407642
Si Si6 0.976899 0.955828 0.270079
Si Si7 0.127462 0.660858 0.269354
Si Si8 0.266013 0.460678 0.098716
O O1 0.595364 0.684319 0.137539
O O2 0.582064 0.376079 0.215977
O O3 0.390921 0.544823 0.125560
O O4 0.421727 0.497262 0.849930
O O5 0.794482 0.831823 0.431553
O O6 0.984037 0.658216 0.697894
O O7 0.006759 0.880242 0.471031
O O8 0.953041 0.005320 0.717115
O O9 0.598039 0.794996 0.428389
O O10 0.474568 0.685074 0.574871
O O11 0.241249 0.710096 0.476842
O O12 0.359384 0.981493 0.450251
O O13 0.300076 0.278300 0.215326
O O14 0.831697 0.934671 0.120970
O O15 0.047254 0.836611 0.195459
O O16 0.195090 0.588188 0.165512
#
# Coordination Sequence:
#
# PCOD9116259 Si02
#       8
#     2   2   2   2   2   2   2   2
#     4  10  23  39  67 102 137 174 231 282 344 426
#     4  12  26  49  71  98 139 186 234 289 347 423
#     4  11  22  40  65  99 133 181 218 284 344 413
#     4  10  22  41  65 102 139 185 227 287 355 413
#     4  10  21  41  67  98 147 177 228 286 359 427
#     4  12  27  49  71 103 136 185 244 289 349 414
#     4  12  26  44  75  96 139 191 226 297 351 408
#     4  11  25  45  67 104 138 179 238 292 351 418
#
# _framework density 23.376913999999999
#
# number of rings (size 3 to 8) (size 9 to 14) (size 15 to 20)
#    0.000    1.000    3.750    3.750    3.500    1.000 
#    2.250    0.000    0.000    0.000    0.000    0.000 
#    0.000    0.000    0.000    0.000    0.000    0.000 
#
# Total GULP energy -89470.071945 kJ/mol
# GULP energy per Si atom -5591.879497 kJ/mol
# Density = 2.332371 g / cm^3
# Si number density = 23.376914 Si / 1000 Ang^3
#
#
#
# Elastic Constant Matrix: (Units=GPa)
#
#
# Indices 1 2 3 4 5 6 
#
# 1 40.7293 19.3762 -6.2490 0.0000 -3.9740 0.0000
# 2 19.3762 146.4760 17.6613 0.0000 0.8907 0.0000
# 3 -6.2490 17.6613 75.5280 0.0000 5.8949 0.0000
# 4 0.0000 0.0000 0.0000 28.1544 0.0000 3.1619
# 5 -3.9740 0.8907 5.8949 0.0000 35.9322 0.0000
# 6 0.0000 0.0000 0.0000 3.1619 0.0000 34.3574
#
#
#
# Elastic Compliance Matrix: (Units=1/GPa)
#
#
# Indices 1 2 3 4 5 6 
#
# 1 0.027149 -0.003965 0.002970 0.000000 0.002614 0.000000
# 2 -0.003965 0.007605 -0.002084 0.000000 -0.000285 0.000000
# 3 0.002970 -0.002084 0.014124 0.000000 -0.001937 0.000000
# 4 0.000000 0.000000 0.000000 0.035889 0.000000 -0.003303
# 5 0.002614 -0.000285 -0.001937 0.000000 0.028444 0.000000
# 6 0.000000 0.000000 0.000000 -0.003303 0.000000 0.029410
#
#
# Mechanical properties :
#
#
# Convention : Reuss Voigt Hill
#
# Bulk Modulus (GPa) = 23.40900 36.03447 29.72174
# Shear Modulus (GPa) = 30.67091 35.15179 32.91135
#
# Velocity S-wave (km/s) = 3.62611 3.88196 3.75621
# Velocity P-wave (km/s) = 5.25043 5.96161 5.61729
#
# Compressibility (1/GPa) = 0.04271861
#
# Stress axis : x y z
#
# Youngs Moduli (GPa) = 36.83320 131.49899 70.79977
#
# Poissons Ratio (x) = 0.52144 -0.21024
# Poissons Ratio (y) = 0.14606 0.14755
# Poissons Ratio (z) = -0.10938 0.27405
#
# Static dielectric constant tensor:
#      x y z
#    x 1.842920 0.000000 -0.025890 
#    y 0.000000 2.000780 0.000000 
#    z -0.025890 0.000000 1.906710 
# 
# From -- ./inp_files/8028.got.cif
#   From: 2010.05.17/outbox.cif.g08.bks.cpg/sg4_5_cif.got.tgz:8028.got - 2010.06.03 18:43:04.
