data_PCOD9116101
_publ_section_title
;
Structure prediction by ZEFSAII (Michael W. Deem and Ramdas Pophale) SiO2 
 PCOD9116101
Probable space group: P 21
;
_chemical_formula_sum "Si O2"
_cell_formula_units_Z 16
_cell_length_a 8.980702
_cell_length_b 18.907173
_cell_length_c 6.020009
_cell_angle_alpha 90.000000
_cell_angle_beta 44.323604
_cell_angle_gamma 90.000000
_cell_volume 714.218386
_symmetry_space_group_name_H-M "P 21"
_symmetry_group_IT_number 4
_symmetry_cell_setting 'monoclinic'
loop_
_space_group_symop_operation_xyz
x,y,z
-x,1/2+y,-z
loop_
_atom_site_type_symbol
_atom_site_label
_atom_site_fract_x
_atom_site_fract_y
_atom_site_fract_z
Si Si1 0.709563 0.118460 0.172993
Si Si2 0.418314 0.870523 0.756408
Si Si3 0.968224 0.662177 0.786310
Si Si4 0.954088 0.535880 0.493850
Si Si5 0.410190 0.994960 0.460425
Si Si6 0.644461 0.777878 0.139799
Si Si7 0.704896 0.243036 0.858552
Si Si8 0.743894 0.911538 0.790054
O O1 0.629334 0.186495 0.123504
O O2 0.855512 0.142986 0.219993
O O3 0.526842 0.063456 0.436666
O O4 0.861993 0.076231 0.840161
O O5 0.326506 0.939146 0.731084
O O6 0.265050 0.819871 0.062477
O O7 0.607721 0.896605 0.715052
O O8 0.519865 0.818724 0.464793
O O9 0.781835 0.711876 0.075760
O O10 0.889823 0.589718 0.756924
O O11 0.086658 0.709551 0.473873
O O12 0.057894 0.462647 0.463716
O O13 0.766991 0.519857 0.522550
O O14 0.585152 0.952183 0.129266
O O15 0.474978 0.751917 0.137302
O O16 0.789139 0.837464 0.863722
#
# Coordination Sequence:
#
# PCOD9116101 Si02
#       8
#     2   2   2   2   2   2   2   2
#     4  10  22  38  60  90 121 156 202 250 298 359
#     4  10  21  40  64  87 121 162 199 248 302 356
#     4  11  23  39  62  91 123 160 202 249 301 359
#     4  10  22  39  61  89 120 156 198 249 304 354
#     4  10  21  40  62  88 120 156 200 249 303 356
#     4  10  22  39  60  88 122 160 202 248 300 358
#     4  10  22  40  59  86 124 161 201 249 302 356
#     4   9  21  39  58  87 121 153 198 250 296 356
#
# _framework density 22.40211
#
# number of rings (size 3 to 8) (size 9 to 14) (size 15 to 20)
#    0.000    2.000    0.000    2.250    0.000   11.000 
#    0.000    6.250    0.000    0.000    0.000    0.000 
#    0.000    0.000    0.000    0.000    0.000    0.000 
#
# Total GULP energy -89487.920745 kJ/mol
# GULP energy per Si atom -5592.995047 kJ/mol
# Density = 2.235112 g / cm^3
# Si number density = 22.402110 Si / 1000 Ang^3
#
#
#
# Elastic Constant Matrix: (Units=GPa)
#
#
# Indices 1 2 3 4 5 6 
#
# 1 68.7633 40.1565 2.9070 0.0000 20.6906 0.0000
# 2 40.1565 118.0444 22.1475 0.0000 1.3162 0.0000
# 3 2.9070 22.1475 42.4227 0.0000 4.1439 0.0000
# 4 0.0000 0.0000 0.0000 37.7874 0.0000 4.4290
# 5 20.6906 1.3162 4.1439 0.0000 25.6142 0.0000
# 6 0.0000 0.0000 0.0000 4.4290 0.0000 55.2960
#
#
#
# Elastic Compliance Matrix: (Units=1/GPa)
#
#
# Indices 1 2 3 4 5 6 
#
# 1 0.026654 -0.009846 0.005454 0.000000 -0.021907 0.000000
# 2 -0.009846 0.013031 -0.006950 0.000000 0.008408 0.000000
# 3 0.005454 -0.006950 0.027659 0.000000 -0.008523 0.000000
# 4 0.000000 0.000000 0.000000 0.026715 0.000000 -0.002140
# 5 -0.021907 0.008408 -0.008523 0.000000 0.057683 0.000000
# 6 0.000000 0.000000 0.000000 -0.002140 0.000000 0.018256
#
#
# Mechanical properties :
#
#
# Convention : Reuss Voigt Hill
#
# Bulk Modulus (GPa) = 22.39143 39.96137 31.17640
# Shear Modulus (GPa) = 24.08848 34.67417 29.38133
#
# Velocity S-wave (km/s) = 3.28270 3.93849 3.62545
# Velocity P-wave (km/s) = 4.93813 6.20960 5.61000
#
# Compressibility (1/GPa) = 0.04465995
#
# Stress axis : x y z
#
# Youngs Moduli (GPa) = 37.51842 76.74024 36.15422
#
# Poissons Ratio (x) = 0.75559 -0.19718
# Poissons Ratio (y) = 0.36941 0.25126
# Poissons Ratio (z) = -0.20462 0.53332
#
# Static dielectric constant tensor:
#      x y z
#    x 1.751040 0.000000 0.005830 
#    y 0.000000 1.840450 0.000000 
#    z 0.005830 0.000000 1.849050 
# 
# From -- ./inp_files/2142.got.cif
#   From: 2010.05.17/outbox.cif.g08.bks.cpg/sg4_2_cif.got.tgz:2142.got - 2010.06.03 18:43:04.
