data_PCOD9116002
_publ_section_title
;
Structure prediction by ZEFSAII (Michael W. Deem and Ramdas Pophale) SiO2 
 PCOD9116002
Probable space group: P 21
;
_chemical_formula_sum "Si O2"
_cell_formula_units_Z 14
_cell_length_a 13.399976
_cell_length_b 7.771092
_cell_length_c 14.357883
_cell_angle_alpha 90.000000
_cell_angle_beta 20.536639
_cell_angle_gamma 90.000000
_cell_volume 524.498011
_symmetry_space_group_name_H-M "P 21"
_symmetry_group_IT_number 4
_symmetry_cell_setting 'monoclinic'
loop_
_space_group_symop_operation_xyz
x,y,z
-x,1/2+y,-z
loop_
_atom_site_type_symbol
_atom_site_label
_atom_site_fract_x
_atom_site_fract_y
_atom_site_fract_z
Si Si1 0.605153 0.033900 0.997472
Si Si2 0.977738 0.412104 0.829666
Si Si3 0.586878 0.979603 0.326050
Si Si4 0.722077 0.200020 0.712029
Si Si5 0.392206 0.238735 0.343877
Si Si6 0.890974 0.722687 0.806208
Si Si7 0.183661 0.164308 0.807459
O O1 0.772446 0.092621 0.760539
O O2 0.818934 0.924935 0.877787
O O3 0.447236 0.184863 0.189882
O O4 0.365825 0.893288 0.181507
O O5 0.094788 0.322964 0.632299
O O6 0.153361 0.309168 0.753330
O O7 0.029624 0.613425 0.767178
O O8 0.653844 0.366406 0.138166
O O9 0.446440 0.066929 0.358005
O O10 0.370638 0.014174 0.599502
O O11 0.667789 0.779648 0.243508
O O12 0.874829 0.086996 0.094566
O O13 0.943633 0.201610 0.435276
O O14 0.418949 0.136779 0.936081
#
# Coordination Sequence:
#
# PCOD9116002 Si02
#       7
#     2   2   2   2   2   2   2
#     4  10  26  39  61  88 121 155 206 246 305 349
#     4  10  22  39  62  86 119 159 198 242 301 353
#     4  10  21  40  60  93 121 161 200 243 300 353
#     4  10  25  39  58  87 118 155 202 249 299 358
#     4  10  23  39  63  85 121 157 199 246 298 355
#     4  10  24  39  59  87 116 155 204 242 305 350
#     4  10  21  39  61  92 122 160 199 244 296 358
#
# _framework density 26.692188000000002
#
# number of rings (size 3 to 8) (size 9 to 14) (size 15 to 20)
#    0.857    1.143    0.000    1.714    8.000    1.143 
#    2.571    0.000    0.000    0.000    0.000    0.000 
#    0.000    0.000    0.000    0.000    0.000    0.000 
#
# Total GULP energy -78343.196298 kJ/mol
# GULP energy per Si atom -5595.942593 kJ/mol
# Density = 2.663144 g / cm^3
# Si number density = 26.692188 Si / 1000 Ang^3
#
#
#
# Elastic Constant Matrix: (Units=GPa)
#
#
# Indices 1 2 3 4 5 6 
#
# 1 27.2604 19.3875 19.4560 0.0000 4.9453 0.0000
# 2 19.3875 62.7382 18.8226 0.0000 9.8338 0.0000
# 3 19.4560 18.8226 118.8939 0.0000 4.7140 0.0000
# 4 0.0000 0.0000 0.0000 14.5929 0.0000 7.3883
# 5 4.9453 9.8338 4.7140 0.0000 36.2813 0.0000
# 6 0.0000 0.0000 0.0000 7.3883 0.0000 51.1164
#
#
#
# Elastic Compliance Matrix: (Units=1/GPa)
#
#
# Indices 1 2 3 4 5 6 
#
# 1 0.051167 -0.013583 -0.006124 0.000000 -0.002497 0.000000
# 2 -0.013583 0.021006 -0.000955 0.000000 -0.003718 0.000000
# 3 -0.006124 -0.000955 0.009570 0.000000 -0.000150 0.000000
# 4 0.000000 0.000000 0.000000 0.073937 0.000000 -0.010687
# 5 -0.002497 -0.003718 -0.000150 0.000000 0.028930 0.000000
# 6 0.000000 0.000000 0.000000 -0.010687 0.000000 0.021108
#
#
# Mechanical properties :
#
#
# Convention : Reuss Voigt Hill
#
# Bulk Modulus (GPa) = 24.74089 36.02498 30.38293
# Shear Modulus (GPa) = 19.19270 30.47987 24.83628
#
# Velocity S-wave (km/s) = 2.68440 3.38287 3.05367
# Velocity P-wave (km/s) = 4.34708 5.36509 4.88269
#
# Compressibility (1/GPa) = 0.04041892
#
# Stress axis : x y z
#
# Youngs Moduli (GPa) = 19.54388 47.60516 104.49172
#
# Poissons Ratio (x) = 0.64662 0.63987
# Poissons Ratio (y) = 0.26547 0.09983
# Poissons Ratio (z) = 0.11968 0.04548
#
# Static dielectric constant tensor:
#      x y z
#    x 2.178910 0.000000 -0.026540 
#    y 0.000000 2.110310 0.000000 
#    z -0.026540 0.000000 2.002040 
# 
# From -- ./inp_files/3460.got.cif
#   From: 2010.05.17/outbox.cif.g08.bks.cpg/sg4_2_cif.got.tgz:3460.got - 2010.06.03 18:43:04.
