data_PCOD9116945
_publ_section_title
;
Structure prediction by ZEFSAII (Michael W. Deem and Ramdas Pophale) SiO2 
 PCOD9116945
Probable space group: P 21
;
_chemical_formula_sum "Si O2"
_cell_formula_units_Z 14
_cell_length_a 8.983004
_cell_length_b 9.199178
_cell_length_c 7.109767
_cell_angle_alpha 90.000000
_cell_angle_beta 67.523109
_cell_angle_gamma 90.000000
_cell_volume 542.892502
_symmetry_space_group_name_H-M "P 21"
_symmetry_group_IT_number 4
_symmetry_cell_setting 'monoclinic'
loop_
_space_group_symop_operation_xyz
x,y,z
-x,1/2+y,-z
loop_
_atom_site_type_symbol
_atom_site_label
_atom_site_fract_x
_atom_site_fract_y
_atom_site_fract_z
Si Si1 0.418546 0.267020 0.375366
Si Si2 0.360631 0.019869 0.696326
Si Si3 0.497978 0.249499 0.903195
Si Si4 0.857650 0.988737 0.547553
Si Si5 0.201814 0.417026 0.995337
Si Si6 0.863828 0.287454 0.668934
Si Si7 0.023351 0.144802 0.958402
O O1 0.391481 0.120781 0.502031
O O2 0.577599 0.357148 0.356112
O O3 0.268631 0.377352 0.484525
O O4 0.437391 0.234284 0.145565
O O5 0.467583 0.098590 0.808091
O O6 0.174157 0.039115 0.840321
O O7 0.678870 0.306736 0.813741
O O8 0.379624 0.365292 0.861178
O O9 0.802924 0.979134 0.792835
O O10 0.037769 0.927068 0.443195
O O11 0.860670 0.160565 0.513343
O O12 0.120478 0.540124 0.907087
O O13 0.095504 0.271237 0.049815
O O14 0.962678 0.227611 0.801092
#
# Coordination Sequence:
#
# PCOD9116945 Si02
#       7
#     2   2   2   2   2   2   2
#     4  11  24  48  71 106 144 187 240 299 354 433
#     4  11  24  46  73 105 143 190 239 296 365 422
#     4  10  24  46  72 101 143 188 238 292 353 427
#     4  10  22  45  67  97 142 180 229 289 352 430
#     4   9  22  43  67  95 136 177 231 284 349 411
#     4  11  22  44  70  99 139 181 233 290 357 414
#     4  10  22  42  66 101 133 173 228 290 340 425
#
# _framework density 25.787794999999999
#
# number of rings (size 3 to 8) (size 9 to 14) (size 15 to 20)
#    0.000    1.714    2.857    0.000    2.000    4.571 
#   10.286    0.000    0.000    0.000    0.000    0.000 
#    0.000    0.000    0.000    0.000    0.000    0.000 
#
# Total GULP energy -78465.143631 kJ/mol
# GULP energy per Si atom -5604.653117 kJ/mol
# Density = 2.572910 g / cm^3
# Si number density = 25.787795 Si / 1000 Ang^3
#
#
#
# Elastic Constant Matrix: (Units=GPa)
#
#
# Indices 1 2 3 4 5 6 
#
# 1 116.9938 15.2373 24.7723 0.0000 -17.9363 0.0000
# 2 15.2373 60.1184 10.4711 0.0000 -7.3863 0.0000
# 3 24.7723 10.4711 69.3596 0.0000 -2.1905 0.0000
# 4 0.0000 0.0000 0.0000 34.5380 0.0000 -8.3611
# 5 -17.9363 -7.3863 -2.1905 0.0000 34.2353 0.0000
# 6 0.0000 0.0000 0.0000 -8.3611 0.0000 42.4082
#
#
#
# Elastic Compliance Matrix: (Units=1/GPa)
#
#
# Indices 1 2 3 4 5 6 
#
# 1 0.010160 -0.001416 -0.003263 0.000000 0.004809 0.000000
# 2 -0.001416 0.017716 -0.002076 0.000000 0.002948 0.000000
# 3 -0.003263 -0.002076 0.015860 0.000000 -0.001143 0.000000
# 4 0.000000 0.000000 0.000000 0.030405 0.000000 0.005995
# 5 0.004809 0.002948 -0.001143 0.000000 0.032292 0.000000
# 6 0.000000 0.000000 0.000000 0.005995 0.000000 0.024762
#
#
# Mechanical properties :
#
#
# Convention : Reuss Voigt Hill
#
# Bulk Modulus (GPa) = 33.08292 38.60370 35.84331
# Shear Modulus (GPa) = 32.30370 35.30237 33.80304
#
# Velocity S-wave (km/s) = 3.54315 3.70396 3.62445
# Velocity P-wave (km/s) = 5.44016 5.77015 5.60758
#
# Compressibility (1/GPa) = 0.03022707
#
# Stress axis : x y z
#
# Youngs Moduli (GPa) = 98.42497 56.44480 63.05034
#
# Poissons Ratio (x) = 0.07992 0.20574
# Poissons Ratio (y) = 0.13936 0.13088
# Poissons Ratio (z) = 0.32117 0.11717
#
# Static dielectric constant tensor:
#      x y z
#    x 2.058740 0.000000 0.022690 
#    y 0.000000 2.038790 0.000000 
#    z 0.022690 0.000000 2.001250 
# 
# From -- ./inp_files/5240.got.cif
#   From: 2010.05.17/outbox.cif.g08.bks.cpg/sg4_3_cif.got.tgz:5240.got - 2010.06.03 18:43:04.
