data_PCOD9116191
_publ_section_title
;
Structure prediction by ZEFSAII (Michael W. Deem and Ramdas Pophale) SiO2 
 PCOD9116191
Probable space group: P 21
;
_chemical_formula_sum "Si O2"
_cell_formula_units_Z 16
_cell_length_a 14.498098
_cell_length_b 9.328940
_cell_length_c 15.045976
_cell_angle_alpha 90.000000
_cell_angle_beta 159.654112
_cell_angle_gamma 90.000000
_cell_volume 707.541249
_symmetry_space_group_name_H-M "P 21"
_symmetry_group_IT_number 4
_symmetry_cell_setting 'monoclinic'
loop_
_space_group_symop_operation_xyz
x,y,z
-x,1/2+y,-z
loop_
_atom_site_type_symbol
_atom_site_label
_atom_site_fract_x
_atom_site_fract_y
_atom_site_fract_z
Si Si1 0.603412 0.300230 0.721355
Si Si2 0.579617 0.607438 0.712327
Si Si3 0.307196 0.396512 0.768882
Si Si4 0.011959 0.197879 0.781571
Si Si5 0.855718 0.680731 0.787000
Si Si6 0.008402 0.525223 0.738582
Si Si7 0.454519 0.164949 0.765372
Si Si8 0.178399 0.088185 0.743557
O O1 0.635937 0.449669 0.799207
O O2 0.351356 0.303584 0.429631
O O3 0.530721 0.189850 0.732135
O O4 0.879747 0.247276 0.931780
O O5 0.270411 0.643075 0.436946
O O6 0.694321 0.598289 0.716310
O O7 0.760720 0.706945 0.937699
O O8 0.420556 0.313876 0.784521
O O9 0.221829 0.253581 0.748642
O O10 0.061759 0.499951 0.520224
O O11 0.551240 0.495423 0.023190
O O12 0.966561 0.357894 0.706688
O O13 0.106027 0.103511 0.782752
O O14 0.934655 0.592464 0.769586
O O15 0.825065 0.587817 0.495362
O O16 0.306667 0.569159 0.983998
#
# Coordination Sequence:
#
# PCOD9116191 Si02
#       8
#     2   2   2   2   2   2   2   2
#     4  10  21  41  59  90 122 168 222 275 333 415
#     4  12  25  40  67  90 133 182 219 293 348 413
#     4  12  27  48  78 109 148 188 239 294 362 434
#     4  12  26  44  67 100 140 179 235 287 362 408
#     4  10  23  38  62  93 127 171 226 277 338 413
#     4  10  23  41  66 100 134 180 226 289 340 423
#     4  10  21  41  71  91 134 177 229 272 354 408
#     4  12  28  47  76 111 150 185 246 293 365 432
#
# _framework density 22.613523000000001
#
# number of rings (size 3 to 8) (size 9 to 14) (size 15 to 20)
#    0.000    1.000    0.000    6.000    7.000    2.000 
#    0.000    0.000    0.000    0.000    0.000    0.000 
#    0.000    0.000    0.000    0.000    0.000    0.000 
#
# Total GULP energy -89342.073459 kJ/mol
# GULP energy per Si atom -5583.879591 kJ/mol
# Density = 2.256205 g / cm^3
# Si number density = 22.613523 Si / 1000 Ang^3
#
#
#
# Elastic Constant Matrix: (Units=GPa)
#
#
# Indices 1 2 3 4 5 6 
#
# 1 117.3606 22.9034 58.8042 0.0000 28.4982 0.0000
# 2 22.9034 99.0186 34.0879 0.0000 27.0415 0.0000
# 3 58.8042 34.0879 122.2799 0.0000 37.7722 0.0000
# 4 0.0000 0.0000 0.0000 54.0497 0.0000 -2.7657
# 5 28.4982 27.0415 37.7722 0.0000 40.3903 0.0000
# 6 0.0000 0.0000 0.0000 -2.7657 0.0000 30.9008
#
#
#
# Elastic Compliance Matrix: (Units=1/GPa)
#
#
# Indices 1 2 3 4 5 6 
#
# 1 0.011715 -0.000083 -0.004323 0.000000 -0.004167 0.000000
# 2 -0.000083 0.012497 -0.001234 0.000000 -0.007154 0.000000
# 3 -0.004323 -0.001234 0.013224 0.000000 -0.008490 0.000000
# 4 0.000000 0.000000 0.000000 0.018587 0.000000 0.001664
# 5 -0.004167 -0.007154 -0.008490 0.000000 0.040428 0.000000
# 6 0.000000 0.000000 0.000000 0.001664 0.000000 0.032511
#
#
# Mechanical properties :
#
#
# Convention : Reuss Voigt Hill
#
# Bulk Modulus (GPa) = 38.23448 63.36113 50.79781
# Shear Modulus (GPa) = 33.56614 39.92574 36.74594
#
# Velocity S-wave (km/s) = 3.85689 4.20643 4.03545
# Velocity P-wave (km/s) = 6.06454 7.18832 6.65021
#
# Compressibility (1/GPa) = 0.02615440
#
# Stress axis : x y z
#
# Youngs Moduli (GPa) = 85.35997 80.01994 75.62278
#
# Poissons Ratio (x) = 0.00668 0.32695
# Poissons Ratio (y) = 0.00712 0.09330
# Poissons Ratio (z) = 0.36904 0.09872
#
# Static dielectric constant tensor:
#      x y z
#    x 1.895860 0.000000 -0.024090 
#    y 0.000000 1.801580 0.000000 
#    z -0.024090 0.000000 1.841570 
# 
# From -- ./inp_files/14183.got.cif
#   From: 2010.05.17/outbox.cif.g08.bks.cpg/sg4_8_cif.got.tgz:14183.got - 2010.06.03 18:43:04.
