data_PCOD9116877
_publ_section_title
;
Structure prediction by ZEFSAII (Michael W. Deem and Ramdas Pophale) SiO2 
 PCOD9116877
Probable space group: P 21
;
_chemical_formula_sum "Si O2"
_cell_formula_units_Z 16
_cell_length_a 10.908637
_cell_length_b 9.795989
_cell_length_c 11.081366
_cell_angle_alpha 90.000000
_cell_angle_beta 145.501128
_cell_angle_gamma 90.000000
_cell_volume 670.699009
_symmetry_space_group_name_H-M "P 21"
_symmetry_group_IT_number 4
_symmetry_cell_setting 'monoclinic'
loop_
_space_group_symop_operation_xyz
x,y,z
-x,1/2+y,-z
loop_
_atom_site_type_symbol
_atom_site_label
_atom_site_fract_x
_atom_site_fract_y
_atom_site_fract_z
Si Si1 0.182406 0.506170 0.242181
Si Si2 0.347673 0.988696 0.495127
Si Si3 0.639518 0.313193 0.956751
Si Si4 0.830669 0.219762 0.357435
Si Si5 0.628039 0.611848 0.960463
Si Si6 0.016285 0.197749 0.119101
Si Si7 0.275603 0.111505 0.678245
Si Si8 0.053520 0.740565 0.290143
O O1 0.428529 0.496958 0.394962
O O2 0.093711 0.352920 0.164967
O O3 0.150927 0.589022 0.342301
O O4 0.044813 0.606795 0.044860
O O5 0.206735 0.852888 0.352991
O O6 0.201479 0.117439 0.339993
O O7 0.374346 0.005888 0.661871
O O8 0.735836 0.306295 0.170483
O O9 0.792381 0.210983 0.009061
O O10 0.658774 0.465811 0.923568
O O11 0.396860 0.256012 0.752919
O O12 0.619188 0.152693 0.243369
O O13 0.945749 0.282273 0.567989
O O14 0.017425 0.122602 0.455818
O O15 0.674276 0.588262 0.140560
O O16 0.799104 0.723596 0.052495
#
# Coordination Sequence:
#
# PCOD9116877 Si02
#       8
#     2   2   2   2   2   2   2   2
#     4  12  27  49  70 106 138 186 236 285 349 413
#     4  12  25  45  72 103 140 185 234 288 343 418
#     4  11  21  44  69 102 140 184 231 281 349 412
#     4  10  23  42  69 103 140 182 224 291 345 413
#     4  10  23  41  70 104 142 184 223 291 348 412
#     4  12  26  47  74  97 142 184 234 288 342 415
#     4  10  22  41  67 105 138 180 230 279 347 414
#     4  11  25  45  69 106 142 179 234 285 351 417
#
# _framework density 23.855709000000001
#
# number of rings (size 3 to 8) (size 9 to 14) (size 15 to 20)
#    0.000    1.000    3.750    2.250    0.000    9.000 
#    2.250    0.000    0.000    0.000    0.000    0.000 
#    0.000    0.000    0.000    0.000    0.000    0.000 
#
# Total GULP energy -89393.505922 kJ/mol
# GULP energy per Si atom -5587.094120 kJ/mol
# Density = 2.380141 g / cm^3
# Si number density = 23.855709 Si / 1000 Ang^3
#
#
#
# Elastic Constant Matrix: (Units=GPa)
#
#
# Indices 1 2 3 4 5 6 
#
# 1 87.5417 15.2825 30.3970 0.0000 30.0906 0.0000
# 2 15.2825 130.1011 27.5623 0.0000 11.9869 0.0000
# 3 30.3970 27.5623 77.4189 0.0000 25.4388 0.0000
# 4 0.0000 0.0000 0.0000 17.2801 0.0000 14.0636
# 5 30.0906 11.9869 25.4388 0.0000 48.5217 0.0000
# 6 0.0000 0.0000 0.0000 14.0636 0.0000 31.8809
#
#
#
# Elastic Compliance Matrix: (Units=1/GPa)
#
#
# Indices 1 2 3 4 5 6 
#
# 1 0.015274 -0.000381 -0.003359 0.000000 -0.007617 0.000000
# 2 -0.000381 0.008338 -0.002682 0.000000 -0.000418 0.000000
# 3 -0.003359 -0.002682 0.017262 0.000000 -0.006305 0.000000
# 4 0.000000 0.000000 0.000000 0.090284 0.000000 -0.039827
# 5 -0.007617 -0.000418 -0.006305 0.000000 0.028742 0.000000
# 6 0.000000 0.000000 0.000000 -0.039827 0.000000 0.048936
#
#
# Mechanical properties :
#
#
# Convention : Reuss Voigt Hill
#
# Bulk Modulus (GPa) = 35.67408 49.06061 42.36734
# Shear Modulus (GPa) = 21.64314 34.32453 27.98384
#
# Velocity S-wave (km/s) = 3.01533 3.79732 3.42869
# Velocity P-wave (km/s) = 5.20668 6.31161 5.78558
#
# Compressibility (1/GPa) = 0.02803156
#
# Stress axis : x y z
#
# Youngs Moduli (GPa) = 65.47041 119.93795 57.93164
#
# Poissons Ratio (x) = 0.04568 0.19457
# Poissons Ratio (y) = 0.02493 0.15535
# Poissons Ratio (z) = 0.21988 0.32162
#
# Static dielectric constant tensor:
#      x y z
#    x 1.942320 0.000000 -0.058430 
#    y 0.000000 1.915580 0.000000 
#    z -0.058430 0.000000 1.949040 
# 
# From -- ./inp_files/12079.got.cif
#   From: 2010.05.17/outbox.cif.g08.bks.cpg/sg4_7_cif.got.tgz:12079.got - 2010.06.03 18:43:04.
