data_PCOD9116679
_publ_section_title
;
Structure prediction by ZEFSAII (Michael W. Deem and Ramdas Pophale) SiO2 
 PCOD9116679
Probable space group: P 21
;
_chemical_formula_sum "Si O2"
_cell_formula_units_Z 16
_cell_length_a 14.197819
_cell_length_b 7.718595
_cell_length_c 5.644198
_cell_angle_alpha 90.000000
_cell_angle_beta 76.300952
_cell_angle_gamma 90.000000
_cell_volume 600.936594
_symmetry_space_group_name_H-M "P 21"
_symmetry_group_IT_number 4
_symmetry_cell_setting 'monoclinic'
loop_
_space_group_symop_operation_xyz
x,y,z
-x,1/2+y,-z
loop_
_atom_site_type_symbol
_atom_site_label
_atom_site_fract_x
_atom_site_fract_y
_atom_site_fract_z
Si Si1 0.212374 0.960370 0.180456
Si Si2 0.523853 0.476264 0.442846
Si Si3 0.623896 0.671953 0.031865
Si Si4 0.142824 0.586878 0.683533
Si Si5 0.130848 0.006714 0.728038
Si Si6 0.429682 0.671474 0.868864
Si Si7 0.675775 0.986835 0.720864
Si Si8 0.918228 0.108896 0.780554
O O1 0.186097 0.042377 0.450244
O O2 0.146212 0.784069 0.213733
O O3 0.328763 0.992346 0.093473
O O4 0.181432 0.046909 0.947905
O O5 0.473775 0.500045 0.721049
O O6 0.579910 0.301851 0.344873
O O7 0.429734 0.475954 0.331506
O O8 0.598106 0.629447 0.321577
O O9 0.519321 0.711527 0.983822
O O10 0.691375 0.817791 0.873901
O O11 0.121400 0.794110 0.728429
O O12 0.249710 0.538871 0.526514
O O13 0.083881 0.526408 0.483632
O O14 0.123620 0.515240 0.958159
O O15 0.031230 0.112739 0.775691
O O16 0.334417 0.634224 0.072718
#
# Coordination Sequence:
#
# PCOD9116679 Si02
#       8
#     2   2   2   2   2   2   2   2
#     4  10  23  42  70 102 135 183 229 292 345 435
#     4  10  22  39  70  95 144 185 233 290 347 414
#     4  10  23  43  61 102 138 186 236 282 349 412
#     4  10  23  42  72 101 137 184 232 292 348 436
#     4  10  22  44  70  97 138 175 235 291 365 417
#     4  10  22  40  68  96 142 188 229 295 342 423
#     4  10  23  43  61 101 140 184 237 284 350 412
#     4  10  22  45  68 100 136 177 233 296 362 419
#
# _framework density 26.625105999999999
#
# number of rings (size 3 to 8) (size 9 to 14) (size 15 to 20)
#    0.000    2.000    0.000    1.500    7.000    2.000 
#   13.500    0.000    0.000    0.000    0.000    0.000 
#    0.000    0.000    0.000    0.000    0.000    0.000 
#
# Total GULP energy -89185.610108 kJ/mol
# GULP energy per Si atom -5574.100632 kJ/mol
# Density = 2.656451 g / cm^3
# Si number density = 26.625106 Si / 1000 Ang^3
#
#
#
# Elastic Constant Matrix: (Units=GPa)
#
#
# Indices 1 2 3 4 5 6 
#
# 1 65.2559 -0.3534 8.3790 0.0000 9.9622 0.0000
# 2 -0.3534 95.4165 8.0508 0.0000 7.7307 0.0000
# 3 8.3790 8.0508 181.2810 0.0000 14.6669 0.0000
# 4 0.0000 0.0000 0.0000 29.5151 0.0000 -1.6811
# 5 9.9622 7.7307 14.6669 0.0000 44.7199 0.0000
# 6 0.0000 0.0000 0.0000 -1.6811 0.0000 22.5023
#
#
#
# Elastic Compliance Matrix: (Units=1/GPa)
#
#
# Indices 1 2 3 4 5 6 
#
# 1 0.015915 0.000379 -0.000473 0.000000 -0.003456 0.000000
# 2 0.000379 0.010658 -0.000344 0.000000 -0.001814 0.000000
# 3 -0.000473 -0.000344 0.005691 0.000000 -0.001702 0.000000
# 4 0.000000 0.000000 0.000000 0.034026 0.000000 0.002542
# 5 -0.003456 -0.001814 -0.001702 0.000000 0.024003 0.000000
# 6 0.000000 0.000000 0.000000 0.002542 0.000000 0.044630
#
#
# Mechanical properties :
#
#
# Convention : Reuss Voigt Hill
#
# Bulk Modulus (GPa) = 31.86001 41.56738 36.71369
# Shear Modulus (GPa) = 34.18555 41.07258 37.62907
#
# Velocity S-wave (km/s) = 3.58713 3.93189 3.76346
# Velocity P-wave (km/s) = 5.39896 6.02154 5.71873
#
# Compressibility (1/GPa) = 0.03138731
#
# Stress axis : x y z
#
# Youngs Moduli (GPa) = 62.83541 93.82827 175.71250
#
# Poissons Ratio (x) = -0.03554 0.08308
# Poissons Ratio (y) = -0.02380 0.06046
# Poissons Ratio (z) = 0.02971 0.03228
#
# Static dielectric constant tensor:
#      x y z
#    x 2.082430 0.000000 0.006560 
#    y 0.000000 2.311110 0.000000 
#    z 0.006560 0.000000 2.134840 
# 
# From -- ./inp_files/3562.got.cif
#   From: 2010.05.17/outbox.cif.g08.bks.cpg/sg4_2_cif.got.tgz:3562.got - 2010.06.03 18:43:04.
