data_PCOD9116639
_publ_section_title
;
Structure prediction by ZEFSAII (Michael W. Deem and Ramdas Pophale) SiO2 
 PCOD9116639
Probable space group: P 21
;
_chemical_formula_sum "Si O2"
_cell_formula_units_Z 16
_cell_length_a 21.849334
_cell_length_b 5.147806
_cell_length_c 9.472663
_cell_angle_alpha 90.000000
_cell_angle_beta 34.145227
_cell_angle_gamma 90.000000
_cell_volume 598.028207
_symmetry_space_group_name_H-M "P 21"
_symmetry_group_IT_number 4
_symmetry_cell_setting 'monoclinic'
loop_
_space_group_symop_operation_xyz
x,y,z
-x,1/2+y,-z
loop_
_atom_site_type_symbol
_atom_site_label
_atom_site_fract_x
_atom_site_fract_y
_atom_site_fract_z
Si Si1 0.308722 0.877290 0.692761
Si Si2 0.922766 0.249363 0.823381
Si Si3 0.746135 0.849723 0.615028
Si Si4 0.449386 0.341213 0.174270
Si Si5 0.467682 0.196184 0.797157
Si Si6 0.037999 0.018911 0.841713
Si Si7 0.679793 0.868700 0.154854
Si Si8 0.133451 0.562312 0.375923
O O1 0.416686 0.838572 0.395678
O O2 0.329459 0.665163 0.778081
O O3 0.300948 0.170329 0.757310
O O4 0.186773 0.807236 0.880717
O O5 0.891191 0.232886 0.717045
O O6 0.980026 0.011809 0.797575
O O7 0.017860 0.458050 0.645087
O O8 0.681226 0.874608 0.590698
O O9 0.841293 0.639025 0.412954
O O10 0.797448 0.089789 0.608801
O O11 0.640659 0.759895 0.906546
O O12 0.500774 0.399049 0.229807
O O13 0.502948 0.089439 0.003319
O O14 0.426425 0.271899 0.722734
O O15 0.021746 0.748195 0.953484
O O16 0.787580 0.849772 0.850837
#
# Coordination Sequence:
#
# PCOD9116639 Si02
#       8
#     2   2   2   2   2   2   2   2
#     4  11  23  38  62  96 134 171 213 276 329 403
#     4  10  22  40  67 104 129 177 228 279 349 392
#     4   9  22  45  69 101 134 181 230 277 347 393
#     4  10  23  41  64  96 129 172 226 270 325 394
#     4  10  22  41  65  95 132 177 218 276 321 408
#     4  11  27  48  72  98 141 184 226 285 340 419
#     4  10  22  39  61  94 133 172 216 265 342 387
#     4   9  19  40  70  96 134 170 227 290 329 408
#
# _framework density 26.754588999999999
#
# number of rings (size 3 to 8) (size 9 to 14) (size 15 to 20)
#    0.000    2.000    0.000    1.500    1.750   12.000 
#    4.500    7.500    0.000    0.000    0.000    0.000 
#    0.000    0.000    0.000    0.000    0.000    0.000 
#
# Total GULP energy -89256.148761 kJ/mol
# GULP energy per Si atom -5578.509298 kJ/mol
# Density = 2.669369 g / cm^3
# Si number density = 26.754589 Si / 1000 Ang^3
#
#
#
# Elastic Constant Matrix: (Units=GPa)
#
#
# Indices 1 2 3 4 5 6 
#
# 1 114.7867 32.9714 56.0709 0.0000 -17.1460 0.0000
# 2 32.9714 91.3146 27.2445 0.0000 4.8328 0.0000
# 3 56.0709 27.2445 175.7438 0.0000 -36.2973 0.0000
# 4 0.0000 0.0000 0.0000 13.3168 0.0000 19.4605
# 5 -17.1460 4.8328 -36.2973 0.0000 49.0067 0.0000
# 6 0.0000 0.0000 0.0000 19.4605 0.0000 26.4335
#
#
#
# Elastic Compliance Matrix: (Units=1/GPa)
#
#
# Indices 1 2 3 4 5 6 
#
# 1 0.011320 -0.003442 -0.002585 0.000000 0.002385 0.000000
# 2 -0.003442 0.012887 -0.001666 0.000000 -0.003709 0.000000
# 3 -0.002585 -0.001666 0.007816 0.000000 0.005049 0.000000
# 4 0.000000 0.000000 0.000000 -0.990031 0.000000 0.728865
# 5 0.002385 -0.003709 0.005049 0.000000 0.025345 0.000000
# 6 0.000000 0.000000 0.000000 0.728865 0.000000 -0.498763
#
#
# Mechanical properties :
#
#
# Convention : Reuss Voigt Hill
#
# Bulk Modulus (GPa) = 60.10828 68.26874 64.18851
# Shear Modulus (GPa) = -3.54486 35.45529 15.95522
#
# Velocity S-wave (km/s) = -1.15231 3.64428 2.44469
# Velocity P-wave (km/s) = 4.55465 6.57874 5.65794
#
# Compressibility (1/GPa) = 0.01663664
#
# Stress axis : x y z
#
# Youngs Moduli (GPa) = 88.34183 77.59594 127.94460
#
# Poissons Ratio (x) = 0.26709 0.33078
# Poissons Ratio (y) = 0.30408 0.21311
# Poissons Ratio (z) = 0.22839 0.12925
#
# Static dielectric constant tensor:
#      x y z
#    x 2.345030 0.000000 0.121510 
#    y 0.000000 2.117790 0.000000 
#    z 0.121510 0.000000 2.110370 
# 
# From -- ./inp_files/13097.got.cif
#   From: 2010.05.17/outbox.cif.g08.bks.cpg/sg4_7_cif.got.tgz:13097.got - 2010.06.03 18:43:04.
