data_PCOD9116565
_publ_section_title
;
Structure prediction by ZEFSAII (Michael W. Deem and Ramdas Pophale) SiO2 
 PCOD9116565
Probable space group: P 21
;
_chemical_formula_sum "Si O2"
_cell_formula_units_Z 12
_cell_length_a 10.541569
_cell_length_b 7.995952
_cell_length_c 7.741529
_cell_angle_alpha 90.000000
_cell_angle_beta 42.247779
_cell_angle_gamma 90.000000
_cell_volume 438.722502
_symmetry_space_group_name_H-M "P 21"
_symmetry_group_IT_number 4
_symmetry_cell_setting 'monoclinic'
loop_
_space_group_symop_operation_xyz
x,y,z
-x,1/2+y,-z
loop_
_atom_site_type_symbol
_atom_site_label
_atom_site_fract_x
_atom_site_fract_y
_atom_site_fract_z
Si Si1 0.971573 0.936870 0.355729
Si Si2 0.637447 0.087531 0.820651
Si Si3 0.175623 0.609944 0.007403
Si Si4 0.861733 0.403470 0.438687
Si Si5 0.586816 0.339757 0.448140
Si Si6 0.686737 0.615810 0.094708
O O1 0.040083 0.763315 0.205128
O O2 0.058110 0.968417 0.460150
O O3 0.748881 0.935108 0.616662
O O4 0.091062 0.079951 0.133806
O O5 0.676909 0.085856 0.983600
O O6 0.765813 0.233798 0.607628
O O7 0.424548 0.119859 0.976154
O O8 0.040366 0.449221 0.136871
O O9 0.283920 0.677264 0.730056
O O10 0.689905 0.453956 0.487478
O O11 0.595650 0.449755 0.269912
O O12 0.391992 0.269843 0.715738
#
# Coordination Sequence:
#
# PCOD9116565 Si02
#       6
#     2   2   2   2   2   2
#     4   9  19  38  61  83 109 150 196 235 280 338
#     4   9  19  38  61  83 109 150 196 235 280 338
#     4   9  19  37  59  84 114 148 192 238 284 342
#     4   9  19  37  59  84 114 148 192 238 284 342
#     4  10  22  36  56  88 120 152 188 238 298 340
#     4  10  22  38  56  84 120 150 192 238 280 344
#
# _framework density 27.352139999999999
#
# number of rings (size 3 to 8) (size 9 to 14) (size 15 to 20)
#    0.000    2.667    0.000    0.000    0.000    9.333 
#    0.000   25.000    0.000    0.000    0.000    0.000 
#    0.000    0.000    0.000    0.000    0.000    0.000 
#
# Total GULP energy -66966.439222 kJ/mol
# GULP energy per Si atom -5580.536602 kJ/mol
# Density = 2.728989 g / cm^3
# Si number density = 27.352140 Si / 1000 Ang^3
#
#
#
# Elastic Constant Matrix: (Units=GPa)
#
#
# Indices 1 2 3 4 5 6 
#
# 1 73.7749 9.4613 28.9506 0.0000 4.2035 0.0000
# 2 9.4613 59.8174 20.7081 0.0000 -6.8128 0.0000
# 3 28.9506 20.7081 90.3182 0.0000 -23.2518 0.0000
# 4 0.0000 0.0000 0.0000 47.6266 0.0000 6.5020
# 5 4.2035 -6.8128 -23.2518 0.0000 30.8508 0.0000
# 6 0.0000 0.0000 0.0000 6.5020 0.0000 21.5903
#
#
#
# Elastic Compliance Matrix: (Units=1/GPa)
#
#
# Indices 1 2 3 4 5 6 
#
# 1 0.017005 -0.001088 -0.007270 0.000000 -0.008037 0.000000
# 2 -0.001088 0.018258 -0.003426 0.000000 0.001598 0.000000
# 3 -0.007270 -0.003426 0.017678 0.000000 0.013558 0.000000
# 4 0.000000 0.000000 0.000000 0.021897 0.000000 -0.006594
# 5 -0.008037 0.001598 0.013558 0.000000 0.044080 0.000000
# 6 0.000000 0.000000 0.000000 -0.006594 0.000000 0.048303
#
#
# Mechanical properties :
#
#
# Convention : Reuss Voigt Hill
#
# Bulk Modulus (GPa) = 34.04567 38.01673 36.03120
# Shear Modulus (GPa) = 24.92753 30.99956 27.96354
#
# Velocity S-wave (km/s) = 3.02214 3.37018 3.20089
# Velocity P-wave (km/s) = 4.96508 5.39197 5.18292
#
# Compressibility (1/GPa) = 0.02937231
#
# Stress axis : x y z
#
# Youngs Moduli (GPa) = 58.80532 54.77154 56.56647
#
# Poissons Ratio (x) = 0.05960 0.41126
# Poissons Ratio (y) = 0.06399 0.19379
# Poissons Ratio (z) = 0.42754 0.18764
#
# Static dielectric constant tensor:
#      x y z
#    x 2.128000 0.000000 -0.016180 
#    y 0.000000 2.308920 0.000000 
#    z -0.016180 0.000000 2.107880 
# 
# From -- ./inp_files/5616.got.cif
#   From: 2010.05.17/outbox.cif.g08.bks.cpg/sg4_3_cif.got.tgz:5616.got - 2010.06.03 18:43:04.
