data_PCOD9116935
_publ_section_title
;
Structure prediction by ZEFSAII (Michael W. Deem and Ramdas Pophale) SiO2 
 PCOD9116935
Probable space group: P 21
;
_chemical_formula_sum "Si O2"
_cell_formula_units_Z 16
_cell_length_a 13.234324
_cell_length_b 11.523237
_cell_length_c 6.603411
_cell_angle_alpha 90.000000
_cell_angle_beta 135.539033
_cell_angle_gamma 90.000000
_cell_volume 705.350708
_symmetry_space_group_name_H-M "P 21"
_symmetry_group_IT_number 4
_symmetry_cell_setting 'monoclinic'
loop_
_space_group_symop_operation_xyz
x,y,z
-x,1/2+y,-z
loop_
_atom_site_type_symbol
_atom_site_label
_atom_site_fract_x
_atom_site_fract_y
_atom_site_fract_z
Si Si1 0.487734 0.474800 0.087097
Si Si2 0.130432 0.572286 0.229183
Si Si3 0.284875 0.789715 0.425252
Si Si4 0.302711 0.360040 0.514113
Si Si5 0.491226 0.685266 0.401819
Si Si6 0.907395 0.417988 0.129275
Si Si7 0.927421 0.703222 0.630694
Si Si8 0.688342 0.575978 0.026730
O O1 0.593374 0.371585 0.309656
O O2 0.465692 0.573209 0.224378
O O3 0.568773 0.538473 0.017610
O O4 0.347423 0.412073 0.796671
O O5 0.221135 0.679502 0.451467
O O6 0.240017 0.472146 0.311743
O O7 0.024798 0.515166 0.243692
O O8 0.033403 0.619243 0.905477
O O9 0.351863 0.730158 0.320507
O O10 0.152553 0.870707 0.170838
O O11 0.438752 0.293002 0.618536
O O12 0.175502 0.267402 0.353404
O O13 0.608737 0.647312 0.738195
O O14 0.769910 0.466815 0.047272
O O15 0.981620 0.307451 0.338391
O O16 0.816413 0.643750 0.321450
#
# Coordination Sequence:
#
# PCOD9116935 Si02
#       8
#     2   2   2   2   2   2   2   2
#     4  12  26  45  73 106 147 185 241 306 361 434
#     4  10  23  44  70  98 143 182 240 298 354 430
#     4  11  24  44  71 103 142 187 234 297 364 421
#     4  11  24  44  71 103 142 187 234 297 364 421
#     4  12  26  45  73 106 147 185 241 306 361 434
#     4  10  22  42  64 100 136 185 237 288 352 428
#     4  10  22  42  64 100 136 185 237 288 352 428
#     4  12  23  44  70 100 141 188 236 298 358 430
#
# _framework density 22.683754
#
# number of rings (size 3 to 8) (size 9 to 14) (size 15 to 20)
#    0.000    1.000    2.500    3.750    3.500    2.000 
#    9.000    0.000    0.000    0.000    0.000    0.000 
#    0.000    0.000    0.000    0.000    0.000    0.000 
#
# Total GULP energy -89501.038762 kJ/mol
# GULP energy per Si atom -5593.814923 kJ/mol
# Density = 2.263212 g / cm^3
# Si number density = 22.683754 Si / 1000 Ang^3
#
#
#
# Elastic Constant Matrix: (Units=GPa)
#
#
# Indices 1 2 3 4 5 6 
#
# 1 28.7486 13.2418 22.2796 0.0000 7.3112 0.0000
# 2 13.2418 116.1726 60.7099 0.0000 1.1442 0.0000
# 3 22.2796 60.7099 88.8512 0.0000 9.3567 0.0000
# 4 0.0000 0.0000 0.0000 40.8295 0.0000 11.1690
# 5 7.3112 1.1442 9.3567 0.0000 29.2324 0.0000
# 6 0.0000 0.0000 0.0000 11.1690 0.0000 40.1992
#
#
#
# Elastic Compliance Matrix: (Units=1/GPa)
#
#
# Indices 1 2 3 4 5 6 
#
# 1 0.044895 0.000645 -0.010880 0.000000 -0.007772 0.000000
# 2 0.000645 0.013575 -0.009691 0.000000 0.002409 0.000000
# 3 -0.010880 -0.009691 0.020985 0.000000 -0.003616 0.000000
# 4 0.000000 0.000000 0.000000 0.026507 0.000000 -0.007365
# 5 -0.007772 0.002409 -0.003616 0.000000 0.037216 0.000000
# 6 0.000000 0.000000 0.000000 -0.007365 0.000000 0.026922
#
#
# Mechanical properties :
#
#
# Convention : Reuss Voigt Hill
#
# Bulk Modulus (GPa) = 25.25003 47.35943 36.30473
# Shear Modulus (GPa) = 22.40616 31.22161 26.81389
#
# Velocity S-wave (km/s) = 3.14628 3.71399 3.44186
# Velocity P-wave (km/s) = 4.93500 6.27018 5.64222
#
# Compressibility (1/GPa) = 0.03960392
#
# Stress axis : x y z
#
# Youngs Moduli (GPa) = 22.27405 73.66532 47.65263
#
# Poissons Ratio (x) = -0.04749 0.51845
# Poissons Ratio (y) = -0.01436 0.46179
# Poissons Ratio (z) = 0.24233 0.71387
#
# Static dielectric constant tensor:
#      x y z
#    x 1.841320 0.000000 0.002570 
#    y 0.000000 1.884950 0.000000 
#    z 0.002570 0.000000 1.849690 
# 
# From -- ./inp_files/2917.got.cif
#   From: 2010.05.17/outbox.cif.g08.bks.cpg/sg4_2_cif.got.tgz:2917.got - 2010.06.03 18:43:04.
