data_PCOD9116558
_publ_section_title
;
Structure prediction by ZEFSAII (Michael W. Deem and Ramdas Pophale) SiO2 
 PCOD9116558
Probable space group: P 21
;
_chemical_formula_sum "Si O2"
_cell_formula_units_Z 14
_cell_length_a 15.439864
_cell_length_b 5.463493
_cell_length_c 15.296397
_cell_angle_alpha 90.000000
_cell_angle_beta 26.895877
_cell_angle_gamma 90.000000
_cell_volume 583.710247
_symmetry_space_group_name_H-M "P 21"
_symmetry_group_IT_number 4
_symmetry_cell_setting 'monoclinic'
loop_
_space_group_symop_operation_xyz
x,y,z
-x,1/2+y,-z
loop_
_atom_site_type_symbol
_atom_site_label
_atom_site_fract_x
_atom_site_fract_y
_atom_site_fract_z
Si Si1 0.015420 0.242530 0.930612
Si Si2 0.942032 0.650692 0.468378
Si Si3 0.137792 0.652061 0.479707
Si Si4 0.507710 0.152870 0.100264
Si Si5 0.335025 0.853341 0.868714
Si Si6 0.562792 0.891119 0.489989
Si Si7 0.591969 0.651221 0.049079
O O1 0.217587 0.311567 0.706694
O O2 0.849580 0.235052 0.007981
O O3 0.970810 0.479695 0.033025
O O4 0.951993 0.401949 0.405132
O O5 0.720747 0.649712 0.703001
O O6 0.078903 0.651325 0.429399
O O7 0.951788 0.900794 0.405935
O O8 0.366452 0.655156 0.281545
O O9 0.555139 0.178766 0.161591
O O10 0.599200 0.405826 0.984047
O O11 0.615375 0.904800 0.979446
O O12 0.473739 0.925003 0.665366
O O13 0.291499 0.088998 0.968979
O O14 0.460226 0.651641 0.538936
#
# Coordination Sequence:
#
# PCOD9116558 Si02
#       7
#     2   2   2   2   2   2   2
#     4  12  24  40  58  80 103 137 177 221 270 322
#     4   8  12  20  34  56  88 124 154 192 238 290
#     4   8  12  20  34  56  88 124 154 192 238 290
#     4   8  16  26  42  66  94 130 156 202 256 288
#     4  10  22  34  58  70 112 124 180 212 266 310
#     4  12  24  40  58  80 103 137 177 221 270 322
#     4   8  16  26  42  66  94 130 156 202 256 288
#
# _framework density 23.984501999999999
#
# number of rings (size 3 to 8) (size 9 to 14) (size 15 to 20)
#    0.857    1.714    2.857    0.000    4.000    0.000 
#    0.000    0.000    0.000    0.000    0.000    0.000 
#    0.000    2.286    0.000    0.000    0.000    0.000 
#
# Total GULP energy -78120.690188 kJ/mol
# GULP energy per Si atom -5580.049299 kJ/mol
# Density = 2.392991 g / cm^3
# Si number density = 23.984502 Si / 1000 Ang^3
#
#
#
# Elastic Constant Matrix: (Units=GPa)
#
#
# Indices 1 2 3 4 5 6 
#
# 1 106.0075 10.6553 24.0215 0.0000 -11.5008 0.0000
# 2 10.6553 188.1039 -14.2840 0.0000 12.3634 0.0000
# 3 24.0215 -14.2840 104.2575 0.0000 -11.8754 0.0000
# 4 0.0000 0.0000 0.0000 -0.4575 0.0000 -16.5995
# 5 -11.5008 12.3634 -11.8754 0.0000 36.0055 0.0000
# 6 0.0000 0.0000 0.0000 -16.5995 0.0000 9.6138
#
#
#
# Elastic Compliance Matrix: (Units=1/GPa)
#
#
# Indices 1 2 3 4 5 6 
#
# 1 0.010337 -0.000942 -0.002180 0.000000 0.002906 0.000000
# 2 -0.000942 0.005556 0.000755 0.000000 -0.001960 0.000000
# 3 -0.002180 0.000755 0.010482 0.000000 0.002502 0.000000
# 4 0.000000 0.000000 0.000000 -0.034342 0.000000 -0.059296
# 5 0.002906 -0.001960 0.002502 0.000000 0.030200 0.000000
# 6 0.000000 0.000000 0.000000 -0.059296 0.000000 0.001634
#
#
# Mechanical properties :
#
#
# Convention : Reuss Voigt Hill
#
# Bulk Modulus (GPa) = 46.20745 48.79492 47.50119
# Shear Modulus (GPa) = 139.60758 34.23078 86.91918
#
# Velocity S-wave (km/s) = 7.63766 3.78193 6.02648
# Velocity P-wave (km/s) = 9.85321 6.28166 8.26272
#
# Compressibility (1/GPa) = 0.02164153
#
# Stress axis : x y z
#
# Youngs Moduli (GPa) = 96.73750 179.99501 95.39911
#
# Poissons Ratio (x) = 0.16958 0.20795
# Poissons Ratio (y) = 0.09114 -0.07203
# Poissons Ratio (z) = 0.21087 -0.13590
#
# Static dielectric constant tensor:
#      x y z
#    x 1.844420 0.000000 -0.044850 
#    y 0.000000 2.119170 0.000000 
#    z -0.044850 0.000000 1.886220 
# 
# From -- ./inp_files/15852.got.cif
#   From: 2010.05.17/outbox.cif.g08.bks.cpg/sg4_8_cif.got.tgz:15852.got - 2010.06.03 18:43:04.
