data_PCOD9116382
_publ_section_title
;
Structure prediction by ZEFSAII (Michael W. Deem and Ramdas Pophale) SiO2 
 PCOD9116382
Probable space group: P 21
;
_chemical_formula_sum "Si O2"
_cell_formula_units_Z 16
_cell_length_a 10.357381
_cell_length_b 8.739947
_cell_length_c 11.774421
_cell_angle_alpha 90.000000
_cell_angle_beta 142.097361
_cell_angle_gamma 90.000000
_cell_volume 654.777968
_symmetry_space_group_name_H-M "P 21"
_symmetry_group_IT_number 4
_symmetry_cell_setting 'monoclinic'
loop_
_space_group_symop_operation_xyz
x,y,z
-x,1/2+y,-z
loop_
_atom_site_type_symbol
_atom_site_label
_atom_site_fract_x
_atom_site_fract_y
_atom_site_fract_z
Si Si1 0.848074 0.467870 0.523654
Si Si2 0.289874 0.343673 0.851913
Si Si3 0.610058 0.730127 0.477917
Si Si4 0.082396 0.012659 0.686909
Si Si5 0.986746 0.348291 0.135412
Si Si6 0.556961 0.820255 0.804422
Si Si7 0.401444 0.499643 0.690980
Si Si8 0.197471 0.579898 0.144442
O O1 0.759331 0.633485 0.495191
O O2 0.881731 0.446489 0.413180
O O3 0.649202 0.362649 0.411451
O O4 0.071491 0.429970 0.732196
O O5 0.220536 0.166210 0.792551
O O6 0.375638 0.416635 0.795177
O O7 0.451090 0.359861 0.066919
O O8 0.774747 0.782247 0.686322
O O9 0.534264 0.877970 0.358024
O O10 0.402077 0.633191 0.358582
O O11 0.104989 0.890326 0.804128
O O12 0.833311 0.053391 0.508450
O O13 0.014663 0.512944 0.095333
O O14 0.866221 0.219707 0.981003
O O15 0.561694 0.638774 0.805024
O O16 0.735030 0.932314 0.882318
#
# Coordination Sequence:
#
# PCOD9116382 Si02
#       8
#     2   2   2   2   2   2   2   2
#     4  10  21  43  64 101 140 169 234 276 345 425
#     4  11  22  36  66  99 137 187 218 282 353 411
#     4  10  23  46  70  98 135 180 225 294 351 411
#     4  10  22  41  69  97 139 187 220 282 354 410
#     4  11  27  48  71 100 137 187 240 289 351 411
#     4  11  25  39  65 101 135 182 228 287 342 413
#     4  10  22  40  65 102 142 175 229 283 350 428
#     4  11  28  47  70  98 137 183 244 291 342 411
#
# _framework density 24.435765
#
# number of rings (size 3 to 8) (size 9 to 14) (size 15 to 20)
#    0.000    1.500    2.500    0.750    5.250    4.000 
#    0.000    0.000    0.000    0.000    0.000    0.000 
#    0.000    0.000    0.000    0.000    0.000    0.000 
#
# Total GULP energy -89453.341973 kJ/mol
# GULP energy per Si atom -5590.833873 kJ/mol
# Density = 2.438015 g / cm^3
# Si number density = 24.435765 Si / 1000 Ang^3
#
#
#
# Elastic Constant Matrix: (Units=GPa)
#
#
# Indices 1 2 3 4 5 6 
#
# 1 40.0873 24.0043 23.3794 0.0000 11.9005 0.0000
# 2 24.0043 99.4884 48.1506 0.0000 13.1410 0.0000
# 3 23.3794 48.1506 112.9167 0.0000 13.1551 0.0000
# 4 0.0000 0.0000 0.0000 42.7281 0.0000 6.5438
# 5 11.9005 13.1410 13.1551 0.0000 27.4157 0.0000
# 6 0.0000 0.0000 0.0000 6.5438 0.0000 37.7977
#
#
#
# Elastic Compliance Matrix: (Units=1/GPa)
#
#
# Indices 1 2 3 4 5 6 
#
# 1 0.032992 -0.004884 -0.003551 0.000000 -0.010276 0.000000
# 2 -0.004884 0.013750 -0.004588 0.000000 -0.002269 0.000000
# 3 -0.003551 -0.004588 0.011770 0.000000 -0.001907 0.000000
# 4 0.000000 0.000000 0.000000 0.024041 0.000000 -0.004162
# 5 -0.010276 -0.002269 -0.001907 0.000000 0.042939 0.000000
# 6 0.000000 0.000000 0.000000 -0.004162 0.000000 0.027177
#
#
# Mechanical properties :
#
#
# Convention : Reuss Voigt Hill
#
# Bulk Modulus (GPa) = 30.80174 49.28456 40.04315
# Shear Modulus (GPa) = 26.38010 32.05217 29.21614
#
# Velocity S-wave (km/s) = 3.28924 3.62566 3.46154
# Velocity P-wave (km/s) = 5.20174 6.14329 5.69201
#
# Compressibility (1/GPa) = 0.03246570
#
# Stress axis : x y z
#
# Youngs Moduli (GPa) = 30.31051 72.72741 84.96308
#
# Poissons Ratio (x) = 0.35522 0.30171
# Poissons Ratio (y) = 0.14804 0.38978
# Poissons Ratio (z) = 0.10763 0.33365
#
# Static dielectric constant tensor:
#      x y z
#    x 1.964650 0.000000 0.016920 
#    y 0.000000 1.931780 0.000000 
#    z 0.016920 0.000000 1.955600 
# 
# From -- ./inp_files/10843.got.cif
#   From: 2010.05.17/outbox.cif.g08.bks.cpg/sg4_6_cif.got.tgz:10843.got - 2010.06.03 18:43:04.
