data_PCOD9116525
_publ_section_title
;
Structure prediction by ZEFSAII (Michael W. Deem and Ramdas Pophale) SiO2 
 PCOD9116525
Probable space group: P 21
;
_chemical_formula_sum "Si O2"
_cell_formula_units_Z 12
_cell_length_a 24.574127
_cell_length_b 5.221593
_cell_length_c 6.933463
_cell_angle_alpha 90.000000
_cell_angle_beta 146.159527
_cell_angle_gamma 90.000000
_cell_volume 495.444336
_symmetry_space_group_name_H-M "P 21"
_symmetry_group_IT_number 4
_symmetry_cell_setting 'monoclinic'
loop_
_space_group_symop_operation_xyz
x,y,z
-x,1/2+y,-z
loop_
_atom_site_type_symbol
_atom_site_label
_atom_site_fract_x
_atom_site_fract_y
_atom_site_fract_z
Si Si1 0.287475 0.293900 0.129480
Si Si2 0.373580 0.577917 0.039168
Si Si3 0.774704 0.457323 0.380019
Si Si4 0.532339 0.495775 0.209380
Si Si5 0.803981 0.865642 0.749944
Si Si6 0.942708 0.108312 0.886547
O O1 0.356567 0.080976 0.432950
O O2 0.223353 0.406345 0.111036
O O3 0.357084 0.476691 0.206783
O O4 0.220224 0.162027 0.772760
O O5 0.291945 0.458465 0.652949
O O6 0.337698 0.871422 0.930581
O O7 0.475858 0.510255 0.246820
O O8 0.812304 0.575947 0.691084
O O9 0.841214 0.222785 0.504917
O O10 0.516339 0.222186 0.063051
O O11 0.902269 0.008064 0.972957
O O12 0.011052 0.359283 0.078118
#
# Coordination Sequence:
#
# PCOD9116525 Si02
#       6
#     2   2   2   2   2   2
#     4  11  25  42  73 104 145 193 239 293 347 418
#     4  10  24  41  66 101 144 188 241 294 346 407
#     4  10  23  42  75 100 144 182 238 284 369 410
#     4  12  27  45  70 102 145 193 251 287 343 407
#     4  10  21  46  71 102 141 190 230 292 361 417
#     4  11  22  44  81 105 137 186 231 292 362 433
#
# _framework density 24.220682
#
# number of rings (size 3 to 8) (size 9 to 14) (size 15 to 20)
#    0.000    1.333    3.333    1.000    7.000    2.667 
#    0.000    0.000   14.667    0.000    0.000    0.000 
#    0.000    0.000    0.000    0.000    0.000    0.000 
#
# Total GULP energy -67046.111682 kJ/mol
# GULP energy per Si atom -5587.175974 kJ/mol
# Density = 2.416555 g / cm^3
# Si number density = 24.220682 Si / 1000 Ang^3
#
#
#
# Elastic Constant Matrix: (Units=GPa)
#
#
# Indices 1 2 3 4 5 6 
#
# 1 200.5182 47.8823 22.4243 0.0000 -18.0844 0.0000
# 2 47.8823 108.5518 10.9357 0.0000 -8.3040 0.0000
# 3 22.4243 10.9357 23.8539 0.0000 -6.1041 0.0000
# 4 0.0000 0.0000 0.0000 30.8990 0.0000 10.2377
# 5 -18.0844 -8.3040 -6.1041 0.0000 45.4271 0.0000
# 6 0.0000 0.0000 0.0000 10.2377 0.0000 35.0396
#
#
#
# Elastic Compliance Matrix: (Units=1/GPa)
#
#
# Indices 1 2 3 4 5 6 
#
# 1 0.006123 -0.002146 -0.004400 0.000000 0.001454 0.000000
# 2 -0.002146 0.010476 -0.002603 0.000000 0.000711 0.000000
# 3 -0.004400 -0.002603 0.048344 0.000000 0.004269 0.000000
# 4 0.000000 0.000000 0.000000 0.035832 0.000000 -0.010469
# 5 0.001454 0.000711 0.004269 0.000000 0.023296 0.000000
# 6 0.000000 0.000000 0.000000 -0.010469 0.000000 0.031598
#
#
# Mechanical properties :
#
#
# Convention : Reuss Voigt Hill
#
# Bulk Modulus (GPa) = 21.43908 55.04540 38.24224
# Shear Modulus (GPa) = 26.38333 39.05191 32.71762
#
# Velocity S-wave (km/s) = 3.30402 4.01975 3.67933
# Velocity P-wave (km/s) = 4.84006 6.65736 5.82008
#
# Compressibility (1/GPa) = 0.04664379
#
# Stress axis : x y z
#
# Youngs Moduli (GPa) = 163.32502 95.46070 20.68530
#
# Poissons Ratio (x) = 0.20489 0.09101
# Poissons Ratio (y) = 0.35054 0.05384
# Poissons Ratio (z) = 0.71860 0.24848
#
# Static dielectric constant tensor:
#      x y z
#    x 1.948200 0.000000 0.034860 
#    y 0.000000 2.101270 0.000000 
#    z 0.034860 0.000000 1.947760 
# 
# From -- ./inp_files/3923.got.cif
#   From: 2010.05.17/outbox.cif.g08.bks.cpg/sg4_2_cif.got.tgz:3923.got - 2010.06.03 18:43:04.
