data_PCOD9116893
_publ_section_title
;
Structure prediction by ZEFSAII (Michael W. Deem and Ramdas Pophale) SiO2 
 PCOD9116893
Probable space group: P 21
;
_chemical_formula_sum "Si O2"
_cell_formula_units_Z 10
_cell_length_a 9.647166
_cell_length_b 6.931850
_cell_length_c 12.553531
_cell_angle_alpha 90.000000
_cell_angle_beta 153.566950
_cell_angle_gamma 90.000000
_cell_volume 373.699848
_symmetry_space_group_name_H-M "P 21"
_symmetry_group_IT_number 4
_symmetry_cell_setting 'monoclinic'
loop_
_space_group_symop_operation_xyz
x,y,z
-x,1/2+y,-z
loop_
_atom_site_type_symbol
_atom_site_label
_atom_site_fract_x
_atom_site_fract_y
_atom_site_fract_z
Si Si1 0.317906 0.187350 0.957156
Si Si2 0.437883 0.034709 0.247736
Si Si3 0.945516 0.517051 0.814837
Si Si4 0.569245 0.499324 0.360048
Si Si5 0.104070 0.945479 0.624902
O O1 0.266288 0.031496 0.015098
O O2 0.667962 0.265009 0.203048
O O3 0.093465 0.355153 0.840837
O O4 0.258140 0.115273 0.799496
O O5 0.479178 0.266936 0.306070
O O6 0.253677 0.954265 0.220370
O O7 0.766167 0.938915 0.444278
O O8 0.689670 0.593623 0.552955
O O9 0.263272 0.593941 0.091956
O O10 0.844142 0.495758 0.461991
#
# Coordination Sequence:
#
# PCOD9116893 Si02
#       5
#     2   2   2   2   2
#     4  10  24  44  67 102 136 178 226 282 340 401
#     4  10  22  41  68  95 138 175 229 275 338 403
#     4  10  22  43  65  96 136 173 220 277 333 398
#     4  10  24  43  66  98 136 177 222 278 335 400
#     4  10  22  43  72  95 140 175 231 280 334 410
#
# _framework density 26.759442
#
# number of rings (size 3 to 8) (size 9 to 14) (size 15 to 20)
#    0.000    2.400    2.000    0.000    8.400    0.000 
#    7.200   18.000    0.000    0.000    0.000    0.000 
#    0.000    0.000    0.000    0.000    0.000    0.000 
#
# Total GULP energy -55844.432296 kJ/mol
# GULP energy per Si atom -5584.443230 kJ/mol
# Density = 2.669854 g / cm^3
# Si number density = 26.759442 Si / 1000 Ang^3
#
#
#
# Elastic Constant Matrix: (Units=GPa)
#
#
# Indices 1 2 3 4 5 6 
#
# 1 213.9841 26.7295 77.3148 0.0000 -1.1702 0.0000
# 2 26.7295 66.1992 20.5895 0.0000 -1.6362 0.0000
# 3 77.3148 20.5895 143.3808 0.0000 -6.5465 0.0000
# 4 0.0000 0.0000 0.0000 30.3889 0.0000 -18.1589
# 5 -1.1702 -1.6362 -6.5465 0.0000 45.9191 0.0000
# 6 0.0000 0.0000 0.0000 -18.1589 0.0000 12.4639
#
#
#
# Elastic Compliance Matrix: (Units=1/GPa)
#
#
# Indices 1 2 3 4 5 6 
#
# 1 0.005942 -0.001472 -0.003008 0.000000 -0.000330 0.000000
# 2 -0.001472 0.016179 -0.001515 0.000000 0.000323 0.000000
# 3 -0.003008 -0.001515 0.008866 0.000000 0.001133 0.000000
# 4 0.000000 0.000000 0.000000 0.254264 0.000000 0.370442
# 5 -0.000330 0.000323 0.001133 0.000000 0.021942 0.000000
# 6 0.000000 0.000000 0.000000 0.370442 0.000000 0.619935
#
#
# Mechanical properties :
#
#
# Convention : Reuss Voigt Hill
#
# Bulk Modulus (GPa) = 52.63770 74.75909 63.69839
# Shear Modulus (GPa) = 5.28849 37.68307 21.48578
#
# Velocity S-wave (km/s) = 1.40734 3.75669 2.83666
# Velocity P-wave (km/s) = 4.72802 6.84216 5.88087
#
# Compressibility (1/GPa) = 0.01899779
#
# Stress axis : x y z
#
# Youngs Moduli (GPa) = 168.29190 61.80700 112.79531
#
# Poissons Ratio (x) = 0.09097 0.33927
# Poissons Ratio (y) = 0.24771 0.17088
# Poissons Ratio (z) = 0.50619 0.09363
#
# Static dielectric constant tensor:
#      x y z
#    x 1.932550 0.000000 -0.041230 
#    y 0.000000 2.212370 0.000000 
#    z -0.041230 0.000000 2.224550 
# 
# From -- ./inp_files/1022.got.cif
#   From: 2010.05.17/outbox.cif.g08.bks.cpg/sg4_1_cif.got.tgz:1022.got - 2010.06.03 18:43:04.
