data_PCOD9116832
_publ_section_title
;
Structure prediction by ZEFSAII (Michael W. Deem and Ramdas Pophale) SiO2 
 PCOD9116832
Probable space group: P 21
;
_chemical_formula_sum "Si O2"
_cell_formula_units_Z 16
_cell_length_a 5.083102
_cell_length_b 10.707880
_cell_length_c 12.225277
_cell_angle_alpha 90.000000
_cell_angle_beta 61.162115
_cell_angle_gamma 90.000000
_cell_volume 582.893426
_symmetry_space_group_name_H-M "P 21"
_symmetry_group_IT_number 4
_symmetry_cell_setting 'monoclinic'
loop_
_space_group_symop_operation_xyz
x,y,z
-x,1/2+y,-z
loop_
_atom_site_type_symbol
_atom_site_label
_atom_site_fract_x
_atom_site_fract_y
_atom_site_fract_z
Si Si1 0.201442 0.390360 0.931056
Si Si2 0.769122 0.609742 0.662704
Si Si3 0.155309 0.843247 0.574741
Si Si4 0.559610 0.001389 0.703813
Si Si5 0.427631 0.975419 0.959771
Si Si6 0.678352 0.681855 0.435025
Si Si7 0.277477 0.770130 0.844330
Si Si8 0.808295 0.340752 0.693858
O O1 0.466864 0.339501 0.803269
O O2 0.345941 0.488115 0.988010
O O3 0.916656 0.460001 0.935064
O O4 0.044439 0.280714 0.035306
O O5 0.737757 0.608576 0.536863
O O6 0.438957 0.648306 0.770444
O O7 0.893149 0.484901 0.690555
O O8 0.990378 0.719740 0.652066
O O9 0.510022 0.808052 0.511501
O O10 0.155880 0.827625 0.442643
O O11 0.898984 0.948985 0.645814
O O12 0.500415 0.091707 0.613413
O O13 0.475596 0.055027 0.840656
O O14 0.322193 0.883245 0.745198
O O15 0.478734 0.834762 0.899648
O O16 0.967795 0.733761 0.311269
#
# Coordination Sequence:
#
# PCOD9116832 Si02
#       8
#     2   2   2   2   2   2   2   2
#     4   9  20  42  68 104 141 198 239 314 371 450
#     4  10  22  43  68 106 138 192 248 310 385 454
#     4  10  22  41  64 106 134 188 244 305 374 453
#     4   8  19  43  68 101 138 185 251 303 371 458
#     4   8  19  40  73  96 136 194 249 305 367 444
#     4  11  24  42  71 106 147 202 241 319 406 445
#     4   7  19  38  71  97 136 185 254 303 365 456
#     4  11  25  41  67 106 158 186 250 315 385 462
#
# _framework density 27.449272000000001
#
# number of rings (size 3 to 8) (size 9 to 14) (size 15 to 20)
#    1.500    1.000    0.000    0.750    3.500    4.000 
#   11.250    5.000    0.000    0.000    0.000    0.000 
#    0.000    0.000    0.000    0.000    0.000    0.000 
#
# Total GULP energy -89210.017861 kJ/mol
# GULP energy per Si atom -5575.626116 kJ/mol
# Density = 2.738680 g / cm^3
# Si number density = 27.449272 Si / 1000 Ang^3
#
#
#
# Elastic Constant Matrix: (Units=GPa)
#
#
# Indices 1 2 3 4 5 6 
#
# 1 100.2820 28.5969 35.0785 0.0000 -10.1852 0.0000
# 2 28.5969 121.4422 49.7209 0.0000 -10.6080 0.0000
# 3 35.0785 49.7209 168.5098 0.0000 -44.9848 0.0000
# 4 0.0000 0.0000 0.0000 39.3134 0.0000 -15.0344
# 5 -10.1852 -10.6080 -44.9848 0.0000 45.2539 0.0000
# 6 0.0000 0.0000 0.0000 -15.0344 0.0000 37.1178
#
#
#
# Elastic Compliance Matrix: (Units=1/GPa)
#
#
# Indices 1 2 3 4 5 6 
#
# 1 0.011134 -0.001913 -0.001639 0.000000 0.000428 0.000000
# 2 -0.001913 0.009713 -0.002688 0.000000 -0.000826 0.000000
# 3 -0.001639 -0.002688 0.009259 0.000000 0.008205 0.000000
# 4 0.000000 0.000000 0.000000 0.030099 0.000000 0.012191
# 5 0.000428 -0.000826 0.008205 0.000000 0.030157 0.000000
# 6 0.000000 0.000000 0.000000 0.012191 0.000000 0.031879
#
#
# Mechanical properties :
#
#
# Convention : Reuss Voigt Hill
#
# Bulk Modulus (GPa) = 56.73547 68.55851 62.64699
# Shear Modulus (GPa) = 35.56234 42.79287 39.17761
#
# Velocity S-wave (km/s) = 3.60330 3.95268 3.78203
# Velocity P-wave (km/s) = 6.16651 6.77216 6.47642
#
# Compressibility (1/GPa) = 0.01762566
#
# Stress axis : x y z
#
# Youngs Moduli (GPa) = 89.81242 102.95033 108.00145
#
# Poissons Ratio (x) = 0.19699 0.17700
# Poissons Ratio (y) = 0.17185 0.29033
# Poissons Ratio (z) = 0.14719 0.27676
#
# Static dielectric constant tensor:
#      x y z
#    x 2.235230 0.000000 0.076190 
#    y 0.000000 2.264580 0.000000 
#    z 0.076190 0.000000 2.276580 
# 
# From -- ./inp_files/13412.got.cif
#   From: 2010.05.17/outbox.cif.g08.bks.cpg/sg4_7_cif.got.tgz:13412.got - 2010.06.03 18:43:04.
