data_PCOD9116421
_publ_section_title
;
Structure prediction by ZEFSAII (Michael W. Deem and Ramdas Pophale) SiO2 
 PCOD9116421
Probable space group: P 21
;
_chemical_formula_sum "Si O2"
_cell_formula_units_Z 14
_cell_length_a 7.574480
_cell_length_b 8.734726
_cell_length_c 7.638820
_cell_angle_alpha 90.000000
_cell_angle_beta 74.850664
_cell_angle_gamma 90.000000
_cell_volume 487.828622
_symmetry_space_group_name_H-M "P 21"
_symmetry_group_IT_number 4
_symmetry_cell_setting 'monoclinic'
loop_
_space_group_symop_operation_xyz
x,y,z
-x,1/2+y,-z
loop_
_atom_site_type_symbol
_atom_site_label
_atom_site_fract_x
_atom_site_fract_y
_atom_site_fract_z
Si Si1 0.451045 0.370810 0.495743
Si Si2 0.993482 0.355409 0.087337
Si Si3 0.834640 0.560020 0.417497
Si Si4 0.334579 0.627378 0.751533
Si Si5 0.382521 0.693621 0.232547
Si Si6 0.610779 0.892433 0.942446
Si Si7 0.998014 0.357092 0.670674
O O1 0.643572 0.471352 0.460414
O O2 0.313793 0.509124 0.593217
O O3 0.501567 0.247457 0.328861
O O4 0.484127 0.261761 0.658154
O O5 0.934831 0.506108 0.211990
O O6 0.846768 0.226128 0.171502
O O7 0.000102 0.386425 0.878063
O O8 0.194317 0.308799 0.104185
O O9 0.943917 0.492334 0.554731
O O10 0.834365 0.745053 0.428923
O O11 0.371145 0.515526 0.903195
O O12 0.447020 0.784924 0.042094
O O13 0.175164 0.741439 0.313746
O O14 0.406769 0.511653 0.211782
#
# Coordination Sequence:
#
# PCOD9116421 Si02
#       7
#     2   2   2   2   2   2   2
#     4   9  22  40  67 101 143 185 235 299 365 437
#     4  11  22  44  75 102 146 189 249 296 361 441
#     4  10  23  43  70 105 143 194 235 301 370 424
#     4  10  21  43  69 103 142 183 242 295 368 434
#     4  10  22  45  65  99 145 181 237 295 362 435
#     4  11  23  45  70 105 140 190 240 297 371 432
#     4  11  23  46  70 105 147 184 246 301 357 445
#
# _framework density 28.698602999999999
#
# number of rings (size 3 to 8) (size 9 to 14) (size 15 to 20)
#    0.000    1.714    2.857    0.000    0.000    8.000 
#   12.857    0.000    0.000    0.000    0.000    0.000 
#    0.000    0.000    0.000    0.000    0.000    0.000 
#
# Total GULP energy -78529.085356 kJ/mol
# GULP energy per Si atom -5609.220383 kJ/mol
# Density = 2.863328 g / cm^3
# Si number density = 28.698603 Si / 1000 Ang^3
#
#
#
# Elastic Constant Matrix: (Units=GPa)
#
#
# Indices 1 2 3 4 5 6 
#
# 1 48.2010 -21.2223 10.0386 0.0000 34.6217 0.0000
# 2 -21.2223 140.5627 17.6689 0.0000 2.9654 0.0000
# 3 10.0386 17.6689 143.8949 0.0000 -5.4884 0.0000
# 4 0.0000 0.0000 0.0000 48.3269 0.0000 -3.7431
# 5 34.6217 2.9654 -5.4884 0.0000 27.4350 0.0000
# 6 0.0000 0.0000 0.0000 -3.7431 0.0000 52.8371
#
#
#
# Elastic Compliance Matrix: (Units=1/GPa)
#
#
# Indices 1 2 3 4 5 6 
#
# 1 -0.351581 -0.069176 0.050616 0.000000 0.461282 0.000000
# 2 -0.069176 -0.006360 0.009032 0.000000 0.089791 0.000000
# 3 0.050616 0.009032 -0.000165 0.000000 -0.064884 0.000000
# 4 0.000000 0.000000 0.000000 0.020807 0.000000 0.001474
# 5 0.461282 0.089791 -0.064884 0.000000 -0.568352 0.000000
# 6 0.000000 0.000000 0.000000 0.001474 0.000000 0.019031
#
#
# Mechanical properties :
#
#
# Convention : Reuss Voigt Hill
#
# Bulk Modulus (GPa) = -2.65137 38.40322 17.87592
# Shear Modulus (GPa) = -5.03380 47.46470 21.21545
#
# Velocity S-wave (km/s) = -1.32583 4.07123 2.72187
# Velocity P-wave (km/s) = 1.80822 5.95907 4.01503
#
# Compressibility (1/GPa) = -0.37716302
#
# Stress axis : x y z
#
# Youngs Moduli (GPa) = -2.84429 -157.24355 -6045.02445
#
# Poissons Ratio (x) = -10.87748 305.97395
# Poissons Ratio (y) = -0.19676 54.59656
# Poissons Ratio (z) = 0.14397 1.42017
#
# Static dielectric constant tensor:
#      x y z
#    x 2.374290 0.000000 -0.028890 
#    y 0.000000 2.174770 0.000000 
#    z -0.028890 0.000000 2.459360 
# 
# From -- ./inp_files/5344.got.cif
#   From: 2010.05.17/outbox.cif.g08.bks.cpg/sg4_3_cif.got.tgz:5344.got - 2010.06.03 18:43:04.
