data_PCOD9116055
_publ_section_title
;
Structure prediction by ZEFSAII (Michael W. Deem and Ramdas Pophale) SiO2 
 PCOD9116055
Probable space group: P 21
;
_chemical_formula_sum "Si O2"
_cell_formula_units_Z 14
_cell_length_a 15.514760
_cell_length_b 6.949503
_cell_length_c 7.639284
_cell_angle_alpha 90.000000
_cell_angle_beta 42.552192
_cell_angle_gamma 90.000000
_cell_volume 557.014046
_symmetry_space_group_name_H-M "P 21"
_symmetry_group_IT_number 4
_symmetry_cell_setting 'monoclinic'
loop_
_space_group_symop_operation_xyz
x,y,z
-x,1/2+y,-z
loop_
_atom_site_type_symbol
_atom_site_label
_atom_site_fract_x
_atom_site_fract_y
_atom_site_fract_z
Si Si1 0.920117 0.979440 0.353446
Si Si2 0.673469 0.908333 0.901039
Si Si3 0.537969 0.165530 0.659663
Si Si4 0.003605 0.054634 0.844113
Si Si5 0.866792 0.704899 0.869293
Si Si6 0.494325 0.220786 0.316186
Si Si7 0.743099 0.463958 0.368318
O O1 0.769677 0.969340 0.605948
O O2 0.952494 0.073128 0.118690
O O3 0.000531 0.098334 0.377192
O O4 0.978788 0.765512 0.259548
O O5 0.766785 0.771465 0.875620
O O6 0.547017 0.780113 0.072103
O O7 0.512459 0.713989 0.461284
O O8 0.620257 0.102684 0.072255
O O9 0.678763 0.256188 0.446022
O O10 0.518218 0.941477 0.716507
O O11 0.911185 0.903629 0.892166
O O12 0.147409 0.974430 0.651079
O O13 0.800763 0.555917 0.103513
O O14 0.374250 0.106088 0.419538
#
# Coordination Sequence:
#
# PCOD9116055 Si02
#       7
#     2   2   2   2   2   2   2
#     4  11  25  44  68 102 139 184 237 280 351 413
#     4  11  25  41  68 112 136 170 241 296 343 408
#     4  11  20  40  69 100 138 182 222 292 349 409
#     4  11  24  45  71  96 142 195 226 278 351 440
#     4  11  23  44  67 107 139 185 225 288 352 418
#     4  11  20  41  70 100 138 180 225 290 351 410
#     4  10  21  39  67 101 130 180 244 266 345 422
#
# _framework density 25.134014000000001
#
# number of rings (size 3 to 8) (size 9 to 14) (size 15 to 20)
#    0.000    1.143    7.143    0.000    2.000    8.000 
#    0.000    0.000   18.857    0.000    0.000    0.000 
#    0.000    0.000    0.000    0.000    0.000    0.000 
#
# Total GULP energy -78369.226280 kJ/mol
# GULP energy per Si atom -5597.801877 kJ/mol
# Density = 2.507681 g / cm^3
# Si number density = 25.134014 Si / 1000 Ang^3
#
#
#
# Elastic Constant Matrix: (Units=GPa)
#
#
# Indices 1 2 3 4 5 6 
#
# 1 53.0405 16.1165 16.0379 0.0000 -14.7349 0.0000
# 2 16.1165 171.2657 47.7393 0.0000 -1.8910 0.0000
# 3 16.0379 47.7393 138.6359 0.0000 -4.0841 0.0000
# 4 0.0000 0.0000 0.0000 44.2965 0.0000 -22.4950
# 5 -14.7349 -1.8910 -4.0841 0.0000 29.3350 0.0000
# 6 0.0000 0.0000 0.0000 -22.4950 0.0000 31.3826
#
#
#
# Elastic Compliance Matrix: (Units=1/GPa)
#
#
# Indices 1 2 3 4 5 6 
#
# 1 0.022973 -0.001537 -0.001799 0.000000 0.011190 0.000000
# 2 -0.001537 0.006562 -0.002101 0.000000 -0.000641 0.000000
# 3 -0.001799 -0.002101 0.008147 0.000000 0.000095 0.000000
# 4 0.000000 0.000000 0.000000 0.035496 0.000000 0.025444
# 5 0.011190 -0.000641 0.000095 0.000000 0.039681 0.000000
# 6 0.000000 0.000000 0.000000 0.025444 0.000000 0.050103
#
#
# Mechanical properties :
#
#
# Convention : Reuss Voigt Hill
#
# Bulk Modulus (GPa) = 37.29996 58.08106 47.69051
# Shear Modulus (GPa) = 27.35650 39.87270 33.61460
#
# Velocity S-wave (km/s) = 3.30271 3.98729 3.66104
# Velocity P-wave (km/s) = 5.42370 6.66008 6.07343
#
# Compressibility (1/GPa) = 0.02680968
#
# Stress axis : x y z
#
# Youngs Moduli (GPa) = 43.52949 152.39283 122.73827
#
# Poissons Ratio (x) = 0.23421 0.22077
# Poissons Ratio (y) = 0.06690 0.25784
# Poissons Ratio (z) = 0.07830 0.32014
#
# Static dielectric constant tensor:
#      x y z
#    x 2.035770 0.000000 0.013950 
#    y 0.000000 1.964810 0.000000 
#    z 0.013950 0.000000 2.018900 
# 
# From -- ./inp_files/9657.got.cif
#   From: 2010.05.17/outbox.cif.g08.bks.cpg/sg4_5_cif.got.tgz:9657.got - 2010.06.03 18:43:04.
