data_PCOD9116622
_publ_section_title
;
Structure prediction by ZEFSAII (Michael W. Deem and Ramdas Pophale) SiO2 
 PCOD9116622
Probable space group: P 21
;
_chemical_formula_sum "Si O2"
_cell_formula_units_Z 12
_cell_length_a 9.206092
_cell_length_b 8.445322
_cell_length_c 7.991064
_cell_angle_alpha 90.000000
_cell_angle_beta 150.232637
_cell_angle_gamma 90.000000
_cell_volume 308.459055
_symmetry_space_group_name_H-M "P 21"
_symmetry_group_IT_number 4
_symmetry_cell_setting 'monoclinic'
loop_
_space_group_symop_operation_xyz
x,y,z
-x,1/2+y,-z
loop_
_atom_site_type_symbol
_atom_site_label
_atom_site_fract_x
_atom_site_fract_y
_atom_site_fract_z
Si Si1 0.152221 0.450330 0.652223
Si Si2 0.658803 0.251723 0.984320
Si Si3 0.347779 0.331947 0.347778
Si Si4 0.658785 0.251730 0.333247
Si Si5 0.158804 0.030554 0.984320
Si Si6 0.158784 0.030548 0.333246
O O1 0.212439 0.641013 0.712450
O O2 0.552643 0.381921 0.711005
O O3 0.947357 0.400357 0.288996
O O4 0.947362 0.400363 0.605726
O O5 0.464925 0.360698 0.964926
O O6 0.859934 0.137800 0.059972
O O7 0.359941 0.144480 0.659875
O O8 0.552635 0.381914 0.394272
O O9 0.035075 0.421580 0.035074
O O10 0.287561 0.141264 0.287550
O O11 0.859941 0.137797 0.659875
O O12 0.359935 0.144478 0.059972
#
# Coordination Sequence:
#
# PCOD9116622 Si02
#       6
#     2   2   2   2   2   2
#     4  10  22  38  66  88 126 166 200 260 314 362
#     4  10  22  40  64  90 126 161 209 254 311 364
#     4  10  22  38  66  88 126 166 200 260 314 362
#     4  10  22  40  64  90 126 161 209 254 311 364
#     4  10  22  40  64  90 126 161 209 254 311 364
#     4  10  22  40  64  90 126 161 209 254 311 364
#
# _framework density 38.903056999999997
#
# number of rings (size 3 to 8) (size 9 to 14) (size 15 to 20)
#    2.000    0.000    3.333    0.000    4.667    0.000 
#    0.000   13.333    0.000    0.000    0.000    0.000 
#    0.000    0.000    0.000    0.000    0.000    0.000 
#
# Total GULP energy -67439.842210 kJ/mol
# GULP energy per Si atom -5619.986851 kJ/mol
# Density = 3.881451 g / cm^3
# Si number density = 38.903057 Si / 1000 Ang^3
#
#
#
# Elastic Constant Matrix: (Units=GPa)
#
#
# Indices 1 2 3 4 5 6 
#
# 1 449.4731 169.6016 164.9845 0.0000 -21.3448 0.0000
# 2 169.6016 537.4970 211.4497 0.0000 33.6302 0.0000
# 3 164.9845 211.4497 433.8237 0.0000 8.3156 0.0000
# 4 0.0000 0.0000 0.0000 156.7753 0.0000 7.3532
# 5 -21.3448 33.6302 8.3156 0.0000 153.0842 0.0000
# 6 0.0000 0.0000 0.0000 7.3532 0.0000 147.6169
#
#
#
# Elastic Compliance Matrix: (Units=1/GPa)
#
#
# Indices 1 2 3 4 5 6 
#
# 1 0.002761 -0.000605 -0.000766 0.000000 0.000559 0.000000
# 2 -0.000605 0.002465 -0.000960 0.000000 -0.000574 0.000000
# 3 -0.000766 -0.000960 0.003066 0.000000 -0.000062 0.000000
# 4 0.000000 0.000000 0.000000 0.006393 0.000000 -0.000318
# 5 0.000559 -0.000574 -0.000062 0.000000 0.006740 0.000000
# 6 0.000000 0.000000 0.000000 -0.000318 0.000000 0.006790
#
#
# Mechanical properties :
#
#
# Convention : Reuss Voigt Hill
#
# Bulk Modulus (GPa) = 275.54528 279.20725 277.37627
# Shear Modulus (GPa) = 146.68384 149.81249 148.24816
#
# Velocity S-wave (km/s) = 6.14710 6.21231 6.17979
# Velocity P-wave (km/s) = 11.01657 11.10778 11.06227
#
# Compressibility (1/GPa) = 0.00362917
#
# Stress axis : x y z
#
# Youngs Moduli (GPa) = 362.22322 405.66754 326.19283
#
# Poissons Ratio (x) = 0.24537 0.24981
# Poissons Ratio (y) = 0.21909 0.31330
# Poissons Ratio (z) = 0.27740 0.38963
#
# Static dielectric constant tensor:
#      x y z
#    x 3.698070 0.000000 -0.640740 
#    y 0.000000 3.031560 0.000000 
#    z -0.640740 0.000000 2.903090 
# 
# From -- ./inp_files/6496.got.cif
#   From: 2010.05.17/outbox.cif.g08.bks.cpg/sg4_4_cif.got.tgz:6496.got - 2010.06.03 18:43:04.
