data_PCOD9116540
_publ_section_title
;
Structure prediction by ZEFSAII (Michael W. Deem and Ramdas Pophale) SiO2 
 PCOD9116540
Probable space group: P 21
;
_chemical_formula_sum "Si O2"
_cell_formula_units_Z 16
_cell_length_a 11.005011
_cell_length_b 5.013967
_cell_length_c 12.555849
_cell_angle_alpha 90.000000
_cell_angle_beta 82.345280
_cell_angle_gamma 90.000000
_cell_volume 686.642364
_symmetry_space_group_name_H-M "P 21"
_symmetry_group_IT_number 4
_symmetry_cell_setting 'monoclinic'
loop_
_space_group_symop_operation_xyz
x,y,z
-x,1/2+y,-z
loop_
_atom_site_type_symbol
_atom_site_label
_atom_site_fract_x
_atom_site_fract_y
_atom_site_fract_z
Si Si1 0.120515 0.658570 0.087231
Si Si2 0.041918 0.661966 0.854777
Si Si3 0.760530 0.573129 0.649823
Si Si4 0.210879 0.404237 0.663758
Si Si5 0.671513 0.082471 0.782234
Si Si6 0.993621 0.216538 0.568781
Si Si7 0.447554 0.075493 0.683522
Si Si8 0.643555 0.273631 0.486628
O O1 0.254579 0.588283 0.116467
O O2 0.024526 0.444549 0.145027
O O3 0.109059 0.643759 0.961379
O O4 0.068247 0.945122 0.128681
O O5 0.139968 0.596405 0.753299
O O6 0.682385 0.383282 0.737293
O O7 0.701947 0.528093 0.539224
O O8 0.885746 0.399752 0.630533
O O9 0.743234 0.867932 0.698483
O O10 0.105729 0.203327 0.636984
O O11 0.326260 0.254733 0.703317
O O12 0.251812 0.563515 0.552857
O O13 0.527904 0.023201 0.778726
O O14 0.968633 0.915648 0.533424
O O15 0.538563 0.186123 0.579988
O O16 0.406395 0.811880 0.626522
#
# Coordination Sequence:
#
# PCOD9116540 Si02
#       8
#     2   2   2   2   2   2   2   2
#     4  10  21  47  70 101 127 160 213 279 348 390
#     4  10  24  42  74  98 128 165 210 277 344 403
#     4  11  23  39  61  92 123 170 214 263 327 380
#     4  12  25  40  61  93 130 175 219 267 320 393
#     4  11  23  39  68  89 124 166 222 264 315 392
#     4  12  24  37  56  88 127 163 204 266 325 371
#     4  11  24  38  61  85 129 179 222 255 310 380
#     4  11  22  40  57  84 128 178 218 261 301 383
#
# _framework density 23.301794000000001
#
# number of rings (size 3 to 8) (size 9 to 14) (size 15 to 20)
#    0.000    1.000    2.500    4.500    7.000    0.000 
#    0.000    0.000    2.750    0.000    0.000    0.000 
#    0.000    0.000    0.000    0.000    0.000    0.000 
#
# Total GULP energy -89372.795779 kJ/mol
# GULP energy per Si atom -5585.799736 kJ/mol
# Density = 2.324876 g / cm^3
# Si number density = 23.301794 Si / 1000 Ang^3
#
#
#
# Elastic Constant Matrix: (Units=GPa)
#
#
# Indices 1 2 3 4 5 6 
#
# 1 83.1017 -9.7892 27.5003 0.0000 31.3674 0.0000
# 2 -9.7892 92.7688 13.0257 0.0000 0.1656 0.0000
# 3 27.5003 13.0257 52.1366 0.0000 25.4210 0.0000
# 4 0.0000 0.0000 0.0000 23.1455 0.0000 -2.7993
# 5 31.3674 0.1656 25.4210 0.0000 51.2422 0.0000
# 6 0.0000 0.0000 0.0000 -2.7993 0.0000 20.4299
#
#
#
# Elastic Compliance Matrix: (Units=1/GPa)
#
#
# Indices 1 2 3 4 5 6 
#
# 1 0.017199 0.002681 -0.006073 0.000000 -0.007524 0.000000
# 2 0.002681 0.011714 -0.004646 0.000000 0.000626 0.000000
# 3 -0.006073 -0.004646 0.028656 0.000000 -0.010483 0.000000
# 4 0.000000 0.000000 0.000000 0.043933 0.000000 0.006020
# 5 -0.007524 0.000626 -0.010483 0.000000 0.029320 0.000000
# 6 0.000000 0.000000 0.000000 0.006020 0.000000 0.049773
#
#
# Mechanical properties :
#
#
# Convention : Reuss Voigt Hill
#
# Bulk Modulus (GPa) = 24.10047 32.16453 28.13250
# Shear Modulus (GPa) = 23.75291 32.11487 27.93389
#
# Velocity S-wave (km/s) = 3.19620 3.71646 3.46611
# Velocity P-wave (km/s) = 4.89757 5.67886 5.30263
#
# Compressibility (1/GPa) = 0.04149297
#
# Stress axis : x y z
#
# Youngs Moduli (GPa) = 58.14293 85.37095 34.89676
#
# Poissons Ratio (x) = -0.22888 0.21193
# Poissons Ratio (y) = -0.15588 0.16212
# Poissons Ratio (z) = 0.35311 0.39661
#
# Static dielectric constant tensor:
#      x y z
#    x 1.993960 0.000000 0.038420 
#    y 0.000000 1.895470 0.000000 
#    z 0.038420 0.000000 1.892830 
# 
# From -- ./inp_files/11699.got.cif
#   From: 2010.05.17/outbox.cif.g08.bks.cpg/sg4_6_cif.got.tgz:11699.got - 2010.06.03 18:43:04.
