data_PCOD9116918
_publ_section_title
;
Structure prediction by ZEFSAII (Michael W. Deem and Ramdas Pophale) SiO2 
 PCOD9116918
Probable space group: P 21
;
_chemical_formula_sum "Si O2"
_cell_formula_units_Z 14
_cell_length_a 17.813878
_cell_length_b 4.999288
_cell_length_c 16.415611
_cell_angle_alpha 90.000000
_cell_angle_beta 156.032743
_cell_angle_gamma 90.000000
_cell_volume 593.853218
_symmetry_space_group_name_H-M "P 21"
_symmetry_group_IT_number 4
_symmetry_cell_setting 'monoclinic'
loop_
_space_group_symop_operation_xyz
x,y,z
-x,1/2+y,-z
loop_
_atom_site_type_symbol
_atom_site_label
_atom_site_fract_x
_atom_site_fract_y
_atom_site_fract_z
Si Si1 0.936360 0.612750 0.484656
Si Si2 0.064248 0.754037 0.373987
Si Si3 0.363565 0.382744 0.716541
Si Si4 0.731799 0.399001 0.005341
Si Si5 0.338670 0.404096 0.174022
Si Si6 0.742962 0.589018 0.559015
Si Si7 0.021139 0.636640 0.969256
O O1 0.731356 0.712440 0.306466
O O2 0.956164 0.374892 0.439372
O O3 0.016581 0.476936 0.646148
O O4 0.252259 0.658779 0.604042
O O5 0.927324 0.509719 0.227089
O O6 0.125325 0.859881 0.347189
O O7 0.580725 0.421046 0.926946
O O8 0.312002 0.254634 0.576566
O O9 0.721420 0.103151 0.958949
O O10 0.676412 0.604781 0.876637
O O11 0.552101 0.471916 0.404109
O O12 0.199686 0.491506 0.107158
O O13 0.871459 0.727291 0.752942
O O14 0.929093 0.401441 0.931488
#
# Coordination Sequence:
#
# PCOD9116918 Si02
#       7
#     2   2   2   2   2   2   2
#     4  11  23  41  68  96 138 183 216 262 342 405
#     4  11  21  40  73  96 128 171 219 278 325 384
#     4  10  22  41  71  99 128 173 221 281 321 390
#     4  11  23  38  70 103 123 160 233 274 325 378
#     4  11  23  42  64  95 132 167 216 285 322 393
#     4  10  23  40  67  96 128 171 227 270 334 386
#     4  12  27  42  63  93 135 177 216 272 335 402
#
# _framework density 23.574847999999999
#
# number of rings (size 3 to 8) (size 9 to 14) (size 15 to 20)
#    0.000    1.143    4.286    1.714    4.000    1.143 
#    0.000    0.000    6.286    0.000    0.000    0.000 
#    0.000    0.000    0.000    0.000    0.000    0.000 
#
# Total GULP energy -78296.229435 kJ/mol
# GULP energy per Si atom -5592.587817 kJ/mol
# Density = 2.352119 g / cm^3
# Si number density = 23.574848 Si / 1000 Ang^3
#
#
#
# Elastic Constant Matrix: (Units=GPa)
#
#
# Indices 1 2 3 4 5 6 
#
# 1 83.5238 12.5709 27.6279 0.0000 17.9435 0.0000
# 2 12.5709 85.2711 -3.1021 0.0000 -3.6280 0.0000
# 3 27.6279 -3.1021 72.3937 0.0000 19.5516 0.0000
# 4 0.0000 0.0000 0.0000 26.9555 0.0000 -3.3538
# 5 17.9435 -3.6280 19.5516 0.0000 25.6614 0.0000
# 6 0.0000 0.0000 0.0000 -3.3538 0.0000 42.6586
#
#
#
# Elastic Compliance Matrix: (Units=1/GPa)
#
#
# Indices 1 2 3 4 5 6 
#
# 1 0.015416 -0.002763 -0.003758 0.000000 -0.008307 0.000000
# 2 -0.002763 0.012294 0.000743 0.000000 0.003104 0.000000
# 3 -0.003758 0.000743 0.018309 0.000000 -0.011217 0.000000
# 4 0.000000 0.000000 0.000000 0.037465 0.000000 0.002945
# 5 -0.008307 0.003104 -0.011217 0.000000 0.053762 0.000000
# 6 0.000000 0.000000 0.000000 0.002945 0.000000 0.023674
#
#
# Mechanical properties :
#
#
# Convention : Reuss Voigt Hill
#
# Bulk Modulus (GPa) = 29.01733 35.04245 32.02989
# Shear Modulus (GPa) = 27.17939 32.66123 29.92031
#
# Velocity S-wave (km/s) = 3.39912 3.72617 3.56640
# Velocity P-wave (km/s) = 5.26694 5.78006 5.52945
#
# Compressibility (1/GPa) = 0.03446217
#
# Stress axis : x y z
#
# Youngs Moduli (GPa) = 64.86692 81.34248 54.61860
#
# Poissons Ratio (x) = 0.22474 0.20527
# Poissons Ratio (y) = 0.17922 -0.04058
# Poissons Ratio (z) = 0.24379 -0.06043
#
# Static dielectric constant tensor:
#      x y z
#    x 1.936240 0.000000 -0.019870 
#    y 0.000000 1.914120 0.000000 
#    z -0.019870 0.000000 1.911620 
# 
# From -- ./inp_files/14088.got.cif
#   From: 2010.05.17/outbox.cif.g08.bks.cpg/sg4_8_cif.got.tgz:14088.got - 2010.06.03 18:43:04.
