data_PCOD9116517
_publ_section_title
;
Structure prediction by ZEFSAII (Michael W. Deem and Ramdas Pophale) SiO2 
 PCOD9116517
Probable space group: P 21
;
_chemical_formula_sum "Si O2"
_cell_formula_units_Z 16
_cell_length_a 13.548668
_cell_length_b 8.184224
_cell_length_c 5.218517
_cell_angle_alpha 90.000000
_cell_angle_beta 95.304117
_cell_angle_gamma 90.000000
_cell_volume 576.179224
_symmetry_space_group_name_H-M "P 21"
_symmetry_group_IT_number 4
_symmetry_cell_setting 'monoclinic'
loop_
_space_group_symop_operation_xyz
x,y,z
-x,1/2+y,-z
loop_
_atom_site_type_symbol
_atom_site_label
_atom_site_fract_x
_atom_site_fract_y
_atom_site_fract_z
Si Si1 0.353134 0.659500 0.514428
Si Si2 0.115338 0.976527 0.316460
Si Si3 0.161064 0.749038 0.722500
Si Si4 0.155036 0.311054 0.545887
Si Si5 0.309404 0.892067 0.104389
Si Si6 0.924111 0.978177 0.970772
Si Si7 0.464893 0.972919 0.775898
Si Si8 0.390074 0.311872 0.504461
O O1 0.243824 0.639356 0.603280
O O2 0.403028 0.827510 0.619999
O O3 0.407624 0.495956 0.621897
O O4 0.337342 0.709506 0.210746
O O5 0.091809 0.824178 0.492840
O O6 0.040646 0.976437 0.061070
O O7 0.102871 0.140136 0.470928
O O8 0.232996 0.965023 0.288299
O O9 0.232423 0.887438 0.852918
O O10 0.112890 0.654416 0.943723
O O11 0.129953 0.362142 0.830371
O O12 0.272682 0.290526 0.512439
O O13 0.108068 0.430384 0.318883
O O14 0.408117 0.980017 0.034176
O O15 0.570725 0.876125 0.769184
O O16 0.445340 0.151930 0.637413
#
# Coordination Sequence:
#
# PCOD9116517 Si02
#       8
#     2   2   2   2   2   2   2   2
#     4  10  21  46  68 106 149 194 259 318 393 461
#     4  11  27  45  77 108 159 199 269 321 405 473
#     4  10  22  44  72 100 149 199 248 324 386 465
#     4  12  29  50  76 119 157 208 263 336 391 487
#     4  10  23  45  72 107 144 206 254 328 394 471
#     4  12  28  47  77 114 156 206 264 323 400 471
#     4  11  25  46  76 109 152 205 264 327 400 481
#     4  12  23  49  76 111 156 207 265 331 401 479
#
# _framework density 27.769138999999999
#
# number of rings (size 3 to 8) (size 9 to 14) (size 15 to 20)
#    0.000    1.000    2.500    3.750    8.750    0.000 
#    6.750    0.000    0.000    0.000    0.000    0.000 
#    0.000    0.000    0.000    0.000    0.000    0.000 
#
# Total GULP energy -89326.623294 kJ/mol
# GULP energy per Si atom -5582.913956 kJ/mol
# Density = 2.770593 g / cm^3
# Si number density = 27.769139 Si / 1000 Ang^3
#
#
#
# Elastic Constant Matrix: (Units=GPa)
#
#
# Indices 1 2 3 4 5 6 
#
# 1 149.6817 43.7757 26.1290 0.0000 -15.0558 0.0000
# 2 43.7757 175.5553 26.0465 0.0000 -9.0363 0.0000
# 3 26.1290 26.0465 77.1676 0.0000 -8.0540 0.0000
# 4 0.0000 0.0000 0.0000 37.7157 0.0000 -1.5615
# 5 -15.0558 -9.0363 -8.0540 0.0000 53.1719 0.0000
# 6 0.0000 0.0000 0.0000 -1.5615 0.0000 41.4765
#
#
#
# Elastic Compliance Matrix: (Units=1/GPa)
#
#
# Indices 1 2 3 4 5 6 
#
# 1 0.007623 -0.001537 -0.001894 0.000000 0.001610 0.000000
# 2 -0.001537 0.006334 -0.001575 0.000000 0.000403 0.000000
# 3 -0.001894 -0.001575 0.014274 0.000000 0.001358 0.000000
# 4 0.000000 0.000000 0.000000 0.026556 0.000000 0.001000
# 5 0.001610 0.000403 0.001358 0.000000 0.019537 0.000000
# 6 0.000000 0.000000 0.000000 0.001000 0.000000 0.024148
#
#
# Mechanical properties :
#
#
# Convention : Reuss Voigt Hill
#
# Bulk Modulus (GPa) = 54.89310 66.03411 60.46361
# Shear Modulus (GPa) = 43.64653 46.90306 45.27479
#
# Velocity S-wave (km/s) = 3.96885 4.11425 4.04220
# Velocity P-wave (km/s) = 6.38850 6.81180 6.60354
#
# Compressibility (1/GPa) = 0.01821722
#
# Stress axis : x y z
#
# Youngs Moduli (GPa) = 131.18226 157.88029 70.05879
#
# Poissons Ratio (x) = 0.24264 0.13271
# Poissons Ratio (y) = 0.20161 0.11038
# Poissons Ratio (z) = 0.24850 0.24874
#
# Static dielectric constant tensor:
#      x y z
#    x 2.245830 0.000000 -0.113010 
#    y 0.000000 2.263640 0.000000 
#    z -0.113010 0.000000 2.273580 
# 
# From -- ./inp_files/3472.got.cif
#   From: 2010.05.17/outbox.cif.g08.bks.cpg/sg4_2_cif.got.tgz:3472.got - 2010.06.03 18:43:04.
