data_PCOD9116974
_publ_section_title
;
Structure prediction by ZEFSAII (Michael W. Deem and Ramdas Pophale) SiO2 
 PCOD9116974
Probable space group: P 21
;
_chemical_formula_sum "Si O2"
_cell_formula_units_Z 16
_cell_length_a 16.908994
_cell_length_b 8.593523
_cell_length_c 14.698102
_cell_angle_alpha 90.000000
_cell_angle_beta 160.848506
_cell_angle_gamma 90.000000
_cell_volume 700.668926
_symmetry_space_group_name_H-M "P 21"
_symmetry_group_IT_number 4
_symmetry_cell_setting 'monoclinic'
loop_
_space_group_symop_operation_xyz
x,y,z
-x,1/2+y,-z
loop_
_atom_site_type_symbol
_atom_site_label
_atom_site_fract_x
_atom_site_fract_y
_atom_site_fract_z
Si Si1 0.299730 0.148740 0.677489
Si Si2 0.518989 0.398697 0.369908
Si Si3 0.433096 0.319239 0.997611
Si Si4 0.889816 0.942374 0.209181
Si Si5 0.037015 0.976043 0.921408
Si Si6 0.757975 0.693317 0.595787
Si Si7 0.236630 0.691875 0.502482
Si Si8 0.580130 0.940922 0.533735
O O1 0.385040 0.273722 0.842674
O O2 0.313095 0.198422 0.587304
O O3 0.022570 0.095407 0.388088
O O4 0.442319 0.987592 0.853113
O O5 0.743872 0.517363 0.614675
O O6 0.595321 0.244072 0.399387
O O7 0.412938 0.386189 0.354517
O O8 0.330207 0.477665 0.096108
O O9 0.192007 0.338399 0.794830
O O10 0.594580 0.188903 0.225121
O O11 0.064079 0.836707 0.337558
O O12 0.925400 0.051118 0.708393
O O13 0.834728 0.019438 0.779009
O O14 0.004904 0.789055 0.878604
O O15 0.315392 0.019452 0.236757
O O16 0.578406 0.794661 0.462874
#
# Coordination Sequence:
#
# PCOD9116974 Si02
#       8
#     2   2   2   2   2   2   2   2
#     4  11  23  45  67 100 137 181 232 292 354 421
#     4  11  23  43  70  94 139 181 234 283 348 423
#     4  10  24  43  68  98 133 181 235 286 352 427
#     4  10  22  42  68 100 127 186 227 291 356 409
#     4  10  26  42  63 102 141 180 233 286 353 404
#     4  10  24  44  66  97 140 183 229 297 345 414
#     4  10  23  43  66  93 137 178 229 290 346 419
#     4  10  27  40  68 106 136 188 229 287 348 419
#
# _framework density 22.835321
#
# number of rings (size 3 to 8) (size 9 to 14) (size 15 to 20)
#    0.750    1.000    3.750    0.000   10.500    3.000 
#    0.000    0.000    0.000    0.000    0.000    0.000 
#    0.000    0.000    0.000    0.000    0.000    0.000 
#
# Total GULP energy -89198.784299 kJ/mol
# GULP energy per Si atom -5574.924019 kJ/mol
# Density = 2.278335 g / cm^3
# Si number density = 22.835321 Si / 1000 Ang^3
#
#
#
# Elastic Constant Matrix: (Units=GPa)
#
#
# Indices 1 2 3 4 5 6 
#
# 1 113.5550 1.9893 31.3563 0.0000 -12.6327 0.0000
# 2 1.9893 33.1432 7.4738 0.0000 -5.1296 0.0000
# 3 31.3563 7.4738 80.5187 0.0000 3.1401 0.0000
# 4 0.0000 0.0000 0.0000 18.4083 0.0000 -1.7506
# 5 -12.6327 -5.1296 3.1401 0.0000 37.1309 0.0000
# 6 0.0000 0.0000 0.0000 -1.7506 0.0000 25.9072
#
#
#
# Elastic Compliance Matrix: (Units=1/GPa)
#
#
# Indices 1 2 3 4 5 6 
#
# 1 0.010430 0.000972 -0.004310 0.000000 0.004047 0.000000
# 2 0.000972 0.031681 -0.003514 0.000000 0.005005 0.000000
# 3 -0.004310 -0.003514 0.014548 0.000000 -0.003182 0.000000
# 4 0.000000 0.000000 0.000000 0.054675 0.000000 0.003694
# 5 0.004047 0.005005 -0.003182 0.000000 0.029269 0.000000
# 6 0.000000 0.000000 0.000000 0.003694 0.000000 0.038849
#
#
# Mechanical properties :
#
#
# Convention : Reuss Voigt Hill
#
# Bulk Modulus (GPa) = 23.28031 34.31729 28.79880
# Shear Modulus (GPa) = 24.09950 28.71579 26.40765
#
# Velocity S-wave (km/s) = 3.25216 3.54999 3.40433
# Velocity P-wave (km/s) = 4.93143 5.64483 5.30015
#
# Compressibility (1/GPa) = 0.04295475
#
# Stress axis : x y z
#
# Youngs Moduli (GPa) = 95.88158 31.56483 68.73763
#
# Poissons Ratio (x) = -0.03069 0.29623
# Poissons Ratio (y) = -0.09322 0.24157
# Poissons Ratio (z) = 0.41321 0.11093
#
# Static dielectric constant tensor:
#      x y z
#    x 1.854010 0.000000 0.058460 
#    y 0.000000 1.883520 0.000000 
#    z 0.058460 0.000000 1.916090 
# 
# From -- ./inp_files/14293.got.cif
#   From: 2010.05.17/outbox.cif.g08.bks.cpg/sg4_8_cif.got.tgz:14293.got - 2010.06.03 18:43:04.
