data_PCOD9116521
_publ_section_title
;
Structure prediction by ZEFSAII (Michael W. Deem and Ramdas Pophale) SiO2 
 PCOD9116521
Probable space group: P 21
;
_chemical_formula_sum "Si O2"
_cell_formula_units_Z 14
_cell_length_a 6.200682
_cell_length_b 4.944154
_cell_length_c 23.852014
_cell_angle_alpha 90.000000
_cell_angle_beta 48.353119
_cell_angle_gamma 90.000000
_cell_volume 546.418129
_symmetry_space_group_name_H-M "P 21"
_symmetry_group_IT_number 4
_symmetry_cell_setting 'monoclinic'
loop_
_space_group_symop_operation_xyz
x,y,z
-x,1/2+y,-z
loop_
_atom_site_type_symbol
_atom_site_label
_atom_site_fract_x
_atom_site_fract_y
_atom_site_fract_z
Si Si1 0.617930 0.247060 0.509690
Si Si2 0.856333 0.851917 0.648228
Si Si3 0.640666 0.713576 0.880159
Si Si4 0.673270 0.708765 0.026885
Si Si5 0.786818 0.518068 0.239878
Si Si6 0.884801 0.854592 0.330660
Si Si7 0.188656 0.979250 0.886338
O O1 0.463348 0.437343 0.489182
O O2 0.454429 0.344775 0.593323
O O3 0.954383 0.292434 0.440206
O O4 0.517860 0.876078 0.694044
O O5 0.965817 0.631861 0.675436
O O6 0.957049 0.135739 0.656990
O O7 0.459351 0.788841 0.855140
O O8 0.962348 0.797423 0.810867
O O9 0.576451 0.420328 0.914748
O O10 0.474163 0.918840 0.951434
O O11 0.843053 0.688813 0.057177
O O12 0.908469 0.793020 0.941424
O O13 0.889427 0.737696 0.267234
O O14 0.761423 0.624961 0.180652
#
# Coordination Sequence:
#
# PCOD9116521 Si02
#       7
#     2   2   2   2   2   2   2
#     4   8  16  38  72  91 131 190 226 282 349 407
#     4  10  23  46  69 100 145 189 233 290 362 424
#     4  10  23  43  64 100 134 176 229 293 338 427
#     4  10  21  46  69  90 137 178 231 287 341 418
#     4  12  26  43  72 109 140 189 231 298 369 419
#     4  10  23  46  66 105 142 181 245 293 347 435
#     4  10  22  46  70  97 133 183 229 293 350 410
#
# _framework density 25.621403999999998
#
# number of rings (size 3 to 8) (size 9 to 14) (size 15 to 20)
#    0.857    1.143    1.429    0.857    0.000    5.714 
#    5.143    8.571    0.000    0.000    0.000    0.000 
#    0.000    0.000    0.000    0.000    0.000    0.000 
#
# Total GULP energy -78286.655332 kJ/mol
# GULP energy per Si atom -5591.903952 kJ/mol
# Density = 2.556309 g / cm^3
# Si number density = 25.621404 Si / 1000 Ang^3
#
#
#
# Elastic Constant Matrix: (Units=GPa)
#
#
# Indices 1 2 3 4 5 6 
#
# 1 75.3117 -2.7888 26.8128 0.0000 -34.6732 0.0000
# 2 -2.7888 72.8723 9.5139 0.0000 -7.8592 0.0000
# 3 26.8128 9.5139 115.8850 0.0000 -39.7739 0.0000
# 4 0.0000 0.0000 0.0000 28.1781 0.0000 -5.4873
# 5 -34.6732 -7.8592 -39.7739 0.0000 53.5324 0.0000
# 6 0.0000 0.0000 0.0000 -5.4873 0.0000 19.5517
#
#
#
# Elastic Compliance Matrix: (Units=1/GPa)
#
#
# Indices 1 2 3 4 5 6 
#
# 1 0.019244 0.002131 -0.000325 0.000000 0.012536 0.000000
# 2 0.002131 0.014210 -0.000631 0.000000 0.002998 0.000000
# 3 -0.000325 -0.000631 0.011614 0.000000 0.008326 0.000000
# 4 0.000000 0.000000 0.000000 0.037540 0.000000 0.010536
# 5 0.012536 0.002998 0.008326 0.000000 0.033426 0.000000
# 6 0.000000 0.000000 0.000000 0.010536 0.000000 0.054103
#
#
# Mechanical properties :
#
#
# Convention : Reuss Voigt Hill
#
# Bulk Modulus (GPa) = 21.08893 36.79389 28.94141
# Shear Modulus (GPa) = 27.23410 35.62119 31.42765
#
# Velocity S-wave (km/s) = 3.26382 3.73270 3.50611
# Velocity P-wave (km/s) = 4.73838 5.74188 5.26410
#
# Compressibility (1/GPa) = 0.04741823
#
# Stress axis : x y z
#
# Youngs Moduli (GPa) = 51.96345 70.37384 86.10454
#
# Poissons Ratio (x) = -0.14996 0.02798
# Poissons Ratio (y) = -0.11073 0.05431
# Poissons Ratio (z) = 0.01689 0.04439
#
# Static dielectric constant tensor:
#      x y z
#    x 2.112710 0.000000 0.052350 
#    y 0.000000 1.989850 0.000000 
#    z 0.052350 0.000000 2.046860 
# 
# From -- ./inp_files/15449.got.cif
#   From: 2010.05.17/outbox.cif.g08.bks.cpg/sg4_8_cif.got.tgz:15449.got - 2010.06.03 18:43:04.
