data_PCOD9116223
_publ_section_title
;
Structure prediction by ZEFSAII (Michael W. Deem and Ramdas Pophale) SiO2 
 PCOD9116223
Probable space group: P 21
;
_chemical_formula_sum "Si O2"
_cell_formula_units_Z 14
_cell_length_a 21.406232
_cell_length_b 5.180537
_cell_length_c 12.404314
_cell_angle_alpha 90.000000
_cell_angle_beta 156.260599
_cell_angle_gamma 90.000000
_cell_volume 553.779798
_symmetry_space_group_name_H-M "P 21"
_symmetry_group_IT_number 4
_symmetry_cell_setting 'monoclinic'
loop_
_space_group_symop_operation_xyz
x,y,z
-x,1/2+y,-z
loop_
_atom_site_type_symbol
_atom_site_label
_atom_site_fract_x
_atom_site_fract_y
_atom_site_fract_z
Si Si1 0.951841 0.227940 0.067325
Si Si2 0.734344 0.881273 0.852720
Si Si3 0.483241 0.055895 0.621790
Si Si4 0.345700 0.778236 0.915924
Si Si5 0.001350 0.673898 0.429093
Si Si6 0.482513 0.780148 0.835405
Si Si7 0.135617 0.727842 0.323206
O O1 0.033509 0.500786 0.212810
O O2 0.080354 0.003563 0.277629
O O3 0.818802 0.132482 0.937649
O O4 0.895824 0.219569 0.855058
O O5 0.580567 0.957113 0.674883
O O6 0.674185 0.697250 0.661550
O O7 0.853989 0.741857 0.122451
O O8 0.455662 0.828470 0.664220
O O9 0.595766 0.248006 0.867028
O O10 0.997663 0.388253 0.473598
O O11 0.452976 0.559869 0.030605
O O12 0.165635 0.713102 0.629048
O O13 0.610590 0.562069 0.051454
O O14 0.318401 0.702894 0.623974
#
# Coordination Sequence:
#
# PCOD9116223 Si02
#       7
#     2   2   2   2   2   2   2
#     4  10  24  38  62  98 135 182 213 290 342 406
#     4  12  26  42  68 107 148 176 239 285 357 415
#     4  10  26  38  64 106 140 179 221 294 349 409
#     4  10  21  42  65  96 133 178 231 264 351 401
#     4  12  25  46  65  95 145 199 226 276 341 439
#     4  10  21  41  69  96 128 177 229 280 335 415
#     4  10  21  41  65  92 139 173 229 273 353 401
#
# _framework density 25.280809000000001
#
# number of rings (size 3 to 8) (size 9 to 14) (size 15 to 20)
#    0.857    0.571    1.429    3.429   12.000    1.143 
#    0.000    0.000    0.000    3.429    0.000    0.000 
#    0.000    0.000    0.000    0.000    0.000    0.000 
#
# Total GULP energy -78490.693948 kJ/mol
# GULP energy per Si atom -5606.478139 kJ/mol
# Density = 2.522327 g / cm^3
# Si number density = 25.280809 Si / 1000 Ang^3
#
#
#
# Elastic Constant Matrix: (Units=GPa)
#
#
# Indices 1 2 3 4 5 6 
#
# 1 75.8910 22.6557 34.5911 0.0000 5.1002 0.0000
# 2 22.6557 82.9114 24.6262 0.0000 -4.1091 0.0000
# 3 34.5911 24.6262 143.2236 0.0000 -0.3746 0.0000
# 4 0.0000 0.0000 0.0000 30.1804 0.0000 17.4905
# 5 5.1002 -4.1091 -0.3746 0.0000 54.4523 0.0000
# 6 0.0000 0.0000 0.0000 17.4905 0.0000 25.3725
#
#
#
# Elastic Compliance Matrix: (Units=1/GPa)
#
#
# Indices 1 2 3 4 5 6 
#
# 1 0.015794 -0.003445 -0.003227 0.000000 -0.001762 0.000000
# 2 -0.003445 0.013510 -0.001488 0.000000 0.001332 0.000000
# 3 -0.003227 -0.001488 0.008018 0.000000 0.000245 0.000000
# 4 0.000000 0.000000 0.000000 0.055177 0.000000 -0.038036
# 5 -0.001762 0.001332 0.000245 0.000000 0.018632 0.000000
# 6 0.000000 0.000000 0.000000 -0.038036 0.000000 0.065633
#
#
# Mechanical properties :
#
#
# Convention : Reuss Voigt Hill
#
# Bulk Modulus (GPa) = 47.60982 51.75246 49.68114
# Shear Modulus (GPa) = 24.98946 36.67791 30.83368
#
# Velocity S-wave (km/s) = 3.14741 3.81310 3.49613
# Velocity P-wave (km/s) = 5.66406 6.31678 5.99930
#
# Compressibility (1/GPa) = 0.02100407
#
# Stress axis : x y z
#
# Youngs Moduli (GPa) = 63.31376 74.01835 124.72148
#
# Poissons Ratio (x) = 0.25497 0.40247
# Poissons Ratio (y) = 0.21810 0.18553
# Poissons Ratio (z) = 0.20431 0.11010
#
# Static dielectric constant tensor:
#      x y z
#    x 2.058280 0.000000 -0.041580 
#    y 0.000000 1.938070 0.000000 
#    z -0.041580 0.000000 1.924550 
# 
# From -- ./inp_files/14523.got.cif
#   From: 2010.05.17/outbox.cif.g08.bks.cpg/sg4_8_cif.got.tgz:14523.got - 2010.06.03 18:43:04.
