data_PCOD9116593
_publ_section_title
;
Structure prediction by ZEFSAII (Michael W. Deem and Ramdas Pophale) SiO2 
 PCOD9116593
Probable space group: P 21
;
_chemical_formula_sum "Si O2"
_cell_formula_units_Z 16
_cell_length_a 15.293547
_cell_length_b 5.384490
_cell_length_c 24.564939
_cell_angle_alpha 90.000000
_cell_angle_beta 20.678760
_cell_angle_gamma 90.000000
_cell_volume 714.332968
_symmetry_space_group_name_H-M "P 21"
_symmetry_group_IT_number 4
_symmetry_cell_setting 'monoclinic'
loop_
_space_group_symop_operation_xyz
x,y,z
-x,1/2+y,-z
loop_
_atom_site_type_symbol
_atom_site_label
_atom_site_fract_x
_atom_site_fract_y
_atom_site_fract_z
Si Si1 0.226619 0.214470 0.307703
Si Si2 0.191640 0.696570 0.613214
Si Si3 0.353946 0.524730 0.805491
Si Si4 0.043816 0.259757 0.904909
Si Si5 0.308117 0.711531 0.326458
Si Si6 0.473243 0.879601 0.650179
Si Si7 0.312949 0.504223 0.655008
Si Si8 0.643703 0.783159 0.896103
O O1 0.322170 0.453153 0.286486
O O2 0.308444 0.248743 0.197103
O O3 0.933574 0.220391 0.493810
O O4 0.301410 0.944650 0.288297
O O5 0.292449 0.543552 0.502795
O O6 0.203168 0.525157 0.659495
O O7 0.415588 0.882748 0.497833
O O8 0.921014 0.801628 0.760095
O O9 0.126702 0.476801 0.897075
O O10 0.468488 0.279862 0.763800
O O11 0.535789 0.680567 0.660609
O O12 0.232099 0.677817 0.924822
O O13 0.114768 0.347279 0.804100
O O14 0.243587 0.046799 0.801545
O O15 0.364007 0.754990 0.658839
O O16 0.508377 0.534120 0.999077
#
# Coordination Sequence:
#
# PCOD9116593 Si02
#       8
#     2   2   2   2   2   2   2   2
#     4  10  24  49  67 107 131 178 252 300 347 424
#     4  11  24  44  75 100 143 180 250 301 353 442
#     4  11  22  38  65  99 138 183 217 279 366 423
#     4  10  22  38  59 100 145 171 221 277 350 453
#     4  10  24  43  77  97 138 182 239 303 350 412
#     4  10  22  39  64 100 134 178 226 288 355 426
#     4  10  22  42  68 105 129 185 232 292 363 408
#     4  12  30  51  75 106 148 201 245 304 376 438
#
# _framework density 22.398520000000001
#
# number of rings (size 3 to 8) (size 9 to 14) (size 15 to 20)
#    0.000    1.500    2.500    0.750    8.750    3.000 
#    4.500    0.000    0.000    0.000    0.000    0.000 
#    0.000    0.000    0.000    0.000    0.000    0.000 
#
# Total GULP energy -89326.087015 kJ/mol
# GULP energy per Si atom -5582.880438 kJ/mol
# Density = 2.234754 g / cm^3
# Si number density = 22.398520 Si / 1000 Ang^3
#
#
#
# Elastic Constant Matrix: (Units=GPa)
#
#
# Indices 1 2 3 4 5 6 
#
# 1 103.8944 31.7840 61.6548 0.0000 22.8516 0.0000
# 2 31.7840 89.5233 28.7948 0.0000 13.8673 0.0000
# 3 61.6548 28.7948 81.5818 0.0000 15.4248 0.0000
# 4 0.0000 0.0000 0.0000 16.9285 0.0000 -2.8420
# 5 22.8516 13.8673 15.4248 0.0000 30.1974 0.0000
# 6 0.0000 0.0000 0.0000 -2.8420 0.0000 33.9136
#
#
#
# Elastic Compliance Matrix: (Units=1/GPa)
#
#
# Indices 1 2 3 4 5 6 
#
# 1 0.019178 -0.001641 -0.012522 0.000000 -0.007363 0.000000
# 2 -0.001641 0.013168 -0.002767 0.000000 -0.003392 0.000000
# 3 -0.012522 -0.002767 0.022875 0.000000 -0.000938 0.000000
# 4 0.000000 0.000000 0.000000 0.059915 0.000000 0.005021
# 5 -0.007363 -0.003392 -0.000938 0.000000 0.040724 0.000000
# 6 0.000000 0.000000 0.000000 0.005021 0.000000 0.029907
#
#
# Mechanical properties :
#
#
# Convention : Reuss Voigt Hill
#
# Bulk Modulus (GPa) = 46.81170 57.71853 52.26511
# Shear Modulus (GPa) = 22.05106 26.39230 24.22168
#
# Velocity S-wave (km/s) = 3.14106 3.43637 3.29203
# Velocity P-wave (km/s) = 5.83951 6.44746 6.15100
#
# Compressibility (1/GPa) = 0.02136218
#
# Stress axis : x y z
#
# Youngs Moduli (GPa) = 52.14415 75.94140 43.71581
#
# Poissons Ratio (x) = 0.12458 0.54742
# Poissons Ratio (y) = 0.08554 0.12094
# Poissons Ratio (z) = 0.65296 0.21009
#
# Static dielectric constant tensor:
#      x y z
#    x 1.853880 0.000000 0.054370 
#    y 0.000000 2.021750 0.000000 
#    z 0.054370 0.000000 1.859300 
# 
# From -- ./inp_files/15044.got.cif
#   From: 2010.05.17/outbox.cif.g08.bks.cpg/sg4_8_cif.got.tgz:15044.got - 2010.06.03 18:43:04.
