data_PCOD9116461
_publ_section_title
;
Structure prediction by ZEFSAII (Michael W. Deem and Ramdas Pophale) SiO2 
 PCOD9116461
Probable space group: P 21
;
_chemical_formula_sum "Si O2"
_cell_formula_units_Z 14
_cell_length_a 9.224050
_cell_length_b 8.695537
_cell_length_c 13.444487
_cell_angle_alpha 90.000000
_cell_angle_beta 148.190807
_cell_angle_gamma 90.000000
_cell_volume 568.393158
_symmetry_space_group_name_H-M "P 21"
_symmetry_group_IT_number 4
_symmetry_cell_setting 'monoclinic'
loop_
_space_group_symop_operation_xyz
x,y,z
-x,1/2+y,-z
loop_
_atom_site_type_symbol
_atom_site_label
_atom_site_fract_x
_atom_site_fract_y
_atom_site_fract_z
Si Si1 0.509137 0.028450 0.156888
Si Si2 0.213473 0.137763 0.814729
Si Si3 0.080017 0.801566 0.014745
Si Si4 0.793956 0.532949 0.751656
Si Si5 0.046211 0.932390 0.363533
Si Si6 0.225386 0.439917 0.498039
Si Si7 0.608341 0.630967 0.304620
O O1 0.693582 0.053707 0.362245
O O2 0.260590 0.918569 0.050667
O O3 0.729856 0.954530 0.211055
O O4 0.378393 0.158888 0.012425
O O5 0.957571 0.254578 0.665752
O O6 0.378552 0.139806 0.807035
O O7 0.059500 0.974096 0.720177
O O8 0.033815 0.904665 0.085044
O O9 0.305155 0.667781 0.167264
O O10 0.836619 0.702517 0.824369
O O11 0.485117 0.466138 0.578191
O O12 0.887867 0.533918 0.693502
O O13 0.251509 0.979929 0.570539
O O14 0.222494 0.274519 0.549864
#
# Coordination Sequence:
#
# PCOD9116461 Si02
#       7
#     2   2   2   2   2   2   2
#     4  10  23  42  68  94 135 171 230 278 332 390
#     4  12  22  41  69  98 131 178 227 280 331 399
#     4  10  23  48  65  96 136 181 219 287 337 397
#     4  10  25  43  66  98 136 173 228 272 343 405
#     4  12  24  40  68 105 126 176 237 268 336 412
#     4  10  24  46  63  94 139 177 216 285 336 396
#     4  10  21  44  65  95 139 172 223 288 329 389
#
# _framework density 24.630839000000002
#
# number of rings (size 3 to 8) (size 9 to 14) (size 15 to 20)
#    0.000    1.714    4.286    0.857    6.000    3.429 
#    2.571    0.000    0.000    0.000    0.000    0.000 
#    0.000    0.000    0.000    0.000    0.000    0.000 
#
# Total GULP energy -78121.271571 kJ/mol
# GULP energy per Si atom -5580.090827 kJ/mol
# Density = 2.457478 g / cm^3
# Si number density = 24.630839 Si / 1000 Ang^3
#
#
#
# Elastic Constant Matrix: (Units=GPa)
#
#
# Indices 1 2 3 4 5 6 
#
# 1 74.3890 -3.7309 6.3050 0.0000 -18.0277 0.0000
# 2 -3.7309 25.0965 9.0507 0.0000 -4.4528 0.0000
# 3 6.3050 9.0507 53.6652 0.0000 -27.8717 0.0000
# 4 0.0000 0.0000 0.0000 41.3136 0.0000 2.7618
# 5 -18.0277 -4.4528 -27.8717 0.0000 26.4950 0.0000
# 6 0.0000 0.0000 0.0000 2.7618 0.0000 19.1497
#
#
#
# Elastic Compliance Matrix: (Units=1/GPa)
#
#
# Indices 1 2 3 4 5 6 
#
# 1 0.018287 0.003484 0.008884 0.000000 0.022374 0.000000
# 2 0.003484 0.043100 -0.005919 0.000000 0.003388 0.000000
# 3 0.008884 -0.005919 0.046757 0.000000 0.054237 0.000000
# 4 0.000000 0.000000 0.000000 0.024441 0.000000 -0.003525
# 5 0.022374 0.003388 0.054237 0.000000 0.110591 0.000000
# 6 0.000000 0.000000 0.000000 -0.003525 0.000000 0.052728
#
#
# Mechanical properties :
#
#
# Convention : Reuss Voigt Hill
#
# Bulk Modulus (GPa) = 8.26152 19.60005 13.93078
# Shear Modulus (GPa) = 15.46304 26.82671 21.14488
#
# Velocity S-wave (km/s) = 2.50830 3.30381 2.93315
# Velocity P-wave (km/s) = 3.42785 4.74640 4.13996
#
# Compressibility (1/GPa) = 0.12104315
#
# Stress axis : x y z
#
# Youngs Moduli (GPa) = 54.68438 23.20193 21.38718
#
# Poissons Ratio (x) = -0.08084 -0.19000
# Poissons Ratio (y) = -0.19054 0.12658
# Poissons Ratio (z) = -0.48582 0.13732
#
# Static dielectric constant tensor:
#      x y z
#    x 1.959650 0.000000 -0.000940 
#    y 0.000000 2.056450 0.000000 
#    z -0.000940 0.000000 1.950430 
# 
# From -- ./inp_files/5703.got.cif
#   From: 2010.05.17/outbox.cif.g08.bks.cpg/sg4_3_cif.got.tgz:5703.got - 2010.06.03 18:43:04.
