data_PCOD9116502
_publ_section_title
;
Structure prediction by ZEFSAII (Michael W. Deem and Ramdas Pophale) SiO2 
 PCOD9116502
Probable space group: P 21
;
_chemical_formula_sum "Si O2"
_cell_formula_units_Z 14
_cell_length_a 5.525306
_cell_length_b 7.704845
_cell_length_c 15.021667
_cell_angle_alpha 90.000000
_cell_angle_beta 119.981876
_cell_angle_gamma 90.000000
_cell_volume 553.921585
_symmetry_space_group_name_H-M "P 21"
_symmetry_group_IT_number 4
_symmetry_cell_setting 'monoclinic'
loop_
_space_group_symop_operation_xyz
x,y,z
-x,1/2+y,-z
loop_
_atom_site_type_symbol
_atom_site_label
_atom_site_fract_x
_atom_site_fract_y
_atom_site_fract_z
Si Si1 0.973403 0.253140 0.065935
Si Si2 0.652296 0.691913 0.613328
Si Si3 0.665448 0.101812 0.849186
Si Si4 0.852678 0.453651 0.487080
Si Si5 0.814220 0.355175 0.221175
Si Si6 0.318498 0.249318 0.661000
Si Si7 0.533842 0.555293 0.773608
O O1 0.144366 0.431506 0.107446
O O2 0.202423 0.099552 0.116607
O O3 0.788185 0.258390 0.120845
O O4 0.795248 0.229652 0.945083
O O5 0.755753 0.587512 0.546384
O O6 0.362049 0.792605 0.546776
O O7 0.645936 0.554130 0.693065
O O8 0.870038 0.837589 0.688007
O O9 0.630553 0.175506 0.742506
O O10 0.352904 0.034293 0.816077
O O11 0.829418 0.567293 0.393113
O O12 0.158353 0.375927 0.561922
O O13 0.650252 0.228051 0.256957
O O14 0.335278 0.388332 0.747056
#
# Coordination Sequence:
#
# PCOD9116502 Si02
#       7
#     2   2   2   2   2   2   2
#     4  10  23  45  71 104 138 182 226 293 357 429
#     4  11  24  44  66  99 134 187 231 295 346 420
#     4  11  25  43  70 101 141 178 235 291 357 421
#     4  12  26  41  71  99 143 187 246 288 358 408
#     4  10  22  43  68  98 138 180 225 291 347 430
#     4  12  25  43  69 102 138 190 234 297 346 420
#     4  10  21  45  69  97 140 176 229 289 351 418
#
# _framework density 25.274335000000001
#
# number of rings (size 3 to 8) (size 9 to 14) (size 15 to 20)
#    0.000    1.143    1.429    5.143    4.000    3.429 
#    2.571    0.000    0.000    0.000    0.000    0.000 
#    0.000    0.000    0.000    0.000    0.000    0.000 
#
# Total GULP energy -77998.959283 kJ/mol
# GULP energy per Si atom -5571.354235 kJ/mol
# Density = 2.521681 g / cm^3
# Si number density = 25.274335 Si / 1000 Ang^3
#
#
#
# Elastic Constant Matrix: (Units=GPa)
#
#
# Indices 1 2 3 4 5 6 
#
# 1 49.2191 20.2611 31.3517 0.0000 4.1140 0.0000
# 2 20.2611 162.9424 72.3331 0.0000 4.0396 0.0000
# 3 31.3517 72.3331 205.0954 0.0000 21.6137 0.0000
# 4 0.0000 0.0000 0.0000 64.0983 0.0000 8.8964
# 5 4.1140 4.0396 21.6137 0.0000 26.2771 0.0000
# 6 0.0000 0.0000 0.0000 8.8964 0.0000 27.7869
#
#
#
# Elastic Compliance Matrix: (Units=1/GPa)
#
#
# Indices 1 2 3 4 5 6 
#
# 1 0.022850 -0.001556 -0.002838 0.000000 -0.001004 0.000000
# 2 -0.001556 0.007411 -0.002498 0.000000 0.001159 0.000000
# 3 -0.002838 -0.002498 0.006683 0.000000 -0.004668 0.000000
# 4 0.000000 0.000000 0.000000 0.016327 0.000000 -0.005227
# 5 -0.001004 0.001159 -0.004668 0.000000 0.041875 0.000000
# 6 0.000000 0.000000 0.000000 -0.005227 0.000000 0.037662
#
#
# Mechanical properties :
#
#
# Convention : Reuss Voigt Hill
#
# Bulk Modulus (GPa) = 43.18146 73.90541 58.54343
# Shear Modulus (GPa) = 32.40221 43.18653 37.79437
#
# Velocity S-wave (km/s) = 3.58442 4.13814 3.87119
# Velocity P-wave (km/s) = 5.85260 7.22060 6.57229
#
# Compressibility (1/GPa) = 0.02315809
#
# Stress axis : x y z
#
# Youngs Moduli (GPa) = 43.76409 134.93853 149.64379
#
# Poissons Ratio (x) = 0.21002 0.42472
# Poissons Ratio (y) = 0.06812 0.37379
# Poissons Ratio (z) = 0.12421 0.33706
#
# Static dielectric constant tensor:
#      x y z
#    x 2.092810 0.000000 -0.031550 
#    y 0.000000 2.124000 0.000000 
#    z -0.031550 0.000000 1.983620 
# 
# From -- ./inp_files/10268.got.cif
#   From: 2010.05.17/outbox.cif.g08.bks.cpg/sg4_6_cif.got.tgz:10268.got - 2010.06.03 18:43:04.
