data_PCOD9116345
_publ_section_title
;
Structure prediction by ZEFSAII (Michael W. Deem and Ramdas Pophale) SiO2 
 PCOD9116345
Probable space group: P 21
;
_chemical_formula_sum "Si O2"
_cell_formula_units_Z 14
_cell_length_a 8.707504
_cell_length_b 9.355961
_cell_length_c 11.396880
_cell_angle_alpha 90.000000
_cell_angle_beta 143.364598
_cell_angle_gamma 90.000000
_cell_volume 554.037604
_symmetry_space_group_name_H-M "P 21"
_symmetry_group_IT_number 4
_symmetry_cell_setting 'monoclinic'
loop_
_space_group_symop_operation_xyz
x,y,z
-x,1/2+y,-z
loop_
_atom_site_type_symbol
_atom_site_label
_atom_site_fract_x
_atom_site_fract_y
_atom_site_fract_z
Si Si1 0.287089 0.100690 0.108416
Si Si2 0.042340 0.999558 0.614996
Si Si3 0.465826 0.371436 0.352518
Si Si4 0.013416 0.275801 0.759906
Si Si5 0.449839 0.385219 0.593048
Si Si6 0.461524 0.873683 0.029070
Si Si7 0.477037 0.126821 0.744518
O O1 0.436859 0.218838 0.275221
O O2 0.297802 0.970867 0.209040
O O3 0.413158 0.020871 0.072557
O O4 0.061526 0.197133 0.914143
O O5 0.770341 0.922298 0.445007
O O6 0.994044 0.139709 0.662197
O O7 0.193370 0.064505 0.597791
O O8 0.239806 0.887851 0.795393
O O9 0.326382 0.406644 0.389757
O O10 0.376420 0.483574 0.199881
O O11 0.758508 0.368482 0.582731
O O12 0.266903 0.359998 0.870636
O O13 0.486254 0.218185 0.632299
O O14 0.436165 0.732747 0.097437
#
# Coordination Sequence:
#
# PCOD9116345 Si02
#       7
#     2   2   2   2   2   2   2
#     4  10  22  44  67  90 138 177 222 277 340 400
#     4  10  21  42  69  95 136 177 229 285 334 400
#     4  12  24  43  67 101 141 177 222 279 344 415
#     4  10  22  41  69 100 130 179 228 282 338 404
#     4  11  24  45  67 100 138 182 226 281 344 411
#     4   9  21  42  65 102 131 171 234 281 332 408
#     4  10  24  39  66 100 130 179 227 275 340 398
#
# _framework density 25.269043
#
# number of rings (size 3 to 8) (size 9 to 14) (size 15 to 20)
#    0.000    1.714    1.429    1.714    6.000    1.143 
#   15.429    1.429    0.000    0.000    0.000    0.000 
#    0.000    0.000    0.000    0.000    0.000    0.000 
#
# Total GULP energy -78040.730635 kJ/mol
# GULP energy per Si atom -5574.337903 kJ/mol
# Density = 2.521153 g / cm^3
# Si number density = 25.269043 Si / 1000 Ang^3
#
#
#
# Elastic Constant Matrix: (Units=GPa)
#
#
# Indices 1 2 3 4 5 6 
#
# 1 60.1945 39.3523 28.3800 0.0000 -9.6094 0.0000
# 2 39.3523 115.5444 17.9629 0.0000 -8.4309 0.0000
# 3 28.3800 17.9629 74.6833 0.0000 -4.1853 0.0000
# 4 0.0000 0.0000 0.0000 39.5806 0.0000 -3.4204
# 5 -9.6094 -8.4309 -4.1853 0.0000 38.5587 0.0000
# 6 0.0000 0.0000 0.0000 -3.4204 0.0000 19.5573
#
#
#
# Elastic Compliance Matrix: (Units=1/GPa)
#
#
# Indices 1 2 3 4 5 6 
#
# 1 0.025645 -0.007235 -0.007783 0.000000 0.003964 0.000000
# 2 -0.007235 0.011150 0.000104 0.000000 0.000646 0.000000
# 3 -0.007783 0.000104 0.016314 0.000000 -0.000146 0.000000
# 4 0.000000 0.000000 0.000000 0.025653 0.000000 0.004486
# 5 0.003964 0.000646 -0.000146 0.000000 0.027048 0.000000
# 6 0.000000 0.000000 0.000000 0.004486 0.000000 0.051916
#
#
# Mechanical properties :
#
#
# Convention : Reuss Voigt Hill
#
# Bulk Modulus (GPa) = 42.95374 46.86806 44.91090
# Shear Modulus (GPa) = 25.59977 30.52115 28.06046
#
# Velocity S-wave (km/s) = 3.18636 3.47918 3.33598
# Velocity P-wave (km/s) = 5.52925 5.89300 5.71402
#
# Compressibility (1/GPa) = 0.02328086
#
# Stress axis : x y z
#
# Youngs Moduli (GPa) = 38.99401 89.68777 61.29610
#
# Poissons Ratio (x) = 0.64889 0.47706
# Poissons Ratio (y) = 0.28212 -0.00636
# Poissons Ratio (z) = 0.30349 -0.00931
#
# Static dielectric constant tensor:
#      x y z
#    x 2.150750 0.000000 0.045590 
#    y 0.000000 1.924020 0.000000 
#    z 0.045590 0.000000 2.002700 
# 
# From -- ./inp_files/11099.got.cif
#   From: 2010.05.17/outbox.cif.g08.bks.cpg/sg4_6_cif.got.tgz:11099.got - 2010.06.03 18:43:04.
