data_PCOD9116940
_publ_section_title
;
Structure prediction by ZEFSAII (Michael W. Deem and Ramdas Pophale) SiO2 
 PCOD9116940
Probable space group: P 21
;
_chemical_formula_sum "Si O2"
_cell_formula_units_Z 10
_cell_length_a 7.649984
_cell_length_b 7.036170
_cell_length_c 11.941978
_cell_angle_alpha 90.000000
_cell_angle_beta 46.807321
_cell_angle_gamma 90.000000
_cell_volume 468.634286
_symmetry_space_group_name_H-M "P 21"
_symmetry_group_IT_number 4
_symmetry_cell_setting 'monoclinic'
loop_
_space_group_symop_operation_xyz
x,y,z
-x,1/2+y,-z
loop_
_atom_site_type_symbol
_atom_site_label
_atom_site_fract_x
_atom_site_fract_y
_atom_site_fract_z
Si Si1 0.188145 0.236580 0.666521
Si Si2 0.661122 0.899811 0.071979
Si Si3 0.485901 0.038685 0.369648
Si Si4 0.789210 0.403436 0.159204
Si Si5 0.315097 0.822892 0.029293
O O1 0.382637 0.402245 0.599167
O O2 0.648007 0.224031 0.272242
O O3 0.930229 0.335898 0.793114
O O4 0.242694 0.121714 0.528721
O O5 0.488858 0.912379 0.255459
O O6 0.537531 0.819647 0.015399
O O7 0.933159 0.840665 0.979930
O O8 0.692664 0.118833 0.023919
O O9 0.216810 0.078909 0.752307
O O10 0.684090 0.455360 0.081819
#
# Coordination Sequence:
#
# PCOD9116940 Si02
#       5
#     2   2   2   2   2
#     4  11  22  40  65  90 127 166 205 253 313 367
#     4  10  23  39  65  93 123 159 214 257 306 364
#     4  11  22  40  65  90 127 166 205 253 313 367
#     4  10  22  42  64  94 116 168 214 254 308 360
#     4  10  23  39  65  93 123 159 214 257 306 364
#
# _framework density 21.338602000000002
#
# number of rings (size 3 to 8) (size 9 to 14) (size 15 to 20)
#    0.000    1.600    4.000    0.000    5.600    0.000 
#    0.000   10.000    0.000    0.000    0.000    0.000 
#    0.000    0.000    0.000    0.000    0.000    0.000 
#
# Total GULP energy -55759.780990 kJ/mol
# GULP energy per Si atom -5575.978099 kJ/mol
# Density = 2.129003 g / cm^3
# Si number density = 21.338602 Si / 1000 Ang^3
#
#
#
# Elastic Constant Matrix: (Units=GPa)
#
#
# Indices 1 2 3 4 5 6 
#
# 1 91.6685 -0.9396 23.5334 0.0000 17.3002 0.0000
# 2 -0.9396 41.4533 1.4915 0.0000 4.4997 0.0000
# 3 23.5334 1.4915 113.1589 0.0000 16.8001 0.0000
# 4 0.0000 0.0000 0.0000 34.2757 0.0000 0.8593
# 5 17.3002 4.4997 16.8001 0.0000 16.8483 0.0000
# 6 0.0000 0.0000 0.0000 0.8593 0.0000 17.5219
#
#
#
# Elastic Compliance Matrix: (Units=1/GPa)
#
#
# Indices 1 2 3 4 5 6 
#
# 1 0.013740 0.001836 -0.000838 0.000000 -0.013763 0.000000
# 2 0.001836 0.025147 0.000662 0.000000 -0.009261 0.000000
# 3 -0.000838 0.000662 0.010448 0.000000 -0.009734 0.000000
# 4 0.000000 0.000000 0.000000 0.029211 0.000000 -0.001432
# 5 -0.013763 -0.009261 -0.009734 0.000000 0.085665 0.000000
# 6 0.000000 0.000000 0.000000 -0.001432 0.000000 0.057142
#
#
# Mechanical properties :
#
#
# Convention : Reuss Voigt Hill
#
# Bulk Modulus (GPa) = 18.99241 32.71681 25.85461
# Shear Modulus (GPa) = 21.22371 28.54220 24.88295
#
# Velocity S-wave (km/s) = 3.15717 3.66127 3.41853
# Velocity P-wave (km/s) = 4.71276 5.76530 5.26540
#
# Compressibility (1/GPa) = 0.05265260
#
# Stress axis : x y z
#
# Youngs Moduli (GPa) = 72.77818 39.76683 95.71288
#
# Poissons Ratio (x) = -0.07300 0.08025
# Poissons Ratio (y) = -0.13359 -0.06333
# Poissons Ratio (z) = 0.06102 -0.02631
#
# Static dielectric constant tensor:
#      x y z
#    x 1.821410 0.000000 0.036480 
#    y 0.000000 1.845340 0.000000 
#    z 0.036480 0.000000 1.826010 
# 
# From -- ./inp_files/1296.got.cif
#   From: 2010.05.17/outbox.cif.g08.bks.cpg/sg4_1_cif.got.tgz:1296.got - 2010.06.03 18:43:04.
