data_PCOD9116444
_publ_section_title
;
Structure prediction by ZEFSAII (Michael W. Deem and Ramdas Pophale) SiO2 
 PCOD9116444
Probable space group: P 21
;
_chemical_formula_sum "Si O2"
_cell_formula_units_Z 16
_cell_length_a 5.725203
_cell_length_b 12.626115
_cell_length_c 9.437641
_cell_angle_alpha 90.000000
_cell_angle_beta 80.955011
_cell_angle_gamma 90.000000
_cell_volume 673.736169
_symmetry_space_group_name_H-M "P 21"
_symmetry_group_IT_number 4
_symmetry_cell_setting 'monoclinic'
loop_
_space_group_symop_operation_xyz
x,y,z
-x,1/2+y,-z
loop_
_atom_site_type_symbol
_atom_site_label
_atom_site_fract_x
_atom_site_fract_y
_atom_site_fract_z
Si Si1 0.155139 0.557150 0.097184
Si Si2 0.687840 0.587349 0.959668
Si Si3 0.876751 0.341981 0.503769
Si Si4 0.383065 0.033282 0.570445
Si Si5 0.418192 0.397944 0.911984
Si Si6 0.185651 0.485597 0.650877
Si Si7 0.840968 0.668142 0.661154
Si Si8 0.607884 0.193607 0.738042
O O1 0.155979 0.622814 0.245015
O O2 0.416769 0.604670 0.035132
O O3 0.228611 0.433893 0.054010
O O4 0.927371 0.591323 0.029016
O O5 0.658606 0.462295 0.923270
O O6 0.707586 0.661887 0.821396
O O7 0.779242 0.430141 0.405184
O O8 0.685921 0.262512 0.591265
O O9 0.981441 0.404494 0.627975
O O10 0.082127 0.278785 0.407258
O O11 0.633494 0.988083 0.495651
O O12 0.293132 0.103904 0.448188
O O13 0.420449 0.105946 0.702169
O O14 0.309907 0.452601 0.782668
O O15 0.485827 0.281048 0.853517
O O16 0.077256 0.601489 0.672970
#
# Coordination Sequence:
#
# PCOD9116444 Si02
#       8
#     2   2   2   2   2   2   2   2
#     4  10  25  44  67 103 136 183 249 293 339 439
#     4  10  21  45  68  98 137 185 246 297 343 432
#     4  11  25  37  69 107 140 187 234 300 380 437
#     4  11  23  42  63 107 139 175 245 294 363 452
#     4  10  21  43  73  95 133 192 240 292 351 424
#     4  11  19  40  65  99 136 176 240 292 355 447
#     4  11  20  38  68  98 136 189 227 299 371 422
#     4  12  24  45  71 103 143 195 233 301 374 425
#
# _framework density 23.748166999999999
#
# number of rings (size 3 to 8) (size 9 to 14) (size 15 to 20)
#    0.750    0.500    5.000    1.500    0.000    2.000 
#    2.250    0.000    0.000    0.000    0.000    0.000 
#    0.000    0.000    0.000    0.000    0.000    0.000 
#
# Total GULP energy -89160.541956 kJ/mol
# GULP energy per Si atom -5572.533872 kJ/mol
# Density = 2.369412 g / cm^3
# Si number density = 23.748167 Si / 1000 Ang^3
#
#
#
# Elastic Constant Matrix: (Units=GPa)
#
#
# Indices 1 2 3 4 5 6 
#
# 1 75.0058 1.1979 24.8748 0.0000 9.8057 0.0000
# 2 1.1979 69.7144 22.3582 0.0000 2.5878 0.0000
# 3 24.8748 22.3582 49.4065 0.0000 29.0155 0.0000
# 4 0.0000 0.0000 0.0000 30.2184 0.0000 14.9155
# 5 9.8057 2.5878 29.0155 0.0000 29.8354 0.0000
# 6 0.0000 0.0000 0.0000 14.9155 0.0000 19.9564
#
#
#
# Elastic Compliance Matrix: (Units=1/GPa)
#
#
# Indices 1 2 3 4 5 6 
#
# 1 0.017599 0.004845 -0.017278 0.000000 0.010598 0.000000
# 2 0.004845 0.020977 -0.023151 0.000000 0.019103 0.000000
# 3 -0.017278 -0.023151 0.081382 0.000000 -0.071459 0.000000
# 4 0.000000 0.000000 0.000000 0.052437 0.000000 -0.039191
# 5 0.010598 0.019103 -0.071459 0.000000 0.097872 0.000000
# 6 0.000000 0.000000 0.000000 -0.039191 0.000000 0.079401
#
#
# Mechanical properties :
#
#
# Convention : Reuss Voigt Hill
#
# Bulk Modulus (GPa) = 20.49524 32.33204 26.41364
# Shear Modulus (GPa) = 11.43909 25.71510 18.57710
#
# Velocity S-wave (km/s) = 2.19711 3.29420 2.79991
# Velocity P-wave (km/s) = 3.88399 5.30218 4.64750
#
# Compressibility (1/GPa) = 0.04879181
#
# Stress axis : x y z
#
# Youngs Moduli (GPa) = 56.82038 47.67217 12.28773
#
# Poissons Ratio (x) = -0.23099 0.21230
# Poissons Ratio (y) = -0.27531 0.28447
# Poissons Ratio (z) = 0.98172 1.10364
#
# Static dielectric constant tensor:
#      x y z
#    x 1.917240 0.000000 -0.086900 
#    y 0.000000 1.989820 0.000000 
#    z -0.086900 0.000000 2.114750 
# 
# From -- ./inp_files/10532.got.cif
#   From: 2010.05.17/outbox.cif.g08.bks.cpg/sg4_6_cif.got.tgz:10532.got - 2010.06.03 18:43:04.
