data_PCOD9116387
_publ_section_title
;
Structure prediction by ZEFSAII (Michael W. Deem and Ramdas Pophale) SiO2 
 PCOD9116387
Probable space group: P 21
;
_chemical_formula_sum "Si O2"
_cell_formula_units_Z 14
_cell_length_a 16.538416
_cell_length_b 7.058516
_cell_length_c 10.008224
_cell_angle_alpha 90.000000
_cell_angle_beta 28.690154
_cell_angle_gamma 90.000000
_cell_volume 560.881859
_symmetry_space_group_name_H-M "P 21"
_symmetry_group_IT_number 4
_symmetry_cell_setting 'monoclinic'
loop_
_space_group_symop_operation_xyz
x,y,z
-x,1/2+y,-z
loop_
_atom_site_type_symbol
_atom_site_label
_atom_site_fract_x
_atom_site_fract_y
_atom_site_fract_z
Si Si1 0.188155 0.686270 0.795091
Si Si2 0.953991 0.094747 0.565319
Si Si3 0.729798 0.926767 0.094695
Si Si4 0.908292 0.113411 0.337503
Si Si5 0.644739 0.583963 0.409490
Si Si6 0.763653 0.422924 0.717180
Si Si7 0.387023 0.411360 0.337312
O O1 0.162478 0.567013 0.965529
O O2 0.048725 0.651562 0.881037
O O3 0.629423 0.711819 0.564788
O O4 0.235090 0.901530 0.755155
O O5 0.002503 0.069744 0.338755
O O6 0.828240 0.274289 0.738309
O O7 0.835194 0.934557 0.805540
O O8 0.118375 0.097606 0.419326
O O9 0.543273 0.010181 0.347865
O O10 0.707904 0.729360 0.203997
O O11 0.814680 0.311661 0.509958
O O12 0.769296 0.947579 0.532471
O O13 0.647479 0.079486 0.505551
O O14 0.566207 0.444750 0.012166
#
# Coordination Sequence:
#
# PCOD9116387 Si02
#       7
#     2   2   2   2   2   2   2
#     4   9  21  39  66  98 131 162 226 286 331 387
#     4  10  23  44  63  95 141 172 227 261 345 417
#     4  11  21  37  63 100 133 171 223 279 332 406
#     4   8  21  43  62 100 130 171 228 274 337 390
#     4  11  19  37  67  99 130 173 218 286 336 383
#     4  10  21  43  64  95 136 180 217 269 340 409
#     4   9  20  41  67  99 133 161 229 283 323 392
#
# _framework density 24.960691000000001
#
# number of rings (size 3 to 8) (size 9 to 14) (size 15 to 20)
#    1.714    0.571    2.857    0.000    0.000    3.429 
#    7.714    0.000    6.286    0.000    0.000    0.000 
#    0.000    0.000    0.000    0.000    0.000    0.000 
#
# Total GULP energy -78091.650578 kJ/mol
# GULP energy per Si atom -5577.975041 kJ/mol
# Density = 2.490388 g / cm^3
# Si number density = 24.960691 Si / 1000 Ang^3
#
#
#
# Elastic Constant Matrix: (Units=GPa)
#
#
# Indices 1 2 3 4 5 6 
#
# 1 101.4967 48.9167 23.3741 0.0000 7.9392 0.0000
# 2 48.9167 136.4018 24.7821 0.0000 0.0713 0.0000
# 3 23.3741 24.7821 61.3204 0.0000 12.3949 0.0000
# 4 0.0000 0.0000 0.0000 21.3037 0.0000 -9.4444
# 5 7.9392 0.0713 12.3949 0.0000 16.7071 0.0000
# 6 0.0000 0.0000 0.0000 -9.4444 0.0000 51.5883
#
#
#
# Elastic Compliance Matrix: (Units=1/GPa)
#
#
# Indices 1 2 3 4 5 6 
#
# 1 0.012715 -0.004140 -0.002301 0.000000 -0.004317 0.000000
# 2 -0.004140 0.009369 -0.003056 0.000000 0.004195 0.000000
# 3 -0.002301 -0.003056 0.021407 0.000000 -0.014775 0.000000
# 4 0.000000 0.000000 0.000000 0.051086 0.000000 0.009353
# 5 -0.004317 0.004195 -0.014775 0.000000 0.072850 0.000000
# 6 0.000000 0.000000 0.000000 0.009353 0.000000 0.021096
#
#
# Mechanical properties :
#
#
# Convention : Reuss Voigt Hill
#
# Bulk Modulus (GPa) = 40.82176 54.81831 47.82003
# Shear Modulus (GPa) = 23.18210 31.39620 27.28915
#
# Velocity S-wave (km/s) = 3.05084 3.55043 3.31007
# Velocity P-wave (km/s) = 5.36657 6.23032 5.81451
#
# Compressibility (1/GPa) = 0.02449674
#
# Stress axis : x y z
#
# Youngs Moduli (GPa) = 78.64531 106.73554 46.71455
#
# Poissons Ratio (x) = 0.44185 0.10749
# Poissons Ratio (y) = 0.32557 0.14277
# Poissons Ratio (z) = 0.18097 0.32622
#
# Static dielectric constant tensor:
#      x y z
#    x 1.981740 0.000000 -0.020250 
#    y 0.000000 2.054400 0.000000 
#    z -0.020250 0.000000 1.991660 
# 
# From -- ./inp_files/12869.got.cif
#   From: 2010.05.17/outbox.cif.g08.bks.cpg/sg4_7_cif.got.tgz:12869.got - 2010.06.03 18:43:04.
