data_PCOD9116131
_publ_section_title
;
Structure prediction by ZEFSAII (Michael W. Deem and Ramdas Pophale) SiO2 
 PCOD9116131
Probable space group: P 21
;
_chemical_formula_sum "Si O2"
_cell_formula_units_Z 14
_cell_length_a 11.607261
_cell_length_b 10.426446
_cell_length_c 9.332626
_cell_angle_alpha 90.000000
_cell_angle_beta 37.581362
_cell_angle_gamma 90.000000
_cell_volume 688.841929
_symmetry_space_group_name_H-M "P 21"
_symmetry_group_IT_number 4
_symmetry_cell_setting 'monoclinic'
loop_
_space_group_symop_operation_xyz
x,y,z
-x,1/2+y,-z
loop_
_atom_site_type_symbol
_atom_site_label
_atom_site_fract_x
_atom_site_fract_y
_atom_site_fract_z
Si Si1 0.913962 0.822530 0.732011
Si Si2 0.488309 0.191690 0.369767
Si Si3 0.483276 0.437218 0.207563
Si Si4 0.388488 0.207879 0.798991
Si Si5 0.651640 0.299854 0.775579
Si Si6 0.836578 0.756531 0.501551
Si Si7 0.781116 0.111775 0.883926
O O1 0.823590 0.746060 0.685786
O O2 0.137189 0.815868 0.490263
O O3 0.861440 0.971956 0.773072
O O4 0.824096 0.754792 0.959015
O O5 0.558676 0.330419 0.244650
O O6 0.437990 0.200771 0.583960
O O7 0.302392 0.168869 0.455332
O O8 0.651577 0.099817 0.152503
O O9 0.552686 0.571462 0.193965
O O10 0.258314 0.398296 0.431062
O O11 0.573122 0.403579 0.965458
O O12 0.517297 0.299166 0.770830
O O13 0.664003 0.171198 0.864641
O O14 0.049049 0.714380 0.258176
#
# Coordination Sequence:
#
# PCOD9116131 Si02
#       7
#     2   2   2   2   2   2   2
#     4  11  23  36  65  96 122 163 216 262 316 375
#     4   9  23  42  62  92 125 176 201 259 325 374
#     4   9  21  43  62  90 129 167 206 263 312 375
#     4  12  23  41  65  94 131 164 217 258 323 384
#     4  10  23  38  62  99 117 162 214 262 321 360
#     4   9  20  42  61  89 129 161 210 261 321 366
#     4  10  21  40  65  90 127 165 210 263 312 382
#
# _framework density 20.323965000000001
#
# number of rings (size 3 to 8) (size 9 to 14) (size 15 to 20)
#    0.857    1.143    1.429    0.857    6.000    2.286 
#    2.571    0.000    0.000    0.000    0.000    0.000 
#    0.000    0.000    0.000    0.000    0.000    0.000 
#
# Total GULP energy -77953.331356 kJ/mol
# GULP energy per Si atom -5568.095097 kJ/mol
# Density = 2.027771 g / cm^3
# Si number density = 20.323965 Si / 1000 Ang^3
#
#
#
# Elastic Constant Matrix: (Units=GPa)
#
#
# Indices 1 2 3 4 5 6 
#
# 1 68.0387 16.1459 71.4955 0.0000 2.4869 0.0000
# 2 16.1459 48.8701 25.9988 0.0000 0.7903 0.0000
# 3 71.4955 25.9988 155.8787 0.0000 12.4490 0.0000
# 4 0.0000 0.0000 0.0000 13.0384 0.0000 -1.0266
# 5 2.4869 0.7903 12.4490 0.0000 29.0033 0.0000
# 6 0.0000 0.0000 0.0000 -1.0266 0.0000 12.7562
#
#
#
# Elastic Compliance Matrix: (Units=1/GPa)
#
#
# Indices 1 2 3 4 5 6 
#
# 1 0.028983 -0.002655 -0.013107 0.000000 0.003213 0.000000
# 2 -0.002655 0.022728 -0.002632 0.000000 0.000738 0.000000
# 3 -0.013107 -0.002632 0.013224 0.000000 -0.004480 0.000000
# 4 0.000000 0.000000 0.000000 0.077186 0.000000 0.006212
# 5 0.003213 0.000738 -0.004480 0.000000 0.036106 0.000000
# 6 0.000000 0.000000 0.000000 0.006212 0.000000 0.078893
#
#
# Mechanical properties :
#
#
# Convention : Reuss Voigt Hill
#
# Bulk Modulus (GPa) = 35.52786 55.56310 45.54548
# Shear Modulus (GPa) = 16.48583 21.56939 19.02761
#
# Velocity S-wave (km/s) = 2.85116 3.26126 3.06308
# Velocity P-wave (km/s) = 5.32518 6.44819 5.91341
#
# Compressibility (1/GPa) = 0.02814693
#
# Stress axis : x y z
#
# Youngs Moduli (GPa) = 34.50248 43.99903 75.62028
#
# Poissons Ratio (x) = 0.11680 0.99119
# Poissons Ratio (y) = 0.09159 0.19904
# Poissons Ratio (z) = 0.45224 0.11581
#
# Static dielectric constant tensor:
#      x y z
#    x 1.746210 0.000000 -0.042080 
#    y 0.000000 1.797370 0.000000 
#    z -0.042080 0.000000 1.740030 
# 
# From -- ./inp_files/8126.got.cif
#   From: 2010.05.17/outbox.cif.g08.bks.cpg/sg4_5_cif.got.tgz:8126.got - 2010.06.03 18:43:04.
