data_PCOD9116349
_publ_section_title
;
Structure prediction by ZEFSAII (Michael W. Deem and Ramdas Pophale) SiO2 
 PCOD9116349
Probable space group: P 21
;
_chemical_formula_sum "Si O2"
_cell_formula_units_Z 16
_cell_length_a 14.333903
_cell_length_b 10.820842
_cell_length_c 6.090565
_cell_angle_alpha 90.000000
_cell_angle_beta 47.562866
_cell_angle_gamma 90.000000
_cell_volume 697.188395
_symmetry_space_group_name_H-M "P 21"
_symmetry_group_IT_number 4
_symmetry_cell_setting 'monoclinic'
loop_
_space_group_symop_operation_xyz
x,y,z
-x,1/2+y,-z
loop_
_atom_site_type_symbol
_atom_site_label
_atom_site_fract_x
_atom_site_fract_y
_atom_site_fract_z
Si Si1 0.964676 0.071660 0.238414
Si Si2 0.014080 0.287824 0.806392
Si Si3 0.594514 0.389571 0.090042
Si Si4 0.787428 0.180342 0.876398
Si Si5 0.228060 0.078854 0.940271
Si Si6 0.706930 0.776896 0.844909
Si Si7 0.607795 0.575931 0.693506
Si Si8 0.396190 0.493155 0.725779
O O1 0.845591 0.106416 0.577646
O O2 0.976985 0.931467 0.125931
O O3 0.989822 0.184060 0.030399
O O4 0.081752 0.072663 0.221607
O O5 0.153185 0.274299 0.479353
O O6 0.898389 0.260026 0.818667
O O7 0.695567 0.475843 0.055022
O O8 0.463649 0.411174 0.430602
O O9 0.670839 0.262640 0.973367
O O10 0.583105 0.454238 0.874186
O O11 0.720411 0.082663 0.150282
O O12 0.256590 0.064247 0.638871
O O13 0.279822 0.207549 0.944226
O O14 0.614412 0.696007 0.837044
O O15 0.654540 0.908017 0.996966
O O16 0.508166 0.574943 0.654651
#
# Coordination Sequence:
#
# PCOD9116349 Si02
#       8
#     2   2   2   2   2   2   2   2
#     4  12  26  45  72 110 148 195 245 304 376 449
#     4  12  27  47  74 110 150 191 248 309 373 447
#     4  10  25  44  71  98 143 185 237 303 362 437
#     4  12  27  46  73 108 146 188 246 306 374 440
#     4  10  21  42  69  98 135 185 232 291 372 430
#     4  11  23  44  71 100 142 187 240 302 369 433
#     4  10  24  44  70 100 135 192 237 291 367 438
#     4  11  27  44  68 106 141 189 247 296 371 438
#
# _framework density 22.949323
#
# number of rings (size 3 to 8) (size 9 to 14) (size 15 to 20)
#    0.000    1.000    5.000    0.000    8.750    3.000 
#    0.000    0.000    0.000    0.000    0.000    0.000 
#    0.000    0.000    0.000    0.000    0.000    0.000 
#
# Total GULP energy -89257.640098 kJ/mol
# GULP energy per Si atom -5578.602506 kJ/mol
# Density = 2.289709 g / cm^3
# Si number density = 22.949323 Si / 1000 Ang^3
#
#
#
# Elastic Constant Matrix: (Units=GPa)
#
#
# Indices 1 2 3 4 5 6 
#
# 1 29.4639 24.4533 35.6100 0.0000 -11.7015 0.0000
# 2 24.4533 130.1903 55.0372 0.0000 -18.5509 0.0000
# 3 35.6100 55.0372 131.7221 0.0000 -26.3071 0.0000
# 4 0.0000 0.0000 0.0000 41.6439 0.0000 -13.7146
# 5 -11.7015 -18.5509 -26.3071 0.0000 27.4682 0.0000
# 6 0.0000 0.0000 0.0000 -13.7146 0.0000 22.9831
#
#
#
# Elastic Compliance Matrix: (Units=1/GPa)
#
#
# Indices 1 2 3 4 5 6 
#
# 1 0.054719 -0.004191 -0.011069 0.000000 0.009879 0.000000
# 2 -0.004191 0.009879 -0.002496 0.000000 0.002496 0.000000
# 3 -0.011069 -0.002496 0.012796 0.000000 0.005854 0.000000
# 4 0.000000 0.000000 0.000000 0.029886 0.000000 0.017834
# 5 0.009879 0.002496 0.005854 0.000000 0.047907 0.000000
# 6 0.000000 0.000000 0.000000 0.017834 0.000000 0.054152
#
#
# Mechanical properties :
#
#
# Convention : Reuss Voigt Hill
#
# Bulk Modulus (GPa) = 23.87620 57.95306 40.91463
# Shear Modulus (GPa) = 19.31899 30.17076 24.74488
#
# Velocity S-wave (km/s) = 2.90455 3.62977 3.28722
# Velocity P-wave (km/s) = 4.65564 6.54786 5.68108
#
# Compressibility (1/GPa) = 0.04188271
#
# Stress axis : x y z
#
# Youngs Moduli (GPa) = 18.27512 101.22298 78.14734
#
# Poissons Ratio (x) = 0.42420 0.86500
# Poissons Ratio (y) = 0.07659 0.19509
# Poissons Ratio (z) = 0.20228 0.25269
#
# Static dielectric constant tensor:
#      x y z
#    x 1.908640 0.000000 0.024800 
#    y 0.000000 1.923980 0.000000 
#    z 0.024800 0.000000 1.850900 
# 
# From -- ./inp_files/3768.got.cif
#   From: 2010.05.17/outbox.cif.g08.bks.cpg/sg4_2_cif.got.tgz:3768.got - 2010.06.03 18:43:04.
