data_PCOD9116678
_publ_section_title
;
Structure prediction by ZEFSAII (Michael W. Deem and Ramdas Pophale) SiO2 
 PCOD9116678
Probable space group: P 21
;
_chemical_formula_sum "Si O2"
_cell_formula_units_Z 14
_cell_length_a 9.345656
_cell_length_b 9.973298
_cell_length_c 11.378194
_cell_angle_alpha 90.000000
_cell_angle_beta 36.456639
_cell_angle_gamma 90.000000
_cell_volume 630.180549
_symmetry_space_group_name_H-M "P 21"
_symmetry_group_IT_number 4
_symmetry_cell_setting 'monoclinic'
loop_
_space_group_symop_operation_xyz
x,y,z
-x,1/2+y,-z
loop_
_atom_site_type_symbol
_atom_site_label
_atom_site_fract_x
_atom_site_fract_y
_atom_site_fract_z
Si Si1 0.852895 0.557050 0.054686
Si Si2 0.952423 0.745088 0.627857
Si Si3 0.444494 0.334885 0.293358
Si Si4 0.288487 0.740361 0.182374
Si Si5 0.010364 0.460564 0.709632
Si Si6 0.759802 0.086430 0.014507
Si Si7 0.751643 0.803465 0.984827
O O1 0.811138 0.714041 0.056716
O O2 0.023069 0.508819 0.834935
O O3 0.617743 0.463960 0.196212
O O4 0.992318 0.549799 0.084333
O O5 0.717158 0.805515 0.716441
O O6 0.962904 0.817768 0.748199
O O7 0.151294 0.758037 0.395432
O O8 0.982142 0.588384 0.643469
O O9 0.232985 0.364604 0.527984
O O10 0.615913 0.202653 0.179484
O O11 0.205470 0.630701 0.143222
O O12 0.232160 0.875429 0.148120
O O13 0.561072 0.714792 0.037767
O O14 0.629587 0.943270 0.096156
#
# Coordination Sequence:
#
# PCOD9116678 Si02
#       7
#     2   2   2   2   2   2   2
#     4  11  24  46  65  96 141 180 225 278 345 414
#     4  10  22  39  69  99 129 166 227 280 340 394
#     4  11  22  43  69  96 136 177 222 282 342 401
#     4  11  23  38  68  95 130 168 227 280 337 390
#     4  10  22  42  68  97 134 176 222 287 335 405
#     4  12  25  43  68 100 136 182 226 282 344 409
#     4  11  24  41  67  97 132 175 227 283 341 403
#
# _framework density 22.215855000000001
#
# number of rings (size 3 to 8) (size 9 to 14) (size 15 to 20)
#    0.000    1.143    2.857    2.571    8.000    0.000 
#    5.143    2.857    0.000    0.000    0.000    0.000 
#    0.000    0.000    0.000    0.000    0.000    0.000 
#
# Total GULP energy -77998.430886 kJ/mol
# GULP energy per Si atom -5571.316492 kJ/mol
# Density = 2.216529 g / cm^3
# Si number density = 22.215855 Si / 1000 Ang^3
#
#
#
# Elastic Constant Matrix: (Units=GPa)
#
#
# Indices 1 2 3 4 5 6 
#
# 1 78.3500 4.3846 9.0013 0.0000 4.0290 0.0000
# 2 4.3846 107.6901 11.5835 0.0000 3.2976 0.0000
# 3 9.0013 11.5835 78.5626 0.0000 -5.7335 0.0000
# 4 0.0000 0.0000 0.0000 18.4168 0.0000 -7.9003
# 5 4.0290 3.2976 -5.7335 0.0000 13.6099 0.0000
# 6 0.0000 0.0000 0.0000 -7.9003 0.0000 26.0383
#
#
#
# Elastic Compliance Matrix: (Units=1/GPa)
#
#
# Indices 1 2 3 4 5 6 
#
# 1 0.013222 -0.000200 -0.001824 0.000000 -0.004634 0.000000
# 2 -0.000200 0.009556 -0.001600 0.000000 -0.002930 0.000000
# 3 -0.001824 -0.001600 0.013661 0.000000 0.006683 0.000000
# 4 0.000000 0.000000 0.000000 0.062423 0.000000 0.018940
# 5 -0.004634 -0.002930 0.006683 0.000000 0.078373 0.000000
# 6 0.000000 0.000000 0.000000 0.018940 0.000000 0.044151
#
#
# Mechanical properties :
#
#
# Convention : Reuss Voigt Hill
#
# Bulk Modulus (GPa) = 34.25606 34.94904 34.60255
# Shear Modulus (GPa) = 20.97627 27.58855 24.28241
#
# Velocity S-wave (km/s) = 3.07612 3.52780 3.30967
# Velocity P-wave (km/s) = 5.29810 5.68855 5.49679
#
# Compressibility (1/GPa) = 0.02919191
#
# Stress axis : x y z
#
# Youngs Moduli (GPa) = 75.63008 104.64785 73.19993
#
# Poissons Ratio (x) = 0.02096 0.13349
# Poissons Ratio (y) = 0.01515 0.11711
# Poissons Ratio (z) = 0.13792 0.16742
#
# Static dielectric constant tensor:
#      x y z
#    x 1.826610 0.000000 0.018300 
#    y 0.000000 1.869780 0.000000 
#    z 0.018300 0.000000 1.903990 
# 
# From -- ./inp_files/5804.got.cif
#   From: 2010.05.17/outbox.cif.g08.bks.cpg/sg4_3_cif.got.tgz:5804.got - 2010.06.03 18:43:04.
