data_PCOD9116580
_publ_section_title
;
Structure prediction by ZEFSAII (Michael W. Deem and Ramdas Pophale) SiO2 
 PCOD9116580
Probable space group: P 21
;
_chemical_formula_sum "Si O2"
_cell_formula_units_Z 14
_cell_length_a 7.113709
_cell_length_b 5.642220
_cell_length_c 12.818261
_cell_angle_alpha 90.000000
_cell_angle_beta 93.426661
_cell_angle_gamma 90.000000
_cell_volume 513.568126
_symmetry_space_group_name_H-M "P 21"
_symmetry_group_IT_number 4
_symmetry_cell_setting 'monoclinic'
loop_
_space_group_symop_operation_xyz
x,y,z
-x,1/2+y,-z
loop_
_atom_site_type_symbol
_atom_site_label
_atom_site_fract_x
_atom_site_fract_y
_atom_site_fract_z
Si Si1 0.939264 0.442930 0.384938
Si Si2 0.305624 0.246977 0.491947
Si Si3 0.894478 0.155812 0.796182
Si Si4 0.294232 0.150086 0.195037
Si Si5 0.247460 0.650514 0.982816
Si Si6 0.683643 0.649195 0.050419
Si Si7 0.624017 0.096838 0.342986
O O1 0.149764 0.417851 0.436134
O O2 0.943012 0.615874 0.284442
O O3 0.817796 0.521610 0.481322
O O4 0.829576 0.208342 0.345431
O O5 0.480735 0.221533 0.421587
O O6 0.371599 0.338942 0.606522
O O7 0.804470 0.411601 0.766139
O O8 0.897414 0.156483 0.924410
O O9 0.781745 0.906860 0.774507
O O10 0.273265 0.144987 0.071148
O O11 0.509768 0.123297 0.233928
O O12 0.239177 0.407786 0.916409
O O13 0.242014 0.890511 0.914683
O O14 0.454737 0.650203 0.047042
#
# Coordination Sequence:
#
# PCOD9116580 Si02
#       7
#     2   2   2   2   2   2   2
#     4  12  26  41  61  86 119 161 203 254 306 360
#     4  12  26  42  60  84 118 158 206 250 306 362
#     4  10  22  37  60  90 122 156 199 251 297 356
#     4  10  22  37  60  90 122 156 199 251 297 356
#     4   8  14  28  51  83 116 149 191 237 287 349
#     4   8  14  28  51  83 116 149 191 237 287 349
#     4  12  26  41  61  86 119 161 203 254 306 360
#
# _framework density 27.260256999999999
#
# number of rings (size 3 to 8) (size 9 to 14) (size 15 to 20)
#    0.000    1.714    4.286    0.000    8.000    0.000 
#    0.000    0.000    0.000    0.000    3.714    0.000 
#    0.000    0.000    0.000    0.000    0.000    0.000 
#
# Total GULP energy -78242.031254 kJ/mol
# GULP energy per Si atom -5588.716518 kJ/mol
# Density = 2.719821 g / cm^3
# Si number density = 27.260257 Si / 1000 Ang^3
#
#
#
# Elastic Constant Matrix: (Units=GPa)
#
#
# Indices 1 2 3 4 5 6 
#
# 1 100.9279 44.3175 15.2405 0.0000 -17.7243 0.0000
# 2 44.3175 174.6649 26.3208 0.0000 -16.7869 0.0000
# 3 15.2405 26.3208 79.6882 0.0000 -14.5947 0.0000
# 4 0.0000 0.0000 0.0000 26.1700 0.0000 -18.6248
# 5 -17.7243 -16.7869 -14.5947 0.0000 45.5712 0.0000
# 6 0.0000 0.0000 0.0000 -18.6248 0.0000 46.1781
#
#
#
# Elastic Compliance Matrix: (Units=1/GPa)
#
#
# Indices 1 2 3 4 5 6 
#
# 1 0.011733 -0.002534 -0.000789 0.000000 0.003378 0.000000
# 2 -0.002534 0.006696 -0.001547 0.000000 0.000986 0.000000
# 3 -0.000789 -0.001547 0.013863 0.000000 0.003563 0.000000
# 4 0.000000 0.000000 0.000000 0.053596 0.000000 0.021616
# 5 0.003378 0.000986 0.003563 0.000000 0.024762 0.000000
# 6 0.000000 0.000000 0.000000 0.021616 0.000000 0.030374
#
#
# Mechanical properties :
#
#
# Convention : Reuss Voigt Hill
#
# Bulk Modulus (GPa) = 44.33673 58.55986 51.44829
# Shear Modulus (GPa) = 31.58992 41.54400 36.56696
#
# Velocity S-wave (km/s) = 3.40785 3.90805 3.66649
# Velocity P-wave (km/s) = 5.63774 6.47242 6.06944
#
# Compressibility (1/GPa) = 0.02255467
#
# Stress axis : x y z
#
# Youngs Moduli (GPa) = 85.23165 149.34564 72.13357
#
# Poissons Ratio (x) = 0.37837 0.05688
# Poissons Ratio (y) = 0.21593 0.11156
# Poissons Ratio (z) = 0.06721 0.23097
#
# Static dielectric constant tensor:
#      x y z
#    x 2.170290 0.000000 -0.028170 
#    y 0.000000 2.229820 0.000000 
#    z -0.028170 0.000000 2.131480 
# 
# From -- ./inp_files/3857.got.cif
#   From: 2010.05.17/outbox.cif.g08.bks.cpg/sg4_2_cif.got.tgz:3857.got - 2010.06.03 18:43:04.
