data_PCOD9116882
_publ_section_title
;
Structure prediction by ZEFSAII (Michael W. Deem and Ramdas Pophale) SiO2 
 PCOD9116882
Probable space group: P 21
;
_chemical_formula_sum "Si O2"
_cell_formula_units_Z 16
_cell_length_a 8.899453
_cell_length_b 6.332523
_cell_length_c 19.099553
_cell_angle_alpha 90.000000
_cell_angle_beta 135.817065
_cell_angle_gamma 90.000000
_cell_volume 750.180687
_symmetry_space_group_name_H-M "P 21"
_symmetry_group_IT_number 4
_symmetry_cell_setting 'monoclinic'
loop_
_space_group_symop_operation_xyz
x,y,z
-x,1/2+y,-z
loop_
_atom_site_type_symbol
_atom_site_label
_atom_site_fract_x
_atom_site_fract_y
_atom_site_fract_z
Si Si1 0.487055 0.823870 0.524793
Si Si2 0.984629 0.186918 0.597093
Si Si3 0.765294 0.319304 0.263064
Si Si4 0.702242 0.408185 0.771020
Si Si5 0.032001 0.516205 0.113494
Si Si6 0.716040 0.717853 0.906353
Si Si7 0.757023 0.029036 0.389096
Si Si8 0.071615 0.217124 0.250809
O O1 0.498112 0.576550 0.494883
O O2 0.235966 0.811451 0.462151
O O3 0.697438 0.804447 0.644600
O O4 0.919487 0.053587 0.506714
O O5 0.168383 0.346792 0.637131
O O6 0.090033 0.030467 0.688119
O O7 0.515711 0.324577 0.157804
O O8 0.750617 0.234559 0.338014
O O9 0.906702 0.174383 0.258552
O O10 0.686767 0.524243 0.841272
O O11 0.473793 0.458298 0.659301
O O12 0.877532 0.513966 0.779321
O O13 0.768148 0.169318 0.802751
O O14 0.120312 0.368260 0.080836
O O15 0.977677 0.385269 0.164313
O O16 0.832038 0.643233 0.015283
#
# Coordination Sequence:
#
# PCOD9116882 Si02
#       8
#     2   2   2   2   2   2   2   2
#     4  12  27  46  72 103 153 203 244 298 373 453
#     4  12  23  39  68  97 141 188 240 294 353 439
#     4  11  24  46  61  99 141 177 235 294 361 443
#     4  10  22  41  67  95 130 177 231 295 350 442
#     4  11  22  43  71  96 132 175 241 298 365 440
#     4  10  22  43  70  96 129 180 237 299 367 429
#     4  11  23  38  64  96 132 180 231 288 350 418
#     4  11  25  42  65 102 140 186 235 292 373 440
#
# _framework density 21.328194
#
# number of rings (size 3 to 8) (size 9 to 14) (size 15 to 20)
#    0.000    1.000    5.000    1.500    1.750    2.000 
#    2.250    0.000    0.000    0.000    0.000    0.000 
#    0.000    0.000    0.000    0.000    0.000    0.000 
#
# Total GULP energy -89153.434717 kJ/mol
# GULP energy per Si atom -5572.089670 kJ/mol
# Density = 2.127965 g / cm^3
# Si number density = 21.328194 Si / 1000 Ang^3
#
#
#
# Elastic Constant Matrix: (Units=GPa)
#
#
# Indices 1 2 3 4 5 6 
#
# 1 64.7884 -1.9964 14.0811 0.0000 15.2109 0.0000
# 2 -1.9964 57.4619 14.5581 0.0000 -8.5053 0.0000
# 3 14.0811 14.5581 104.6322 0.0000 7.5215 0.0000
# 4 0.0000 0.0000 0.0000 26.4564 0.0000 6.0764
# 5 15.2109 -8.5053 7.5215 0.0000 23.1950 0.0000
# 6 0.0000 0.0000 0.0000 6.0764 0.0000 19.7401
#
#
#
# Elastic Compliance Matrix: (Units=1/GPa)
#
#
# Indices 1 2 3 4 5 6 
#
# 1 0.018548 -0.000733 -0.001536 0.000000 -0.011934 0.000000
# 2 -0.000733 0.019481 -0.003235 0.000000 0.008673 0.000000
# 3 -0.001536 -0.003235 0.010471 0.000000 -0.003574 0.000000
# 4 0.000000 0.000000 0.000000 0.040674 0.000000 -0.012520
# 5 -0.011934 0.008673 -0.003574 0.000000 0.055278 0.000000
# 6 0.000000 0.000000 0.000000 -0.012520 0.000000 0.054512
#
#
# Mechanical properties :
#
#
# Convention : Reuss Voigt Hill
#
# Bulk Modulus (GPa) = 26.67298 31.12980 28.90139
# Shear Modulus (GPa) = 22.47493 27.22760 24.85126
#
# Velocity S-wave (km/s) = 3.24970 3.57683 3.41718
# Velocity P-wave (km/s) = 5.15886 5.62900 5.39905
#
# Compressibility (1/GPa) = 0.03749112
#
# Stress axis : x y z
#
# Youngs Moduli (GPa) = 53.91406 51.33253 95.50056
#
# Poissons Ratio (x) = 0.03762 0.14672
# Poissons Ratio (y) = 0.03951 0.30898
# Poissons Ratio (z) = 0.08283 0.16608
#
# Static dielectric constant tensor:
#      x y z
#    x 1.798300 0.000000 -0.003510 
#    y 0.000000 1.839360 0.000000 
#    z -0.003510 0.000000 1.755590 
# 
# From -- ./inp_files/8603.got.cif
#   From: 2010.05.17/outbox.cif.g08.bks.cpg/sg4_5_cif.got.tgz:8603.got - 2010.06.03 18:43:04.
