data_PCOD9116740
_publ_section_title
;
Structure prediction by ZEFSAII (Michael W. Deem and Ramdas Pophale) SiO2 
 PCOD9116740
Probable space group: P 21
;
_chemical_formula_sum "Si O2"
_cell_formula_units_Z 12
_cell_length_a 12.606619
_cell_length_b 5.068785
_cell_length_c 9.405595
_cell_angle_alpha 90.000000
_cell_angle_beta 126.538486
_cell_angle_gamma 90.000000
_cell_volume 482.893637
_symmetry_space_group_name_H-M "P 21"
_symmetry_group_IT_number 4
_symmetry_cell_setting 'monoclinic'
loop_
_space_group_symop_operation_xyz
x,y,z
-x,1/2+y,-z
loop_
_atom_site_type_symbol
_atom_site_label
_atom_site_fract_x
_atom_site_fract_y
_atom_site_fract_z
Si Si1 0.456222 0.507670 0.049702
Si Si2 0.548507 0.030832 0.624814
Si Si3 0.977594 0.487471 0.787003
Si Si4 0.798985 0.713023 0.863016
Si Si5 0.049748 0.109331 0.546142
Si Si6 0.784857 0.357515 0.090864
O O1 0.499979 0.517880 0.249796
O O2 0.469912 0.222973 0.989488
O O3 0.307578 0.620800 0.934708
O O4 0.482082 0.803591 0.476554
O O5 0.704480 0.956606 0.754734
O O6 0.844656 0.564437 0.759092
O O7 0.952998 0.413875 0.602691
O O8 0.082248 0.726245 0.863314
O O9 0.063840 0.281686 0.946341
O O10 0.723524 0.530238 0.916462
O O11 0.172148 0.035595 0.742384
O O12 0.937818 0.898683 0.513080
#
# Coordination Sequence:
#
# PCOD9116740 Si02
#       6
#     2   2   2   2   2   2
#     4  12  27  49  78 109 144 208 267 313 378 455
#     4  12  28  52  78 110 158 205 259 324 380 445
#     4  11  23  41  72 110 145 189 238 301 381 452
#     4  12  23  44  74 111 150 199 248 307 380 463
#     4  10  22  40  65 102 143 184 229 288 363 439
#     4  11  23  44  71 102 154 189 245 309 378 450
#
# _framework density 24.850194999999999
#
# number of rings (size 3 to 8) (size 9 to 14) (size 15 to 20)
#    0.000    0.667    5.000    3.000    0.000    1.333 
#    0.000   15.000    0.000    0.000    0.000    0.000 
#    0.000    0.000    0.000    0.000    0.000    0.000 
#
# Total GULP energy -67011.008435 kJ/mol
# GULP energy per Si atom -5584.250703 kJ/mol
# Density = 2.479363 g / cm^3
# Si number density = 24.850195 Si / 1000 Ang^3
#
#
#
# Elastic Constant Matrix: (Units=GPa)
#
#
# Indices 1 2 3 4 5 6 
#
# 1 105.4783 28.8106 69.1550 0.0000 -35.6025 0.0000
# 2 28.8106 162.5412 75.9475 0.0000 -22.2575 0.0000
# 3 69.1550 75.9475 208.3557 0.0000 -64.3925 0.0000
# 4 0.0000 0.0000 0.0000 17.9624 0.0000 3.5210
# 5 -35.6025 -22.2575 -64.3925 0.0000 58.7521 0.0000
# 6 0.0000 0.0000 0.0000 3.5210 0.0000 39.8662
#
#
#
# Elastic Compliance Matrix: (Units=1/GPa)
#
#
# Indices 1 2 3 4 5 6 
#
# 1 0.012955 -0.000389 -0.002688 0.000000 0.004757 0.000000
# 2 -0.000389 0.007429 -0.002695 0.000000 -0.000375 0.000000
# 3 -0.002688 -0.002695 0.008854 0.000000 0.007054 0.000000
# 4 0.000000 0.000000 0.000000 0.056653 0.000000 -0.005004
# 5 0.004757 -0.000375 0.007054 0.000000 0.027493 0.000000
# 6 0.000000 0.000000 0.000000 -0.005004 0.000000 0.025526
#
#
# Mechanical properties :
#
#
# Convention : Reuss Voigt Hill
#
# Bulk Modulus (GPa) = 56.51333 91.57792 74.04562
# Shear Modulus (GPa) = 31.97945 43.48028 37.72987
#
# Velocity S-wave (km/s) = 3.59122 4.18747 3.90075
# Velocity P-wave (km/s) = 6.32351 7.76607 7.08162
#
# Compressibility (1/GPa) = 0.01769494
#
# Stress axis : x y z
#
# Youngs Moduli (GPa) = 77.19157 134.60783 112.94363
#
# Poissons Ratio (x) = 0.05235 0.30358
# Poissons Ratio (y) = 0.03002 0.30434
# Poissons Ratio (z) = 0.20748 0.36272
#
# Static dielectric constant tensor:
#      x y z
#    x 2.809700 0.000000 -0.210860 
#    y 0.000000 1.721140 0.000000 
#    z -0.210860 0.000000 2.075320 
# 
# From -- ./inp_files/8989.got.cif
#   From: 2010.05.17/outbox.cif.g08.bks.cpg/sg4_5_cif.got.tgz:8989.got - 2010.06.03 18:43:04.
