data_PCOD9116281
_publ_section_title
;
Structure prediction by ZEFSAII (Michael W. Deem and Ramdas Pophale) SiO2 
 PCOD9116281
Probable space group: P 21
;
_chemical_formula_sum "Si O2"
_cell_formula_units_Z 16
_cell_length_a 8.214478
_cell_length_b 9.839809
_cell_length_c 9.213047
_cell_angle_alpha 90.000000
_cell_angle_beta 70.338309
_cell_angle_gamma 90.000000
_cell_volume 701.262351
_symmetry_space_group_name_H-M "P 21"
_symmetry_group_IT_number 4
_symmetry_cell_setting 'monoclinic'
loop_
_space_group_symop_operation_xyz
x,y,z
-x,1/2+y,-z
loop_
_atom_site_type_symbol
_atom_site_label
_atom_site_fract_x
_atom_site_fract_y
_atom_site_fract_z
Si Si1 0.058703 0.640070 0.380093
Si Si2 0.205564 0.946312 0.003878
Si Si3 0.493952 0.798804 0.727037
Si Si4 0.637718 0.323655 0.754210
Si Si5 0.868466 0.992517 0.939442
Si Si6 0.175703 0.398698 0.527626
Si Si7 0.361928 0.536186 0.726885
Si Si8 0.662723 0.725545 0.955682
O O1 0.233952 0.722717 0.365994
O O2 0.071611 0.587846 0.209791
O O3 0.053434 0.506283 0.481636
O O4 0.906877 0.749094 0.443877
O O5 0.356363 0.891064 0.853065
O O6 0.244097 0.885993 0.151354
O O7 0.025681 0.923446 0.978590
O O8 0.216356 0.107452 0.025165
O O9 0.640649 0.887055 0.608762
O O10 0.410363 0.684019 0.649863
O O11 0.584510 0.702869 0.821202
O O12 0.527397 0.437048 0.701276
O O13 0.491217 0.239223 0.883175
O O14 0.755628 0.869271 0.912145
O O15 0.741474 0.064300 0.091908
O O16 0.224925 0.456373 0.669371
#
# Coordination Sequence:
#
# PCOD9116281 Si02
#       8
#     2   2   2   2   2   2   2   2
#     4  12  28  51  71 106 151 193 248 303 369 442
#     4  11  23  39  76 106 143 183 241 305 357 426
#     4  11  24  46  68 105 147 199 238 297 369 441
#     4  10  23  42  70 100 139 187 236 305 352 421
#     4  11  25  44  73 108 141 186 247 303 362 429
#     4  12  30  48  75 105 154 198 244 299 378 444
#     4  11  26  45  73 108 143 188 251 302 364 435
#     4  10  21  41  70 106 140 182 235 300 363 424
#
# _framework density 22.815998
#
# number of rings (size 3 to 8) (size 9 to 14) (size 15 to 20)
#    0.000    1.000    2.500    3.000   12.250    3.000 
#    0.000    0.000    0.000    0.000    0.000    0.000 
#    0.000    0.000    0.000    0.000    0.000    0.000 
#
# Total GULP energy -89482.890850 kJ/mol
# GULP energy per Si atom -5592.680678 kJ/mol
# Density = 2.276407 g / cm^3
# Si number density = 22.815998 Si / 1000 Ang^3
#
#
#
# Elastic Constant Matrix: (Units=GPa)
#
#
# Indices 1 2 3 4 5 6 
#
# 1 82.4924 12.4024 23.8016 0.0000 10.1571 0.0000
# 2 12.4024 70.5742 24.5401 0.0000 -1.7955 0.0000
# 3 23.8016 24.5401 55.8120 0.0000 4.3532 0.0000
# 4 0.0000 0.0000 0.0000 26.3560 0.0000 -4.7386
# 5 10.1571 -1.7955 4.3532 0.0000 27.1608 0.0000
# 6 0.0000 0.0000 0.0000 -4.7386 0.0000 35.1895
#
#
#
# Elastic Compliance Matrix: (Units=1/GPa)
#
#
# Indices 1 2 3 4 5 6 
#
# 1 0.014365 -0.000748 -0.005443 0.000000 -0.004549 0.000000
# 2 -0.000748 0.016911 -0.007317 0.000000 0.002570 0.000000
# 3 -0.005443 -0.007317 0.023630 0.000000 -0.002236 0.000000
# 4 0.000000 0.000000 0.000000 0.038883 0.000000 0.005236
# 5 -0.004549 0.002570 -0.002236 0.000000 0.039047 0.000000
# 6 0.000000 0.000000 0.000000 0.005236 0.000000 0.029123
#
#
# Mechanical properties :
#
#
# Convention : Reuss Voigt Hill
#
# Bulk Modulus (GPa) = 35.85382 36.70743 36.28062
# Shear Modulus (GPa) = 25.21804 27.61690 26.41747
#
# Velocity S-wave (km/s) = 3.32818 3.48288 3.40641
# Velocity P-wave (km/s) = 5.52426 5.68307 5.60423
#
# Compressibility (1/GPa) = 0.02789103
#
# Stress axis : x y z
#
# Youngs Moduli (GPa) = 69.61248 59.13465 42.31915
#
# Poissons Ratio (x) = 0.04422 0.23033
# Poissons Ratio (y) = 0.05205 0.30965
# Poissons Ratio (z) = 0.37887 0.43269
#
# Static dielectric constant tensor:
#      x y z
#    x 1.827640 0.000000 0.016040 
#    y 0.000000 1.854080 0.000000 
#    z 0.016040 0.000000 1.867210 
# 
# From -- ./inp_files/5436.got.cif
#   From: 2010.05.17/outbox.cif.g08.bks.cpg/sg4_3_cif.got.tgz:5436.got - 2010.06.03 18:43:04.
