data_PCOD9116627
_publ_section_title
;
Structure prediction by ZEFSAII (Michael W. Deem and Ramdas Pophale) SiO2 
 PCOD9116627
Probable space group: P 21
;
_chemical_formula_sum "Si O2"
_cell_formula_units_Z 16
_cell_length_a 16.298167
_cell_length_b 8.909701
_cell_length_c 5.253275
_cell_angle_alpha 90.000000
_cell_angle_beta 61.267393
_cell_angle_gamma 90.000000
_cell_volume 668.911391
_symmetry_space_group_name_H-M "P 21"
_symmetry_group_IT_number 4
_symmetry_cell_setting 'monoclinic'
loop_
_space_group_symop_operation_xyz
x,y,z
-x,1/2+y,-z
loop_
_atom_site_type_symbol
_atom_site_label
_atom_site_fract_x
_atom_site_fract_y
_atom_site_fract_z
Si Si1 0.945615 0.334640 0.775971
Si Si2 0.138795 0.325050 0.206841
Si Si3 0.314762 0.488886 0.116549
Si Si4 0.320411 0.996677 0.510567
Si Si5 0.394898 0.329808 0.494237
Si Si6 0.960578 0.034044 0.987976
Si Si7 0.383627 0.824876 0.916375
Si Si8 0.152419 0.018494 0.408357
O O1 0.926062 0.203868 0.009825
O O2 0.853886 0.369851 0.752239
O O3 0.035871 0.296791 0.472134
O O4 0.985460 0.486585 0.842076
O O5 0.115753 0.406596 0.972688
O O6 0.183587 0.161570 0.191956
O O7 0.205064 0.443897 0.253595
O O8 0.363477 0.398202 0.811221
O O9 0.339441 0.662496 0.040101
O O10 0.354438 0.432472 0.326734
O O11 0.338482 0.899319 0.733485
O O12 0.215177 0.005057 0.562608
O O13 0.354037 0.164314 0.516055
O O14 0.371935 0.926412 0.186344
O O15 0.506218 0.315860 0.307356
O O16 0.046241 0.028282 0.662556
#
# Coordination Sequence:
#
# PCOD9116627 Si02
#       8
#     2   2   2   2   2   2   2   2
#     4  10  22  41  67  97 141 183 236 292 355 421
#     4  10  23  43  63 101 134 187 236 290 349 431
#     4  12  27  46  77 107 146 192 240 307 364 445
#     4  12  27  46  78 106 146 192 243 305 364 447
#     4  12  25  49  76 104 143 195 241 300 377 441
#     4  10  22  38  69  93 141 183 230 295 348 422
#     4  12  27  48  71 111 146 184 243 311 372 437
#     4  10  23  43  63  99 135 186 239 286 353 428
#
# _framework density 23.919463
#
# number of rings (size 3 to 8) (size 9 to 14) (size 15 to 20)
#    0.000    1.000    1.250    4.500    5.250    1.000 
#    0.000    0.000    0.000    0.000    0.000    0.000 
#    0.000    0.000    0.000    0.000    0.000    0.000 
#
# Total GULP energy -89459.767424 kJ/mol
# GULP energy per Si atom -5591.235464 kJ/mol
# Density = 2.386502 g / cm^3
# Si number density = 23.919463 Si / 1000 Ang^3
#
#
#
# Elastic Constant Matrix: (Units=GPa)
#
#
# Indices 1 2 3 4 5 6 
#
# 1 119.4298 31.3048 16.4212 0.0000 9.0972 0.0000
# 2 31.3048 118.6352 22.6276 0.0000 18.0911 0.0000
# 3 16.4212 22.6276 83.5772 0.0000 17.8227 0.0000
# 4 0.0000 0.0000 0.0000 26.8820 0.0000 0.2763
# 5 9.0972 18.0911 17.8227 0.0000 23.8233 0.0000
# 6 0.0000 0.0000 0.0000 0.2763 0.0000 26.7389
#
#
#
# Elastic Compliance Matrix: (Units=1/GPa)
#
#
# Indices 1 2 3 4 5 6 
#
# 1 0.009135 -0.002039 -0.000986 0.000000 -0.001202 0.000000
# 2 -0.002039 0.010096 -0.001028 0.000000 -0.006120 0.000000
# 3 -0.000986 -0.001028 0.014504 0.000000 -0.009694 0.000000
# 4 0.000000 0.000000 0.000000 0.037204 0.000000 -0.000384
# 5 -0.001202 -0.006120 -0.009694 0.000000 0.054334 0.000000
# 6 0.000000 0.000000 0.000000 -0.000384 0.000000 0.037403
#
#
# Mechanical properties :
#
#
# Convention : Reuss Voigt Hill
#
# Bulk Modulus (GPa) = 39.01872 51.37217 45.19544
# Shear Modulus (GPa) = 27.88233 32.24143 30.06188
#
# Velocity S-wave (km/s) = 3.41790 3.67538 3.54898
# Velocity P-wave (km/s) = 5.65014 6.28769 5.97742
#
# Compressibility (1/GPa) = 0.02562872
#
# Stress axis : x y z
#
# Youngs Moduli (GPa) = 109.47191 99.04428 68.94533
#
# Poissons Ratio (x) = 0.20195 0.06801
# Poissons Ratio (y) = 0.22321 0.07087
# Poissons Ratio (z) = 0.10799 0.10181
#
# Static dielectric constant tensor:
#      x y z
#    x 1.904650 0.000000 -0.033110 
#    y 0.000000 1.973360 0.000000 
#    z -0.033110 0.000000 1.946620 
# 
# From -- ./inp_files/3551.got.cif
#   From: 2010.05.17/outbox.cif.g08.bks.cpg/sg4_2_cif.got.tgz:3551.got - 2010.06.03 18:43:04.
