data_PCOD9116301
_publ_section_title
;
Structure prediction by ZEFSAII (Michael W. Deem and Ramdas Pophale) SiO2 
 PCOD9116301
Probable space group: P 21
;
_chemical_formula_sum "Si O2"
_cell_formula_units_Z 16
_cell_length_a 8.052394
_cell_length_b 11.863028
_cell_length_c 9.237528
_cell_angle_alpha 90.000000
_cell_angle_beta 45.111641
_cell_angle_gamma 90.000000
_cell_volume 625.181214
_symmetry_space_group_name_H-M "P 21"
_symmetry_group_IT_number 4
_symmetry_cell_setting 'monoclinic'
loop_
_space_group_symop_operation_xyz
x,y,z
-x,1/2+y,-z
loop_
_atom_site_type_symbol
_atom_site_label
_atom_site_fract_x
_atom_site_fract_y
_atom_site_fract_z
Si Si1 0.992957 0.647000 0.290320
Si Si2 0.493982 0.558104 0.624419
Si Si3 0.977645 0.238968 0.421233
Si Si4 0.196667 0.769994 0.902015
Si Si5 0.428488 0.620488 0.350508
Si Si6 0.792102 0.557855 0.919983
Si Si7 0.896919 0.956488 0.005554
Si Si8 0.607156 0.910032 0.800718
O O1 0.747410 0.603954 0.506762
O O2 0.088628 0.714460 0.369648
O O3 0.090626 0.536931 0.143958
O O4 0.022518 0.737327 0.142034
O O5 0.513182 0.555076 0.440274
O O6 0.303409 0.654680 0.777472
O O7 0.372097 0.452878 0.776612
O O8 0.173070 0.334981 0.289636
O O9 0.714631 0.231133 0.520097
O O10 0.086524 0.129480 0.276032
O O11 0.431120 0.834256 0.811684
O O12 0.039765 0.842421 0.889524
O O13 0.643419 0.643177 0.112496
O O14 0.297627 0.518095 0.345942
O O15 0.960197 0.497728 0.935191
O O16 0.594860 0.471876 0.978344
#
# Coordination Sequence:
#
# PCOD9116301 Si02
#       8
#     2   2   2   2   2   2   2   2
#     4  11  24  37  66  97 127 164 216 275 319 374
#     4  11  20  40  65  96 123 167 220 269 313 391
#     4  12  23  41  66  98 132 172 217 275 322 384
#     4  10  22  39  66  95 123 172 222 262 323 395
#     4  10  23  42  67  91 131 170 223 259 326 393
#     4   9  21  41  63  93 124 173 218 265 312 397
#     4  10  21  42  64  87 130 166 215 264 321 386
#     4   9  22  42  65  93 130 178 219 251 340 394
#
# _framework density 25.592580000000002
#
# number of rings (size 3 to 8) (size 9 to 14) (size 15 to 20)
#    0.750    1.000    3.750    0.000    3.500    1.000 
#    2.250    0.000    0.000    0.000    0.000    0.000 
#    0.000    0.000    0.000    0.000    0.000    0.000 
#
# Total GULP energy -89101.298377 kJ/mol
# GULP energy per Si atom -5568.831149 kJ/mol
# Density = 2.553433 g / cm^3
# Si number density = 25.592580 Si / 1000 Ang^3
#
#
#
# Elastic Constant Matrix: (Units=GPa)
#
#
# Indices 1 2 3 4 5 6 
#
# 1 59.0728 15.2551 10.6182 0.0000 -7.4913 0.0000
# 2 15.2551 73.6590 20.5901 0.0000 -13.8516 0.0000
# 3 10.6182 20.5901 110.3973 0.0000 1.2915 0.0000
# 4 0.0000 0.0000 0.0000 45.5914 0.0000 -14.3135
# 5 -7.4913 -13.8516 1.2915 0.0000 40.5995 0.0000
# 6 0.0000 0.0000 0.0000 -14.3135 0.0000 48.7891
#
#
#
# Elastic Compliance Matrix: (Units=1/GPa)
#
#
# Indices 1 2 3 4 5 6 
#
# 1 0.018221 -0.002983 -0.001224 0.000000 0.002383 0.000000
# 2 -0.002983 0.015891 -0.002735 0.000000 0.004958 0.000000
# 3 -0.001224 -0.002735 0.009703 0.000000 -0.001468 0.000000
# 4 0.000000 0.000000 0.000000 0.024159 0.000000 0.007088
# 5 0.002383 0.004958 -0.001468 0.000000 0.026809 0.000000
# 6 0.000000 0.000000 0.000000 0.007088 0.000000 0.022576
#
#
# Mechanical properties :
#
#
# Convention : Reuss Voigt Hill
#
# Bulk Modulus (GPa) = 33.41067 37.33954 35.37510
# Shear Modulus (GPa) = 35.40582 40.10703 37.75642
#
# Velocity S-wave (km/s) = 3.72350 3.96300 3.84511
# Velocity P-wave (km/s) = 5.61864 5.96340 5.79358
#
# Compressibility (1/GPa) = 0.02993056
#
# Stress axis : x y z
#
# Youngs Moduli (GPa) = 54.88203 62.92956 103.05926
#
# Poissons Ratio (x) = 0.18774 0.12614
# Poissons Ratio (y) = 0.16373 0.28185
# Poissons Ratio (z) = 0.06717 0.17210
#
# Static dielectric constant tensor:
#      x y z
#    x 2.130950 0.000000 -0.010790 
#    y 0.000000 2.175410 0.000000 
#    z -0.010790 0.000000 1.977930 
# 
# From -- ./inp_files/6590.got.cif
#   From: 2010.05.17/outbox.cif.g08.bks.cpg/sg4_4_cif.got.tgz:6590.got - 2010.06.03 18:43:04.
