data_PCOD9116980
_publ_section_title
;
Structure prediction by ZEFSAII (Michael W. Deem and Ramdas Pophale) SiO2 
 PCOD9116980
Probable space group: P 21
;
_chemical_formula_sum "Si O2"
_cell_formula_units_Z 16
_cell_length_a 15.668582
_cell_length_b 5.547607
_cell_length_c 10.052075
_cell_angle_alpha 90.000000
_cell_angle_beta 112.107403
_cell_angle_gamma 90.000000
_cell_volume 809.519206
_symmetry_space_group_name_H-M "P 21"
_symmetry_group_IT_number 4
_symmetry_cell_setting 'monoclinic'
loop_
_space_group_symop_operation_xyz
x,y,z
-x,1/2+y,-z
loop_
_atom_site_type_symbol
_atom_site_label
_atom_site_fract_x
_atom_site_fract_y
_atom_site_fract_z
Si Si1 0.262038 0.319530 0.928022
Si Si2 0.382502 0.068167 0.790726
Si Si3 0.584173 0.214521 0.972268
Si Si4 0.903393 0.942655 0.341095
Si Si5 0.479761 0.659378 0.561958
Si Si6 0.304857 0.916708 0.476888
Si Si7 0.888443 0.439136 0.498240
Si Si8 0.343067 0.084525 0.202244
O O1 0.295251 0.142757 0.829183
O O2 0.167605 0.431785 0.822748
O O3 0.352770 0.482667 0.989945
O O4 0.261134 0.215554 0.075770
O O5 0.477194 0.206833 0.872445
O O6 0.354930 0.073063 0.621459
O O7 0.407118 0.812733 0.872262
O O8 0.630923 0.375572 0.885640
O O9 0.885818 0.700491 0.421291
O O10 0.011953 0.933099 0.371960
O O11 0.887014 0.200401 0.403567
O O12 0.502361 0.389620 0.525056
O O13 0.370611 0.679772 0.524664
O O14 0.557299 0.713873 0.718854
O O15 0.199821 0.904412 0.459947
O O16 0.312116 0.013024 0.331569
#
# Coordination Sequence:
#
# PCOD9116980 Si02
#       8
#     2   2   2   2   2   2   2   2
#     4  11  22  40  64  87 128 171 206 263 325 376
#     4  11  22  37  60  90 123 163 221 259 307 376
#     4  11  23  39  55  91 125 171 211 266 308 381
#     4  10  22  42  70  96 128 160 213 275 332 366
#     4  10  24  41  59  89 129 177 211 252 308 374
#     4  11  23  40  66  93 130 168 221 260 322 382
#     4  10  22  42  68 102 123 159 217 278 316 382
#     4  10  26  39  58  90 136 171 214 253 324 385
#
# _framework density 19.764816
#
# number of rings (size 3 to 8) (size 9 to 14) (size 15 to 20)
#    0.000    1.500    2.500    1.500   14.000    3.000 
#    0.000    0.000    2.750    0.000    0.000    0.000 
#    0.000    0.000    0.000    0.000    0.000    0.000 
#
# Total GULP energy -89068.324164 kJ/mol
# GULP energy per Si atom -5566.770260 kJ/mol
# Density = 1.971983 g / cm^3
# Si number density = 19.764816 Si / 1000 Ang^3
#
#
#
# Elastic Constant Matrix: (Units=GPa)
#
#
# Indices 1 2 3 4 5 6 
#
# 1 121.5473 8.0581 36.9631 0.0000 5.4563 0.0000
# 2 8.0581 51.2914 15.1475 0.0000 -7.9067 0.0000
# 3 36.9631 15.1475 132.1083 0.0000 4.1888 0.0000
# 4 0.0000 0.0000 0.0000 12.4029 0.0000 1.0830
# 5 5.4563 -7.9067 4.1888 0.0000 25.2640 0.0000
# 6 0.0000 0.0000 0.0000 1.0830 0.0000 13.5851
#
#
#
# Elastic Compliance Matrix: (Units=1/GPa)
#
#
# Indices 1 2 3 4 5 6 
#
# 1 0.009100 -0.001022 -0.002369 0.000000 -0.001892 0.000000
# 2 -0.001022 0.021503 -0.002413 0.000000 0.007350 0.000000
# 3 -0.002369 -0.002413 0.008562 0.000000 -0.001663 0.000000
# 4 0.000000 0.000000 0.000000 0.081191 0.000000 -0.006473
# 5 -0.001892 0.007350 -0.001663 0.000000 0.042567 0.000000
# 6 0.000000 0.000000 0.000000 -0.006473 0.000000 0.074126
#
#
# Mechanical properties :
#
#
# Convention : Reuss Voigt Hill
#
# Bulk Modulus (GPa) = 36.28754 47.25383 41.77068
# Shear Modulus (GPa) = 19.39173 26.56895 22.98034
#
# Velocity S-wave (km/s) = 3.13569 3.67039 3.41352
# Velocity P-wave (km/s) = 5.61334 6.47474 6.05937
#
# Compressibility (1/GPa) = 0.02755767
#
# Stress axis : x y z
#
# Youngs Moduli (GPa) = 109.88540 46.50620 116.79840
#
# Poissons Ratio (x) = 0.04752 0.27670
# Poissons Ratio (y) = 0.11228 0.28179
# Poissons Ratio (z) = 0.26033 0.11220
#
# Static dielectric constant tensor:
#      x y z
#    x 1.724050 0.000000 -0.013400 
#    y 0.000000 1.839650 0.000000 
#    z -0.013400 0.000000 1.726200 
# 
# From -- ./inp_files/8724.got.cif
#   From: 2010.05.17/outbox.cif.g08.bks.cpg/sg4_5_cif.got.tgz:8724.got - 2010.06.03 18:43:04.
