data_PCOD9116743
_publ_section_title
;
Structure prediction by ZEFSAII (Michael W. Deem and Ramdas Pophale) SiO2 
 PCOD9116743
Probable space group: P 21
;
_chemical_formula_sum "Si O2"
_cell_formula_units_Z 16
_cell_length_a 9.613138
_cell_length_b 11.260539
_cell_length_c 8.476549
_cell_angle_alpha 90.000000
_cell_angle_beta 128.545102
_cell_angle_gamma 90.000000
_cell_volume 717.654892
_symmetry_space_group_name_H-M "P 21"
_symmetry_group_IT_number 4
_symmetry_cell_setting 'monoclinic'
loop_
_space_group_symop_operation_xyz
x,y,z
-x,1/2+y,-z
loop_
_atom_site_type_symbol
_atom_site_label
_atom_site_fract_x
_atom_site_fract_y
_atom_site_fract_z
Si Si1 0.465812 0.656620 0.661160
Si Si2 0.111008 0.375092 0.739397
Si Si3 0.550387 0.761355 0.090392
Si Si4 0.771042 0.113257 0.263282
Si Si5 0.301418 0.942198 0.080823
Si Si6 0.672880 0.651627 0.501653
Si Si7 0.271295 0.879031 0.420780
Si Si8 0.977585 0.821662 0.674485
O O1 0.284955 0.591583 0.594025
O O2 0.634512 0.577944 0.847021
O O3 0.510089 0.644059 0.506956
O O4 0.408191 0.797721 0.617486
O O5 0.276367 0.290787 0.886905
O O6 0.180097 0.507466 0.818781
O O7 0.930220 0.335859 0.692183
O O8 0.086027 0.384052 0.531246
O O9 0.446914 0.879858 0.070738
O O10 0.612959 0.695910 0.290537
O O11 0.414381 0.675985 0.909959
O O12 0.914815 0.212645 0.329410
O O13 0.311851 0.883755 0.262839
O O14 0.110775 0.904776 0.870036
O O15 0.739725 0.516621 0.533303
O O16 0.819402 0.752095 0.654719
#
# Coordination Sequence:
#
# PCOD9116743 Si02
#       8
#     2   2   2   2   2   2   2   2
#     4  11  22  40  64  96 131 168 220 266 325 395
#     4  11  22  41  65  94 128 166 217 270 326 382
#     4  10  22  40  65  89 129 168 210 268 325 386
#     4  11  22  39  61  94 126 163 216 264 320 387
#     4  10  22  42  63  92 133 170 213 267 325 391
#     4  10  22  40  66  95 127 173 211 266 332 381
#     4  11  22  39  67  95 130 166 221 270 320 391
#     4  10  22  41  65  93 132 170 212 269 325 385
#
# _framework density 22.294836
#
# number of rings (size 3 to 8) (size 9 to 14) (size 15 to 20)
#    0.000    1.500    5.000    0.000    0.000    3.000 
#    0.000    3.750    0.000    0.000    0.000    0.000 
#    0.000    0.000    0.000    0.000    0.000    0.000 
#
# Total GULP energy -89077.390790 kJ/mol
# GULP energy per Si atom -5567.336924 kJ/mol
# Density = 2.224409 g / cm^3
# Si number density = 22.294836 Si / 1000 Ang^3
#
#
#
# Elastic Constant Matrix: (Units=GPa)
#
#
# Indices 1 2 3 4 5 6 
#
# 1 92.0434 23.0577 5.9397 0.0000 4.6115 0.0000
# 2 23.0577 65.9313 23.7802 0.0000 9.4515 0.0000
# 3 5.9397 23.7802 50.9655 0.0000 15.1015 0.0000
# 4 0.0000 0.0000 0.0000 23.7134 0.0000 8.8171
# 5 4.6115 9.4515 15.1015 0.0000 17.8426 0.0000
# 6 0.0000 0.0000 0.0000 8.8171 0.0000 42.6285
#
#
#
# Elastic Compliance Matrix: (Units=1/GPa)
#
#
# Indices 1 2 3 4 5 6 
#
# 1 0.011968 -0.004350 0.001159 0.000000 -0.001770 0.000000
# 2 -0.004350 0.019962 -0.008018 0.000000 -0.002664 0.000000
# 3 0.001159 -0.008018 0.029441 0.000000 -0.020970 0.000000
# 4 0.000000 0.000000 0.000000 0.045684 0.000000 -0.009449
# 5 -0.001770 -0.002664 -0.020970 0.000000 0.075663 0.000000
# 6 0.000000 0.000000 0.000000 -0.009449 0.000000 0.025413
#
#
# Mechanical properties :
#
#
# Convention : Reuss Voigt Hill
#
# Bulk Modulus (GPa) = 25.67119 34.94394 30.30756
# Shear Modulus (GPa) = 20.53112 27.24773 23.88942
#
# Velocity S-wave (km/s) = 3.03791 3.49973 3.27696
# Velocity P-wave (km/s) = 4.88309 5.66024 5.28597
#
# Compressibility (1/GPa) = 0.03895418
#
# Stress axis : x y z
#
# Youngs Moduli (GPa) = 83.55609 50.09425 33.96635
#
# Poissons Ratio (x) = 0.21790 -0.03938
# Poissons Ratio (y) = 0.36346 0.27234
# Poissons Ratio (z) = -0.09687 0.40166
#
# Static dielectric constant tensor:
#      x y z
#    x 1.947420 0.000000 -0.126150 
#    y 0.000000 1.907550 0.000000 
#    z -0.126150 0.000000 1.978170 
# 
# From -- ./inp_files/6197.got.cif
#   From: 2010.05.17/outbox.cif.g08.bks.cpg/sg4_4_cif.got.tgz:6197.got - 2010.06.03 18:43:04.
