data_PCOD9116144
_publ_section_title
;
Structure prediction by ZEFSAII (Michael W. Deem and Ramdas Pophale) SiO2 
 PCOD9116144
Probable space group: P 21
;
_chemical_formula_sum "Si O2"
_cell_formula_units_Z 16
_cell_length_a 11.720014
_cell_length_b 8.652008
_cell_length_c 10.850289
_cell_angle_alpha 90.000000
_cell_angle_beta 37.390468
_cell_angle_gamma 90.000000
_cell_volume 668.112111
_symmetry_space_group_name_H-M "P 21"
_symmetry_group_IT_number 4
_symmetry_cell_setting 'monoclinic'
loop_
_space_group_symop_operation_xyz
x,y,z
-x,1/2+y,-z
loop_
_atom_site_type_symbol
_atom_site_label
_atom_site_fract_x
_atom_site_fract_y
_atom_site_fract_z
Si Si1 0.992523 0.039420 0.330672
Si Si2 0.136473 0.847913 0.679722
Si Si3 0.750965 0.924999 0.044049
Si Si4 0.668679 0.879684 0.476589
Si Si5 0.751562 0.951459 0.763758
Si Si6 0.602950 0.589698 0.661079
Si Si7 0.471371 0.194435 0.626684
Si Si8 0.384111 0.101999 0.071544
O O1 0.942480 0.220771 0.350585
O O2 0.215928 0.024778 0.140411
O O3 0.872079 0.952246 0.329866
O O4 0.921202 0.976045 0.523797
O O5 0.321963 0.766471 0.573195
O O6 0.224186 0.002605 0.548847
O O7 0.957790 0.889788 0.917483
O O8 0.627032 0.767607 0.166987
O O9 0.597244 0.043773 0.228826
O O10 0.795991 0.989474 0.868461
O O11 0.624101 0.771240 0.630512
O O12 0.656217 0.763343 0.372440
O O13 0.514094 0.014157 0.596655
O O14 0.672267 0.778368 0.851258
O O15 0.591259 0.065150 0.846835
O O16 0.603599 0.531785 0.800426
#
# Coordination Sequence:
#
# PCOD9116144 Si02
#       8
#     2   2   2   2   2   2   2   2
#     4  11  24  41  66  99 138 177 225 271 336 406
#     4  10  21  40  66  93 128 176 221 274 335 391
#     4  10  21  42  65  98 131 179 224 277 334 399
#     4  11  23  47  69 102 129 185 225 282 345 392
#     4  11  24  39  64 100 138 178 222 270 339 401
#     4  10  22  40  64  94 138 170 220 276 331 401
#     4  10  23  42  73  89 137 171 228 287 334 392
#     4  11  24  39  63  99 137 178 217 269 332 406
#
# _framework density 23.948077000000001
#
# number of rings (size 3 to 8) (size 9 to 14) (size 15 to 20)
#    0.000    1.500    2.500    2.250    7.000    0.000 
#    4.500   10.000    0.000    0.000    0.000    0.000 
#    0.000    0.000    0.000    0.000    0.000    0.000 
#
# Total GULP energy -89273.081309 kJ/mol
# GULP energy per Si atom -5579.567582 kJ/mol
# Density = 2.389357 g / cm^3
# Si number density = 23.948077 Si / 1000 Ang^3
#
#
#
# Elastic Constant Matrix: (Units=GPa)
#
#
# Indices 1 2 3 4 5 6 
#
# 1 87.9868 17.5368 29.3688 0.0000 -6.1463 0.0000
# 2 17.5368 86.6162 11.4900 0.0000 -10.5673 0.0000
# 3 29.3688 11.4900 81.2872 0.0000 -30.4970 0.0000
# 4 0.0000 0.0000 0.0000 21.9931 0.0000 -1.9510
# 5 -6.1463 -10.5673 -30.4970 0.0000 38.2013 0.0000
# 6 0.0000 0.0000 0.0000 -1.9510 0.0000 33.4381
#
#
#
# Elastic Compliance Matrix: (Units=1/GPa)
#
#
# Indices 1 2 3 4 5 6 
#
# 1 0.013520 -0.002351 -0.005682 0.000000 -0.003011 0.000000
# 2 -0.002351 0.012381 0.000346 0.000000 0.003323 0.000000
# 3 -0.005682 0.000346 0.019985 0.000000 0.015136 0.000000
# 4 0.000000 0.000000 0.000000 0.045705 0.000000 0.002667
# 5 -0.003011 0.003323 0.015136 0.000000 0.038695 0.000000
# 6 0.000000 0.000000 0.000000 0.002667 0.000000 0.030062
#
#
# Mechanical properties :
#
#
# Convention : Reuss Voigt Hill
#
# Bulk Modulus (GPa) = 32.77504 41.40904 37.09204
# Shear Modulus (GPa) = 26.89729 31.89281 29.39505
#
# Velocity S-wave (km/s) = 3.35498 3.65327 3.50730
# Velocity P-wave (km/s) = 5.35942 5.92654 5.65010
#
# Compressibility (1/GPa) = 0.03051102
#
# Stress axis : x y z
#
# Youngs Moduli (GPa) = 73.96322 80.77117 50.03833
#
# Poissons Ratio (x) = 0.18989 0.28433
# Poissons Ratio (y) = 0.17389 -0.01731
# Poissons Ratio (z) = 0.42028 -0.02795
#
# Static dielectric constant tensor:
#      x y z
#    x 2.060900 0.000000 0.051410 
#    y 0.000000 1.934680 0.000000 
#    z 0.051410 0.000000 1.901300 
# 
# From -- ./inp_files/11839.got.cif
#   From: 2010.05.17/outbox.cif.g08.bks.cpg/sg4_6_cif.got.tgz:11839.got - 2010.06.03 18:43:04.
