data_PCOD9116910
_publ_section_title
;
Structure prediction by ZEFSAII (Michael W. Deem and Ramdas Pophale) SiO2 
 PCOD9116910
Probable space group: P 21
;
_chemical_formula_sum "Si O2"
_cell_formula_units_Z 16
_cell_length_a 6.239739
_cell_length_b 7.481239
_cell_length_c 13.805085
_cell_angle_alpha 90.000000
_cell_angle_beta 106.628499
_cell_angle_gamma 90.000000
_cell_volume 617.484841
_symmetry_space_group_name_H-M "P 21"
_symmetry_group_IT_number 4
_symmetry_cell_setting 'monoclinic'
loop_
_space_group_symop_operation_xyz
x,y,z
-x,1/2+y,-z
loop_
_atom_site_type_symbol
_atom_site_label
_atom_site_fract_x
_atom_site_fract_y
_atom_site_fract_z
Si Si1 0.369846 0.388130 0.369288
Si Si2 0.349445 0.609815 0.016935
Si Si3 0.934383 0.467525 0.007362
Si Si4 0.288902 0.632891 0.789331
Si Si5 0.772956 0.620279 0.785190
Si Si6 0.947324 0.201565 0.603906
Si Si7 0.773159 0.554313 0.192554
Si Si8 0.246834 0.063835 0.484884
O O1 0.267909 0.322950 0.255505
O O2 0.209934 0.534306 0.395239
O O3 0.369873 0.207285 0.433470
O O4 0.606002 0.483805 0.408782
O O5 0.540053 0.619966 0.119825
O O6 0.195208 0.441475 0.020912
O O7 0.393078 0.596799 0.908965
O O8 0.204719 0.787780 0.007069
O O9 0.914755 0.554399 0.110838
O O10 0.845897 0.572045 0.902111
O O11 0.497874 0.564352 0.746727
O O12 0.019921 0.576229 0.761866
O O13 0.259017 0.848965 0.776024
O O14 0.822358 0.389688 0.584162
O O15 0.128134 0.182496 0.712810
O O16 0.047736 0.169377 0.510383
#
# Coordination Sequence:
#
# PCOD9116910 Si02
#       8
#     2   2   2   2   2   2   2   2
#     4  12  26  48  80 115 148 206 258 335 407 483
#     4  10  23  41  66 100 149 203 248 308 371 453
#     4  10  24  43  66 104 151 197 244 309 367 471
#     4  10  22  41  70 102 149 200 250 302 370 464
#     4  11  23  46  71 110 149 198 253 306 391 466
#     4  12  26  50  80 114 149 203 263 335 410 474
#     4  11  23  42  70 105 146 201 248 312 386 471
#     4  12  27  51  79 110 157 196 268 341 406 478
#
# _framework density 25.911567999999999
#
# number of rings (size 3 to 8) (size 9 to 14) (size 15 to 20)
#    0.000    1.000    5.000    0.750    5.250    2.000 
#    6.750    0.000    0.000    0.000    0.000    0.000 
#    0.000    0.000    0.000    0.000    0.000    0.000 
#
# Total GULP energy -89264.529441 kJ/mol
# GULP energy per Si atom -5579.033090 kJ/mol
# Density = 2.585259 g / cm^3
# Si number density = 25.911568 Si / 1000 Ang^3
#
#
#
# Elastic Constant Matrix: (Units=GPa)
#
#
# Indices 1 2 3 4 5 6 
#
# 1 140.5389 29.9763 27.0464 0.0000 12.3054 0.0000
# 2 29.9763 89.0317 25.2848 0.0000 -4.4989 0.0000
# 3 27.0464 25.2848 67.6532 0.0000 10.1247 0.0000
# 4 0.0000 0.0000 0.0000 39.8010 0.0000 -1.5093
# 5 12.3054 -4.4989 10.1247 0.0000 42.2692 0.0000
# 6 0.0000 0.0000 0.0000 -1.5093 0.0000 2.2032
#
#
#
# Elastic Compliance Matrix: (Units=1/GPa)
#
#
# Indices 1 2 3 4 5 6 
#
# 1 0.008190 -0.002265 -0.002110 0.000000 -0.002120 0.000000
# 2 -0.002265 0.013464 -0.004605 0.000000 0.003195 0.000000
# 3 -0.002110 -0.004605 0.017971 0.000000 -0.004180 0.000000
# 4 0.000000 0.000000 0.000000 0.025795 0.000000 0.017671
# 5 -0.002120 0.003195 -0.004180 0.000000 0.025617 0.000000
# 6 0.000000 0.000000 0.000000 0.017671 0.000000 0.466001
#
#
# Mechanical properties :
#
#
# Convention : Reuss Voigt Hill
#
# Bulk Modulus (GPa) = 46.15740 51.31544 48.73642
# Shear Modulus (GPa) = 8.58781 31.18242 19.88512
#
# Velocity S-wave (km/s) = 1.82249 3.47279 2.77324
# Velocity P-wave (km/s) = 4.72025 5.99395 5.39482
#
# Compressibility (1/GPa) = 0.02166500
#
# Stress axis : x y z
#
# Youngs Moduli (GPa) = 122.09352 74.27286 55.64366
#
# Poissons Ratio (x) = 0.16826 0.11743
# Poissons Ratio (y) = 0.27659 0.25621
# Poissons Ratio (z) = 0.25767 0.34199
#
# Static dielectric constant tensor:
#      x y z
#    x 2.203830 0.000000 -0.010190 
#    y 0.000000 2.022520 0.000000 
#    z -0.010190 0.000000 2.083660 
# 
# From -- ./inp_files/13288.got.cif
#   From: 2010.05.17/outbox.cif.g08.bks.cpg/sg4_7_cif.got.tgz:13288.got - 2010.06.03 18:43:04.
