data_PCOD9116102
_publ_section_title
;
Structure prediction by ZEFSAII (Michael W. Deem and Ramdas Pophale) SiO2 
 PCOD9116102
Probable space group: P 21
;
_chemical_formula_sum "Si O2"
_cell_formula_units_Z 16
_cell_length_a 17.420566
_cell_length_b 8.227005
_cell_length_c 11.935324
_cell_angle_alpha 90.000000
_cell_angle_beta 159.545497
_cell_angle_gamma 90.000000
_cell_volume 597.778154
_symmetry_space_group_name_H-M "P 21"
_symmetry_group_IT_number 4
_symmetry_cell_setting 'monoclinic'
loop_
_space_group_symop_operation_xyz
x,y,z
-x,1/2+y,-z
loop_
_atom_site_type_symbol
_atom_site_label
_atom_site_fract_x
_atom_site_fract_y
_atom_site_fract_z
Si Si1 0.460733 0.228460 0.418072
Si Si2 0.518132 0.867682 0.054420
Si Si3 0.227869 0.660251 0.531603
Si Si4 0.861440 0.847859 0.320356
Si Si5 0.829420 0.680438 0.629720
Si Si6 0.170333 0.033233 0.873832
Si Si7 0.843549 0.357337 0.786909
Si Si8 0.218078 0.534455 0.013813
O O1 0.652965 0.315842 0.612670
O O2 0.269857 0.365191 0.154318
O O3 0.575314 0.155445 0.684270
O O4 0.384121 0.072599 0.238606
O O5 0.670908 0.867784 0.152101
O O6 0.613322 0.735152 0.270294
O O7 0.562471 0.040463 0.172730
O O8 0.282088 0.812270 0.687911
O O9 0.181744 0.727780 0.347224
O O10 0.024058 0.562806 0.302371
O O11 0.844041 0.676604 0.236337
O O12 0.094445 0.876215 0.701327
O O13 0.819745 0.977222 0.164044
O O14 0.810147 0.531201 0.687232
O O15 0.929635 0.828935 0.838126
O O16 0.010156 0.622530 0.785593
#
# Coordination Sequence:
#
# PCOD9116102 Si02
#       8
#     2   2   2   2   2   2   2   2
#     4  10  23  39  61  90 122 159 205 252 306 368
#     4  11  24  41  63  92 124 164 210 262 315 370
#     4  11  23  40  61  90 125 164 209 259 312 372
#     4  10  21  40  62  88 122 161 206 255 309 366
#     4  11  24  43  65  92 127 166 209 260 314 370
#     4  10  22  38  59  88 121 161 205 255 308 365
#     4  11  23  41  65  94 128 166 209 258 310 374
#     4  10  22  40  62  90 123 163 205 255 308 367
#
# _framework density 26.765782000000002
#
# number of rings (size 3 to 8) (size 9 to 14) (size 15 to 20)
#    0.000    1.500    0.000    5.250    0.000   11.000 
#    0.000    3.750    0.000    0.000    0.000    0.000 
#    0.000    0.000    0.000    0.000    0.000    0.000 
#
# Total GULP energy -89766.662551 kJ/mol
# GULP energy per Si atom -5610.416409 kJ/mol
# Density = 2.670486 g / cm^3
# Si number density = 26.765782 Si / 1000 Ang^3
#
#
#
# Elastic Constant Matrix: (Units=GPa)
#
#
# Indices 1 2 3 4 5 6 
#
# 1 93.3615 44.9590 16.6647 0.0000 -21.3596 0.0000
# 2 44.9590 89.7046 23.8381 0.0000 -15.1506 0.0000
# 3 16.6647 23.8381 90.1928 0.0000 -36.5455 0.0000
# 4 0.0000 0.0000 0.0000 56.7295 0.0000 -16.9589
# 5 -21.3596 -15.1506 -36.5455 0.0000 32.3586 0.0000
# 6 0.0000 0.0000 0.0000 -16.9589 0.0000 49.3791
#
#
#
# Elastic Compliance Matrix: (Units=1/GPa)
#
#
# Indices 1 2 3 4 5 6 
#
# 1 0.016058 -0.007074 0.003421 0.000000 0.011152 0.000000
# 2 -0.007074 0.015358 -0.003191 0.000000 -0.001082 0.000000
# 3 0.003421 -0.003191 0.021402 0.000000 0.024936 0.000000
# 4 0.000000 0.000000 0.000000 0.019644 0.000000 0.006747
# 5 0.011152 -0.001082 0.024936 0.000000 0.065921 0.000000
# 6 0.000000 0.000000 0.000000 0.006747 0.000000 0.022569
#
#
# Mechanical properties :
#
#
# Convention : Reuss Voigt Hill
#
# Bulk Modulus (GPa) = 25.55444 49.35361 37.45403
# Shear Modulus (GPa) = 26.64065 40.21325 33.42695
#
# Velocity S-wave (km/s) = 3.15830 3.88030 3.53777
# Velocity P-wave (km/s) = 4.78205 6.20925 5.54178
#
# Compressibility (1/GPa) = 0.03913215
#
# Stress axis : x y z
#
# Youngs Moduli (GPa) = 62.27354 65.11178 46.72368
#
# Poissons Ratio (x) = 0.46059 -0.15985
# Poissons Ratio (y) = 0.44052 0.14908
# Poissons Ratio (z) = -0.21305 0.20774
#
# Static dielectric constant tensor:
#      x y z
#    x 2.025690 0.000000 0.028270 
#    y 0.000000 2.158390 0.000000 
#    z 0.028270 0.000000 2.104990 
# 
# From -- ./inp_files/12938.got.cif
#   From: 2010.05.17/outbox.cif.g08.bks.cpg/sg4_7_cif.got.tgz:12938.got - 2010.06.03 18:43:04.
