data_PCOD9116392
_publ_section_title
;
Structure prediction by ZEFSAII (Michael W. Deem and Ramdas Pophale) SiO2 
 PCOD9116392
Probable space group: P 21
;
_chemical_formula_sum "Si O2"
_cell_formula_units_Z 12
_cell_length_a 10.004624
_cell_length_b 9.014461
_cell_length_c 8.550104
_cell_angle_alpha 90.000000
_cell_angle_beta 133.232395
_cell_angle_gamma 90.000000
_cell_volume 561.810761
_symmetry_space_group_name_H-M "P 21"
_symmetry_group_IT_number 4
_symmetry_cell_setting 'monoclinic'
loop_
_space_group_symop_operation_xyz
x,y,z
-x,1/2+y,-z
loop_
_atom_site_type_symbol
_atom_site_label
_atom_site_fract_x
_atom_site_fract_y
_atom_site_fract_z
Si Si1 0.594813 0.324760 0.779251
Si Si2 0.939392 0.467383 0.158543
Si Si3 0.662834 0.000228 0.958412
Si Si4 0.443230 0.781708 0.596956
Si Si5 0.861325 0.765880 0.927777
Si Si6 0.263022 0.504205 0.619003
O O1 0.632524 0.348416 0.624997
O O2 0.388337 0.370083 0.655300
O O3 0.726254 0.426633 0.990923
O O4 0.640753 0.155614 0.854379
O O5 0.032784 0.337218 0.131450
O O6 0.050976 0.477793 0.408198
O O7 0.953779 0.623605 0.079037
O O8 0.691862 0.023523 0.163946
O O9 0.486430 0.902296 0.765415
O O10 0.829824 0.900251 0.025830
O O11 0.649514 0.725581 0.717622
O O12 0.328146 0.647434 0.573241
#
# Coordination Sequence:
#
# PCOD9116392 Si02
#       6
#     2   2   2   2   2   2
#     4  12  22  42  70  95 126 172 222 260 319 380
#     4  12  24  40  70  93 129 168 215 271 315 380
#     4  10  24  40  66  95 131 172 213 262 331 379
#     4  10  21  43  65  93 126 167 218 264 305 385
#     4  10  22  42  63  99 122 168 220 258 316 378
#     4  12  23  43  64  95 134 171 208 269 328 376
#
# _framework density 21.359504999999999
#
# number of rings (size 3 to 8) (size 9 to 14) (size 15 to 20)
#    1.000    0.000    3.333    5.000    0.000    1.333 
#    0.000    1.667    0.000    0.000    0.000    0.000 
#    0.000    0.000    0.000    0.000    0.000    0.000 
#
# Total GULP energy -66999.870886 kJ/mol
# GULP energy per Si atom -5583.322574 kJ/mol
# Density = 2.131089 g / cm^3
# Si number density = 21.359505 Si / 1000 Ang^3
#
#
#
# Elastic Constant Matrix: (Units=GPa)
#
#
# Indices 1 2 3 4 5 6 
#
# 1 12.2844 -15.7507 16.8115 0.0000 -1.7847 0.0000
# 2 -15.7507 89.0575 27.7749 0.0000 4.4141 0.0000
# 3 16.8115 27.7749 148.9317 0.0000 -2.7268 0.0000
# 4 0.0000 0.0000 0.0000 23.4149 0.0000 -2.6926
# 5 -1.7847 4.4141 -2.7268 0.0000 28.0486 0.0000
# 6 0.0000 0.0000 0.0000 -2.6926 0.0000 11.9028
#
#
#
# Elastic Compliance Matrix: (Units=1/GPa)
#
#
# Indices 1 2 3 4 5 6 
#
# 1 0.163146 0.036607 -0.025203 0.000000 0.002170 0.000000
# 2 0.036607 0.020260 -0.007941 0.000000 -0.001631 0.000000
# 3 -0.025203 -0.007941 0.011054 0.000000 0.000721 0.000000
# 4 0.000000 0.000000 0.000000 0.043849 0.000000 0.009919
# 5 0.002170 -0.001631 0.000721 0.000000 0.036117 0.000000
# 6 0.000000 0.000000 0.000000 0.009919 0.000000 0.086258
#
#
# Mechanical properties :
#
#
# Convention : Reuss Voigt Hill
#
# Bulk Modulus (GPa) = 4.96558 34.21613 19.59085
# Shear Modulus (GPa) = 11.87969 27.43579 19.65774
#
# Velocity S-wave (km/s) = 2.36090 3.58785 3.03698
# Velocity P-wave (km/s) = 3.12436 5.76346 4.63568
#
# Compressibility (1/GPa) = 0.20138627
#
# Stress axis : x y z
#
# Youngs Moduli (GPa) = 6.12946 49.35762 90.46894
#
# Poissons Ratio (x) = -1.80683 2.28012
# Poissons Ratio (y) = -0.22438 0.71837
# Poissons Ratio (z) = 0.15448 0.39192
#
# Static dielectric constant tensor:
#      x y z
#    x 1.764780 0.000000 0.039300 
#    y 0.000000 1.750630 0.000000 
#    z 0.039300 0.000000 1.792100 
# 
# From -- ./inp_files/5533.got.cif
#   From: 2010.05.17/outbox.cif.g08.bks.cpg/sg4_3_cif.got.tgz:5533.got - 2010.06.03 18:43:04.
