data_PCOD9116648
_publ_section_title
;
Structure prediction by ZEFSAII (Michael W. Deem and Ramdas Pophale) SiO2 
 PCOD9116648
Probable space group: P 21
;
_chemical_formula_sum "Si O2"
_cell_formula_units_Z 16
_cell_length_a 8.783393
_cell_length_b 11.603161
_cell_length_c 9.713883
_cell_angle_alpha 90.000000
_cell_angle_beta 129.451483
_cell_angle_gamma 90.000000
_cell_volume 764.434796
_symmetry_space_group_name_H-M "P 21"
_symmetry_group_IT_number 4
_symmetry_cell_setting 'monoclinic'
loop_
_space_group_symop_operation_xyz
x,y,z
-x,1/2+y,-z
loop_
_atom_site_type_symbol
_atom_site_label
_atom_site_fract_x
_atom_site_fract_y
_atom_site_fract_z
Si Si1 0.375562 0.309460 0.471256
Si Si2 0.582245 0.713212 0.806708
Si Si3 0.059506 0.226929 0.799060
Si Si4 0.693473 0.475422 0.783474
Si Si5 0.002381 0.472644 0.192369
Si Si6 0.253013 0.859893 0.722648
Si Si7 0.861651 0.468397 0.600611
Si Si8 0.896297 0.683627 0.477768
O O1 0.445496 0.257340 0.365593
O O2 0.551787 0.373026 0.653501
O O3 0.279352 0.220249 0.522935
O O4 0.196964 0.397952 0.331625
O O5 0.572524 0.574631 0.793286
O O6 0.437379 0.774856 0.831477
O O7 0.798042 0.740687 0.989471
O O8 0.166224 0.191144 0.717060
O O9 0.955489 0.348529 0.707475
O O10 0.941521 0.108204 0.762302
O O11 0.773808 0.524979 0.685712
O O12 0.887638 0.448069 0.984244
O O13 0.829036 0.437159 0.201282
O O14 0.290558 0.935889 0.607770
O O15 0.067974 0.777253 0.587436
O O16 0.985285 0.563327 0.586659
#
# Coordination Sequence:
#
# PCOD9116648 Si02
#       8
#     2   2   2   2   2   2   2   2
#     4  11  23  40  66  90 125 168 206 262 322 378
#     4  11  23  41  61  95 128 162 218 264 318 385
#     4  10  23  39  65  89 126 168 211 265 318 380
#     4  11  24  39  67  93 129 165 213 267 317 380
#     4  10  23  43  61  94 129 163 212 261 318 381
#     4  10  22  39  63  87 127 162 206 263 314 379
#     4  11  20  41  64  89 126 164 211 263 317 380
#     4  10  22  40  61  91 122 166 211 253 322 383
#
# _framework density 20.930498
#
# number of rings (size 3 to 8) (size 9 to 14) (size 15 to 20)
#    0.000    1.500    3.750    0.750    5.250    0.000 
#    2.250    0.000    2.750    0.000    0.000    0.000 
#    0.000    0.000    0.000    0.000    0.000    0.000 
#
# Total GULP energy -89079.407700 kJ/mol
# GULP energy per Si atom -5567.462981 kJ/mol
# Density = 2.088286 g / cm^3
# Si number density = 20.930498 Si / 1000 Ang^3
#
#
#
# Elastic Constant Matrix: (Units=GPa)
#
#
# Indices 1 2 3 4 5 6 
#
# 1 27.8583 -2.9875 -0.8001 0.0000 -11.3914 0.0000
# 2 -2.9875 72.7830 28.7344 0.0000 -2.9957 0.0000
# 3 -0.8001 28.7344 66.0495 0.0000 -11.9138 0.0000
# 4 0.0000 0.0000 0.0000 30.8629 0.0000 1.9803
# 5 -11.3914 -2.9957 -11.9138 0.0000 17.5366 0.0000
# 6 0.0000 0.0000 0.0000 1.9803 0.0000 19.5938
#
#
#
# Elastic Compliance Matrix: (Units=1/GPa)
#
#
# Indices 1 2 3 4 5 6 
#
# 1 0.052127 0.000869 0.007280 0.000000 0.038954 0.000000
# 2 0.000869 0.016689 -0.007560 0.000000 -0.001721 0.000000
# 3 0.007280 -0.007560 0.021810 0.000000 0.018254 0.000000
# 4 0.000000 0.000000 0.000000 0.032613 0.000000 -0.003296
# 5 0.038954 -0.001721 0.018254 0.000000 0.094435 0.000000
# 6 0.000000 0.000000 0.000000 -0.003296 0.000000 0.051370
#
#
# Mechanical properties :
#
#
# Convention : Reuss Voigt Hill
#
# Bulk Modulus (GPa) = 10.89289 24.06492 17.47891
# Shear Modulus (GPa) = 16.75225 23.04828 19.90026
#
# Velocity S-wave (km/s) = 2.83216 3.32201 3.08681
# Velocity P-wave (km/s) = 3.98879 5.12219 4.59060
#
# Compressibility (1/GPa) = 0.09180299
#
# Stress axis : x y z
#
# Youngs Moduli (GPa) = 19.18399 59.91937 45.85026
#
# Poissons Ratio (x) = -0.05206 -0.33379
# Poissons Ratio (y) = -0.01667 0.34665
# Poissons Ratio (z) = -0.13966 0.45301
#
# Static dielectric constant tensor:
#      x y z
#    x 1.774610 0.000000 -0.015230 
#    y 0.000000 1.828750 0.000000 
#    z -0.015230 0.000000 1.734640 
# 
# From -- ./inp_files/6039.got.cif
#   From: 2010.05.17/outbox.cif.g08.bks.cpg/sg4_4_cif.got.tgz:6039.got - 2010.06.03 18:43:04.
