data_PCOD9116370
_publ_section_title
;
Structure prediction by ZEFSAII (Michael W. Deem and Ramdas Pophale) SiO2 
 PCOD9116370
Probable space group: P 21
;
_chemical_formula_sum "Si O2"
_cell_formula_units_Z 12
_cell_length_a 9.271630
_cell_length_b 12.190608
_cell_length_c 5.207734
_cell_angle_alpha 90.000000
_cell_angle_beta 76.167012
_cell_angle_gamma 90.000000
_cell_volume 571.541859
_symmetry_space_group_name_H-M "P 21"
_symmetry_group_IT_number 4
_symmetry_cell_setting 'monoclinic'
loop_
_space_group_symop_operation_xyz
x,y,z
-x,1/2+y,-z
loop_
_atom_site_type_symbol
_atom_site_label
_atom_site_fract_x
_atom_site_fract_y
_atom_site_fract_z
Si Si1 0.282299 0.020130 0.717521
Si Si2 0.437860 0.252257 0.584433
Si Si3 0.436233 0.939773 0.147362
Si Si4 0.938401 0.998298 0.967773
Si Si5 0.670873 0.108668 0.248492
Si Si6 0.788980 0.925245 0.523207
O O1 0.354113 0.141061 0.696240
O O2 0.107695 0.024451 0.843873
O O3 0.320363 0.970595 0.422943
O O4 0.360474 0.949558 0.906289
O O5 0.490128 0.325180 0.802621
O O6 0.564445 0.031840 0.122516
O O7 0.324103 0.326158 0.469389
O O8 0.417292 0.715796 0.637385
O O9 0.868010 0.932798 0.760140
O O10 0.833680 0.106342 0.052935
O O11 0.908845 0.929288 0.240063
O O12 0.696811 0.036289 0.496445
#
# Coordination Sequence:
#
# PCOD9116370 Si02
#       6
#     2   2   2   2   2   2
#     4  11  24  43  68  95 137 170 218 273 332 385
#     4  10  22  43  70  99 125 183 223 264 327 395
#     4  10  23  40  65  98 127 172 220 273 312 397
#     4  10  21  43  62  90 135 169 206 278 327 370
#     4   8  21  38  66  91 127 163 219 265 318 375
#     4   9  21  39  65  93 133 167 210 273 320 384
#
# _framework density 20.995840000000001
#
# number of rings (size 3 to 8) (size 9 to 14) (size 15 to 20)
#    1.000    1.333    0.000    1.000    7.000    5.333 
#    3.000    1.667    0.000    0.000    0.000    0.000 
#    0.000    0.000    0.000    0.000    0.000    0.000 
#
# Total GULP energy -66988.595810 kJ/mol
# GULP energy per Si atom -5582.382984 kJ/mol
# Density = 2.094805 g / cm^3
# Si number density = 20.995840 Si / 1000 Ang^3
#
#
#
# Elastic Constant Matrix: (Units=GPa)
#
#
# Indices 1 2 3 4 5 6 
#
# 1 116.5564 34.5124 28.5269 0.0000 -22.8944 0.0000
# 2 34.5124 103.2937 28.7099 0.0000 -0.1213 0.0000
# 3 28.5269 28.7099 104.0077 0.0000 -7.3163 0.0000
# 4 0.0000 0.0000 0.0000 1.4356 0.0000 -5.3758
# 5 -22.8944 -0.1213 -7.3163 0.0000 33.5039 0.0000
# 6 0.0000 0.0000 0.0000 -5.3758 0.0000 19.3766
#
#
#
# Elastic Compliance Matrix: (Units=1/GPa)
#
#
# Indices 1 2 3 4 5 6 
#
# 1 0.011446 -0.003345 -0.001693 0.000000 0.007439 0.000000
# 2 -0.003345 0.011475 -0.002446 0.000000 -0.002778 0.000000
# 3 -0.001693 -0.002446 0.010838 0.000000 0.001201 0.000000
# 4 0.000000 0.000000 0.000000-17.911649 0.000000 -4.969343
# 5 0.007439 -0.002778 0.001201 0.000000 0.035183 0.000000
# 6 0.000000 0.000000 0.000000 -4.969343 0.000000 -1.327068
#
#
# Mechanical properties :
#
#
# Convention : Reuss Voigt Hill
#
# Bulk Modulus (GPa) = 53.21140 56.37289 54.79214
# Shear Modulus (GPa) = -0.26112 26.33713 13.03801
#
# Velocity S-wave (km/s) = -0.35304 3.54559 2.49465
# Velocity P-wave (km/s) = 5.02321 6.60829 5.86950
#
# Compressibility (1/GPa) = 0.01879297
#
# Stress axis : x y z
#
# Youngs Moduli (GPa) = 87.37041 87.14427 92.26384
#
# Poissons Ratio (x) = 0.29150 0.15616
# Poissons Ratio (y) = 0.29225 0.22564
# Poissons Ratio (z) = 0.14788 0.21312
#
# Static dielectric constant tensor:
#      x y z
#    x 1.744440 0.000000 -0.030220 
#    y 0.000000 1.748750 0.000000 
#    z -0.030220 0.000000 1.781820 
# 
# From -- ./inp_files/1218.got.cif
#   From: 2010.05.17/outbox.cif.g08.bks.cpg/sg4_1_cif.got.tgz:1218.got - 2010.06.03 18:43:04.
