data_PCOD9116393
_publ_section_title
;
Structure prediction by ZEFSAII (Michael W. Deem and Ramdas Pophale) SiO2 
 PCOD9116393
Probable space group: P 21
;
_chemical_formula_sum "Si O2"
_cell_formula_units_Z 16
_cell_length_a 8.692072
_cell_length_b 9.550063
_cell_length_c 9.110913
_cell_angle_alpha 90.000000
_cell_angle_beta 119.246913
_cell_angle_gamma 90.000000
_cell_volume 659.884614
_symmetry_space_group_name_H-M "P 21"
_symmetry_group_IT_number 4
_symmetry_cell_setting 'monoclinic'
loop_
_space_group_symop_operation_xyz
x,y,z
-x,1/2+y,-z
loop_
_atom_site_type_symbol
_atom_site_label
_atom_site_fract_x
_atom_site_fract_y
_atom_site_fract_z
Si Si1 0.254086 0.155110 0.001247
Si Si2 0.896717 0.462561 0.300421
Si Si3 0.556165 0.769502 0.485596
Si Si4 0.840468 0.879558 0.830814
Si Si5 0.712686 0.494131 0.691211
Si Si6 0.353791 0.726172 0.798025
Si Si7 0.765635 0.945183 0.353596
Si Si8 0.125750 0.539609 0.881317
O O1 0.293627 0.027327 0.135835
O O2 0.443168 0.227188 0.069742
O O3 0.128143 0.255693 0.037633
O O4 0.175744 0.099044 0.814233
O O5 0.732915 0.372361 0.282213
O O6 0.039524 0.472450 0.493966
O O7 0.014603 0.392286 0.226078
O O8 0.596398 0.608214 0.544799
O O9 0.664267 0.825080 0.393343
O O10 0.364168 0.840065 0.378599
O O11 0.656643 0.846551 0.667238
O O12 0.838220 0.013482 0.932636
O O13 0.917552 0.527529 0.753114
O O14 0.231845 0.674239 0.875965
O O15 0.325359 0.598461 0.670320
O O16 0.784718 0.926759 0.188289
#
# Coordination Sequence:
#
# PCOD9116393 Si02
#       8
#     2   2   2   2   2   2   2   2
#     4  11  23  42  66  97 134 169 219 274 328 392
#     4  11  23  44  69  94 131 175 217 270 329 392
#     4  10  22  44  65  97 131 173 220 276 325 400
#     4  10  23  42  68  92 131 168 228 263 330 384
#     4  11  21  45  68  96 133 176 219 275 329 394
#     4  10  23  41  65  91 137 167 213 270 329 382
#     4   9  22  41  64  92 130 172 215 266 328 385
#     4  10  21  43  65  93 131 174 211 274 324 387
#
# _framework density 24.246665
#
# number of rings (size 3 to 8) (size 9 to 14) (size 15 to 20)
#    0.750    1.000    2.500    2.250    1.750    3.000 
#    6.750    0.000    0.000    0.000    0.000    0.000 
#    0.000    0.000    0.000    0.000    0.000    0.000 
#
# Total GULP energy -89292.652380 kJ/mol
# GULP energy per Si atom -5580.790774 kJ/mol
# Density = 2.419148 g / cm^3
# Si number density = 24.246665 Si / 1000 Ang^3
#
#
#
# Elastic Constant Matrix: (Units=GPa)
#
#
# Indices 1 2 3 4 5 6 
#
# 1 86.5411 -0.7276 21.5015 0.0000 7.2656 0.0000
# 2 -0.7276 31.7044 1.5883 0.0000 12.6277 0.0000
# 3 21.5015 1.5883 49.2881 0.0000 -6.2360 0.0000
# 4 0.0000 0.0000 0.0000 36.5530 0.0000 4.9515
# 5 7.2656 12.6277 -6.2360 0.0000 36.1174 0.0000
# 6 0.0000 0.0000 0.0000 4.9515 0.0000 37.1102
#
#
#
# Elastic Compliance Matrix: (Units=1/GPa)
#
#
# Indices 1 2 3 4 5 6 
#
# 1 0.013625 0.002547 -0.006630 0.000000 -0.004776 0.000000
# 2 0.002547 0.037520 -0.004135 0.000000 -0.014345 0.000000
# 3 -0.006630 -0.004135 0.024195 0.000000 0.006957 0.000000
# 4 0.000000 0.000000 0.000000 0.027861 0.000000 -0.003717
# 5 -0.004776 -0.014345 0.006957 0.000000 0.034865 0.000000
# 6 0.000000 0.000000 0.000000 -0.003717 0.000000 0.027443
#
#
# Mechanical properties :
#
#
# Convention : Reuss Voigt Hill
#
# Bulk Modulus (GPa) = 16.97692 23.58425 20.28058
# Shear Modulus (GPa) = 24.80413 31.63421 28.21917
#
# Velocity S-wave (km/s) = 3.20189 3.61596 3.41521
# Velocity P-wave (km/s) = 4.54824 5.21358 4.89223
#
# Compressibility (1/GPa) = 0.05890351
#
# Stress axis : x y z
#
# Youngs Moduli (GPa) = 73.39513 26.65226 41.33138
#
# Poissons Ratio (x) = -0.06789 0.27403
# Poissons Ratio (y) = -0.18695 0.17091
# Poissons Ratio (z) = 0.48662 0.11021
#
# Static dielectric constant tensor:
#      x y z
#    x 1.950450 0.000000 -0.030160 
#    y 0.000000 2.063990 0.000000 
#    z -0.030160 0.000000 1.912270 
# 
# From -- ./inp_files/6207.got.cif
#   From: 2010.05.17/outbox.cif.g08.bks.cpg/sg4_4_cif.got.tgz:6207.got - 2010.06.03 18:43:04.
