data_PCOD9116340
_publ_section_title
;
Structure prediction by ZEFSAII (Michael W. Deem and Ramdas Pophale) SiO2 
 PCOD9116340
Probable space group: P 21
;
_chemical_formula_sum "Si O2"
_cell_formula_units_Z 14
_cell_length_a 9.133162
_cell_length_b 9.104621
_cell_length_c 12.089038
_cell_angle_alpha 90.000000
_cell_angle_beta 143.740760
_cell_angle_gamma 90.000000
_cell_volume 594.545703
_symmetry_space_group_name_H-M "P 21"
_symmetry_group_IT_number 4
_symmetry_cell_setting 'monoclinic'
loop_
_space_group_symop_operation_xyz
x,y,z
-x,1/2+y,-z
loop_
_atom_site_type_symbol
_atom_site_label
_atom_site_fract_x
_atom_site_fract_y
_atom_site_fract_z
Si Si1 0.289132 0.294900 0.165501
Si Si2 0.599255 0.219865 0.980504
Si Si3 0.501706 0.755667 0.320785
Si Si4 0.714501 0.074334 0.469976
Si Si5 0.904501 0.070575 0.818323
Si Si6 0.947174 0.175491 0.384276
Si Si7 0.387536 0.934329 0.827927
O O1 0.519608 0.209243 0.361650
O O2 0.146216 0.410522 0.157612
O O3 0.409739 0.393778 0.141111
O O4 0.121962 0.166415 0.007585
O O5 0.652532 0.255813 0.887391
O O6 0.530041 0.362507 0.006343
O O7 0.142485 0.843867 0.648581
O O8 0.377874 0.105157 0.840993
O O9 0.342378 0.664872 0.308825
O O10 0.762765 0.674040 0.458932
O O11 0.564558 0.922121 0.388341
O O12 0.913048 0.065142 0.690576
O O13 0.828779 0.092155 0.416147
O O14 0.813216 0.145359 0.184948
#
# Coordination Sequence:
#
# PCOD9116340 Si02
#       7
#     2   2   2   2   2   2   2
#     4  11  25  49  68 102 141 187 243 282 356 418
#     4  10  21  42  68  99 138 181 226 289 344 408
#     4  12  25  43  71 106 139 184 233 291 361 414
#     4  11  26  47  70 107 139 188 236 294 351 430
#     4  12  27  47  74 100 144 191 234 295 351 433
#     4   9  25  39  71 102 138 177 230 293 345 412
#     4   9  21  43  64 100 135 176 228 282 342 409
#
# _framework density 23.547388999999999
#
# number of rings (size 3 to 8) (size 9 to 14) (size 15 to 20)
#    0.857    0.571    1.429    2.571    4.000    3.429 
#    5.143    0.000    0.000    0.000    0.000    0.000 
#    0.000    0.000    0.000    0.000    0.000    0.000 
#
# Total GULP energy -78181.826850 kJ/mol
# GULP energy per Si atom -5584.416204 kJ/mol
# Density = 2.349379 g / cm^3
# Si number density = 23.547389 Si / 1000 Ang^3
#
#
#
# Elastic Constant Matrix: (Units=GPa)
#
#
# Indices 1 2 3 4 5 6 
#
# 1 73.8574 -11.1111 35.0260 0.0000 -0.5147 0.0000
# 2 -11.1111 65.6642 2.1987 0.0000 -2.7254 0.0000
# 3 35.0260 2.1987 106.6807 0.0000 -18.0633 0.0000
# 4 0.0000 0.0000 0.0000 39.0650 0.0000 0.8287
# 5 -0.5147 -2.7254 -18.0633 0.0000 45.7945 0.0000
# 6 0.0000 0.0000 0.0000 0.8287 0.0000 36.4323
#
#
#
# Elastic Compliance Matrix: (Units=1/GPa)
#
#
# Indices 1 2 3 4 5 6 
#
# 1 0.016767 0.002953 -0.005898 0.000000 -0.001962 0.000000
# 2 0.002953 0.015790 -0.001211 0.000000 0.000495 0.000000
# 3 -0.005898 -0.001211 0.012121 0.000000 0.004643 0.000000
# 4 0.000000 0.000000 0.000000 0.025611 0.000000 -0.000583
# 5 -0.001962 0.000495 0.004643 0.000000 0.023675 0.000000
# 6 0.000000 0.000000 0.000000 -0.000583 0.000000 0.027461
#
#
# Mechanical properties :
#
#
# Convention : Reuss Voigt Hill
#
# Bulk Modulus (GPa) = 27.49807 33.15882 30.32845
# Shear Modulus (GPa) = 35.24582 38.93096 37.08839
#
# Velocity S-wave (km/s) = 3.87305 4.07049 3.97300
# Velocity P-wave (km/s) = 5.63061 6.01699 5.82701
#
# Compressibility (1/GPa) = 0.03636619
#
# Stress axis : x y z
#
# Youngs Moduli (GPa) = 59.63940 63.33190 82.49852
#
# Poissons Ratio (x) = -0.18704 0.48660
# Poissons Ratio (y) = -0.17613 0.09993
# Poissons Ratio (z) = 0.35177 0.07671
#
# Static dielectric constant tensor:
#      x y z
#    x 1.885720 0.000000 -0.004930 
#    y 0.000000 1.903870 0.000000 
#    z -0.004930 0.000000 1.955280 
# 
# From -- ./inp_files/11103.got.cif
#   From: 2010.05.17/outbox.cif.g08.bks.cpg/sg4_6_cif.got.tgz:11103.got - 2010.06.03 18:43:04.
