data_PCOD9116623
_publ_section_title
;
Structure prediction by ZEFSAII (Michael W. Deem and Ramdas Pophale) SiO2 
 PCOD9116623
Probable space group: P 21
;
_chemical_formula_sum "Si O2"
_cell_formula_units_Z 14
_cell_length_a 11.472836
_cell_length_b 5.010882
_cell_length_c 10.175142
_cell_angle_alpha 90.000000
_cell_angle_beta 92.005291
_cell_angle_gamma 90.000000
_cell_volume 584.600788
_symmetry_space_group_name_H-M "P 21"
_symmetry_group_IT_number 4
_symmetry_cell_setting 'monoclinic'
loop_
_space_group_symop_operation_xyz
x,y,z
-x,1/2+y,-z
loop_
_atom_site_type_symbol
_atom_site_label
_atom_site_fract_x
_atom_site_fract_y
_atom_site_fract_z
Si Si1 0.359305 0.799120 0.888538
Si Si2 0.301470 0.312935 0.515438
Si Si3 0.779990 0.773397 0.757521
Si Si4 0.778552 0.777417 0.197092
Si Si5 0.005358 0.544165 0.085131
Si Si6 0.523316 0.131964 0.358545
Si Si7 0.377537 0.766420 0.184133
O O1 0.263541 0.572825 0.845238
O O2 0.447100 0.804085 0.769082
O O3 0.297885 0.082225 0.894665
O O4 0.412035 0.742900 0.033152
O O5 0.205374 0.278276 0.399561
O O6 0.253384 0.219526 0.653012
O O7 0.418468 0.190428 0.453878
O O8 0.356589 0.601344 0.555783
O O9 0.723981 0.493792 0.800676
O O10 0.680916 0.994014 0.775723
O O11 0.891550 0.887451 0.836794
O O12 0.910333 0.690394 0.172741
O O13 0.950612 0.298457 0.998673
O O14 0.481699 0.863076 0.281710
#
# Coordination Sequence:
#
# PCOD9116623 Si02
#       7
#     2   2   2   2   2   2   2
#     4  11  23  40  63  96 128 165 212 260 311 364
#     4  10  22  42  62  94 128 170 214 248 310 372
#     4  11  24  42  67  91 127 166 207 264 309 374
#     4  11  24  42  67  91 127 166 207 264 309 374
#     4  12  24  44  70  96 122 160 208 262 326 372
#     4  10  22  38  66  90 130 174 208 256 304 372
#     4  11  23  40  63  96 128 165 212 260 311 364
#
# _framework density 23.947965
#
# number of rings (size 3 to 8) (size 9 to 14) (size 15 to 20)
#    0.000    1.143    0.000    6.857    0.000   11.429 
#    0.000    7.143    0.000    0.000    0.000    0.000 
#    0.000    0.000    0.000    0.000    0.000    0.000 
#
# Total GULP energy -78264.741176 kJ/mol
# GULP energy per Si atom -5590.338655 kJ/mol
# Density = 2.389346 g / cm^3
# Si number density = 23.947965 Si / 1000 Ang^3
#
#
#
# Elastic Constant Matrix: (Units=GPa)
#
#
# Indices 1 2 3 4 5 6 
#
# 1 103.1244 21.9707 24.9639 0.0000 -7.9416 0.0000
# 2 21.9707 89.0152 10.4841 0.0000 -11.3274 0.0000
# 3 24.9639 10.4841 155.1637 0.0000 -10.2035 0.0000
# 4 0.0000 0.0000 0.0000 32.8081 0.0000 -1.6760
# 5 -7.9416 -11.3274 -10.2035 0.0000 44.1430 0.0000
# 6 0.0000 0.0000 0.0000 -1.6760 0.0000 42.3729
#
#
#
# Elastic Compliance Matrix: (Units=1/GPa)
#
#
# Indices 1 2 3 4 5 6 
#
# 1 0.010627 -0.002324 -0.001489 0.000000 0.000971 0.000000
# 2 -0.002324 0.012176 -0.000275 0.000000 0.002643 0.000000
# 3 -0.001489 -0.000275 0.006784 0.000000 0.001230 0.000000
# 4 0.000000 0.000000 0.000000 0.030542 0.000000 0.001208
# 5 0.000971 0.002643 0.001230 0.000000 0.023791 0.000000
# 6 0.000000 0.000000 0.000000 0.001208 0.000000 0.023648
#
#
# Mechanical properties :
#
#
# Convention : Reuss Voigt Hill
#
# Bulk Modulus (GPa) = 46.70375 51.34897 49.02636
# Shear Modulus (GPa) = 40.68965 43.19043 41.94004
#
# Velocity S-wave (km/s) = 4.12647 4.25138 4.18939
# Velocity P-wave (km/s) = 6.49986 6.75185 6.62705
#
# Compressibility (1/GPa) = 0.02141156
#
# Stress axis : x y z
#
# Youngs Moduli (GPa) = 94.09636 82.12632 147.41018
#
# Poissons Ratio (x) = 0.19087 0.21948
# Poissons Ratio (y) = 0.21869 0.04054
# Poissons Ratio (z) = 0.14010 0.02259
#
# Static dielectric constant tensor:
#      x y z
#    x 1.931240 0.000000 0.014700 
#    y 0.000000 1.967140 0.000000 
#    z 0.014700 0.000000 1.938020 
# 
# From -- ./inp_files/7191.got.cif
#   From: 2010.05.17/outbox.cif.g08.bks.cpg/sg4_4_cif.got.tgz:7191.got - 2010.06.03 18:43:04.
