data_PCOD9116437
_publ_section_title
;
Structure prediction by ZEFSAII (Michael W. Deem and Ramdas Pophale) SiO2 
 PCOD9116437
Probable space group: P 21
;
_chemical_formula_sum "Si O2"
_cell_formula_units_Z 14
_cell_length_a 22.712967
_cell_length_b 5.005710
_cell_length_c 28.671208
_cell_angle_alpha 90.000000
_cell_angle_beta 10.556671
_cell_angle_gamma 90.000000
_cell_volume 597.213901
_symmetry_space_group_name_H-M "P 21"
_symmetry_group_IT_number 4
_symmetry_cell_setting 'monoclinic'
loop_
_space_group_symop_operation_xyz
x,y,z
-x,1/2+y,-z
loop_
_atom_site_type_symbol
_atom_site_label
_atom_site_fract_x
_atom_site_fract_y
_atom_site_fract_z
Si Si1 0.638037 0.310160 0.072388
Si Si2 0.792959 0.037174 0.664563
Si Si3 0.113271 0.735149 0.936586
Si Si4 0.288792 0.040450 0.883755
Si Si5 0.282171 0.916496 0.410279
Si Si6 0.667804 0.694338 0.852364
Si Si7 0.791218 0.708641 0.441798
O O1 0.469138 0.533238 0.172197
O O2 0.754902 0.409947 0.031693
O O3 0.370251 0.096815 0.297306
O O4 0.926114 0.214487 0.815279
O O5 0.080124 0.834128 0.425852
O O6 0.654141 0.865974 0.815574
O O7 0.045124 0.906075 0.037141
O O8 0.469907 0.610998 0.665068
O O9 0.099656 0.976431 0.909470
O O10 0.373496 0.337753 0.834480
O O11 0.626767 0.973935 0.592992
O O12 0.111696 0.059436 0.586524
O O13 0.035255 0.694851 0.584504
O O14 0.473256 0.899916 0.036952
#
# Coordination Sequence:
#
# PCOD9116437 Si02
#       7
#     2   2   2   2   2   2   2
#     4  11  23  42  64  98 131 175 226 279 324 408
#     4  12  25  43  62  92 134 177 222 284 339 377
#     4  10  21  43  72 100 137 174 211 279 339 407
#     4   9  23  40  70  92 133 174 217 265 340 397
#     4  11  22  44  65  92 138 177 227 282 332 395
#     4  12  27  42  66  94 132 183 234 287 340 390
#     4   9  23  40  69  98 125 178 223 262 336 406
#
# _framework density 23.442186
#
# number of rings (size 3 to 8) (size 9 to 14) (size 15 to 20)
#    0.857    0.571    1.429    3.429    6.000    1.143 
#    0.000    1.429    0.000    0.000    0.000    0.000 
#    0.000    0.000    0.000    0.000    0.000    0.000 
#
# Total GULP energy -77934.671949 kJ/mol
# GULP energy per Si atom -5566.762282 kJ/mol
# Density = 2.338883 g / cm^3
# Si number density = 23.442186 Si / 1000 Ang^3
#
#
#
# Elastic Constant Matrix: (Units=GPa)
#
#
# Indices 1 2 3 4 5 6 
#
# 1 115.3235 10.1450 40.3188 0.0000 14.4382 0.0000
# 2 10.1450 66.3221 0.0256 0.0000 3.0303 0.0000
# 3 40.3188 0.0256 63.8326 0.0000 25.3301 0.0000
# 4 0.0000 0.0000 0.0000 25.2748 0.0000 -8.8420
# 5 14.4382 3.0303 25.3301 0.0000 51.8292 0.0000
# 6 0.0000 0.0000 0.0000 -8.8420 0.0000 34.3022
#
#
#
# Elastic Compliance Matrix: (Units=1/GPa)
#
#
# Indices 1 2 3 4 5 6 
#
# 1 0.011336 -0.001756 -0.007378 0.000000 0.000551 0.000000
# 2 -0.001756 0.015400 0.001571 0.000000 -0.001179 0.000000
# 3 -0.007378 0.001571 0.024249 0.000000 -0.009888 0.000000
# 4 0.000000 0.000000 0.000000 0.043487 0.000000 0.011209
# 5 0.000551 -0.001179 -0.009888 0.000000 0.024042 0.000000
# 6 0.000000 0.000000 0.000000 0.011209 0.000000 0.032042
#
#
# Mechanical properties :
#
#
# Convention : Reuss Voigt Hill
#
# Bulk Modulus (GPa) = 27.88744 38.49519 33.19132
# Shear Modulus (GPa) = 28.14742 35.28049 31.71396
#
# Velocity S-wave (km/s) = 3.46889 3.88364 3.68211
# Velocity P-wave (km/s) = 5.28833 6.04708 5.68039
#
# Compressibility (1/GPa) = 0.03585844
#
# Stress axis : x y z
#
# Youngs Moduli (GPa) = 88.21172 64.93565 41.23829
#
# Poissons Ratio (x) = 0.11405 0.30426
# Poissons Ratio (y) = 0.15493 -0.06479
# Poissons Ratio (z) = 0.65084 -0.10202
#
# Static dielectric constant tensor:
#      x y z
#    x 1.954000 0.000000 -0.003530 
#    y 0.000000 1.968240 0.000000 
#    z -0.003530 0.000000 1.978780 
# 
# From -- ./inp_files/16554.got.cif
#   From: 2010.05.17/outbox.cif.g08.bks.cpg/sg4_9_cif.got.tgz:16554.got - 2010.06.03 18:43:04.
