data_PCOD9116463
_publ_section_title
;
Structure prediction by ZEFSAII (Michael W. Deem and Ramdas Pophale) SiO2 
 PCOD9116463
Probable space group: P 21
;
_chemical_formula_sum "Si O2"
_cell_formula_units_Z 14
_cell_length_a 6.974418
_cell_length_b 9.806044
_cell_length_c 10.401407
_cell_angle_alpha 90.000000
_cell_angle_beta 47.494136
_cell_angle_gamma 90.000000
_cell_volume 524.425802
_symmetry_space_group_name_H-M "P 21"
_symmetry_group_IT_number 4
_symmetry_cell_setting 'monoclinic'
loop_
_space_group_symop_operation_xyz
x,y,z
-x,1/2+y,-z
loop_
_atom_site_type_symbol
_atom_site_label
_atom_site_fract_x
_atom_site_fract_y
_atom_site_fract_z
Si Si1 0.980200 0.107990 0.617019
Si Si2 0.333190 0.324961 0.555540
Si Si3 0.961049 0.580786 0.701676
Si Si4 0.693096 0.870780 0.148937
Si Si5 0.493542 0.935462 0.778423
Si Si6 0.003587 0.631756 0.958132
Si Si7 0.458548 0.717570 0.009502
O O1 0.803494 0.162942 0.812566
O O2 0.253017 0.171508 0.547299
O O3 0.796528 0.974451 0.674602
O O4 0.990977 0.146564 0.459500
O O5 0.440504 0.344319 0.651864
O O6 0.515420 0.389511 0.364803
O O7 0.079219 0.428036 0.659594
O O8 0.075552 0.654432 0.775524
O O9 0.658488 0.599979 0.872745
O O10 0.947714 0.775839 0.045624
O O11 0.561951 0.809325 0.082731
O O12 0.784281 0.024872 0.091050
O O13 0.276921 0.053206 0.895738
O O14 0.440163 0.815007 0.898462
#
# Coordination Sequence:
#
# PCOD9116463 Si02
#       7
#     2   2   2   2   2   2   2
#     4  11  21  37  67  90 125 166 216 260 311 382
#     4  10  22  39  62  91 133 164 210 270 324 375
#     4   9  19  39  59  90 120 163 204 263 310 373
#     4  10  22  41  63  95 132 166 214 268 326 387
#     4  11  22  41  66  91 129 174 213 266 318 386
#     4  10  21  44  66  91 131 174 212 269 331 379
#     4  11  21  39  65  94 122 167 217 256 324 374
#
# _framework density 26.695864
#
# number of rings (size 3 to 8) (size 9 to 14) (size 15 to 20)
#    0.000    1.714    4.286    1.714    2.000    0.000 
#    5.143    0.000    3.143    0.000    0.000    0.000 
#    0.000    0.000    0.000    0.000    0.000    0.000 
#
# Total GULP energy -78051.690876 kJ/mol
# GULP energy per Si atom -5575.120777 kJ/mol
# Density = 2.663510 g / cm^3
# Si number density = 26.695864 Si / 1000 Ang^3
#
#
#
# Elastic Constant Matrix: (Units=GPa)
#
#
# Indices 1 2 3 4 5 6 
#
# 1 50.7356 15.8927 15.4691 0.0000 -6.2621 0.0000
# 2 15.8927 49.2232 23.7654 0.0000 9.2102 0.0000
# 3 15.4691 23.7654 210.3033 0.0000 25.4155 0.0000
# 4 0.0000 0.0000 0.0000 36.2072 0.0000 8.1924
# 5 -6.2621 9.2102 25.4155 0.0000 15.9336 0.0000
# 6 0.0000 0.0000 0.0000 8.1924 0.0000 33.2795
#
#
#
# Elastic Compliance Matrix: (Units=1/GPa)
#
#
# Indices 1 2 3 4 5 6 
#
# 1 0.027124 -0.011341 -0.003461 0.000000 0.022736 0.000000
# 2 -0.011341 0.027775 0.000216 0.000000 -0.020857 0.000000
# 3 -0.003461 0.000216 0.006398 0.000000 -0.011691 0.000000
# 4 0.000000 0.000000 0.000000 0.029248 0.000000 -0.007200
# 5 0.022736 -0.020857 -0.011691 0.000000 0.102400 0.000000
# 6 0.000000 0.000000 0.000000 -0.007200 0.000000 0.031821
#
#
# Mechanical properties :
#
#
# Convention : Reuss Voigt Hill
#
# Bulk Modulus (GPa) = 31.12789 46.72405 38.92597
# Shear Modulus (GPa) = 18.89314 34.09306 26.49310
#
# Velocity S-wave (km/s) = 2.66318 3.57752 3.15366
# Velocity P-wave (km/s) = 4.59807 5.88262 5.27956
#
# Compressibility (1/GPa) = 0.03212554
#
# Stress axis : x y z
#
# Youngs Moduli (GPa) = 36.86766 36.00309 156.29715
#
# Poissons Ratio (x) = 0.40830 0.54100
# Poissons Ratio (y) = 0.41810 -0.03375
# Poissons Ratio (z) = 0.12761 -0.00777
#
# Static dielectric constant tensor:
#      x y z
#    x 2.252960 0.000000 -0.018110 
#    y 0.000000 2.093940 0.000000 
#    z -0.018110 0.000000 2.029910 
# 
# From -- ./inp_files/6348.got.cif
#   From: 2010.05.17/outbox.cif.g08.bks.cpg/sg4_4_cif.got.tgz:6348.got - 2010.06.03 18:43:04.
