data_PCOD9116923
_publ_section_title
;
Structure prediction by ZEFSAII (Michael W. Deem and Ramdas Pophale) SiO2 
 PCOD9116923
Probable space group: P 21
;
_chemical_formula_sum "Si O2"
_cell_formula_units_Z 14
_cell_length_a 8.242126
_cell_length_b 5.241448
_cell_length_c 20.150738
_cell_angle_alpha 90.000000
_cell_angle_beta 138.329075
_cell_angle_gamma 90.000000
_cell_volume 578.770070
_symmetry_space_group_name_H-M "P 21"
_symmetry_group_IT_number 4
_symmetry_cell_setting 'monoclinic'
loop_
_space_group_symop_operation_xyz
x,y,z
-x,1/2+y,-z
loop_
_atom_site_type_symbol
_atom_site_label
_atom_site_fract_x
_atom_site_fract_y
_atom_site_fract_z
Si Si1 0.685560 0.740240 0.290748
Si Si2 0.632928 0.237213 0.187803
Si Si3 0.221839 0.846500 0.499949
Si Si4 0.034806 0.435973 0.209271
Si Si5 0.588698 0.580338 0.698171
Si Si6 0.639444 0.734633 0.016986
Si Si7 0.409393 0.723798 0.413144
O O1 0.647888 0.464015 0.246553
O O2 0.941909 0.772471 0.407494
O O3 0.686061 0.960858 0.234519
O O4 0.477702 0.841042 0.276802
O O5 0.831963 0.303048 0.192645
O O6 0.381996 0.239783 0.069230
O O7 0.344689 0.739851 0.604564
O O8 0.344312 0.733724 0.469877
O O9 0.312719 0.139743 0.518617
O O10 0.189150 0.250361 0.208860
O O11 0.235393 0.523744 0.323665
O O12 0.898443 0.658154 0.127475
O O13 0.663696 0.473000 0.649383
O O14 0.536483 0.001215 0.012957
#
# Coordination Sequence:
#
# PCOD9116923 Si02
#       7
#     2   2   2   2   2   2   2
#     4  12  28  43  69 101 154 188 232 294 364 437
#     4  11  24  45  72 106 139 185 236 298 366 425
#     4  11  24  39  66  96 141 188 245 293 351 421
#     4  10  23  43  73 102 138 180 245 306 350 425
#     4  11  27  42  66 102 142 195 243 288 362 428
#     4  10  22  41  75 113 136 175 243 308 364 423
#     4  11  22  41  65  98 132 189 244 295 347 419
#
# _framework density 24.189229999999998
#
# number of rings (size 3 to 8) (size 9 to 14) (size 15 to 20)
#    0.000    1.143    2.857    2.571   14.000    0.000 
#    0.000    0.000    3.143    0.000    0.000    0.000 
#    0.000    0.000    0.000    0.000    0.000    0.000 
#
# Total GULP energy -78267.644333 kJ/mol
# GULP energy per Si atom -5590.546024 kJ/mol
# Density = 2.413417 g / cm^3
# Si number density = 24.189230 Si / 1000 Ang^3
#
#
#
# Elastic Constant Matrix: (Units=GPa)
#
#
# Indices 1 2 3 4 5 6 
#
# 1 62.1971 1.0346 26.2968 0.0000 2.1631 0.0000
# 2 1.0346 73.4457 14.4866 0.0000 -5.5170 0.0000
# 3 26.2968 14.4866 95.1021 0.0000 -8.7551 0.0000
# 4 0.0000 0.0000 0.0000 49.2598 0.0000 -8.0234
# 5 2.1631 -5.5170 -8.7551 0.0000 14.8565 0.0000
# 6 0.0000 0.0000 0.0000 -8.0234 0.0000 34.0028
#
#
#
# Elastic Compliance Matrix: (Units=1/GPa)
#
#
# Indices 1 2 3 4 5 6 
#
# 1 0.018729 0.000430 -0.005795 0.000000 -0.005982 0.000000
# 2 0.000430 0.014297 -0.001918 0.000000 0.004116 0.000000
# 3 -0.005795 -0.001918 0.013134 0.000000 0.007872 0.000000
# 4 0.000000 0.000000 0.000000 0.021112 0.000000 0.004982
# 5 -0.005982 0.004116 0.007872 0.000000 0.074349 0.000000
# 6 0.000000 0.000000 0.000000 0.004982 0.000000 0.030585
#
#
# Mechanical properties :
#
#
# Convention : Reuss Voigt Hill
#
# Bulk Modulus (GPa) = 31.65124 34.93121 33.29123
# Shear Modulus (GPa) = 25.34174 32.21894 28.78034
#
# Velocity S-wave (km/s) = 3.24025 3.65355 3.45309
# Velocity P-wave (km/s) = 5.20694 5.68068 5.44896
#
# Compressibility (1/GPa) = 0.03159434
#
# Stress axis : x y z
#
# Youngs Moduli (GPa) = 53.39335 69.94519 76.13734
#
# Poissons Ratio (x) = -0.03006 0.44121
# Poissons Ratio (y) = -0.02295 0.14601
# Poissons Ratio (z) = 0.30941 0.13413
#
# Static dielectric constant tensor:
#      x y z
#    x 1.946840 0.000000 0.022430 
#    y 0.000000 2.094230 0.000000 
#    z 0.022430 0.000000 1.951040 
# 
# From -- ./inp_files/15597.got.cif
#   From: 2010.05.17/outbox.cif.g08.bks.cpg/sg4_8_cif.got.tgz:15597.got - 2010.06.03 18:43:04.
