data_PCOD9116009
_publ_section_title
;
Structure prediction by ZEFSAII (Michael W. Deem and Ramdas Pophale) SiO2 
 PCOD9116009
Probable space group: P 21
;
_chemical_formula_sum "Si O2"
_cell_formula_units_Z 14
_cell_length_a 7.273217
_cell_length_b 7.948143
_cell_length_c 10.461364
_cell_angle_alpha 90.000000
_cell_angle_beta 93.124427
_cell_angle_gamma 90.000000
_cell_volume 603.857524
_symmetry_space_group_name_H-M "P 21"
_symmetry_group_IT_number 4
_symmetry_cell_setting 'monoclinic'
loop_
_space_group_symop_operation_xyz
x,y,z
-x,1/2+y,-z
loop_
_atom_site_type_symbol
_atom_site_label
_atom_site_fract_x
_atom_site_fract_y
_atom_site_fract_z
Si Si1 0.632027 0.291830 0.834820
Si Si2 0.889797 0.672885 0.417972
Si Si3 0.992164 0.603908 0.137098
Si Si4 0.264955 0.333102 0.226834
Si Si5 0.343702 0.018884 0.392439
Si Si6 0.620312 0.627645 0.984378
Si Si7 0.271728 0.522377 0.483720
O O1 0.835890 0.228517 0.877985
O O2 0.635520 0.346787 0.686190
O O3 0.571338 0.462133 0.903866
O O4 0.494303 0.157580 0.891464
O O5 0.769636 0.527527 0.481193
O O6 0.803728 0.850771 0.453799
O O7 0.898929 0.654346 0.267232
O O8 0.098969 0.646424 0.473205
O O9 0.084406 0.421125 0.161671
O O10 0.835641 0.612579 0.026174
O O11 0.398676 0.281658 0.116744
O O12 0.323168 0.462834 0.340991
O O13 0.239447 0.155220 0.299008
O O14 0.548683 0.081289 0.434364
#
# Coordination Sequence:
#
# PCOD9116009 Si02
#       7
#     2   2   2   2   2   2   2
#     4  11  24  40  65  96 128 169 226 268 321 404
#     4  10  22  38  61  93 124 163 219 266 325 398
#     4  11  22  40  65  91 125 169 215 274 332 379
#     4   9  22  40  59  91 126 165 221 262 314 396
#     4  10  22  41  61  91 130 169 214 274 331 388
#     4  11  23  42  63  92 133 175 216 272 326 380
#     4  10  21  39  62  90 128 168 211 272 331 385
#
# _framework density 23.184277000000002
#
# number of rings (size 3 to 8) (size 9 to 14) (size 15 to 20)
#    0.000    1.714    0.000    3.429    0.000   10.286 
#    0.000   18.571    0.000    0.000    0.000    0.000 
#    0.000    0.000    0.000    0.000    0.000    0.000 
#
# Total GULP energy -78223.178851 kJ/mol
# GULP energy per Si atom -5587.369918 kJ/mol
# Density = 2.313151 g / cm^3
# Si number density = 23.184277 Si / 1000 Ang^3
#
#
#
# Elastic Constant Matrix: (Units=GPa)
#
#
# Indices 1 2 3 4 5 6 
#
# 1 78.6588 20.3331 21.9230 0.0000 -9.2338 0.0000
# 2 20.3331 94.4425 28.9409 0.0000 -5.7341 0.0000
# 3 21.9230 28.9409 60.2742 0.0000 -24.8423 0.0000
# 4 0.0000 0.0000 0.0000 33.2342 0.0000 -8.6211
# 5 -9.2338 -5.7341 -24.8423 0.0000 34.9534 0.0000
# 6 0.0000 0.0000 0.0000 -8.6211 0.0000 30.6892
#
#
#
# Elastic Compliance Matrix: (Units=1/GPa)
#
#
# Indices 1 2 3 4 5 6 
#
# 1 0.014398 -0.001797 -0.004141 0.000000 0.000566 0.000000
# 2 -0.001797 0.012883 -0.006869 0.000000 -0.003243 0.000000
# 3 -0.004141 -0.006869 0.028965 0.000000 0.018365 0.000000
# 4 0.000000 0.000000 0.000000 0.032454 0.000000 0.009117
# 5 0.000566 -0.003243 0.018365 0.000000 0.041279 0.000000
# 6 0.000000 0.000000 0.000000 0.009117 0.000000 0.035146
#
#
# Mechanical properties :
#
#
# Convention : Reuss Voigt Hill
#
# Bulk Modulus (GPa) = 32.64544 41.75217 37.19881
# Shear Modulus (GPa) = 24.88178 30.58728 27.73453
#
# Velocity S-wave (km/s) = 3.27955 3.63617 3.46246
# Velocity P-wave (km/s) = 5.33405 5.97302 5.66255
#
# Compressibility (1/GPa) = 0.03063215
#
# Stress axis : x y z
#
# Youngs Moduli (GPa) = 69.45351 77.61967 34.52492
#
# Poissons Ratio (x) = 0.13944 0.14297
# Poissons Ratio (y) = 0.12477 0.23716
# Poissons Ratio (z) = 0.28762 0.53319
#
# Static dielectric constant tensor:
#      x y z
#    x 1.818340 0.000000 -0.014960 
#    y 0.000000 1.941010 0.000000 
#    z -0.014960 0.000000 1.895170 
# 
# From -- ./inp_files/2395.got.cif
#   From: 2010.05.17/outbox.cif.g08.bks.cpg/sg4_2_cif.got.tgz:2395.got - 2010.06.03 18:43:04.
