data_PCOD9116865
_publ_section_title
;
Structure prediction by ZEFSAII (Michael W. Deem and Ramdas Pophale) SiO2 
 PCOD9116865
Probable space group: P 21
;
_chemical_formula_sum "Si O2"
_cell_formula_units_Z 16
_cell_length_a 16.825151
_cell_length_b 7.755114
_cell_length_c 13.948770
_cell_angle_alpha 90.000000
_cell_angle_beta 156.741356
_cell_angle_gamma 90.000000
_cell_volume 718.705421
_symmetry_space_group_name_H-M "P 21"
_symmetry_group_IT_number 4
_symmetry_cell_setting 'monoclinic'
loop_
_space_group_symop_operation_xyz
x,y,z
-x,1/2+y,-z
loop_
_atom_site_type_symbol
_atom_site_label
_atom_site_fract_x
_atom_site_fract_y
_atom_site_fract_z
Si Si1 0.488841 0.134660 0.661170
Si Si2 0.691143 0.386135 0.379128
Si Si3 0.032991 0.059950 0.476656
Si Si4 0.730496 0.773907 0.116448
Si Si5 0.071221 0.186831 0.854242
Si Si6 0.830844 0.542222 0.838068
Si Si7 0.173617 0.654391 0.098214
Si Si8 0.877155 0.307915 0.146886
O O1 0.293403 0.147376 0.378873
O O2 0.639397 0.060227 0.745126
O O3 0.421831 0.022651 0.677674
O O4 0.633413 0.288936 0.860867
O O5 0.813545 0.464582 0.425675
O O6 0.859653 0.284508 0.626316
O O7 0.507826 0.270065 0.137381
O O8 0.156458 0.118654 0.705534
O O9 0.946574 0.220474 0.320651
O O10 0.839499 0.941368 0.281529
O O11 0.788566 0.779442 0.068438
O O12 0.041161 0.997306 0.776521
O O13 0.170817 0.148435 0.065762
O O14 0.772843 0.342903 0.796967
O O15 0.056102 0.543526 0.044825
O O16 0.045750 0.698683 0.859929
#
# Coordination Sequence:
#
# PCOD9116865 Si02
#       8
#     2   2   2   2   2   2   2   2
#     4  10  22  41  66  94 133 180 224 272 346 407
#     4  11  24  44  67  99 133 177 227 275 343 410
#     4  11  23  43  72  93 133 173 217 284 340 412
#     4  11  24  45  67  99 131 174 220 283 342 407
#     4  10  24  43  64  98 136 173 228 286 331 398
#     4  11  21  40  63  94 129 179 222 276 334 407
#     4   9  22  37  59  92 128 169 221 276 332 396
#     4   9  20  45  60  95 133 171 219 280 342 387
#
# _framework density 22.262250000000002
#
# number of rings (size 3 to 8) (size 9 to 14) (size 15 to 20)
#    0.750    1.000    1.250    2.250    0.000    8.000 
#    9.000    0.000    0.000    0.000    0.000    0.000 
#    0.000    0.000    0.000    0.000    0.000    0.000 
#
# Total GULP energy -89213.200034 kJ/mol
# GULP energy per Si atom -5575.825002 kJ/mol
# Density = 2.221158 g / cm^3
# Si number density = 22.262250 Si / 1000 Ang^3
#
#
#
# Elastic Constant Matrix: (Units=GPa)
#
#
# Indices 1 2 3 4 5 6 
#
# 1 56.2859 3.6602 24.6717 0.0000 -4.0494 0.0000
# 2 3.6602 50.6520 7.1086 0.0000 7.2739 0.0000
# 3 24.6717 7.1086 60.8667 0.0000 1.2639 0.0000
# 4 0.0000 0.0000 0.0000 24.0275 0.0000 -9.8562
# 5 -4.0494 7.2739 1.2639 0.0000 35.2092 0.0000
# 6 0.0000 0.0000 0.0000 -9.8562 0.0000 19.8024
#
#
#
# Elastic Compliance Matrix: (Units=1/GPa)
#
#
# Indices 1 2 3 4 5 6 
#
# 1 0.021913 -0.000771 -0.008855 0.000000 0.002997 0.000000
# 2 -0.000771 0.020698 -0.002015 0.000000 -0.004292 0.000000
# 3 -0.008855 -0.002015 0.020281 0.000000 -0.001330 0.000000
# 4 0.000000 0.000000 0.000000 0.052296 0.000000 0.026029
# 5 0.002997 -0.004292 -0.001330 0.000000 0.029681 0.000000
# 6 0.000000 0.000000 0.000000 0.026029 0.000000 0.063454
#
#
# Mechanical properties :
#
#
# Convention : Reuss Voigt Hill
#
# Bulk Modulus (GPa) = 25.24631 26.52064 25.88347
# Shear Modulus (GPa) = 20.42402 24.63209 22.52806
#
# Velocity S-wave (km/s) = 3.03219 3.32994 3.18455
# Velocity P-wave (km/s) = 4.86045 5.16947 5.01734
#
# Compressibility (1/GPa) = 0.03960974
#
# Stress axis : x y z
#
# Youngs Moduli (GPa) = 45.63406 48.31494 49.30606
#
# Poissons Ratio (x) = 0.03726 0.43658
# Poissons Ratio (y) = 0.03520 0.09938
# Poissons Ratio (z) = 0.40407 0.09738
#
# Static dielectric constant tensor:
#      x y z
#    x 1.833730 0.000000 0.008280 
#    y 0.000000 1.895520 0.000000 
#    z 0.008280 0.000000 1.855070 
# 
# From -- ./inp_files/14309.got.cif
#   From: 2010.05.17/outbox.cif.g08.bks.cpg/sg4_8_cif.got.tgz:14309.got - 2010.06.03 18:43:04.
