data_PCOD9116405
_publ_section_title
;
Structure prediction by ZEFSAII (Michael W. Deem and Ramdas Pophale) SiO2 
 PCOD9116405
Probable space group: P 21
;
_chemical_formula_sum "Si O2"
_cell_formula_units_Z 12
_cell_length_a 17.213597
_cell_length_b 5.132128
_cell_length_c 8.202480
_cell_angle_alpha 90.000000
_cell_angle_beta 142.980422
_cell_angle_gamma 90.000000
_cell_volume 436.288914
_symmetry_space_group_name_H-M "P 21"
_symmetry_group_IT_number 4
_symmetry_cell_setting 'monoclinic'
loop_
_space_group_symop_operation_xyz
x,y,z
-x,1/2+y,-z
loop_
_atom_site_type_symbol
_atom_site_label
_atom_site_fract_x
_atom_site_fract_y
_atom_site_fract_z
Si Si1 0.117139 0.691890 0.550607
Si Si2 0.919869 0.674534 0.702942
Si Si3 0.428766 0.296606 0.916718
Si Si4 0.515368 0.257874 0.412706
Si Si5 0.148188 0.433089 0.911453
Si Si6 0.258321 0.069077 0.339823
O O1 0.118734 0.457820 0.424428
O O2 0.192320 0.609827 0.836923
O O3 0.966955 0.743962 0.349747
O O4 0.156157 0.959669 0.533898
O O5 0.886725 0.583119 0.829590
O O6 0.067863 0.610328 0.904059
O O7 0.420646 0.244999 0.096749
O O8 0.329639 0.208271 0.611143
O O9 0.453172 0.603931 0.936892
O O10 0.510232 0.002003 0.512560
O O11 0.248776 0.251285 0.166991
O O12 0.656922 0.321819 0.569293
#
# Coordination Sequence:
#
# PCOD9116405 Si02
#       6
#     2   2   2   2   2   2
#     4  10  21  43  66  96 155 185 225 298 324 411
#     4  10  23  42  67 104 145 186 234 285 345 428
#     4  10  23  49  72 104 140 177 239 310 357 423
#     4  11  25  51  77 103 142 184 246 316 357 426
#     4  10  22  45  71 104 149 187 238 281 349 429
#     4  11  26  46  77 107 141 201 234 294 378 423
#
# _framework density 27.504711
#
# number of rings (size 3 to 8) (size 9 to 14) (size 15 to 20)
#    1.000    0.667    1.667    2.000    2.333    5.333 
#    9.000   10.000    0.000    0.000    0.000    0.000 
#    0.000    0.000    0.000    0.000    0.000    0.000 
#
# Total GULP energy -67179.253251 kJ/mol
# GULP energy per Si atom -5598.271104 kJ/mol
# Density = 2.744211 g / cm^3
# Si number density = 27.504711 Si / 1000 Ang^3
#
#
#
# Elastic Constant Matrix: (Units=GPa)
#
#
# Indices 1 2 3 4 5 6 
#
# 1 90.1044 25.6635 25.4665 0.0000 -15.7808 0.0000
# 2 25.6635 102.8254 20.8054 0.0000 -18.2155 0.0000
# 3 25.4665 20.8054 122.9816 0.0000 -37.8353 0.0000
# 4 0.0000 0.0000 0.0000 47.4043 0.0000 -14.6195
# 5 -15.7808 -18.2155 -37.8353 0.0000 52.9112 0.0000
# 6 0.0000 0.0000 0.0000 -14.6195 0.0000 62.1024
#
#
#
# Elastic Compliance Matrix: (Units=1/GPa)
#
#
# Indices 1 2 3 4 5 6 
#
# 1 0.012578 -0.002502 -0.001657 0.000000 0.001705 0.000000
# 2 -0.002502 0.010923 -0.000516 0.000000 0.002645 0.000000
# 3 -0.001657 -0.000516 0.010711 0.000000 0.006988 0.000000
# 4 0.000000 0.000000 0.000000 0.022747 0.000000 0.005355
# 5 0.001705 0.002645 0.006988 0.000000 0.025316 0.000000
# 6 0.000000 0.000000 0.000000 0.005355 0.000000 0.017363
#
#
# Mechanical properties :
#
#
# Convention : Reuss Voigt Hill
#
# Bulk Modulus (GPa) = 40.22074 51.08691 45.65383
# Shear Modulus (GPa) = 42.63541 48.74865 45.69203
#
# Velocity S-wave (km/s) = 3.94142 4.21453 4.08026
# Velocity P-wave (km/s) = 5.94710 6.50363 6.23158
#
# Compressibility (1/GPa) = 0.02486279
#
# Stress axis : x y z
#
# Youngs Moduli (GPa) = 79.50561 91.55293 93.35845
#
# Poissons Ratio (x) = 0.22906 0.15466
# Poissons Ratio (y) = 0.19891 0.04817
# Poissons Ratio (z) = 0.13171 0.04724
#
# Static dielectric constant tensor:
#      x y z
#    x 2.251280 0.000000 0.122100 
#    y 0.000000 2.084130 0.000000 
#    z 0.122100 0.000000 2.195250 
# 
# From -- ./inp_files/8737.got.cif
#   From: 2010.05.17/outbox.cif.g08.bks.cpg/sg4_5_cif.got.tgz:8737.got - 2010.06.03 18:43:04.
