data_PCOD9116613
_publ_section_title
;
Structure prediction by ZEFSAII (Michael W. Deem and Ramdas Pophale) SiO2 
 PCOD9116613
Probable space group: P 21
;
_chemical_formula_sum "Si O2"
_cell_formula_units_Z 14
_cell_length_a 9.660802
_cell_length_b 7.629824
_cell_length_c 13.239732
_cell_angle_alpha 90.000000
_cell_angle_beta 33.194352
_cell_angle_gamma 90.000000
_cell_volume 534.288391
_symmetry_space_group_name_H-M "P 21"
_symmetry_group_IT_number 4
_symmetry_cell_setting 'monoclinic'
loop_
_space_group_symop_operation_xyz
x,y,z
-x,1/2+y,-z
loop_
_atom_site_type_symbol
_atom_site_label
_atom_site_fract_x
_atom_site_fract_y
_atom_site_fract_z
Si Si1 0.777228 0.880670 0.548190
Si Si2 0.328369 0.135477 0.041926
Si Si3 0.732847 0.257829 0.634452
Si Si4 0.314103 0.433576 0.761235
Si Si5 0.616429 0.256753 0.053666
Si Si6 0.373422 0.165051 0.547730
Si Si7 0.988455 0.932533 0.867624
O O1 0.521495 0.821091 0.761198
O O2 0.779117 0.766640 0.446169
O O3 0.011522 0.838666 0.478774
O O4 0.774680 0.090767 0.535755
O O5 0.581150 0.176058 0.821981
O O6 0.126216 0.265077 0.117670
O O7 0.268540 0.932150 0.065699
O O8 0.399480 0.184491 0.111724
O O9 0.549235 0.400406 0.694939
O O10 0.336905 0.274905 0.670550
O O11 0.365053 0.607782 0.665468
O O12 0.059554 0.421610 0.982719
O O13 0.813923 0.101709 0.947050
O O14 0.254968 0.979831 0.656632
#
# Coordination Sequence:
#
# PCOD9116613 Si02
#       7
#     2   2   2   2   2   2   2
#     4  11  23  39  70 106 139 185 231 287 349 417
#     4  10  22  38  64 105 144 188 228 289 350 415
#     4  10  23  41  66 104 145 179 233 288 350 412
#     4  11  26  50  70 103 141 183 237 292 348 432
#     4  11  21  39  68 103 153 181 232 292 349 417
#     4  12  26  48  75 101 139 187 234 287 364 413
#     4  11  25  47  71 102 141 189 239 289 350 422
#
# _framework density 26.203077
#
# number of rings (size 3 to 8) (size 9 to 14) (size 15 to 20)
#    0.000    1.143    2.857    2.571    6.000    2.286 
#   10.286    0.000    0.000    0.000    0.000    0.000 
#    0.000    0.000    0.000    0.000    0.000    0.000 
#
# Total GULP energy -78526.927505 kJ/mol
# GULP energy per Si atom -5609.066250 kJ/mol
# Density = 2.614344 g / cm^3
# Si number density = 26.203077 Si / 1000 Ang^3
#
#
#
# Elastic Constant Matrix: (Units=GPa)
#
#
# Indices 1 2 3 4 5 6 
#
# 1 61.0295 12.5449 16.6391 0.0000 3.5531 0.0000
# 2 12.5449 125.9528 2.9422 0.0000 1.6227 0.0000
# 3 16.6391 2.9422 89.1092 0.0000 4.8701 0.0000
# 4 0.0000 0.0000 0.0000 46.6508 0.0000 10.0155
# 5 3.5531 1.6227 4.8701 0.0000 34.6712 0.0000
# 6 0.0000 0.0000 0.0000 10.0155 0.0000 37.4584
#
#
#
# Elastic Compliance Matrix: (Units=1/GPa)
#
#
# Indices 1 2 3 4 5 6 
#
# 1 0.017669 -0.001669 -0.003174 0.000000 -0.001287 0.000000
# 2 -0.001669 0.008107 0.000056 0.000000 -0.000216 0.000000
# 3 -0.003174 0.000056 0.011887 0.000000 -0.001347 0.000000
# 4 0.000000 0.000000 0.000000 0.022741 0.000000 -0.006080
# 5 -0.001287 -0.000216 -0.001347 0.000000 0.029174 0.000000
# 6 0.000000 0.000000 0.000000 -0.006080 0.000000 0.028322
#
#
# Mechanical properties :
#
#
# Convention : Reuss Voigt Hill
#
# Bulk Modulus (GPa) = 35.60188 37.81601 36.70894
# Shear Modulus (GPa) = 36.53991 40.02041 38.28016
#
# Velocity S-wave (km/s) = 3.73834 3.91233 3.82632
# Velocity P-wave (km/s) = 5.67890 5.90522 5.79317
#
# Compressibility (1/GPa) = 0.02808840
#
# Stress axis : x y z
#
# Youngs Moduli (GPa) = 56.59681 123.34702 84.12834
#
# Poissons Ratio (x) = 0.20588 0.26701
# Poissons Ratio (y) = 0.09447 -0.00469
# Poissons Ratio (z) = 0.17963 -0.00688
#
# Static dielectric constant tensor:
#      x y z
#    x 2.004820 0.000000 -0.005110 
#    y 0.000000 2.058270 0.000000 
#    z -0.005110 0.000000 2.069270 
# 
# From -- ./inp_files/7611.got.cif
#   From: 2010.05.17/outbox.cif.g08.bks.cpg/sg4_4_cif.got.tgz:7611.got - 2010.06.03 18:43:04.
