data_PCOD9116129
_publ_section_title
;
Structure prediction by ZEFSAII (Michael W. Deem and Ramdas Pophale) SiO2 
 PCOD9116129
Probable space group: P 21
;
_chemical_formula_sum "Si O2"
_cell_formula_units_Z 10
_cell_length_a 10.843411
_cell_length_b 8.411898
_cell_length_c 11.645342
_cell_angle_alpha 90.000000
_cell_angle_beta 154.393559
_cell_angle_gamma 90.000000
_cell_volume 459.075369
_symmetry_space_group_name_H-M "P 21"
_symmetry_group_IT_number 4
_symmetry_cell_setting 'monoclinic'
loop_
_space_group_symop_operation_xyz
x,y,z
-x,1/2+y,-z
loop_
_atom_site_type_symbol
_atom_site_label
_atom_site_fract_x
_atom_site_fract_y
_atom_site_fract_z
Si Si1 0.577805 0.185130 0.138483
Si Si2 0.829185 0.837949 0.382263
Si Si3 0.506454 0.303388 0.675120
Si Si4 0.551142 0.088448 0.525289
Si Si5 0.822718 0.603923 0.991854
O O1 0.379306 0.184040 0.084352
O O2 0.838173 0.308641 0.358728
O O3 0.729664 0.013596 0.262695
O O4 0.367710 0.218961 0.856598
O O5 0.746429 0.812425 0.445938
O O6 0.555821 0.130926 0.663011
O O7 0.451291 0.403101 0.511826
O O8 0.755257 0.412479 0.941127
O O9 0.284348 0.146727 0.225505
O O10 0.849177 0.145593 0.720106
#
# Coordination Sequence:
#
# PCOD9116129 Si02
#       5
#     2   2   2   2   2
#     4  11  23  44  65  94 130 172 207 267 315 378
#     4  11  24  42  67  93 133 164 216 260 320 374
#     4   9  24  40  65  87 127 159 209 255 313 365
#     4  10  21  40  65  87 124 162 202 258 310 369
#     4   9  22  38  64  85 126 159 202 252 314 360
#
# _framework density 21.782917999999999
#
# number of rings (size 3 to 8) (size 9 to 14) (size 15 to 20)
#    1.200    0.800    0.000    2.400    8.400    0.000 
#   10.800    0.000    0.000    0.000    0.000    0.000 
#    0.000    0.000    0.000    0.000    0.000    0.000 
#
# Total GULP energy -55700.133823 kJ/mol
# GULP energy per Si atom -5570.013382 kJ/mol
# Density = 2.173334 g / cm^3
# Si number density = 21.782918 Si / 1000 Ang^3
#
#
#
# Elastic Constant Matrix: (Units=GPa)
#
#
# Indices 1 2 3 4 5 6 
#
# 1 -19.6730 -9.7605 -17.0210 0.0000 -12.2272 0.0000
# 2 -9.7605 11.2270 -5.4154 0.0000 -12.8257 0.0000
# 3 -17.0210 -5.4154 73.5010 0.0000 7.8033 0.0000
# 4 0.0000 0.0000 0.0000 20.2424 0.0000 -0.2572
# 5 -12.2272 -12.8257 7.8033 0.0000 31.4746 0.0000
# 6 0.0000 0.0000 0.0000 -0.2572 0.0000 29.5088
#
#
#
# Elastic Compliance Matrix: (Units=1/GPa)
#
#
# Indices 1 2 3 4 5 6 
#
# 1 -0.015149 -0.038774 -0.004173 0.000000 -0.020651 0.000000
# 2 -0.038774 0.069368 -0.005412 0.000000 0.014546 0.000000
# 3 -0.004173 -0.005412 0.012988 0.000000 -0.007047 0.000000
# 4 0.000000 0.000000 0.000000 0.049407 0.000000 0.000431
# 5 -0.020651 0.014546 -0.007047 0.000000 0.031424 0.000000
# 6 0.000000 0.000000 0.000000 0.000431 0.000000 0.033892
#
#
# Mechanical properties :
#
#
# Convention : Reuss Voigt Hill
#
# Bulk Modulus (GPa) = -33.88670 0.07349 -16.90660
# Shear Modulus (GPa) = 18.60040 22.72861 20.66450
#
# Velocity S-wave (km/s) = 2.92532 3.23370 3.08337
# Velocity P-wave (km/s) = 2.04458 3.73848 2.21313
#
# Compressibility (1/GPa) = -0.02951010
#
# Stress axis : x y z
#
# Youngs Moduli (GPa) = -66.01089 14.41578 76.99218
#
# Poissons Ratio (x) = 0.55896 0.32125
# Poissons Ratio (y) = -2.55950 0.41672
# Poissons Ratio (z) = -0.27543 0.07802
#
# Static dielectric constant tensor:
#      x y z
#    x 1.785500 0.000000 -0.007300 
#    y 0.000000 1.921710 0.000000 
#    z -0.007300 0.000000 1.765280 
# 
# From -- ./inp_files/103.got.cif
#   From: 2010.05.17/outbox.cif.g08.bks.cpg/sg4_1_cif.got.tgz:103.got - 2010.06.03 18:43:04.
