data_PCOD9116723
_publ_section_title
;
Structure prediction by ZEFSAII (Michael W. Deem and Ramdas Pophale) SiO2 
 PCOD9116723
Probable space group: P 21
;
_chemical_formula_sum "Si O2"
_cell_formula_units_Z 14
_cell_length_a 7.012404
_cell_length_b 14.185594
_cell_length_c 6.879941
_cell_angle_alpha 90.000000
_cell_angle_beta 62.328921
_cell_angle_gamma 90.000000
_cell_volume 606.108788
_symmetry_space_group_name_H-M "P 21"
_symmetry_group_IT_number 4
_symmetry_cell_setting 'monoclinic'
loop_
_space_group_symop_operation_xyz
x,y,z
-x,1/2+y,-z
loop_
_atom_site_type_symbol
_atom_site_label
_atom_site_fract_x
_atom_site_fract_y
_atom_site_fract_z
Si Si1 0.881013 0.149810 0.236384
Si Si2 0.287208 0.940375 0.518204
Si Si3 0.172324 0.288846 0.890190
Si Si4 0.115227 0.543215 0.387840
Si Si5 0.491755 0.286535 0.400308
Si Si6 0.945489 0.838897 0.456854
Si Si7 0.697692 0.990600 0.072046
O O1 0.669811 0.209717 0.279217
O O2 0.848271 0.052810 0.138234
O O3 0.085345 0.205783 0.061172
O O4 0.889502 0.128920 0.462155
O O5 0.400733 0.890867 0.647066
O O6 0.468369 0.976962 0.284255
O O7 0.111251 0.023378 0.618190
O O8 0.152173 0.851640 0.492328
O O9 0.391737 0.272628 0.665301
O O10 0.009768 0.305775 0.783775
O O11 0.200542 0.386117 0.992846
O O12 0.131841 0.448247 0.508968
O O13 0.298464 0.540155 0.139031
O O14 0.272554 0.284649 0.378892
#
# Coordination Sequence:
#
# PCOD9116723 Si02
#       7
#     2   2   2   2   2   2   2
#     4  12  23  40  65  99 138 171 221 279 330 383
#     4   9  19  42  68  90 123 171 225 264 330 398
#     4   9  21  43  65  91 132 176 219 270 330 395
#     4  10  22  40  63  96 129 166 224 273 320 397
#     4   9  20  40  65  92 127 171 216 275 326 389
#     4   8  19  43  63  90 123 169 219 262 332 380
#     4  11  22  42  67  96 130 182 220 265 342 390
#
# _framework density 23.098164000000001
#
# number of rings (size 3 to 8) (size 9 to 14) (size 15 to 20)
#    1.714    0.571    1.429    0.857    0.000    4.571 
#    2.571    5.714    0.000    0.000    0.000    0.000 
#    0.000    0.000    0.000    0.000    0.000    0.000 
#
# Total GULP energy -78002.305530 kJ/mol
# GULP energy per Si atom -5571.593252 kJ/mol
# Density = 2.304559 g / cm^3
# Si number density = 23.098164 Si / 1000 Ang^3
#
#
#
# Elastic Constant Matrix: (Units=GPa)
#
#
# Indices 1 2 3 4 5 6 
#
# 1 71.4957 8.6925 2.3972 0.0000 -9.6020 0.0000
# 2 8.6925 43.1316 15.5714 0.0000 -11.8813 0.0000
# 3 2.3972 15.5714 62.7886 0.0000 -1.9098 0.0000
# 4 0.0000 0.0000 0.0000 18.4320 0.0000 3.6204
# 5 -9.6020 -11.8813 -1.9098 0.0000 31.3101 0.0000
# 6 0.0000 0.0000 0.0000 3.6204 0.0000 15.8117
#
#
#
# Elastic Compliance Matrix: (Units=1/GPa)
#
#
# Indices 1 2 3 4 5 6 
#
# 1 0.014730 -0.001938 0.000033 0.000000 0.003784 0.000000
# 2 -0.001938 0.028740 -0.006752 0.000000 0.009900 0.000000
# 3 0.000033 -0.006752 0.017555 0.000000 -0.001481 0.000000
# 4 0.000000 0.000000 0.000000 0.056808 0.000000 -0.013008
# 5 0.003784 0.009900 -0.001481 0.000000 0.036765 0.000000
# 6 0.000000 0.000000 0.000000 -0.013008 0.000000 0.066223
#
#
# Mechanical properties :
#
#
# Convention : Reuss Voigt Hill
#
# Bulk Modulus (GPa) = 22.87808 25.63759 24.25783
# Shear Modulus (GPa) = 19.78585 23.16106 21.47346
#
# Velocity S-wave (km/s) = 2.92995 3.17002 3.05234
# Velocity P-wave (km/s) = 4.62302 4.95199 4.79033
#
# Compressibility (1/GPa) = 0.04370996
#
# Stress axis : x y z
#
# Youngs Moduli (GPa) = 67.89070 34.79432 56.96481
#
# Poissons Ratio (x) = 0.06744 -0.00190
# Poissons Ratio (y) = 0.13159 0.38465
# Poissons Ratio (z) = -0.00227 0.23495
#
# Static dielectric constant tensor:
#      x y z
#    x 1.898480 0.000000 0.016810 
#    y 0.000000 1.900050 0.000000 
#    z 0.016810 0.000000 1.852070 
# 
# From -- ./inp_files/6716.got.cif
#   From: 2010.05.17/outbox.cif.g08.bks.cpg/sg4_4_cif.got.tgz:6716.got - 2010.06.03 18:43:04.
