data_PCOD9116284
_publ_section_title
;
Structure prediction by ZEFSAII (Michael W. Deem and Ramdas Pophale) SiO2 
 PCOD9116284
Probable space group: P 21
;
_chemical_formula_sum "Si O2"
_cell_formula_units_Z 16
_cell_length_a 9.764781
_cell_length_b 8.556161
_cell_length_c 19.026832
_cell_angle_alpha 90.000000
_cell_angle_beta 28.088966
_cell_angle_gamma 90.000000
_cell_volume 748.485047
_symmetry_space_group_name_H-M "P 21"
_symmetry_group_IT_number 4
_symmetry_cell_setting 'monoclinic'
loop_
_space_group_symop_operation_xyz
x,y,z
-x,1/2+y,-z
loop_
_atom_site_type_symbol
_atom_site_label
_atom_site_fract_x
_atom_site_fract_y
_atom_site_fract_z
Si Si1 0.327431 0.377290 0.642765
Si Si2 0.679665 0.159205 0.835946
Si Si3 0.094684 0.753768 0.609043
Si Si4 0.818686 0.882038 0.443344
Si Si5 0.289486 0.847473 0.781896
Si Si6 0.492893 0.840019 0.844197
Si Si7 0.937590 0.127652 0.871895
Si Si8 0.951159 0.675621 0.829472
O O1 0.663252 0.388359 0.513546
O O2 0.350974 0.327417 0.550415
O O3 0.209113 0.243733 0.746071
O O4 0.060011 0.499848 0.762090
O O5 0.848139 0.107739 0.830726
O O6 0.878158 0.284419 0.702917
O O7 0.566195 0.008373 0.844761
O O8 0.374539 0.223605 0.003207
O O9 0.176113 0.571191 0.562451
O O10 0.815364 0.774575 0.687145
O O11 0.014359 0.764263 0.728086
O O12 0.613360 0.850316 0.602511
O O13 0.313749 0.854349 0.853891
O O14 0.143946 0.698381 0.811822
O O15 0.069977 0.978628 0.850603
O O16 0.322928 0.718183 0.971173
#
# Coordination Sequence:
#
# PCOD9116284 Si02
#       8
#     2   2   2   2   2   2   2   2
#     4  10  21  41  71 102 131 176 235 285 334 403
#     4  11  25  45  72 103 129 179 243 289 332 408
#     4  11  22  42  69 102 134 176 236 281 335 410
#     4  10  24  42  69 103 133 180 225 288 348 400
#     4  12  27  44  65  99 146 182 219 281 361 417
#     4  12  28  43  67 102 138 181 228 283 356 412
#     4  11  24  45  70  96 138 181 234 285 337 407
#     4  11  23  42  73 101 137 177 228 290 341 403
#
# _framework density 21.376512000000002
#
# number of rings (size 3 to 8) (size 9 to 14) (size 15 to 20)
#    0.000    1.000    5.000    0.750    5.250    1.000 
#    0.000    0.000    0.000    0.000    0.000    0.000 
#    0.000    0.000    0.000    0.000    0.000    0.000 
#
# Total GULP energy -89076.255603 kJ/mol
# GULP energy per Si atom -5567.265975 kJ/mol
# Density = 2.132786 g / cm^3
# Si number density = 21.376512 Si / 1000 Ang^3
#
#
#
# Elastic Constant Matrix: (Units=GPa)
#
#
# Indices 1 2 3 4 5 6 
#
# 1 79.1436 -13.8044 4.1783 0.0000 -3.6507 0.0000
# 2 -13.8044 17.0717 23.9632 0.0000 0.8489 0.0000
# 3 4.1783 23.9632 82.8234 0.0000 -14.8366 0.0000
# 4 0.0000 0.0000 0.0000 19.4014 0.0000 -28.6103
# 5 -3.6507 0.8489 -14.8366 0.0000 24.6856 0.0000
# 6 0.0000 0.0000 0.0000 -28.6103 0.0000 -28.8429
#
#
#
# Elastic Compliance Matrix: (Units=1/GPa)
#
#
# Indices 1 2 3 4 5 6 
#
# 1 0.017999 0.028868 -0.010043 0.000000 -0.004367 0.000000
# 2 0.028868 0.158177 -0.053154 0.000000 -0.033117 0.000000
# 3 -0.010043 -0.053154 0.031402 0.000000 0.019216 0.000000
# 4 0.000000 0.000000 0.000000 0.020929 0.000000 -0.020760
# 5 -0.004367 -0.033117 0.019216 0.000000 0.052552 0.000000
# 6 0.000000 0.000000 0.000000 -0.020760 0.000000 -0.014078
#
#
# Mechanical properties :
#
#
# Convention : Reuss Voigt Hill
#
# Bulk Modulus (GPa) = 7.19833 23.07922 15.13877
# Shear Modulus (GPa) = 13.09091 14.02893 13.55992
#
# Velocity S-wave (km/s) = 2.47735 2.56457 2.52134
# Velocity P-wave (km/s) = 3.39967 4.42598 3.94633
#
# Compressibility (1/GPa) = 0.13892117
#
# Stress axis : x y z
#
# Youngs Moduli (GPa) = 55.55789 6.32203 31.84542
#
# Poissons Ratio (x) = -0.18250 0.31981
# Poissons Ratio (y) = -1.60385 1.69271
# Poissons Ratio (z) = 0.55795 0.33604
#
# Static dielectric constant tensor:
#      x y z
#    x 1.747190 0.000000 -0.048020 
#    y 0.000000 1.873000 0.000000 
#    z -0.048020 0.000000 1.881060 
# 
# From -- ./inp_files/5611.got.cif
#   From: 2010.05.17/outbox.cif.g08.bks.cpg/sg4_3_cif.got.tgz:5611.got - 2010.06.03 18:43:04.
