data_PCOD9116355
_publ_section_title
;
Structure prediction by ZEFSAII (Michael W. Deem and Ramdas Pophale) SiO2 
 PCOD9116355
Probable space group: P 21
;
_chemical_formula_sum "Si O2"
_cell_formula_units_Z 14
_cell_length_a 22.736613
_cell_length_b 4.829253
_cell_length_c 27.485652
_cell_angle_alpha 90.000000
_cell_angle_beta 11.149730
_cell_angle_gamma 90.000000
_cell_volume 583.591522
_symmetry_space_group_name_H-M "P 21"
_symmetry_group_IT_number 4
_symmetry_cell_setting 'monoclinic'
loop_
_space_group_symop_operation_xyz
x,y,z
-x,1/2+y,-z
loop_
_atom_site_type_symbol
_atom_site_label
_atom_site_fract_x
_atom_site_fract_y
_atom_site_fract_z
Si Si1 0.809218 0.500000 0.144792
Si Si2 0.223911 0.324318 0.970345
Si Si3 0.609806 0.169048 0.939803
Si Si4 0.803403 0.908657 0.644139
Si Si5 0.286572 0.179891 0.386906
Si Si6 0.170772 0.303233 0.683625
Si Si7 0.550240 0.718382 0.642376
O O1 0.507404 0.423874 0.420434
O O2 0.721292 0.388510 0.162665
O O3 0.093933 0.316238 0.930908
O O4 0.080219 0.034840 0.101771
O O5 0.446549 0.452780 0.831083
O O6 0.426756 0.416527 0.758839
O O7 0.932962 0.531248 0.204053
O O8 0.479925 0.304298 0.093861
O O9 0.596943 0.421793 0.912078
O O10 0.950458 0.054023 0.665369
O O11 0.722198 0.860028 0.654156
O O12 0.082182 0.713965 0.436287
O O13 0.337848 0.337558 0.396840
O O14 0.199305 0.221832 0.603187
#
# Coordination Sequence:
#
# PCOD9116355 Si02
#       7
#     2   2   2   2   2   2   2
#     4  10  21  42  71 102 143 189 234 301 367 438
#     4  10  23  42  66 101 139 183 238 300 355 437
#     4  12  24  45  66  97 136 179 231 288 367 421
#     4  12  24  44  65  96 136 176 233 292 350 431
#     4  10  24  45  66 101 138 189 235 308 357 433
#     4  10  22  43  67 101 140 183 241 290 360 446
#     4   8  24  43  69 102 144 185 242 297 366 438
#
# _framework density 23.989383
#
# number of rings (size 3 to 8) (size 9 to 14) (size 15 to 20)
#    1.714    0.000    2.857    0.857    2.000    4.571 
#    2.571    2.857    0.000    0.000    0.000    0.000 
#    0.000    0.000    0.000    0.000    0.000    0.000 
#
# Total GULP energy -78136.997838 kJ/mol
# GULP energy per Si atom -5581.214131 kJ/mol
# Density = 2.393478 g / cm^3
# Si number density = 23.989383 Si / 1000 Ang^3
#
#
#
# Elastic Constant Matrix: (Units=GPa)
#
#
# Indices 1 2 3 4 5 6 
#
# 1 105.8534 11.2696 2.6020 0.0000 -1.6908 0.0000
# 2 11.2696 77.4939 7.6617 0.0000 14.9604 0.0000
# 3 2.6020 7.6617 104.2565 0.0000 16.3876 0.0000
# 4 0.0000 0.0000 0.0000 35.8025 0.0000 1.9957
# 5 -1.6908 14.9604 16.3876 0.0000 41.5894 0.0000
# 6 0.0000 0.0000 0.0000 1.9957 0.0000 22.2828
#
#
#
# Elastic Compliance Matrix: (Units=1/GPa)
#
#
# Indices 1 2 3 4 5 6 
#
# 1 0.009640 -0.001581 -0.000294 0.000000 0.001076 0.000000
# 2 -0.001581 0.014133 -0.000202 0.000000 -0.005068 0.000000
# 3 -0.000294 -0.000202 0.010239 0.000000 -0.003973 0.000000
# 4 0.000000 0.000000 0.000000 0.028071 0.000000 -0.002514
# 5 0.001076 -0.005068 -0.003973 0.000000 0.027477 0.000000
# 6 0.000000 0.000000 0.000000 -0.002514 0.000000 0.045103
#
#
# Mechanical properties :
#
#
# Convention : Reuss Voigt Hill
#
# Bulk Modulus (GPa) = 33.49249 36.74115 35.11682
# Shear Modulus (GPa) = 33.60943 37.67296 35.64119
#
# Velocity S-wave (km/s) = 3.74707 3.96713 3.85867
# Velocity P-wave (km/s) = 5.71948 6.02768 5.87560
#
# Compressibility (1/GPa) = 0.02985744
#
# Stress axis : x y z
#
# Youngs Moduli (GPa) = 103.73750 70.75861 97.67054
#
# Poissons Ratio (x) = 0.11184 0.02867
# Poissons Ratio (y) = 0.16397 0.01978
# Poissons Ratio (z) = 0.03046 0.01433
#
# Static dielectric constant tensor:
#      x y z
#    x 1.961030 0.000000 0.002520 
#    y 0.000000 1.911850 0.000000 
#    z 0.002520 0.000000 1.947630 
# 
# From -- ./inp_files/16567.got.cif
#   From: 2010.05.17/outbox.cif.g08.bks.cpg/sg4_9_cif.got.tgz:16567.got - 2010.06.03 18:43:04.
