data_PCOD9116527
_publ_section_title
;
Structure prediction by ZEFSAII (Michael W. Deem and Ramdas Pophale) SiO2 
 PCOD9116527
Probable space group: P 21
;
_chemical_formula_sum "Si O2"
_cell_formula_units_Z 16
_cell_length_a 10.790362
_cell_length_b 7.742244
_cell_length_c 11.909229
_cell_angle_alpha 90.000000
_cell_angle_beta 39.204318
_cell_angle_gamma 90.000000
_cell_volume 628.874314
_symmetry_space_group_name_H-M "P 21"
_symmetry_group_IT_number 4
_symmetry_cell_setting 'monoclinic'
loop_
_space_group_symop_operation_xyz
x,y,z
-x,1/2+y,-z
loop_
_atom_site_type_symbol
_atom_site_label
_atom_site_fract_x
_atom_site_fract_y
_atom_site_fract_z
Si Si1 0.023309 0.279750 0.692681
Si Si2 0.283881 0.335665 0.162635
Si Si3 0.853201 0.385250 0.442677
Si Si4 0.609729 0.830737 0.676199
Si Si5 0.504724 0.540802 0.569035
Si Si6 0.902112 0.872814 0.108613
Si Si7 0.321197 0.738443 0.205963
Si Si8 0.702301 0.560415 0.191415
O O1 0.083378 0.088809 0.605703
O O2 0.185343 0.399504 0.519089
O O3 0.043750 0.281702 0.811414
O O4 0.806599 0.322665 0.805060
O O5 0.342641 0.241860 0.238628
O O6 0.301225 0.534558 0.193840
O O7 0.065677 0.298818 0.271725
O O8 0.456105 0.297875 0.956187
O O9 0.657975 0.392047 0.503001
O O10 0.782356 0.305404 0.609375
O O11 0.533350 0.698067 0.635338
O O12 0.442432 0.975268 0.795727
O O13 0.275458 0.499156 0.734583
O O14 0.579518 0.580153 0.392083
O O15 0.799353 0.742609 0.095157
O O16 0.104349 0.946362 0.922117
#
# Coordination Sequence:
#
# PCOD9116527 Si02
#       8
#     2   2   2   2   2   2   2   2
#     4  10  21  46  72  92 135 188 225 284 351 402
#     4  11  26  44  70 105 142 183 232 288 349 417
#     4  10  23  44  71  98 137 185 230 279 346 417
#     4  11  22  46  71  96 138 183 230 291 346 407
#     4  11  24  46  72  94 134 189 232 285 353 409
#     4  12  25  44  70 104 138 181 233 290 350 419
#     4  11  25  43  71 106 139 184 234 283 351 421
#     4  12  24  43  69 103 137 179 234 286 352 418
#
# _framework density 25.442284000000001
#
# number of rings (size 3 to 8) (size 9 to 14) (size 15 to 20)
#    0.000    1.000    5.000    1.500    5.250    1.000 
#    0.000    0.000    0.000    0.000    0.000    0.000 
#    0.000    0.000    0.000    0.000    0.000    0.000 
#
# Total GULP energy -89495.332158 kJ/mol
# GULP energy per Si atom -5593.458260 kJ/mol
# Density = 2.538438 g / cm^3
# Si number density = 25.442284 Si / 1000 Ang^3
#
#
#
# Elastic Constant Matrix: (Units=GPa)
#
#
# Indices 1 2 3 4 5 6 
#
# 1 108.3808 13.7020 42.8460 0.0000 -21.9836 0.0000
# 2 13.7020 56.0996 43.0246 0.0000 -4.1993 0.0000
# 3 42.8460 43.0246 114.2429 0.0000 -27.4576 0.0000
# 4 0.0000 0.0000 0.0000 29.8967 0.0000 2.3811
# 5 -21.9836 -4.1993 -27.4576 0.0000 42.5010 0.0000
# 6 0.0000 0.0000 0.0000 2.3811 0.0000 24.2945
#
#
#
# Elastic Compliance Matrix: (Units=1/GPa)
#
#
# Indices 1 2 3 4 5 6 
#
# 1 0.011299 0.000127 -0.003407 0.000000 0.003656 0.000000
# 2 0.000127 0.025744 -0.010791 0.000000 -0.004363 0.000000
# 3 -0.003407 -0.010791 0.015881 0.000000 0.007432 0.000000
# 4 0.000000 0.000000 0.000000 0.033712 0.000000 -0.003304
# 5 0.003656 -0.004363 0.007432 0.000000 0.029790 0.000000
# 6 0.000000 0.000000 0.000000 -0.003304 0.000000 0.041485
#
#
# Mechanical properties :
#
#
# Convention : Reuss Voigt Hill
#
# Bulk Modulus (GPa) = 40.35258 53.09652 46.72455
# Shear Modulus (GPa) = 25.73138 31.28181 28.50660
#
# Velocity S-wave (km/s) = 3.18364 3.51026 3.35093
# Velocity P-wave (km/s) = 5.42301 6.11097 5.77723
#
# Compressibility (1/GPa) = 0.02478156
#
# Stress axis : x y z
#
# Youngs Moduli (GPa) = 88.50318 38.84360 62.96761
#
# Poissons Ratio (x) = -0.00492 0.21450
# Poissons Ratio (y) = -0.01120 0.67951
# Poissons Ratio (z) = 0.30149 0.41918
#
# Static dielectric constant tensor:
#      x y z
#    x 2.049590 0.000000 -0.009970 
#    y 0.000000 2.140230 0.000000 
#    z -0.009970 0.000000 1.960270 
# 
# From -- ./inp_files/12110.got.cif
#   From: 2010.05.17/outbox.cif.g08.bks.cpg/sg4_7_cif.got.tgz:12110.got - 2010.06.03 18:43:04.
