data_PCOD9116310
_publ_section_title
;
Structure prediction by ZEFSAII (Michael W. Deem and Ramdas Pophale) SiO2 
 PCOD9116310
Probable space group: P 21
;
_chemical_formula_sum "Si O2"
_cell_formula_units_Z 16
_cell_length_a 10.449751
_cell_length_b 9.283513
_cell_length_c 12.594770
_cell_angle_alpha 90.000000
_cell_angle_beta 144.412350
_cell_angle_gamma 90.000000
_cell_volume 711.037465
_symmetry_space_group_name_H-M "P 21"
_symmetry_group_IT_number 4
_symmetry_cell_setting 'monoclinic'
loop_
_space_group_symop_operation_xyz
x,y,z
-x,1/2+y,-z
loop_
_atom_site_type_symbol
_atom_site_label
_atom_site_fract_x
_atom_site_fract_y
_atom_site_fract_z
Si Si1 0.342570 0.599260 0.188949
Si Si2 0.078378 0.976363 0.574801
Si Si3 0.548024 0.962155 0.540532
Si Si4 0.943991 0.768983 0.318634
Si Si5 0.243320 0.669356 0.895375
Si Si6 0.786026 0.240266 0.702548
Si Si7 0.509678 0.421894 0.001267
Si Si8 0.218304 0.283276 0.482441
O O1 0.385056 0.459361 0.290141
O O2 0.174161 0.691656 0.149529
O O3 0.574797 0.686713 0.341899
O O4 0.257503 0.581594 0.013956
O O5 0.311680 0.933554 0.784373
O O6 0.071511 0.905471 0.454416
O O7 0.871400 0.897715 0.492373
O O8 0.053118 0.142852 0.590754
O O9 0.306277 0.900635 0.362562
O O10 0.703137 0.872442 0.567298
O O11 0.584118 0.130304 0.538755
O O12 0.042087 0.716013 0.273851
O O13 0.700949 0.821578 0.129362
O O14 0.344604 0.829690 0.984099
O O15 0.996749 0.691469 0.691165
O O16 0.394857 0.578944 0.914679
#
# Coordination Sequence:
#
# PCOD9116310 Si02
#       8
#     2   2   2   2   2   2   2   2
#     4   9  21  43  64  91 124 166 209 263 317 378
#     4  11  25  41  66  96 129 177 215 263 325 389
#     4   9  19  39  66  89 126 159 210 262 315 371
#     4  12  25  42  68  96 134 172 217 263 330 384
#     4  11  24  43  66  92 130 169 214 261 324 379
#     4   9  21  38  65  92 124 166 208 266 314 378
#     4  11  26  42  62  97 136 170 213 276 309 389
#     4  10  21  42  65  91 129 167 208 268 324 374
#
# _framework density 22.502331000000002
#
# number of rings (size 3 to 8) (size 9 to 14) (size 15 to 20)
#    0.750    1.000    2.500    0.750    7.000    0.000 
#    2.250    0.000    0.000    0.000    0.000    0.000 
#    0.000    0.000    0.000    0.000    0.000    0.000 
#
# Total GULP energy -89154.284798 kJ/mol
# GULP energy per Si atom -5572.142800 kJ/mol
# Density = 2.245111 g / cm^3
# Si number density = 22.502331 Si / 1000 Ang^3
#
#
#
# Elastic Constant Matrix: (Units=GPa)
#
#
# Indices 1 2 3 4 5 6 
#
# 1 62.4945 19.6524 18.4558 0.0000 -4.6676 0.0000
# 2 19.6524 83.3896 12.9089 0.0000 1.6433 0.0000
# 3 18.4558 12.9089 44.1131 0.0000 8.7932 0.0000
# 4 0.0000 0.0000 0.0000 29.4938 0.0000 2.7061
# 5 -4.6676 1.6433 8.7932 0.0000 19.8304 0.0000
# 6 0.0000 0.0000 0.0000 2.7061 0.0000 37.9963
#
#
#
# Elastic Compliance Matrix: (Units=1/GPa)
#
#
# Indices 1 2 3 4 5 6 
#
# 1 0.020611 -0.003581 -0.009435 0.000000 0.009332 0.000000
# 2 -0.003581 0.013191 -0.002168 0.000000 -0.000975 0.000000
# 3 -0.009435 -0.002168 0.030339 0.000000 -0.015494 0.000000
# 4 0.000000 0.000000 0.000000 0.034128 0.000000 -0.002431
# 5 0.009332 -0.000975 -0.015494 0.000000 0.059575 0.000000
# 6 0.000000 0.000000 0.000000 -0.002431 0.000000 0.026491
#
#
# Mechanical properties :
#
#
# Convention : Reuss Voigt Hill
#
# Bulk Modulus (GPa) = 29.60910 32.44793 31.02851
# Shear Modulus (GPa) = 22.12770 26.72943 24.42856
#
# Velocity S-wave (km/s) = 3.13925 3.45026 3.29842
# Velocity P-wave (km/s) = 5.13095 5.50668 5.32213
#
# Compressibility (1/GPa) = 0.03377341
#
# Stress axis : x y z
#
# Youngs Moduli (GPa) = 48.51827 75.81207 32.96050
#
# Poissons Ratio (x) = 0.27145 0.31099
# Poissons Ratio (y) = 0.17372 0.07145
# Poissons Ratio (z) = 0.45779 0.16433
#
# Static dielectric constant tensor:
#      x y z
#    x 1.879180 0.000000 -0.012710 
#    y 0.000000 1.890200 0.000000 
#    z -0.012710 0.000000 1.802290 
# 
# From -- ./inp_files/13965.got.cif
#   From: 2010.05.17/outbox.cif.g08.bks.cpg/sg4_7_cif.got.tgz:13965.got - 2010.06.03 18:43:04.
