data_PCOD9116677
_publ_section_title
;
Structure prediction by ZEFSAII (Michael W. Deem and Ramdas Pophale) SiO2 
 PCOD9116677
Probable space group: P 21
;
_chemical_formula_sum "Si O2"
_cell_formula_units_Z 16
_cell_length_a 15.955485
_cell_length_b 8.842040
_cell_length_c 7.840824
_cell_angle_alpha 90.000000
_cell_angle_beta 37.714311
_cell_angle_gamma 90.000000
_cell_volume 676.675061
_symmetry_space_group_name_H-M "P 21"
_symmetry_group_IT_number 4
_symmetry_cell_setting 'monoclinic'
loop_
_space_group_symop_operation_xyz
x,y,z
-x,1/2+y,-z
loop_
_atom_site_type_symbol
_atom_site_label
_atom_site_fract_x
_atom_site_fract_y
_atom_site_fract_z
Si Si1 0.767653 0.458220 0.443426
Si Si2 0.079358 0.474575 0.981388
Si Si3 0.739657 0.618190 0.854995
Si Si4 0.620552 0.466698 0.354724
Si Si5 0.167122 0.709816 0.081684
Si Si6 0.986453 0.708383 0.669880
Si Si7 0.340060 0.457593 0.993082
Si Si8 0.746999 0.113154 0.555754
O O1 0.748320 0.532512 0.661113
O O2 0.693073 0.538882 0.405682
O O3 0.716234 0.283562 0.543840
O O4 0.929520 0.455447 0.140165
O O5 0.075115 0.637723 0.082488
O O6 0.085547 0.333462 0.098710
O O7 0.215465 0.493192 0.650136
O O8 0.876006 0.606836 0.752205
O O9 0.624130 0.557700 0.171815
O O10 0.719858 0.796259 0.858588
O O11 0.470242 0.433298 0.664355
O O12 0.713508 0.319919 0.168378
O O13 0.073257 0.783206 0.377171
O O14 0.237041 0.563356 0.054153
O O15 0.103672 0.628033 0.592170
O O16 0.361649 0.551281 0.133748
#
# Coordination Sequence:
#
# PCOD9116677 Si02
#       8
#     2   2   2   2   2   2   2   2
#     4  11  25  43  67 106 132 174 226 288 348 408
#     4  11  20  41  68 101 133 166 224 284 352 406
#     4  12  24  43  69 102 137 176 230 288 346 409
#     4  12  26  46  68  97 140 189 230 280 339 412
#     4  11  22  44  73  95 137 179 228 285 342 408
#     4  10  22  39  69 102 133 171 222 286 358 400
#     4  11  26  45  66  97 135 190 235 271 338 415
#     4  10  23  41  68  98 135 179 227 282 347 408
#
# _framework density 23.645026999999999
#
# number of rings (size 3 to 8) (size 9 to 14) (size 15 to 20)
#    0.000    1.000    3.750    3.750    0.000    5.000 
#    2.250    0.000    0.000    0.000    0.000    0.000 
#    0.000    0.000    0.000    0.000    0.000    0.000 
#
# Total GULP energy -89426.953233 kJ/mol
# GULP energy per Si atom -5589.184577 kJ/mol
# Density = 2.359121 g / cm^3
# Si number density = 23.645027 Si / 1000 Ang^3
#
#
#
# Elastic Constant Matrix: (Units=GPa)
#
#
# Indices 1 2 3 4 5 6 
#
# 1 20.4450 -4.0896 -7.2744 0.0000 18.1545 0.0000
# 2 -4.0896 96.7859 33.0103 0.0000 6.5815 0.0000
# 3 -7.2744 33.0103 125.8849 0.0000 22.4326 0.0000
# 4 0.0000 0.0000 0.0000 40.6670 0.0000 8.6127
# 5 18.1545 6.5815 22.4326 0.0000 29.0213 0.0000
# 6 0.0000 0.0000 0.0000 8.6127 0.0000 15.6601
#
#
#
# Elastic Compliance Matrix: (Units=1/GPa)
#
#
# Indices 1 2 3 4 5 6 
#
# 1 0.207410 0.006416 0.039064 0.000000 -0.161397 0.000000
# 2 0.006416 0.011548 -0.001711 0.000000 -0.005309 0.000000
# 3 0.039064 -0.001711 0.017321 0.000000 -0.037437 0.000000
# 4 0.000000 0.000000 0.000000 0.027832 0.000000 -0.015307
# 5 -0.161397 -0.005309 -0.037437 0.000000 0.165563 0.000000
# 6 0.000000 0.000000 0.000000 -0.015307 0.000000 0.072275
#
#
# Mechanical properties :
#
#
# Convention : Reuss Voigt Hill
#
# Bulk Modulus (GPa) = 3.08818 31.82315 17.45567
# Shear Modulus (GPa) = 9.57212 31.83431 20.70322
#
# Velocity S-wave (km/s) = 2.01421 3.67324 2.96224
# Velocity P-wave (km/s) = 2.59197 5.61054 4.37015
#
# Compressibility (1/GPa) = 0.32381530
#
# Stress axis : x y z
#
# Youngs Moduli (GPa) = 4.82138 86.59604 57.73275
#
# Poissons Ratio (x) = -0.55557 -2.25527
# Poissons Ratio (y) = -0.03093 0.09880
# Poissons Ratio (z) = -0.18834 0.14819
#
# Static dielectric constant tensor:
#      x y z
#    x 1.970630 0.000000 0.040330 
#    y 0.000000 1.895680 0.000000 
#    z 0.040330 0.000000 1.941670 
# 
# From -- ./inp_files/9917.got.cif
#   From: 2010.05.17/outbox.cif.g08.bks.cpg/sg4_5_cif.got.tgz:9917.got - 2010.06.03 18:43:04.
