data_PCOD9116154
_publ_section_title
;
Structure prediction by ZEFSAII (Michael W. Deem and Ramdas Pophale) SiO2 
 PCOD9116154
Probable space group: P 21
;
_chemical_formula_sum "Si O2"
_cell_formula_units_Z 14
_cell_length_a 29.622438
_cell_length_b 5.100269
_cell_length_c 23.699549
_cell_angle_alpha 90.000000
_cell_angle_beta 10.169342
_cell_angle_gamma 90.000000
_cell_volume 632.181207
_symmetry_space_group_name_H-M "P 21"
_symmetry_group_IT_number 4
_symmetry_cell_setting 'monoclinic'
loop_
_space_group_symop_operation_xyz
x,y,z
-x,1/2+y,-z
loop_
_atom_site_type_symbol
_atom_site_label
_atom_site_fract_x
_atom_site_fract_y
_atom_site_fract_z
Si Si1 0.554103 0.313610 0.275064
Si Si2 0.167753 0.317579 0.112384
Si Si3 0.191756 0.288744 0.612746
Si Si4 0.588915 0.391737 0.358728
Si Si5 0.457721 0.792195 0.241603
Si Si6 0.662935 0.232972 0.793691
Si Si7 0.855870 0.933710 0.663001
O O1 0.324586 0.299663 0.511544
O O2 0.473528 0.327839 0.439098
O O3 0.722596 0.568080 0.054705
O O4 0.739727 0.070075 0.035079
O O5 0.868063 0.298292 0.493248
O O6 0.318495 0.322168 0.986706
O O7 0.340074 0.505051 0.392947
O O8 0.247535 0.006036 0.517346
O O9 0.893932 0.351925 0.981174
O O10 0.523443 0.684309 0.458595
O O11 0.593737 0.853136 0.015563
O O12 0.817394 0.079298 0.651802
O O13 0.546924 0.505756 0.959972
O O14 0.982974 0.169217 0.542378
#
# Coordination Sequence:
#
# PCOD9116154 Si02
#       7
#     2   2   2   2   2   2   2
#     4  10  23  42  69  94 124 174 210 264 333 388
#     4  10  21  42  64  87 130 172 216 268 324 391
#     4  10  23  42  66  98 128 166 226 257 322 405
#     4  12  26  44  69 100 134 164 205 271 334 405
#     4  10  21  40  67  91 125 175 221 273 310 388
#     4  12  26  40  59  96 136 175 228 289 342 392
#     4  12  24  40  66  92 131 182 230 278 341 383
#
# _framework density 22.145547000000001
#
# number of rings (size 3 to 8) (size 9 to 14) (size 15 to 20)
#    0.000    1.143    1.429    4.286    4.000    4.571 
#    0.000    0.000    0.000    0.000    0.000    0.000 
#    0.000    0.000    0.000    0.000    0.000    0.000 
#
# Total GULP energy -78363.335837 kJ/mol
# GULP energy per Si atom -5597.381131 kJ/mol
# Density = 2.209514 g / cm^3
# Si number density = 22.145547 Si / 1000 Ang^3
#
#
#
# Elastic Constant Matrix: (Units=GPa)
#
#
# Indices 1 2 3 4 5 6 
#
# 1 45.4907 5.2082 6.0675 0.0000 1.5854 0.0000
# 2 5.2082 107.3925 -2.5651 0.0000 -6.0510 0.0000
# 3 6.0675 -2.5651 65.5104 0.0000 -10.5303 0.0000
# 4 0.0000 0.0000 0.0000 58.8192 0.0000 2.7995
# 5 1.5854 -6.0510 -10.5303 0.0000 26.9083 0.0000
# 6 0.0000 0.0000 0.0000 2.7995 0.0000 36.5040
#
#
#
# Elastic Compliance Matrix: (Units=1/GPa)
#
#
# Indices 1 2 3 4 5 6 
#
# 1 0.022565 -0.001303 -0.002563 0.000000 -0.002626 0.000000
# 2 -0.001303 0.009542 0.000909 0.000000 0.002578 0.000000
# 3 -0.002563 0.000909 0.016642 0.000000 0.006868 0.000000
# 4 0.000000 0.000000 0.000000 0.017064 0.000000 -0.001309
# 5 -0.002626 0.002578 0.006868 0.000000 0.040585 0.000000
# 6 0.000000 0.000000 0.000000 -0.001309 0.000000 0.027495
#
#
# Mechanical properties :
#
#
# Convention : Reuss Voigt Hill
#
# Bulk Modulus (GPa) = 23.34645 26.20164 24.77405
# Shear Modulus (GPa) = 32.44954 38.42517 35.43735
#
# Velocity S-wave (km/s) = 3.83206 4.17000 4.00459
# Velocity P-wave (km/s) = 5.49042 5.91966 5.70908
#
# Compressibility (1/GPa) = 0.04283306
#
# Stress axis : x y z
#
# Youngs Moduli (GPa) = 44.31617 104.80182 60.09009
#
# Poissons Ratio (x) = 0.13661 0.15401
# Poissons Ratio (y) = 0.05777 -0.05461
# Poissons Ratio (z) = 0.11358 -0.09524
#
# Static dielectric constant tensor:
#      x y z
#    x 1.892810 0.000000 -0.067700 
#    y 0.000000 1.756830 0.000000 
#    z -0.067700 0.000000 1.749350 
# 
# From -- ./inp_files/15729.got.cif
#   From: 2010.05.17/outbox.cif.g08.bks.cpg/sg4_8_cif.got.tgz:15729.got - 2010.06.03 18:43:04.
