data_PCOD9116307
_publ_section_title
;
Structure prediction by ZEFSAII (Michael W. Deem and Ramdas Pophale) SiO2 
 PCOD9116307
Probable space group: P 21
;
_chemical_formula_sum "Si O2"
_cell_formula_units_Z 16
_cell_length_a 17.549034
_cell_length_b 9.114687
_cell_length_c 10.828409
_cell_angle_alpha 90.000000
_cell_angle_beta 21.110749
_cell_angle_gamma 90.000000
_cell_volume 623.834469
_symmetry_space_group_name_H-M "P 21"
_symmetry_group_IT_number 4
_symmetry_cell_setting 'monoclinic'
loop_
_space_group_symop_operation_xyz
x,y,z
-x,1/2+y,-z
loop_
_atom_site_type_symbol
_atom_site_label
_atom_site_fract_x
_atom_site_fract_y
_atom_site_fract_z
Si Si1 0.895130 0.316610 0.052233
Si Si2 0.381847 0.083468 0.551654
Si Si3 0.134693 0.402206 0.439728
Si Si4 0.202216 0.549835 0.950105
Si Si5 0.992732 0.765345 0.856522
Si Si6 0.012781 0.673005 0.490371
Si Si7 0.554083 0.296288 0.078369
Si Si8 0.579248 0.087496 0.841847
O O1 0.740321 0.447831 0.325599
O O2 0.780696 0.168422 0.184385
O O3 0.044014 0.287356 0.942154
O O4 0.027419 0.360723 0.731256
O O5 0.560986 0.011312 0.366376
O O6 0.473233 0.207730 0.321021
O O7 0.199601 0.167738 0.902475
O O8 0.980287 0.522322 0.610079
O O9 0.345175 0.487269 0.156919
O O10 0.169576 0.280051 0.282051
O O11 0.110459 0.625077 0.211381
O O12 0.042889 0.422795 0.150260
O O13 0.213327 0.676919 0.517714
O O14 0.191946 0.764777 0.294575
O O15 0.511520 0.469726 0.118666
O O16 0.455671 0.212256 0.105937
#
# Coordination Sequence:
#
# PCOD9116307 Si02
#       8
#     2   2   2   2   2   2   2   2
#     4  11  23  42  66 108 139 186 237 293 360 434
#     4  11  23  44  69 102 143 186 232 302 357 428
#     4  10  21  42  65 100 131 178 239 286 350 432
#     4  10  24  43  67 102 142 184 240 290 357 431
#     4  12  25  43  74 102 139 193 240 296 362 435
#     4   9  22  41  68  95 137 181 229 292 352 419
#     4  10  25  45  66 101 147 184 240 298 358 426
#     4  11  25  46  67 102 140 192 241 297 358 427
#
# _framework density 25.647832000000001
#
# number of rings (size 3 to 8) (size 9 to 14) (size 15 to 20)
#    0.000    1.500    1.250    2.250    7.000    2.000 
#    0.000    0.000    0.000    0.000    0.000    0.000 
#    0.000    0.000    0.000    0.000    0.000    0.000 
#
# Total GULP energy -89353.106128 kJ/mol
# GULP energy per Si atom -5584.569133 kJ/mol
# Density = 2.558946 g / cm^3
# Si number density = 25.647832 Si / 1000 Ang^3
#
#
#
# Elastic Constant Matrix: (Units=GPa)
#
#
# Indices 1 2 3 4 5 6 
#
# 1 105.7285 32.5201 -1.0275 0.0000 -0.0356 0.0000
# 2 32.5201 120.7543 10.3278 0.0000 -4.0375 0.0000
# 3 -1.0275 10.3278 24.0724 0.0000 -1.1625 0.0000
# 4 0.0000 0.0000 0.0000 39.8855 0.0000 -9.9715
# 5 -0.0356 -4.0375 -1.1625 0.0000 28.8778 0.0000
# 6 0.0000 0.0000 0.0000 -9.9715 0.0000 63.7166
#
#
#
# Elastic Compliance Matrix: (Units=1/GPa)
#
#
# Indices 1 2 3 4 5 6 
#
# 1 0.010383 -0.002952 0.001694 0.000000 -0.000332 0.000000
# 2 -0.002952 0.009468 -0.004132 0.000000 0.001154 0.000000
# 3 0.001694 -0.004132 0.043443 0.000000 0.001173 0.000000
# 4 0.000000 0.000000 0.000000 0.026093 0.000000 0.004083
# 5 -0.000332 0.001154 0.001173 0.000000 0.034837 0.000000
# 6 0.000000 0.000000 0.000000 0.004083 0.000000 0.016334
#
#
# Mechanical properties :
#
#
# Convention : Reuss Voigt Hill
#
# Bulk Modulus (GPa) = 19.04317 37.13288 28.08803
# Shear Modulus (GPa) = 29.61335 40.41163 35.01249
#
# Velocity S-wave (km/s) = 3.40165 3.97373 3.69877
# Velocity P-wave (km/s) = 4.78218 5.96351 5.40522
#
# Compressibility (1/GPa) = 0.05251227
#
# Stress axis : x y z
#
# Youngs Moduli (GPa) = 96.31572 105.61556 23.01859
#
# Poissons Ratio (x) = 0.31178 -0.03899
# Poissons Ratio (y) = 0.28433 0.09512
# Poissons Ratio (z) = -0.16312 0.43645
#
# Static dielectric constant tensor:
#      x y z
#    x 2.024790 0.000000 -0.000140 
#    y 0.000000 2.149120 0.000000 
#    z -0.000140 0.000000 2.080160 
# 
# From -- ./inp_files/12908.got.cif
#   From: 2010.05.17/outbox.cif.g08.bks.cpg/sg4_7_cif.got.tgz:12908.got - 2010.06.03 18:43:04.
