data_PCOD9116390
_publ_section_title
;
Structure prediction by ZEFSAII (Michael W. Deem and Ramdas Pophale) SiO2 
 PCOD9116390
Probable space group: P 21
;
_chemical_formula_sum "Si O2"
_cell_formula_units_Z 16
_cell_length_a 6.179750
_cell_length_b 14.777979
_cell_length_c 10.984083
_cell_angle_alpha 90.000000
_cell_angle_beta 128.799232
_cell_angle_gamma 90.000000
_cell_volume 781.772286
_symmetry_space_group_name_H-M "P 21"
_symmetry_group_IT_number 4
_symmetry_cell_setting 'monoclinic'
loop_
_space_group_symop_operation_xyz
x,y,z
-x,1/2+y,-z
loop_
_atom_site_type_symbol
_atom_site_label
_atom_site_fract_x
_atom_site_fract_y
_atom_site_fract_z
Si Si1 0.441592 0.454230 0.217603
Si Si2 0.848906 0.598973 0.286285
Si Si3 0.896734 0.350496 0.016866
Si Si4 0.124634 0.237833 0.911108
Si Si5 0.276527 0.792369 0.791530
Si Si6 0.754847 0.707428 0.497341
Si Si7 0.553991 0.036871 0.512255
Si Si8 0.351230 0.868822 0.302856
O O1 0.596346 0.528550 0.190402
O O2 0.622574 0.362858 0.274425
O O3 0.429944 0.493388 0.348062
O O4 0.138417 0.421807 0.070049
O O5 0.912688 0.649035 0.181926
O O6 0.773151 0.669977 0.365844
O O7 0.132946 0.549423 0.424959
O O8 0.864797 0.347128 0.148293
O O9 0.635947 0.373718 0.840289
O O10 0.990475 0.251335 0.998233
O O11 0.945871 0.317693 0.781747
O O12 0.449260 0.252362 0.047658
O O13 0.059265 0.723615 0.658510
O O14 0.591534 0.633620 0.520071
O O15 0.585653 0.801262 0.435371
O O16 0.383757 0.966639 0.371134
#
# Coordination Sequence:
#
# PCOD9116390 Si02
#       8
#     2   2   2   2   2   2   2   2
#     4  10  22  37  62  92 126 164 212 256 325 373
#     4  11  22  41  63  93 126 165 215 266 318 379
#     4   9  20  39  60  90 123 169 207 255 317 372
#     4   9  22  39  63  87 124 169 208 253 321 376
#     4  11  22  42  64  95 127 171 211 259 317 387
#     4  11  24  39  66  97 125 166 216 265 319 376
#     4  11  23  42  63  97 126 167 212 268 320 374
#     4  10  21  43  65  89 131 169 209 266 313 383
#
# _framework density 20.466317
#
# number of rings (size 3 to 8) (size 9 to 14) (size 15 to 20)
#    0.750    1.000    1.250    3.000    1.750    3.000 
#    4.500    2.500    0.000    0.000    0.000    0.000 
#    0.000    0.000    0.000    0.000    0.000    0.000 
#
# Total GULP energy -89186.091275 kJ/mol
# GULP energy per Si atom -5574.130705 kJ/mol
# Density = 2.041974 g / cm^3
# Si number density = 20.466317 Si / 1000 Ang^3
#
#
#
# Elastic Constant Matrix: (Units=GPa)
#
#
# Indices 1 2 3 4 5 6 
#
# 1 33.6836 -2.0646 0.1457 0.0000 7.5378 0.0000
# 2 -2.0646 36.2090 13.2539 0.0000 2.2991 0.0000
# 3 0.1457 13.2539 56.8435 0.0000 20.3189 0.0000
# 4 0.0000 0.0000 0.0000 28.5471 0.0000 1.5341
# 5 7.5378 2.2991 20.3189 0.0000 28.0721 0.0000
# 6 0.0000 0.0000 0.0000 1.5341 0.0000 22.4353
#
#
#
# Elastic Compliance Matrix: (Units=1/GPa)
#
#
# Indices 1 2 3 4 5 6 
#
# 1 0.032315 0.001202 0.003742 0.000000 -0.011484 0.000000
# 2 0.001202 0.030502 -0.008238 0.000000 0.003142 0.000000
# 3 0.003742 -0.008238 0.026470 0.000000 -0.019489 0.000000
# 4 0.000000 0.000000 0.000000 0.035159 0.000000 -0.002404
# 5 -0.011484 0.003142 -0.019489 0.000000 0.052555 0.000000
# 6 0.000000 0.000000 0.000000 -0.002404 0.000000 0.044737
#
#
# Mechanical properties :
#
#
# Convention : Reuss Voigt Hill
#
# Bulk Modulus (GPa) = 12.09203 16.60068 14.34635
# Shear Modulus (GPa) = 19.53941 23.50433 21.52187
#
# Velocity S-wave (km/s) = 3.09319 3.39254 3.24632
# Velocity P-wave (km/s) = 4.32183 4.84506 4.59090
#
# Compressibility (1/GPa) = 0.08269910
#
# Stress axis : x y z
#
# Youngs Moduli (GPa) = 30.94494 32.78478 37.77880
#
# Poissons Ratio (x) = -0.03941 -0.14136
# Poissons Ratio (y) = -0.03720 0.31123
# Poissons Ratio (z) = -0.11579 0.27009
#
# Static dielectric constant tensor:
#      x y z
#    x 1.766280 0.000000 0.007080 
#    y 0.000000 1.720040 0.000000 
#    z 0.007080 0.000000 1.717590 
# 
# From -- ./inp_files/3162.got.cif
#   From: 2010.05.17/outbox.cif.g08.bks.cpg/sg4_2_cif.got.tgz:3162.got - 2010.06.03 18:43:04.
