data_PCOD9116997
_publ_section_title
;
Structure prediction by ZEFSAII (Michael W. Deem and Ramdas Pophale) SiO2 
 PCOD9116997
Probable space group: P 21
;
_chemical_formula_sum "Si O2"
_cell_formula_units_Z 14
_cell_length_a 15.684451
_cell_length_b 8.462797
_cell_length_c 15.012101
_cell_angle_alpha 90.000000
_cell_angle_beta 19.100824
_cell_angle_gamma 90.000000
_cell_volume 652.048366
_symmetry_space_group_name_H-M "P 21"
_symmetry_group_IT_number 4
_symmetry_cell_setting 'monoclinic'
loop_
_space_group_symop_operation_xyz
x,y,z
-x,1/2+y,-z
loop_
_atom_site_type_symbol
_atom_site_label
_atom_site_fract_x
_atom_site_fract_y
_atom_site_fract_z
Si Si1 0.479363 0.777360 0.202802
Si Si2 0.263586 0.863958 0.876213
Si Si3 0.784211 0.059089 0.396126
Si Si4 0.728852 0.252379 0.774755
Si Si5 0.229742 0.086503 0.219124
Si Si6 0.904131 0.367208 0.162728
Si Si7 0.417404 0.507666 0.738620
O O1 0.305678 0.649894 0.426591
O O2 0.316502 0.832599 0.277961
O O3 0.562514 0.910844 0.189283
O O4 0.722140 0.685634 0.918643
O O5 0.153093 0.857546 0.884831
O O6 0.340400 0.688137 0.829302
O O7 0.526207 0.967417 0.618933
O O8 0.031299 0.944706 0.161223
O O9 0.860519 0.196122 0.250608
O O10 0.760789 0.400133 0.807484
O O11 0.971991 0.138753 0.523801
O O12 0.474536 0.145823 0.036591
O O13 0.692814 0.484115 0.416795
O O14 0.192608 0.426274 0.901065
#
# Coordination Sequence:
#
# PCOD9116997 Si02
#       7
#     2   2   2   2   2   2   2
#     4   9  25  43  66  88 136 166 200 249 333 370
#     4  12  23  39  59  99 121 164 228 264 294 369
#     4  11  24  40  64  89 129 169 210 260 321 360
#     4  10  22  42  69  93 125 159 207 248 312 380
#     4  10  22  42  69  95 125 159 207 248 312 380
#     4  11  22  40  65  85 127 174 212 263 315 363
#     4  11  24  40  64  89 129 169 210 260 321 360
#
# _framework density 21.470801999999999
#
# number of rings (size 3 to 8) (size 9 to 14) (size 15 to 20)
#    0.857    0.571    0.000    6.000    6.000    0.000 
#    2.571    0.000    0.000    0.000    0.000    0.000 
#    0.000    0.000    0.000    0.000    0.000    0.000 
#
# Total GULP energy -78242.940380 kJ/mol
# GULP energy per Si atom -5588.781456 kJ/mol
# Density = 2.142193 g / cm^3
# Si number density = 21.470802 Si / 1000 Ang^3
#
#
#
# Elastic Constant Matrix: (Units=GPa)
#
#
# Indices 1 2 3 4 5 6 
#
# 1 125.7123 -24.7767 -194.9546 0.0000 -105.6142 0.0000
# 2 -24.7767 101.1919 71.3071 0.0000 30.4104 0.0000
# 3 -194.9546 71.3071 496.5401 0.0000 204.6413 0.0000
# 4 0.0000 0.0000 0.0000 33.8558 0.0000 -3.2556
# 5 -105.6142 30.4104 204.6413 0.0000 145.2090 0.0000
# 6 0.0000 0.0000 0.0000 -3.2556 0.0000 1.3684
#
#
#
# Elastic Compliance Matrix: (Units=1/GPa)
#
#
# Indices 1 2 3 4 5 6 
#
# 1 0.025951 -0.001040 0.005892 0.000000 0.010790 0.000000
# 2 -0.001040 0.011039 -0.001739 0.000000 -0.000617 0.000000
# 3 0.005892 -0.001739 0.006347 0.000000 -0.004296 0.000000
# 4 0.000000 0.000000 0.000000 0.038298 0.000000 0.091114
# 5 0.010790 -0.000617 -0.004296 0.000000 0.020918 0.000000
# 6 0.000000 0.000000 0.000000 0.091114 0.000000 0.947534
#
#
# Mechanical properties :
#
#
# Convention : Reuss Voigt Hill
#
# Bulk Modulus (GPa) = 20.17681 47.39953 33.78817
# Shear Modulus (GPa) = 4.71528 94.21121 49.46324
#
# Velocity S-wave (km/s) = 1.48354 6.63129 4.80494
# Velocity P-wave (km/s) = 3.51458 8.98645 6.82307
#
# Compressibility (1/GPa) = 0.04956186
#
# Stress axis : x y z
#
# Youngs Moduli (GPa) = 38.53382 90.59103 157.54338
#
# Poissons Ratio (x) = 0.09423 -0.92819
# Poissons Ratio (y) = 0.04008 0.27401
# Poissons Ratio (z) = -0.22703 0.15756
#
# Static dielectric constant tensor:
#      x y z
#    x 1.803820 0.000000 -0.003470 
#    y 0.000000 1.737820 0.000000 
#    z -0.003470 0.000000 1.755370 
# 
# From -- ./inp_files/14171.got.cif
#   From: 2010.05.17/outbox.cif.g08.bks.cpg/sg4_8_cif.got.tgz:14171.got - 2010.06.03 18:43:04.
