data_PCOD9116326
_publ_section_title
;
Structure prediction by ZEFSAII (Michael W. Deem and Ramdas Pophale) SiO2 
 PCOD9116326
Probable space group: P 21
;
_chemical_formula_sum "Si O2"
_cell_formula_units_Z 12
_cell_length_a 8.241466
_cell_length_b 5.418736
_cell_length_c 19.154380
_cell_angle_alpha 90.000000
_cell_angle_beta 144.946788
_cell_angle_gamma 90.000000
_cell_volume 491.289322
_symmetry_space_group_name_H-M "P 21"
_symmetry_group_IT_number 4
_symmetry_cell_setting 'monoclinic'
loop_
_space_group_symop_operation_xyz
x,y,z
-x,1/2+y,-z
loop_
_atom_site_type_symbol
_atom_site_label
_atom_site_fract_x
_atom_site_fract_y
_atom_site_fract_z
Si Si1 0.166234 0.630610 0.141515
Si Si2 0.093581 0.101334 0.714345
Si Si3 0.408911 0.451339 0.361212
Si Si4 0.661027 0.881266 0.927959
Si Si5 0.675837 0.005355 0.287987
Si Si6 0.758874 0.959985 0.473148
O O1 0.262485 0.435736 0.233266
O O2 0.133090 0.526206 0.052120
O O3 0.430227 0.812706 0.225620
O O4 0.869958 0.757949 0.056671
O O5 0.112583 0.380294 0.693316
O O6 0.838773 0.016119 0.672291
O O7 0.034369 0.962924 0.619303
O O8 0.395091 0.046335 0.856623
O O9 0.563166 0.191740 0.429636
O O10 0.602973 0.698079 0.427752
O O11 0.501773 0.694216 0.820437
O O12 0.822093 0.034946 0.415209
#
# Coordination Sequence:
#
# PCOD9116326 Si02
#       6
#     2   2   2   2   2   2
#     4  10  21  42  67  91 130 178 231 269 347 406
#     4  11  27  40  67 104 135 176 231 291 349 404
#     4  11  25  47  68 101 135 190 221 283 352 422
#     4  11  21  41  64  96 129 175 228 286 328 411
#     4  10  23  39  66  95 126 171 229 279 330 399
#     4  11  25  45  72  95 143 180 228 276 352 422
#
# _framework density 24.425526000000001
#
# number of rings (size 3 to 8) (size 9 to 14) (size 15 to 20)
#    0.000    1.333    3.333    1.000    7.000    0.000 
#    3.000    0.000    0.000    0.000    0.000    0.000 
#    0.000    0.000    0.000    0.000    0.000    0.000 
#
# Total GULP energy -67008.044896 kJ/mol
# GULP energy per Si atom -5584.003741 kJ/mol
# Density = 2.436993 g / cm^3
# Si number density = 24.425526 Si / 1000 Ang^3
#
#
#
# Elastic Constant Matrix: (Units=GPa)
#
#
# Indices 1 2 3 4 5 6 
#
# 1 77.8136 19.3791 5.0324 0.0000 22.9913 0.0000
# 2 19.3791 59.7741 7.0266 0.0000 19.6961 0.0000
# 3 5.0324 7.0266 105.2427 0.0000 22.0761 0.0000
# 4 0.0000 0.0000 0.0000 44.2579 0.0000 4.6579
# 5 22.9913 19.6961 22.0761 0.0000 22.9642 0.0000
# 6 0.0000 0.0000 0.0000 4.6579 0.0000 31.7189
#
#
#
# Elastic Compliance Matrix: (Units=1/GPa)
#
#
# Indices 1 2 3 4 5 6 
#
# 1 0.019553 0.001310 0.004158 0.000000 -0.024697 0.000000
# 2 0.001310 0.024363 0.003719 0.000000 -0.025783 0.000000
# 3 0.004158 0.003719 0.013274 0.000000 -0.020113 0.000000
# 4 0.000000 0.000000 0.000000 0.022950 0.000000 -0.003370
# 5 -0.024697 -0.025783 -0.020113 0.000000 0.109721 0.000000
# 6 0.000000 0.000000 0.000000 -0.003370 0.000000 0.032022
#
#
# Mechanical properties :
#
#
# Convention : Reuss Voigt Hill
#
# Bulk Modulus (GPa) = 13.23379 33.96741 23.60060
# Shear Modulus (GPa) = 21.86298 33.88100 27.87199
#
# Velocity S-wave (km/s) = 2.99505 3.72844 3.38168
# Velocity P-wave (km/s) = 4.17015 5.69840 4.99309
#
# Compressibility (1/GPa) = 0.07556415
#
# Stress axis : x y z
#
# Youngs Moduli (GPa) = 51.14248 41.04505 75.33688
#
# Poissons Ratio (x) = -0.05376 -0.31326
# Poissons Ratio (y) = -0.06699 -0.28018
# Poissons Ratio (z) = -0.21266 -0.15265
#
# Static dielectric constant tensor:
#      x y z
#    x 1.931580 0.000000 -0.003220 
#    y 0.000000 2.128320 0.000000 
#    z -0.003220 0.000000 1.964200 
# 
# From -- ./inp_files/7099.got.cif
#   From: 2010.05.17/outbox.cif.g08.bks.cpg/sg4_4_cif.got.tgz:7099.got - 2010.06.03 18:43:04.
