data_PCOD9116249
_publ_section_title
;
Structure prediction by ZEFSAII (Michael W. Deem and Ramdas Pophale) SiO2 
 PCOD9116249
Probable space group: P 21
;
_chemical_formula_sum "Si O2"
_cell_formula_units_Z 16
_cell_length_a 7.115966
_cell_length_b 13.352206
_cell_length_c 7.134468
_cell_angle_alpha 90.000000
_cell_angle_beta 122.230512
_cell_angle_gamma 90.000000
_cell_volume 573.419249
_symmetry_space_group_name_H-M "P 21"
_symmetry_group_IT_number 4
_symmetry_cell_setting 'monoclinic'
loop_
_space_group_symop_operation_xyz
x,y,z
-x,1/2+y,-z
loop_
_atom_site_type_symbol
_atom_site_label
_atom_site_fract_x
_atom_site_fract_y
_atom_site_fract_z
Si Si1 0.781033 0.264380 0.721654
Si Si2 0.184228 0.510600 0.851673
Si Si3 0.514332 0.097830 0.433969
Si Si4 0.812222 0.584646 0.395948
Si Si5 0.650220 0.880061 0.380863
Si Si6 0.139229 0.371266 0.135667
Si Si7 0.487072 0.183077 0.014571
Si Si8 0.343320 0.867362 0.715907
O O1 0.733993 0.151955 0.630078
O O2 0.547541 0.300810 0.692827
O O3 0.794608 0.329384 0.537330
O O4 0.986156 0.286415 0.964198
O O5 0.277135 0.412627 0.788985
O O6 0.064181 0.470442 0.976043
O O7 0.367468 0.593562 0.998063
O O8 0.049406 0.566929 0.615420
O O9 0.332565 0.102630 0.496117
O O10 0.444649 0.153244 0.207647
O O11 0.550245 0.984084 0.402182
O O12 0.743151 0.476418 0.272672
O O13 0.745090 0.674201 0.220899
O O14 0.850951 0.860532 0.634300
O O15 0.401269 0.373165 0.222865
O O16 0.635664 0.281978 0.117037
#
# Coordination Sequence:
#
# PCOD9116249 Si02
#       8
#     2   2   2   2   2   2   2   2
#     4  10  21  41  67  93 127 171 212 273 325 380
#     4  11  23  39  67  93 128 176 213 258 327 388
#     4  10  21  43  66  89 133 165 215 270 318 382
#     4  12  22  45  65  96 130 177 214 263 330 388
#     4  10  22  41  59  96 129 160 222 261 315 396
#     4  11  20  42  67  87 128 179 204 268 333 369
#     4  10  24  42  63 101 131 167 219 275 316 383
#     4  10  21  41  68  93 134 165 219 268 318 388
#
# _framework density 27.902795999999999
#
# number of rings (size 3 to 8) (size 9 to 14) (size 15 to 20)
#    0.000    1.500    5.000    0.000    0.000    7.000 
#    4.500    7.500    0.000    0.000    0.000    0.000 
#    0.000    0.000    0.000    0.000    0.000    0.000 
#
# Total GULP energy -89628.206452 kJ/mol
# GULP energy per Si atom -5601.762903 kJ/mol
# Density = 2.783929 g / cm^3
# Si number density = 27.902796 Si / 1000 Ang^3
#
#
#
# Elastic Constant Matrix: (Units=GPa)
#
#
# Indices 1 2 3 4 5 6 
#
# 1 60.5117 1.6774 21.7644 0.0000 -9.0287 0.0000
# 2 1.6774 77.2510 3.2863 0.0000 -0.2541 0.0000
# 3 21.7644 3.2863 167.0462 0.0000 -17.7736 0.0000
# 4 0.0000 0.0000 0.0000 51.1810 0.0000 6.9831
# 5 -9.0287 -0.2541 -17.7736 0.0000 54.1329 0.0000
# 6 0.0000 0.0000 0.0000 6.9831 0.0000 31.6018
#
#
#
# Elastic Compliance Matrix: (Units=1/GPa)
#
#
# Indices 1 2 3 4 5 6 
#
# 1 0.017608 -0.000288 -0.002048 0.000000 0.002263 0.000000
# 2 -0.000288 0.012960 -0.000224 0.000000 -0.000061 0.000000
# 3 -0.002048 -0.000224 0.006446 0.000000 0.001774 0.000000
# 4 0.000000 0.000000 0.000000 0.020146 0.000000 -0.004452
# 5 0.002263 -0.000061 0.001774 0.000000 0.019433 0.000000
# 6 0.000000 0.000000 0.000000 -0.004452 0.000000 0.032627
#
#
# Mechanical properties :
#
#
# Convention : Reuss Voigt Hill
#
# Bulk Modulus (GPa) = 31.35208 39.80723 35.57965
# Shear Modulus (GPa) = 40.00921 45.92187 42.96554
#
# Velocity S-wave (km/s) = 3.79077 4.06122 3.92832
# Velocity P-wave (km/s) = 5.51547 6.02401 5.77534
#
# Compressibility (1/GPa) = 0.03189581
#
# Stress axis : x y z
#
# Youngs Moduli (GPa) = 56.79280 77.15814 155.12754
#
# Poissons Ratio (x) = 0.02220 0.31765
# Poissons Ratio (y) = 0.01634 0.03474
# Poissons Ratio (z) = 0.11629 0.01728
#
# Static dielectric constant tensor:
#      x y z
#    x 2.209550 0.000000 -0.003190 
#    y 0.000000 2.221250 0.000000 
#    z -0.003190 0.000000 2.196070 
# 
# From -- ./inp_files/6683.got.cif
#   From: 2010.05.17/outbox.cif.g08.bks.cpg/sg4_4_cif.got.tgz:6683.got - 2010.06.03 18:43:04.
