data_PCOD9116537
_publ_section_title
;
Structure prediction by ZEFSAII (Michael W. Deem and Ramdas Pophale) SiO2 
 PCOD9116537
Probable space group: P 21
;
_chemical_formula_sum "Si O2"
_cell_formula_units_Z 16
_cell_length_a 18.136522
_cell_length_b 5.134649
_cell_length_c 18.572612
_cell_angle_alpha 90.000000
_cell_angle_beta 23.167548
_cell_angle_gamma 90.000000
_cell_volume 680.448987
_symmetry_space_group_name_H-M "P 21"
_symmetry_group_IT_number 4
_symmetry_cell_setting 'monoclinic'
loop_
_space_group_symop_operation_xyz
x,y,z
-x,1/2+y,-z
loop_
_atom_site_type_symbol
_atom_site_label
_atom_site_fract_x
_atom_site_fract_y
_atom_site_fract_z
Si Si1 0.514331 0.042620 0.938139
Si Si2 0.377877 0.541131 0.516693
Si Si3 0.954994 0.007624 0.084005
Si Si4 0.843304 0.710529 0.387064
Si Si5 0.867081 0.529065 0.798787
Si Si6 0.529502 0.054113 0.315528
Si Si7 0.108837 0.331320 0.075051
Si Si8 0.073354 0.695455 0.475202
O O1 0.707809 0.116503 0.724627
O O2 0.454421 0.298316 0.037103
O O3 0.338197 0.967440 0.046629
O O4 0.224875 0.476180 0.590764
O O5 0.475694 0.810633 0.413409
O O6 0.477936 0.808813 0.628067
O O7 0.258688 0.515562 0.695837
O O8 0.073042 0.124564 0.044208
O O9 0.989426 0.219590 0.990489
O O10 0.643663 0.586722 0.585907
O O11 0.001755 0.780105 0.301501
O O12 0.934037 0.522656 0.245924
O O13 0.846131 0.686435 0.891315
O O14 0.985095 0.687672 0.633628
O O15 0.717966 0.006281 0.104781
O O16 0.037208 0.972428 0.470409
#
# Coordination Sequence:
#
# PCOD9116537 Si02
#       8
#     2   2   2   2   2   2   2   2
#     4  12  26  50  73 109 150 194 251 307 370 458
#     4  10  21  47  68 103 150 186 238 309 359 443
#     4  12  24  45  79 106 147 207 245 308 383 447
#     4  10  23  45  72 106 150 188 240 313 368 431
#     4  12  27  43  82 106 153 196 255 309 376 434
#     4  10  23  43  73 103 153 179 239 316 359 435
#     4  12  26  46  76 114 148 197 261 302 378 448
#     4  12  26  51  75 103 149 197 247 306 379 442
#
# _framework density 23.513887
#
# number of rings (size 3 to 8) (size 9 to 14) (size 15 to 20)
#    0.750    0.000    5.000    1.500    5.250    3.000 
#    0.000    2.500    0.000    0.000    0.000    0.000 
#    0.000    0.000    0.000    0.000    0.000    0.000 
#
# Total GULP energy -89547.340741 kJ/mol
# GULP energy per Si atom -5596.708796 kJ/mol
# Density = 2.346037 g / cm^3
# Si number density = 23.513887 Si / 1000 Ang^3
#
#
#
# Elastic Constant Matrix: (Units=GPa)
#
#
# Indices 1 2 3 4 5 6 
#
# 1 94.6701 2.3022 39.3245 0.0000 -5.1796 0.0000
# 2 2.3022 92.6215 9.1984 0.0000 6.7888 0.0000
# 3 39.3245 9.1984 117.6924 0.0000 -12.7900 0.0000
# 4 0.0000 0.0000 0.0000 41.0121 0.0000 -2.3950
# 5 -5.1796 6.7888 -12.7900 0.0000 37.7267 0.0000
# 6 0.0000 0.0000 0.0000 -2.3950 0.0000 20.7799
#
#
#
# Elastic Compliance Matrix: (Units=1/GPa)
#
#
# Indices 1 2 3 4 5 6 
#
# 1 0.012269 0.000078 -0.004074 0.000000 0.000289 0.000000
# 2 0.000078 0.011083 -0.001150 0.000000 -0.002374 0.000000
# 3 -0.004074 -0.001150 0.010289 0.000000 0.003136 0.000000
# 4 0.000000 0.000000 0.000000 0.024548 0.000000 0.002829
# 5 0.000289 -0.002374 0.003136 0.000000 0.028036 0.000000
# 6 0.000000 0.000000 0.000000 0.002829 0.000000 0.048450
#
#
# Mechanical properties :
#
#
# Convention : Reuss Voigt Hill
#
# Bulk Modulus (GPa) = 42.82904 45.18157 44.00530
# Shear Modulus (GPa) = 32.73318 36.84765 34.79042
#
# Velocity S-wave (km/s) = 3.73510 3.96290 3.85069
# Velocity P-wave (km/s) = 6.07085 6.34003 6.20690
#
# Compressibility (1/GPa) = 0.02334864
#
# Stress axis : x y z
#
# Youngs Moduli (GPa) = 81.50433 90.22912 97.19383
#
# Poissons Ratio (x) = -0.00708 0.39599
# Poissons Ratio (y) = -0.00640 0.11181
# Poissons Ratio (z) = 0.33207 0.10380
#
# Static dielectric constant tensor:
#      x y z
#    x 1.932920 0.000000 -0.035940 
#    y 0.000000 1.885370 0.000000 
#    z -0.035940 0.000000 1.872550 
# 
# From -- ./inp_files/14075.got.cif
#   From: 2010.05.17/outbox.cif.g08.bks.cpg/sg4_8_cif.got.tgz:14075.got - 2010.06.03 18:43:04.
