data_PCOD9116019
_publ_section_title
;
Structure prediction by ZEFSAII (Michael W. Deem and Ramdas Pophale) SiO2 
 PCOD9116019
Probable space group: P 21
;
_chemical_formula_sum "Si O2"
_cell_formula_units_Z 14
_cell_length_a 12.212055
_cell_length_b 5.204878
_cell_length_c 23.273234
_cell_angle_alpha 90.000000
_cell_angle_beta 21.696156
_cell_angle_gamma 90.000000
_cell_volume 546.873892
_symmetry_space_group_name_H-M "P 21"
_symmetry_group_IT_number 4
_symmetry_cell_setting 'monoclinic'
loop_
_space_group_symop_operation_xyz
x,y,z
-x,1/2+y,-z
loop_
_atom_site_type_symbol
_atom_site_label
_atom_site_fract_x
_atom_site_fract_y
_atom_site_fract_z
Si Si1 0.707693 0.327940 0.965681
Si Si2 0.695867 0.955895 0.273460
Si Si3 0.326034 0.780401 0.604592
Si Si4 0.693897 0.329654 0.839053
Si Si5 0.082321 0.720862 0.611783
Si Si6 0.589725 0.573314 0.705419
Si Si7 0.230274 0.562517 0.331068
O O1 0.798649 0.321881 0.854149
O O2 0.995181 0.319023 0.865052
O O3 0.524320 0.590530 0.064013
O O4 0.510649 0.078710 0.069831
O O5 0.630077 0.026039 0.240152
O O6 0.413732 0.781397 0.428988
O O7 0.711931 0.195191 0.311272
O O8 0.494251 0.537802 0.494111
O O9 0.054084 0.807891 0.692455
O O10 0.978856 0.422693 0.661975
O O11 0.890852 0.906921 0.665062
O O12 0.543209 0.853691 0.753774
O O13 0.925846 0.590404 0.515941
O O14 0.608691 0.337871 0.741347
#
# Coordination Sequence:
#
# PCOD9116019 Si02
#       7
#     2   2   2   2   2   2   2
#     4  10  22  40  59  86 127 172 210 251 322 405
#     4  10  21  39  63  92 126 166 215 269 325 388
#     4  10  22  34  52  90 128 156 200 264 332 384
#     4  10  22  40  59  86 127 172 210 251 322 405
#     4  10  21  39  63  92 126 166 215 269 325 388
#     4   9  19  34  55  84 119 158 204 260 320 381
#     4   9  19  34  55  84 119 158 204 260 320 381
#
# _framework density 25.600052999999999
#
# number of rings (size 3 to 8) (size 9 to 14) (size 15 to 20)
#    0.000    2.286    1.429    0.000    0.000   14.857 
#    2.571    0.000    0.000    3.429    0.000    0.000 
#    0.000    0.000    0.000    0.000    0.000    0.000 
#
# Total GULP energy -78280.954119 kJ/mol
# GULP energy per Si atom -5591.496723 kJ/mol
# Density = 2.554179 g / cm^3
# Si number density = 25.600053 Si / 1000 Ang^3
#
#
#
# Elastic Constant Matrix: (Units=GPa)
#
#
# Indices 1 2 3 4 5 6 
#
# 1 112.8586 13.5687 20.4532 0.0000 -41.2865 0.0000
# 2 13.5687 100.9233 -0.9911 0.0000 9.9003 0.0000
# 3 20.4532 -0.9911 68.5151 0.0000 -22.5902 0.0000
# 4 0.0000 0.0000 0.0000 35.9660 0.0000 5.1306
# 5 -41.2865 9.9003 -22.5902 0.0000 42.8380 0.0000
# 6 0.0000 0.0000 0.0000 5.1306 0.0000 30.8195
#
#
#
# Elastic Compliance Matrix: (Units=1/GPa)
#
#
# Indices 1 2 3 4 5 6 
#
# 1 0.014802 -0.003494 0.000606 0.000000 0.015393 0.000000
# 2 -0.003494 0.010996 -0.000903 0.000000 -0.006385 0.000000
# 3 0.000606 -0.000903 0.017749 0.000000 0.010152 0.000000
# 4 0.000000 0.000000 0.000000 0.028480 0.000000 -0.004741
# 5 0.015393 -0.006385 0.010152 0.000000 0.045009 0.000000
# 6 0.000000 0.000000 0.000000 -0.004741 0.000000 0.033236
#
#
# Mechanical properties :
#
#
# Convention : Reuss Voigt Hill
#
# Bulk Modulus (GPa) = 27.80555 38.70652 33.25604
# Shear Modulus (GPa) = 29.43906 38.54245 33.99075
#
# Velocity S-wave (km/s) = 3.39479 3.88437 3.64780
# Velocity P-wave (km/s) = 5.12359 5.93888 5.54624
#
# Compressibility (1/GPa) = 0.03596405
#
# Stress axis : x y z
#
# Youngs Moduli (GPa) = 67.55809 90.94404 56.34217
#
# Poissons Ratio (x) = 0.31777 -0.03414
# Poissons Ratio (y) = 0.23606 0.05088
# Poissons Ratio (z) = -0.04094 0.08213
#
# Static dielectric constant tensor:
#      x y z
#    x 2.209980 0.000000 0.032510 
#    y 0.000000 2.060920 0.000000 
#    z 0.032510 0.000000 2.075950 
# 
# From -- ./inp_files/16360.got.cif
#   From: 2010.05.17/outbox.cif.g08.bks.cpg/sg4_9_cif.got.tgz:16360.got - 2010.06.03 18:43:04.
