data_PCOD9116331
_publ_section_title
;
Structure prediction by ZEFSAII (Michael W. Deem and Ramdas Pophale) SiO2 
 PCOD9116331
Probable space group: P 21
;
_chemical_formula_sum "Si O2"
_cell_formula_units_Z 16
_cell_length_a 12.614289
_cell_length_b 8.691088
_cell_length_c 9.808825
_cell_angle_alpha 90.000000
_cell_angle_beta 35.526123
_cell_angle_gamma 90.000000
_cell_volume 624.863866
_symmetry_space_group_name_H-M "P 21"
_symmetry_group_IT_number 4
_symmetry_cell_setting 'monoclinic'
loop_
_space_group_symop_operation_xyz
x,y,z
-x,1/2+y,-z
loop_
_atom_site_type_symbol
_atom_site_label
_atom_site_fract_x
_atom_site_fract_y
_atom_site_fract_z
Si Si1 0.437858 0.716630 0.115036
Si Si2 0.239009 0.037523 0.342326
Si Si3 0.073860 0.471423 0.948510
Si Si4 0.723287 0.788122 0.503340
Si Si5 0.412639 0.619789 0.712560
Si Si6 0.524759 0.767732 0.311743
Si Si7 0.122126 0.530480 0.441488
Si Si8 0.053349 0.204650 0.134261
O O1 0.425269 0.685997 0.290328
O O2 0.292685 0.609624 0.188975
O O3 0.371054 0.891626 0.181159
O O4 0.640144 0.670389 0.859263
O O5 0.203763 0.120963 0.524335
O O6 0.045557 0.991829 0.480123
O O7 0.204385 0.363141 0.713734
O O8 0.198901 0.581771 0.912698
O O9 0.958859 0.567403 0.961719
O O10 0.964221 0.350940 0.154327
O O11 0.506170 0.748625 0.712756
O O12 0.799647 0.900530 0.540315
O O13 0.471262 0.680572 0.503485
O O14 0.498520 0.451827 0.653878
O O15 0.738450 0.746613 0.059990
O O16 0.038161 0.657159 0.630998
#
# Coordination Sequence:
#
# PCOD9116331 Si02
#       8
#     2   2   2   2   2   2   2   2
#     4  12  26  45  74 102 137 191 235 288 357 406
#     4  12  26  47  71 101 141 186 243 291 341 421
#     4  10  23  41  64 106 138 182 226 288 358 423
#     4  11  22  44  68  99 138 182 235 284 351 416
#     4  11  21  40  70  98 140 176 228 281 355 420
#     4  11  22  41  70 104 139 184 227 291 353 421
#     4  11  25  46  70  99 140 184 234 299 344 412
#     4  10  21  42  67  99 143 175 230 284 355 421
#
# _framework density 25.60558
#
# number of rings (size 3 to 8) (size 9 to 14) (size 15 to 20)
#    0.000    1.000    5.000    3.000    0.000    3.000 
#    0.000    2.500    0.000    0.000    0.000    0.000 
#    0.000    0.000    0.000    0.000    0.000    0.000 
#
# Total GULP energy -89452.558416 kJ/mol
# GULP energy per Si atom -5590.784901 kJ/mol
# Density = 2.554730 g / cm^3
# Si number density = 25.605580 Si / 1000 Ang^3
#
#
#
# Elastic Constant Matrix: (Units=GPa)
#
#
# Indices 1 2 3 4 5 6 
#
# 1 110.8106 35.7467 14.5414 0.0000 -22.3619 0.0000
# 2 35.7467 116.8186 43.9406 0.0000 -18.1051 0.0000
# 3 14.5414 43.9406 47.9336 0.0000 -12.0800 0.0000
# 4 0.0000 0.0000 0.0000 48.1087 0.0000 -0.9159
# 5 -22.3619 -18.1051 -12.0800 0.0000 17.0598 0.0000
# 6 0.0000 0.0000 0.0000 -0.9159 0.0000 47.5581
#
#
#
# Elastic Compliance Matrix: (Units=1/GPa)
#
#
# Indices 1 2 3 4 5 6 
#
# 1 0.012638 -0.002257 0.002198 0.000000 0.015727 0.000000
# 2 -0.002257 0.014099 -0.011216 0.000000 0.004063 0.000000
# 3 0.002198 -0.011216 0.034330 0.000000 0.015287 0.000000
# 4 0.000000 0.000000 0.000000 0.020794 0.000000 0.000400
# 5 0.015727 0.004063 0.015287 0.000000 0.094369 0.000000
# 6 0.000000 0.000000 0.000000 0.000400 0.000000 0.021035
#
#
# Mechanical properties :
#
#
# Convention : Reuss Voigt Hill
#
# Bulk Modulus (GPa) = 25.96222 51.55779 38.76001
# Shear Modulus (GPa) = 21.49122 34.63427 28.06275
#
# Velocity S-wave (km/s) = 2.90024 3.68177 3.31412
# Velocity P-wave (km/s) = 4.62347 6.18490 5.46029
#
# Compressibility (1/GPa) = 0.03851751
#
# Stress axis : x y z
#
# Youngs Moduli (GPa) = 79.12859 70.92452 29.12920
#
# Poissons Ratio (x) = 0.16004 -0.06403
# Poissons Ratio (y) = 0.17855 0.32672
# Poissons Ratio (z) = -0.17394 0.79552
#
# Static dielectric constant tensor:
#      x y z
#    x 2.063360 0.000000 -0.005410 
#    y 0.000000 2.034420 0.000000 
#    z -0.005410 0.000000 2.016280 
# 
# From -- ./inp_files/12635.got.cif
#   From: 2010.05.17/outbox.cif.g08.bks.cpg/sg4_7_cif.got.tgz:12635.got - 2010.06.03 18:43:04.
