data_PCOD9116417
_publ_section_title
;
Structure prediction by ZEFSAII (Michael W. Deem and Ramdas Pophale) SiO2 
 PCOD9116417
Probable space group: P 21
;
_chemical_formula_sum "Si O2"
_cell_formula_units_Z 16
_cell_length_a 11.699699
_cell_length_b 12.520625
_cell_length_c 8.782304
_cell_angle_alpha 90.000000
_cell_angle_beta 36.279983
_cell_angle_gamma 90.000000
_cell_volume 761.261580
_symmetry_space_group_name_H-M "P 21"
_symmetry_group_IT_number 4
_symmetry_cell_setting 'monoclinic'
loop_
_space_group_symop_operation_xyz
x,y,z
-x,1/2+y,-z
loop_
_atom_site_type_symbol
_atom_site_label
_atom_site_fract_x
_atom_site_fract_y
_atom_site_fract_z
Si Si1 0.432858 0.666420 0.898966
Si Si2 0.259590 0.995912 0.897571
Si Si3 0.116906 0.820777 0.293426
Si Si4 0.446472 0.591536 0.224222
Si Si5 0.951415 0.913530 0.029701
Si Si6 0.733083 0.855217 0.557399
Si Si7 0.447193 0.464043 0.683536
Si Si8 0.735751 0.311280 0.524587
O O1 0.561375 0.771460 0.743181
O O2 0.475361 0.580636 0.724561
O O3 0.211997 0.708370 0.140488
O O4 0.481222 0.615442 0.010242
O O5 0.357231 0.090685 0.887422
O O6 0.431393 0.955516 0.602983
O O7 0.075412 0.005665 0.983790
O O8 0.197184 0.910350 0.091748
O O9 0.190759 0.839038 0.385098
O O10 0.887104 0.827124 0.523348
O O11 0.345928 0.475743 0.343349
O O12 0.310602 0.686006 0.430536
O O13 0.104696 0.846714 0.768340
O O14 0.851203 0.847533 0.272869
O O15 0.777498 0.950718 0.110417
O O16 0.541081 0.376882 0.694658
#
# Coordination Sequence:
#
# PCOD9116417 Si02
#       8
#     2   2   2   2   2   2   2   2
#     4  11  25  42  71  98 132 179 221 284 334 405
#     4  10  21  43  68  95 134 177 219 276 333 400
#     4  10  22  44  67  96 135 171 227 272 333 396
#     4  11  23  46  71  95 139 174 224 283 334 402
#     4  10  23  45  68  96 140 178 223 276 330 412
#     4  11  24  48  67  98 133 183 218 279 349 385
#     4  11  23  43  67 100 138 175 224 276 337 401
#     4  10  25  43  67 108 131 177 228 278 334 407
#
# _framework density 21.017742999999999
#
# number of rings (size 3 to 8) (size 9 to 14) (size 15 to 20)
#    0.000    1.500    2.500    0.750    3.500    6.000 
#   22.500    0.000    0.000    0.000    0.000    0.000 
#    0.000    0.000    0.000    0.000    0.000    0.000 
#
# Total GULP energy -89377.679382 kJ/mol
# GULP energy per Si atom -5586.104961 kJ/mol
# Density = 2.096991 g / cm^3
# Si number density = 21.017743 Si / 1000 Ang^3
#
#
#
# Elastic Constant Matrix: (Units=GPa)
#
#
# Indices 1 2 3 4 5 6 
#
# 1 135.4631 64.6266 33.6969 0.0000 -25.4824 0.0000
# 2 64.6266 112.1693 37.6672 0.0000 -6.1370 0.0000
# 3 33.6969 37.6672 73.8126 0.0000 -3.4794 0.0000
# 4 0.0000 0.0000 0.0000 6.6859 0.0000 -13.2476
# 5 -25.4824 -6.1370 -3.4794 0.0000 40.4994 0.0000
# 6 0.0000 0.0000 0.0000 -13.2476 0.0000 -18.0464
#
#
#
# Elastic Compliance Matrix: (Units=1/GPa)
#
#
# Indices 1 2 3 4 5 6 
#
# 1 0.011880 -0.005761 -0.002181 0.000000 0.006414 0.000000
# 2 -0.005761 0.013608 -0.004405 0.000000 -0.001941 0.000000
# 3 -0.002181 -0.004405 0.016763 0.000000 -0.000600 0.000000
# 4 0.000000 0.000000 0.000000 0.060936 0.000000 -0.044732
# 5 0.006414 -0.001941 -0.000600 0.000000 0.028382 0.000000
# 6 0.000000 0.000000 0.000000 -0.044732 0.000000 -0.022576
#
#
# Mechanical properties :
#
#
# Convention : Reuss Voigt Hill
#
# Bulk Modulus (GPa) = 56.96261 65.93627 61.44944
# Shear Modulus (GPa) = 35.83203 18.19139 27.01171
#
# Velocity S-wave (km/s) = 4.13346 2.94517 3.58884
# Velocity P-wave (km/s) = 7.06694 6.55784 6.81714
#
# Compressibility (1/GPa) = 0.01755538
#
# Stress axis : x y z
#
# Youngs Moduli (GPa) = 84.17628 73.48827 59.65389
#
# Poissons Ratio (x) = 0.42338 0.13011
# Poissons Ratio (y) = 0.48496 0.26280
# Poissons Ratio (z) = 0.18359 0.32375
#
# Static dielectric constant tensor:
#      x y z
#    x 1.801190 0.000000 -0.019630 
#    y 0.000000 1.723800 0.000000 
#    z -0.019630 0.000000 1.745870 
# 
# From -- ./inp_files/8397.got.cif
#   From: 2010.05.17/outbox.cif.g08.bks.cpg/sg4_5_cif.got.tgz:8397.got - 2010.06.03 18:43:04.
