data_PCOD9116962
_publ_section_title
;
Structure prediction by ZEFSAII (Michael W. Deem and Ramdas Pophale) SiO2 
 PCOD9116962
Probable space group: P 21
;
_chemical_formula_sum "Si O2"
_cell_formula_units_Z 14
_cell_length_a 11.570022
_cell_length_b 5.492510
_cell_length_c 9.000683
_cell_angle_alpha 90.000000
_cell_angle_beta 103.405113
_cell_angle_gamma 90.000000
_cell_volume 556.396085
_symmetry_space_group_name_H-M "P 21"
_symmetry_group_IT_number 4
_symmetry_cell_setting 'monoclinic'
loop_
_space_group_symop_operation_xyz
x,y,z
-x,1/2+y,-z
loop_
_atom_site_type_symbol
_atom_site_label
_atom_site_fract_x
_atom_site_fract_y
_atom_site_fract_z
Si Si1 0.854176 0.375000 0.424893
Si Si2 0.096707 0.380868 0.662191
Si Si3 0.706456 0.452883 0.881230
Si Si4 0.449685 0.002625 0.919257
Si Si5 0.967391 0.530162 0.921309
Si Si6 0.313980 0.662830 0.386170
Si Si7 0.460193 0.285012 0.352410
O O1 0.830746 0.634828 0.344113
O O2 0.784476 0.310170 0.554697
O O3 0.995768 0.383058 0.502624
O O4 0.828978 0.128617 0.326804
O O5 0.025423 0.406495 0.793755
O O6 0.827647 0.585535 0.878417
O O7 0.712529 0.198418 0.796402
O O8 0.593571 0.571071 0.763529
O O9 0.678930 0.454138 0.046085
O O10 0.477256 0.956883 0.754630
O O11 0.519860 0.780116 0.024595
O O12 0.023567 0.798287 0.962984
O O13 0.341226 0.377570 0.402165
O O14 0.438919 0.744725 0.496244
#
# Coordination Sequence:
#
# PCOD9116962 Si02
#       7
#     2   2   2   2   2   2   2
#     4  10  23  39  71  95 138 180 222 287 352 407
#     4  10  22  44  64 101 135 179 230 284 349 406
#     4  11  25  46  70  99 143 190 227 296 351 412
#     4  10  22  42  66  98 139 188 229 279 345 419
#     4  12  28  46  73 103 137 187 242 287 342 423
#     4  12  23  42  70 108 137 187 231 294 350 423
#     4  11  25  41  70 106 143 179 241 281 357 426
#
# _framework density 25.161929000000001
#
# number of rings (size 3 to 8) (size 9 to 14) (size 15 to 20)
#    0.000    1.143    4.286    0.857    4.000    3.429 
#    0.000    2.857    0.000    0.000    0.000    0.000 
#    0.000    0.000    0.000    0.000    0.000    0.000 
#
# Total GULP energy -77995.644086 kJ/mol
# GULP energy per Si atom -5571.117435 kJ/mol
# Density = 2.510466 g / cm^3
# Si number density = 25.161929 Si / 1000 Ang^3
#
#
#
# Elastic Constant Matrix: (Units=GPa)
#
#
# Indices 1 2 3 4 5 6 
#
# 1 52.1802 30.5201 29.6101 0.0000 -17.6259 0.0000
# 2 30.5201 136.4712 28.4532 0.0000 -11.1415 0.0000
# 3 29.6101 28.4532 70.6157 0.0000 -7.4000 0.0000
# 4 0.0000 0.0000 0.0000 37.3788 0.0000 -6.6749
# 5 -17.6259 -11.1415 -7.4000 0.0000 44.3607 0.0000
# 6 0.0000 0.0000 0.0000 -6.6749 0.0000 32.8912
#
#
#
# Elastic Compliance Matrix: (Units=1/GPa)
#
#
# Indices 1 2 3 4 5 6 
#
# 1 0.030409 -0.003908 -0.010191 0.000000 0.009401 0.000000
# 2 -0.003908 0.008601 -0.001794 0.000000 0.000308 0.000000
# 3 -0.010191 -0.001794 0.019018 0.000000 -0.001327 0.000000
# 4 0.000000 0.000000 0.000000 0.027759 0.000000 0.005633
# 5 0.009401 0.000308 -0.001327 0.000000 0.026134 0.000000
# 6 0.000000 0.000000 0.000000 0.005633 0.000000 0.031546
#
#
# Mechanical properties :
#
#
# Convention : Reuss Voigt Hill
#
# Bulk Modulus (GPa) = 38.10899 48.49266 43.30083
# Shear Modulus (GPa) = 27.17375 34.30507 30.73941
#
# Velocity S-wave (km/s) = 3.28983 3.69639 3.49902
# Velocity P-wave (km/s) = 5.44142 6.12632 5.79400
#
# Compressibility (1/GPa) = 0.02624052
#
# Stress axis : x y z
#
# Youngs Moduli (GPa) = 32.88535 116.26726 52.58107
#
# Poissons Ratio (x) = 0.45441 0.53584
# Poissons Ratio (y) = 0.12853 0.09435
# Poissons Ratio (z) = 0.33513 0.20864
#
# Static dielectric constant tensor:
#      x y z
#    x 2.042430 0.000000 -0.032930 
#    y 0.000000 2.156990 0.000000 
#    z -0.032930 0.000000 2.041430 
# 
# From -- ./inp_files/7138.got.cif
#   From: 2010.05.17/outbox.cif.g08.bks.cpg/sg4_4_cif.got.tgz:7138.got - 2010.06.03 18:43:04.
