data_PCOD9116798
_publ_section_title
;
Structure prediction by ZEFSAII (Michael W. Deem and Ramdas Pophale) SiO2 
 PCOD9116798
Probable space group: P 21
;
_chemical_formula_sum "Si O2"
_cell_formula_units_Z 10
_cell_length_a 13.547495
_cell_length_b 4.929149
_cell_length_c 21.018776
_cell_angle_alpha 90.000000
_cell_angle_beta 163.935200
_cell_angle_gamma 90.000000
_cell_volume 388.405820
_symmetry_space_group_name_H-M "P 21"
_symmetry_group_IT_number 4
_symmetry_cell_setting 'monoclinic'
loop_
_space_group_symop_operation_xyz
x,y,z
-x,1/2+y,-z
loop_
_atom_site_type_symbol
_atom_site_label
_atom_site_fract_x
_atom_site_fract_y
_atom_site_fract_z
Si Si1 0.324955 0.090840 0.362259
Si Si2 0.185498 0.682891 0.583016
Si Si3 0.876687 0.920645 0.187550
Si Si4 0.031058 0.918490 0.683000
Si Si5 0.036679 0.335955 0.978071
O O1 0.444518 0.396564 0.448012
O O2 0.056855 0.114931 0.351609
O O3 0.945443 0.054315 0.162644
O O4 0.254437 0.967420 0.249576
O O5 0.602304 0.764385 0.837322
O O6 0.943610 0.949980 0.447106
O O7 0.124022 0.544664 0.476397
O O8 0.024879 0.621463 0.292231
O O9 0.456570 0.912435 0.936662
O O10 0.098633 0.566660 0.069961
#
# Coordination Sequence:
#
# PCOD9116798 Si02
#       5
#     2   2   2   2   2
#     4  12  27  45  73 103 147 195 245 295 363 445
#     4  12  26  46  76 104 146 194 250 301 377 440
#     4  10  22  41  66 102 137 175 239 293 358 419
#     4  10  22  40  71  99 135 180 231 305 353 430
#     4  12  29  50  76 112 155 198 249 310 377 450
#
# _framework density 25.746269000000002
#
# number of rings (size 3 to 8) (size 9 to 14) (size 15 to 20)
#    0.000    0.800    0.000    6.000    8.400    4.800 
#    0.000    0.000    0.000    0.000    0.000    0.000 
#    0.000    0.000    0.000    0.000    0.000    0.000 
#
# Total GULP energy -56000.043615 kJ/mol
# GULP energy per Si atom -5600.004361 kJ/mol
# Density = 2.568767 g / cm^3
# Si number density = 25.746269 Si / 1000 Ang^3
#
#
#
# Elastic Constant Matrix: (Units=GPa)
#
#
# Indices 1 2 3 4 5 6 
#
# 1 73.8678 19.2897 9.7878 0.0000 0.3572 0.0000
# 2 19.2897 133.7419 30.4592 0.0000 7.4961 0.0000
# 3 9.7878 30.4592 101.3984 0.0000 -8.0298 0.0000
# 4 0.0000 0.0000 0.0000 37.2445 0.0000 7.5893
# 5 0.3572 7.4961 -8.0298 0.0000 39.3213 0.0000
# 6 0.0000 0.0000 0.0000 7.5893 0.0000 61.3332
#
#
#
# Elastic Compliance Matrix: (Units=1/GPa)
#
#
# Indices 1 2 3 4 5 6 
#
# 1 0.014129 -0.001859 -0.000800 0.000000 0.000063 0.000000
# 2 -0.001859 0.008438 -0.002522 0.000000 -0.002107 0.000000
# 3 -0.000800 -0.002522 0.010912 0.000000 0.002716 0.000000
# 4 0.000000 0.000000 0.000000 0.027544 0.000000 -0.003408
# 5 0.000063 -0.002107 0.002716 0.000000 0.026387 0.000000
# 6 0.000000 0.000000 0.000000 -0.003408 0.000000 0.016726
#
#
# Mechanical properties :
#
#
# Convention : Reuss Voigt Hill
#
# Bulk Modulus (GPa) = 43.26062 47.56463 45.41262
# Shear Modulus (GPa) = 40.91511 44.21123 42.56317
#
# Velocity S-wave (km/s) = 3.99076 4.14839 4.07034
# Velocity P-wave (km/s) = 6.17042 6.43895 6.30611
#
# Compressibility (1/GPa) = 0.02311571
#
# Stress axis : x y z
#
# Youngs Moduli (GPa) = 70.77676 118.51623 91.64184
#
# Poissons Ratio (x) = 0.22033 0.07335
# Poissons Ratio (y) = 0.13158 0.23112
# Poissons Ratio (z) = 0.05665 0.29890
#
# Static dielectric constant tensor:
#      x y z
#    x 2.039260 0.000000 0.076450 
#    y 0.000000 1.944180 0.000000 
#    z 0.076450 0.000000 2.059950 
# 
# From -- ./inp_files/15696.got.cif
#   From: 2010.05.17/outbox.cif.g08.bks.cpg/sg4_8_cif.got.tgz:15696.got - 2010.06.03 18:43:04.
