data_PCOD9116927
_publ_section_title
;
Structure prediction by ZEFSAII (Michael W. Deem and Ramdas Pophale) SiO2 
 PCOD9116927
Probable space group: P 21
;
_chemical_formula_sum "Si O2"
_cell_formula_units_Z 16
_cell_length_a 22.962385
_cell_length_b 4.827414
_cell_length_c 11.579314
_cell_angle_alpha 90.000000
_cell_angle_beta 28.920103
_cell_angle_gamma 90.000000
_cell_volume 620.713589
_symmetry_space_group_name_H-M "P 21"
_symmetry_group_IT_number 4
_symmetry_cell_setting 'monoclinic'
loop_
_space_group_symop_operation_xyz
x,y,z
-x,1/2+y,-z
loop_
_atom_site_type_symbol
_atom_site_label
_atom_site_fract_x
_atom_site_fract_y
_atom_site_fract_z
Si Si1 0.224992 0.175680 0.427558
Si Si2 0.590059 0.512515 0.699951
Si Si3 0.102671 0.912026 0.206960
Si Si4 0.248985 0.274975 0.775682
Si Si5 0.916453 0.003639 0.141859
Si Si6 0.563550 0.508794 0.080951
Si Si7 0.530576 0.081543 0.514389
Si Si8 0.054578 0.906059 0.548450
O O1 0.315069 0.037455 0.362686
O O2 0.165011 0.422598 0.605568
O O3 0.120573 0.997629 0.549316
O O4 0.319289 0.182861 0.157910
O O5 0.661747 0.609585 0.463614
O O6 0.547931 0.201647 0.760935
O O7 0.473399 0.715205 0.911857
O O8 0.124223 0.956234 0.306331
O O9 0.979923 0.084604 0.392611
O O10 0.193729 0.060029 0.962929
O O11 0.066670 0.593335 0.250094
O O12 0.153112 0.414292 0.853931
O O13 0.333384 0.499151 0.691887
O O14 0.037707 0.817200 0.942240
O O15 0.554738 0.484759 0.233227
O O16 0.508743 0.400616 0.526851
#
# Coordination Sequence:
#
# PCOD9116927 Si02
#       8
#     2   2   2   2   2   2   2   2
#     4  11  24  41  70  96 132 174 219 265 334 385
#     4  10  24  42  64  98 130 171 216 270 323 394
#     4  10  22  42  61  86 129 165 213 264 327 381
#     4  10  23  42  69  92 131 177 212 274 337 377
#     4  11  25  43  68 103 134 171 224 274 329 401
#     4  11  24  44  64  96 136 170 220 269 328 387
#     4  11  25  44  65  98 136 174 227 274 321 398
#     4  10  23  40  59  93 122 166 215 268 313 391
#
# _framework density 25.776783999999999
#
# number of rings (size 3 to 8) (size 9 to 14) (size 15 to 20)
#    0.000    1.500    0.000    3.750    1.750   13.000 
#    4.500    0.000    0.000    0.000    0.000    0.000 
#    0.000    0.000    0.000    0.000    0.000    0.000 
#
# Total GULP energy -89609.422614 kJ/mol
# GULP energy per Si atom -5600.588913 kJ/mol
# Density = 2.571812 g / cm^3
# Si number density = 25.776784 Si / 1000 Ang^3
#
#
#
# Elastic Constant Matrix: (Units=GPa)
#
#
# Indices 1 2 3 4 5 6 
#
# 1 87.3461 8.8101 21.4566 0.0000 10.5571 0.0000
# 2 8.8101 88.5840 0.7701 0.0000 3.8075 0.0000
# 3 21.4566 0.7701 121.6196 0.0000 11.9404 0.0000
# 4 0.0000 0.0000 0.0000 14.5704 0.0000 1.8686
# 5 10.5571 3.8075 11.9404 0.0000 32.0636 0.0000
# 6 0.0000 0.0000 0.0000 1.8686 0.0000 29.3459
#
#
#
# Elastic Compliance Matrix: (Units=1/GPa)
#
#
# Indices 1 2 3 4 5 6 
#
# 1 0.012409 -0.001078 -0.001862 0.000000 -0.003264 0.000000
# 2 -0.001078 0.011441 0.000224 0.000000 -0.001087 0.000000
# 3 -0.001862 0.000224 0.008814 0.000000 -0.002696 0.000000
# 4 0.000000 0.000000 0.000000 0.069198 0.000000 -0.004406
# 5 -0.003264 -0.001087 -0.002696 0.000000 0.033396 0.000000
# 6 0.000000 0.000000 0.000000 -0.004406 0.000000 0.034357
#
#
# Mechanical properties :
#
#
# Convention : Reuss Voigt Hill
#
# Bulk Modulus (GPa) = 36.71920 39.95815 38.33867
# Shear Modulus (GPa) = 27.15578 32.96349 30.05963
#
# Velocity S-wave (km/s) = 3.24928 3.57992 3.41860
# Velocity P-wave (km/s) = 5.32476 5.71166 5.52160
#
# Compressibility (1/GPa) = 0.02723371
#
# Stress axis : x y z
#
# Youngs Moduli (GPa) = 80.58434 87.40739 113.45435
#
# Poissons Ratio (x) = 0.09420 0.21125
# Poissons Ratio (y) = 0.08684 -0.02546
# Poissons Ratio (z) = 0.15005 -0.01962
#
# Static dielectric constant tensor:
#      x y z
#    x 2.001800 0.000000 0.026230 
#    y 0.000000 1.956630 0.000000 
#    z 0.026230 0.000000 2.120040 
# 
# From -- ./inp_files/13088.got.cif
#   From: 2010.05.17/outbox.cif.g08.bks.cpg/sg4_7_cif.got.tgz:13088.got - 2010.06.03 18:43:04.
