data_PCOD9116238
_publ_section_title
;
Structure prediction by ZEFSAII (Michael W. Deem and Ramdas Pophale) SiO2 
 PCOD9116238
Probable space group: P 21
;
_chemical_formula_sum "Si O2"
_cell_formula_units_Z 8
_cell_length_a 5.286605
_cell_length_b 4.814106
_cell_length_c 12.579165
_cell_angle_alpha 90.000000
_cell_angle_beta 63.859584
_cell_angle_gamma 90.000000
_cell_volume 287.398029
_symmetry_space_group_name_H-M "P 21"
_symmetry_group_IT_number 4
_symmetry_cell_setting 'monoclinic'
loop_
_space_group_symop_operation_xyz
x,y,z
-x,1/2+y,-z
loop_
_atom_site_type_symbol
_atom_site_label
_atom_site_fract_x
_atom_site_fract_y
_atom_site_fract_z
Si Si1 0.805883 0.884650 0.737420
Si Si2 0.592759 0.887143 0.214289
Si Si3 0.702863 0.035262 0.976755
Si Si4 0.347305 0.662422 0.571180
O O1 0.668362 0.583889 0.771032
O O2 0.064371 0.842188 0.610265
O O3 0.555634 0.090696 0.750143
O O4 0.900817 0.991397 0.837459
O O5 0.798144 0.927208 0.074905
O O6 0.684257 0.014559 0.308579
O O7 0.433057 0.838420 0.997893
O O8 0.414968 0.400373 0.483873
#
# Coordination Sequence:
#
# PCOD9116238 Si02
#       4
#     2   2   2   2
#     4  10  21  41  66  93 128 168 211 271 332 380
#     4  10  21  41  66  93 128 168 211 271 332 380
#     4   8  16  34  62  92 122 158 206 262 330 394
#     4  12  26  42  62  96 134 174 228 264 306 396
#
# _framework density 27.835963
#
# number of rings (size 3 to 8) (size 9 to 14) (size 15 to 20)
#    0.000    2.000    0.000    3.000    0.000    4.000 
#    0.000   17.500    0.000    0.000    0.000    0.000 
#    0.000    0.000    0.000    0.000    0.000    0.000 
#
# Total GULP energy -44788.037860 kJ/mol
# GULP energy per Si atom -5598.504733 kJ/mol
# Density = 2.777261 g / cm^3
# Si number density = 27.835963 Si / 1000 Ang^3
#
#
#
# Elastic Constant Matrix: (Units=GPa)
#
#
# Indices 1 2 3 4 5 6 
#
# 1 81.6680 26.3413 42.5217 0.0000 -5.0299 0.0000
# 2 26.3413 153.2913 58.3017 0.0000 -20.0650 0.0000
# 3 42.5217 58.3017 97.1829 0.0000 4.2070 0.0000
# 4 0.0000 0.0000 0.0000 58.0978 0.0000 6.6222
# 5 -5.0299 -20.0650 4.2070 0.0000 48.5411 0.0000
# 6 0.0000 0.0000 0.0000 6.6222 0.0000 27.1223
#
#
#
# Elastic Compliance Matrix: (Units=1/GPa)
#
#
# Indices 1 2 3 4 5 6 
#
# 1 0.016120 0.000356 -0.007373 0.000000 0.002456 0.000000
# 2 0.000356 0.009287 -0.005917 0.000000 0.004389 0.000000
# 3 -0.007373 -0.005917 0.017269 0.000000 -0.004707 0.000000
# 4 0.000000 0.000000 0.000000 0.017705 0.000000 -0.004323
# 5 0.002456 0.004389 -0.004707 0.000000 0.023078 0.000000
# 6 0.000000 0.000000 0.000000 -0.004323 0.000000 0.037926
#
#
# Mechanical properties :
#
#
# Convention : Reuss Voigt Hill
#
# Bulk Modulus (GPa) = 59.49596 65.16352 62.32974
# Shear Modulus (GPa) = 32.71028 40.41739 36.56384
#
# Velocity S-wave (km/s) = 3.43170 3.81463 3.62822
# Velocity P-wave (km/s) = 6.09281 6.54694 6.32395
#
# Compressibility (1/GPa) = 0.01680786
#
# Stress axis : x y z
#
# Youngs Moduli (GPa) = 62.03430 107.67258 57.90562
#
# Poissons Ratio (x) = -0.03829 0.42693
# Poissons Ratio (y) = -0.02206 0.34264
# Poissons Ratio (z) = 0.45738 0.63713
#
# Static dielectric constant tensor:
#      x y z
#    x 2.111010 0.000000 0.012040 
#    y 0.000000 2.035720 0.000000 
#    z 0.012040 0.000000 2.334360 
# 
# From -- ./inp_files/2252.got.cif
#   From: 2010.05.17/outbox.cif.g08.bks.cpg/sg4_2_cif.got.tgz:2252.got - 2010.06.03 18:43:04.
