data_PCOD9116179
_publ_section_title
;
Structure prediction by ZEFSAII (Michael W. Deem and Ramdas Pophale) SiO2 
 PCOD9116179
Probable space group: P 21
;
_chemical_formula_sum "Si O2"
_cell_formula_units_Z 16
_cell_length_a 11.809727
_cell_length_b 9.534532
_cell_length_c 5.304204
_cell_angle_alpha 90.000000
_cell_angle_beta 97.359634
_cell_angle_gamma 90.000000
_cell_volume 592.334149
_symmetry_space_group_name_H-M "P 21"
_symmetry_group_IT_number 4
_symmetry_cell_setting 'monoclinic'
loop_
_space_group_symop_operation_xyz
x,y,z
-x,1/2+y,-z
loop_
_atom_site_type_symbol
_atom_site_label
_atom_site_fract_x
_atom_site_fract_y
_atom_site_fract_z
Si Si1 0.284406 0.569510 0.971272
Si Si2 0.710924 0.243892 0.510986
Si Si3 0.090396 0.909052 0.271319
Si Si4 0.530840 0.858086 0.443716
Si Si5 0.773754 0.815371 0.767964
Si Si6 0.060331 0.191217 0.515350
Si Si7 0.770018 0.545618 0.076230
Si Si8 0.469281 0.076374 0.798323
O O1 0.271268 0.666050 0.215960
O O2 0.219842 0.425587 0.003783
O O3 0.420309 0.537643 0.004945
O O4 0.252587 0.647671 0.709441
O O5 0.791597 0.379710 0.542021
O O6 0.578512 0.283188 0.454114
O O7 0.022745 0.766845 0.312317
O O8 0.027483 0.050230 0.351381
O O9 0.138324 0.934949 0.004020
O O10 0.660556 0.856796 0.582331
O O11 0.541010 0.746038 0.214554
O O12 0.491651 0.014578 0.522764
O O13 0.893228 0.811080 0.657643
O O14 0.754649 0.656296 0.844765
O O15 0.170696 0.139399 0.697325
O O16 0.642325 0.506118 0.113205
#
# Coordination Sequence:
#
# PCOD9116179 Si02
#       8
#     2   2   2   2   2   2   2   2
#     4  10  25  43  74 116 160 198 246 313 378 470
#     4  11  25  46  72 113 157 202 249 314 384 455
#     4  11  29  48  75 106 143 204 260 325 387 460
#     4  10  21  40  72 106 152 196 245 303 378 463
#     4  10  23  43  71 110 142 205 247 313 383 456
#     4  11  26  51  73 102 148 192 264 324 389 454
#     4  11  24  45  76 105 143 201 256 320 383 463
#     4  10  21  42  71 112 155 198 247 306 386 461
#
# _framework density 27.011785
#
# number of rings (size 3 to 8) (size 9 to 14) (size 15 to 20)
#    0.000    1.500    1.250    1.500    8.750    3.000 
#    4.500    0.000    0.000    0.000    0.000    0.000 
#    0.000    0.000    0.000    0.000    0.000    0.000 
#
# Total GULP energy -89457.982755 kJ/mol
# GULP energy per Si atom -5591.123922 kJ/mol
# Density = 2.695030 g / cm^3
# Si number density = 27.011785 Si / 1000 Ang^3
#
#
#
# Elastic Constant Matrix: (Units=GPa)
#
#
# Indices 1 2 3 4 5 6 
#
# 1 78.0278 36.7534 19.4423 0.0000 -25.5877 0.0000
# 2 36.7534 121.1039 23.8350 0.0000 -19.8305 0.0000
# 3 19.4423 23.8350 84.2347 0.0000 -21.9153 0.0000
# 4 0.0000 0.0000 0.0000 41.1607 0.0000 -14.6304
# 5 -25.5877 -19.8305 -21.9153 0.0000 35.7192 0.0000
# 6 0.0000 0.0000 0.0000 -14.6304 0.0000 49.0505
#
#
#
# Elastic Compliance Matrix: (Units=1/GPa)
#
#
# Indices 1 2 3 4 5 6 
#
# 1 0.018164 -0.003683 -0.000353 0.000000 0.010751 0.000000
# 2 -0.003683 0.009991 -0.001452 0.000000 0.002018 0.000000
# 3 -0.000353 -0.001452 0.014385 0.000000 0.007766 0.000000
# 4 0.000000 0.000000 0.000000 0.027176 0.000000 0.008106
# 5 0.010751 0.002018 0.007766 0.000000 0.041583 0.000000
# 6 0.000000 0.000000 0.000000 0.008106 0.000000 0.022805
#
#
# Mechanical properties :
#
#
# Convention : Reuss Voigt Hill
#
# Bulk Modulus (GPa) = 31.68215 49.26977 40.47596
# Shear Modulus (GPa) = 32.13342 38.74179 35.43760
#
# Velocity S-wave (km/s) = 3.45281 3.79126 3.62599
# Velocity P-wave (km/s) = 5.25836 6.11920 5.70504
#
# Compressibility (1/GPa) = 0.03156352
#
# Stress axis : x y z
#
# Youngs Moduli (GPa) = 55.05371 100.08794 69.51879
#
# Poissons Ratio (x) = 0.36858 0.02457
# Poissons Ratio (y) = 0.20274 0.10095
# Poissons Ratio (z) = 0.01946 0.14534
#
# Static dielectric constant tensor:
#      x y z
#    x 2.069810 0.000000 -0.012230 
#    y 0.000000 2.161500 0.000000 
#    z -0.012230 0.000000 2.204790 
# 
# From -- ./inp_files/2615.got.cif
#   From: 2010.05.17/outbox.cif.g08.bks.cpg/sg4_2_cif.got.tgz:2615.got - 2010.06.03 18:43:04.
