data_PCOD9116334
_publ_section_title
;
Structure prediction by ZEFSAII (Michael W. Deem and Ramdas Pophale) SiO2 
 PCOD9116334
Probable space group: P 21
;
_chemical_formula_sum "Si O2"
_cell_formula_units_Z 16
_cell_length_a 10.667428
_cell_length_b 4.740793
_cell_length_c 12.677160
_cell_angle_alpha 90.000000
_cell_angle_beta 65.791555
_cell_angle_gamma 90.000000
_cell_volume 584.730766
_symmetry_space_group_name_H-M "P 21"
_symmetry_group_IT_number 4
_symmetry_cell_setting 'monoclinic'
loop_
_space_group_symop_operation_xyz
x,y,z
-x,1/2+y,-z
loop_
_atom_site_type_symbol
_atom_site_label
_atom_site_fract_x
_atom_site_fract_y
_atom_site_fract_z
Si Si1 0.414759 0.095450 0.524639
Si Si2 0.007030 0.336633 0.362150
Si Si3 0.989806 0.198774 0.848369
Si Si4 0.819952 0.723223 0.964030
Si Si5 0.436035 0.150525 0.284642
Si Si6 0.571761 0.978392 0.924808
Si Si7 0.288044 0.298433 0.779209
Si Si8 0.168135 0.829769 0.381671
O O1 0.554135 0.269270 0.503734
O O2 0.385039 0.229920 0.420299
O O3 0.328638 0.129553 0.660031
O O4 0.991379 0.489777 0.257516
O O5 0.133107 0.507045 0.372076
O O6 0.874374 0.379283 0.481853
O O7 0.056490 0.015496 0.354427
O O8 0.939526 0.954894 0.948183
O O9 0.875165 0.438877 0.894355
O O10 0.719225 0.884219 0.918318
O O11 0.869040 0.874854 0.191736
O O12 0.442553 0.380351 0.190717
O O13 0.588818 0.019916 0.245833
O O14 0.318264 0.924108 0.296828
O O15 0.463712 0.796666 0.032683
O O16 0.735541 0.652113 0.099285
#
# Coordination Sequence:
#
# PCOD9116334 Si02
#       8
#     2   2   2   2   2   2   2   2
#     4  10  25  43  69  99 137 188 231 291 358 427
#     4  10  21  42  68 102 141 182 236 296 355 429
#     4  12  25  45  71  99 141 191 244 290 353 429
#     4  12  27  47  71 103 140 192 242 294 359 426
#     4  11  24  46  72 105 145 184 242 297 369 430
#     4  12  26  45  73 105 142 184 230 304 368 425
#     4  11  26  48  70 104 146 190 243 299 351 432
#     4  10  22  40  70 103 138 185 232 297 365 420
#
# _framework density 27.363022999999998
#
# number of rings (size 3 to 8) (size 9 to 14) (size 15 to 20)
#    0.000    1.000    1.250    4.500    1.750    6.000 
#    0.000    8.750    0.000    0.000    0.000    0.000 
#    0.000    0.000    0.000    0.000    0.000    0.000 
#
# Total GULP energy -89567.937003 kJ/mol
# GULP energy per Si atom -5597.996063 kJ/mol
# Density = 2.730074 g / cm^3
# Si number density = 27.363023 Si / 1000 Ang^3
#
#
#
# Elastic Constant Matrix: (Units=GPa)
#
#
# Indices 1 2 3 4 5 6 
#
# 1 109.6324 22.6697 35.7321 0.0000 -22.8023 0.0000
# 2 22.6697 107.6035 27.0176 0.0000 -21.1386 0.0000
# 3 35.7321 27.0176 206.1410 0.0000 -11.2455 0.0000
# 4 0.0000 0.0000 0.0000 40.0956 0.0000 -5.2821
# 5 -22.8023 -21.1386 -11.2455 0.0000 40.7783 0.0000
# 6 0.0000 0.0000 0.0000 -5.2821 0.0000 29.9931
#
#
#
# Elastic Compliance Matrix: (Units=1/GPa)
#
#
# Indices 1 2 3 4 5 6 
#
# 1 0.010873 -0.000895 -0.001483 0.000000 0.005207 0.000000
# 2 -0.000895 0.010663 -0.000983 0.000000 0.004756 0.000000
# 3 -0.001483 -0.000983 0.005243 0.000000 0.000107 0.000000
# 4 0.000000 0.000000 0.000000 0.025533 0.000000 0.004497
# 5 0.005207 0.004756 0.000107 0.000000 0.029929 0.000000
# 6 0.000000 0.000000 0.000000 0.004497 0.000000 0.034133
#
#
# Mechanical properties :
#
#
# Convention : Reuss Voigt Hill
#
# Bulk Modulus (GPa) = 49.86138 66.02395 57.94266
# Shear Modulus (GPa) = 38.52618 44.70390 41.61504
#
# Velocity S-wave (km/s) = 3.75636 4.04633 3.90404
# Velocity P-wave (km/s) = 6.08895 6.78319 6.44543
#
# Compressibility (1/GPa) = 0.02005560
#
# Stress axis : x y z
#
# Youngs Moduli (GPa) = 91.97164 93.78156 190.73728
#
# Poissons Ratio (x) = 0.08397 0.28292
# Poissons Ratio (y) = 0.08235 0.18747
# Poissons Ratio (z) = 0.13642 0.09218
#
# Static dielectric constant tensor:
#      x y z
#    x 2.242030 0.000000 0.064380 
#    y 0.000000 2.047290 0.000000 
#    z 0.064380 0.000000 2.157270 
# 
# From -- ./inp_files/11746.got.cif
#   From: 2010.05.17/outbox.cif.g08.bks.cpg/sg4_6_cif.got.tgz:11746.got - 2010.06.03 18:43:04.
