data_PCOD9116108
_publ_section_title
;
Structure prediction by ZEFSAII (Michael W. Deem and Ramdas Pophale) SiO2 
 PCOD9116108
Probable space group: P 21
;
_chemical_formula_sum "Si O2"
_cell_formula_units_Z 16
_cell_length_a 5.196251
_cell_length_b 20.688144
_cell_length_c 5.045940
_cell_angle_alpha 90.000000
_cell_angle_beta 83.344508
_cell_angle_gamma 90.000000
_cell_volume 538.787000
_symmetry_space_group_name_H-M "P 21"
_symmetry_group_IT_number 4
_symmetry_cell_setting 'monoclinic'
loop_
_space_group_symop_operation_xyz
x,y,z
-x,1/2+y,-z
loop_
_atom_site_type_symbol
_atom_site_label
_atom_site_fract_x
_atom_site_fract_y
_atom_site_fract_z
Si Si1 0.469189 0.162840 0.202317
Si Si2 0.254730 0.734452 0.522790
Si Si3 0.485419 0.395364 0.025002
Si Si4 0.495454 0.527464 0.782337
Si Si5 0.160548 0.873962 0.525372
Si Si6 0.957847 0.011426 0.572560
Si Si7 0.658518 0.765665 0.043010
Si Si8 0.100634 0.144861 0.762374
O O1 0.760604 0.167817 0.301169
O O2 0.494718 0.093484 0.056035
O O3 0.297263 0.149056 0.488331
O O4 0.519563 0.246211 0.186924
O O5 0.076872 0.798926 0.582696
O O6 0.504501 0.760659 0.328988
O O7 0.116082 0.698039 0.278520
O O8 0.410398 0.467999 0.972444
O O9 0.720184 0.379920 0.785549
O O10 0.274036 0.339764 0.987290
O O11 0.604829 0.387354 0.299159
O O12 0.784940 0.516360 0.642450
O O13 0.298130 0.527963 0.561267
O O14 0.965654 0.933004 0.612581
O O15 0.013236 0.069830 0.778996
O O16 0.757534 0.688263 0.012750
#
# Coordination Sequence:
#
# PCOD9116108 Si02
#       8
#     2   2   2   2   2   2   2   2
#     4  10  21  40  62  99 129 181 230 294 355 429
#     4  11  20  42  65  94 139 180 232 304 354 436
#     4  10  21  44  68 100 139 190 236 304 360 438
#     4  11  24  43  71 100 142 187 242 296 369 434
#     4  10  22  42  70 100 141 184 247 293 370 431
#     4  11  24  42  70 101 141 187 238 303 362 438
#     4   9  22  39  64  95 133 176 235 287 359 421
#     4  10  22  38  64  97 132 177 238 287 363 423
#
# _framework density 29.696335000000001
#
# number of rings (size 3 to 8) (size 9 to 14) (size 15 to 20)
#    0.750    1.000    2.500    1.500    1.750    1.000 
#    2.250   10.000    0.000    0.000    0.000    0.000 
#    0.000    0.000    0.000    0.000    0.000    0.000 
#
# Total GULP energy -89202.471694 kJ/mol
# GULP energy per Si atom -5575.154481 kJ/mol
# Density = 2.962875 g / cm^3
# Si number density = 29.696335 Si / 1000 Ang^3
#
#
#
# Elastic Constant Matrix: (Units=GPa)
#
#
# Indices 1 2 3 4 5 6 
#
# 1 69.8502 15.3394 24.6908 0.0000 -3.5117 0.0000
# 2 15.3394 295.8917 10.2529 0.0000 40.5449 0.0000
# 3 24.6908 10.2529 94.8077 0.0000 0.2097 0.0000
# 4 0.0000 0.0000 0.0000 48.2033 0.0000 8.0994
# 5 -3.5117 40.5449 0.2097 0.0000 43.4797 0.0000
# 6 0.0000 0.0000 0.0000 8.0994 0.0000 28.6633
#
#
#
# Elastic Compliance Matrix: (Units=1/GPa)
#
#
# Indices 1 2 3 4 5 6 
#
# 1 0.016095 -0.001002 -0.004088 0.000000 0.002254 0.000000
# 2 -0.001002 0.003953 -0.000158 0.000000 -0.003766 0.000000
# 3 -0.004088 -0.000158 0.011630 0.000000 -0.000239 0.000000
# 4 0.000000 0.000000 0.000000 0.021780 0.000000 -0.006154
# 5 0.002254 -0.003766 -0.000239 0.000000 0.026695 0.000000
# 6 0.000000 0.000000 0.000000 -0.006154 0.000000 0.036627
#
#
# Mechanical properties :
#
#
# Convention : Reuss Voigt Hill
#
# Bulk Modulus (GPa) = 47.21065 62.34621 54.77843
# Shear Modulus (GPa) = 37.22025 51.42036 44.32031
#
# Velocity S-wave (km/s) = 3.54413 4.16569 3.86742
# Velocity P-wave (km/s) = 5.71665 6.64661 6.19909
#
# Compressibility (1/GPa) = 0.02118166
#
# Stress axis : x y z
#
# Youngs Moduli (GPa) = 62.13230 252.96478 85.98437
#
# Poissons Ratio (x) = 0.25334 0.35152
# Poissons Ratio (y) = 0.06223 0.01362
# Poissons Ratio (z) = 0.25401 0.04006
#
# Static dielectric constant tensor:
#      x y z
#    x 2.514790 0.000000 0.037300 
#    y 0.000000 2.368000 0.000000 
#    z 0.037300 0.000000 2.364350 
# 
# From -- ./inp_files/536.got.cif
#   From: 2010.05.17/outbox.cif.g08.bks.cpg/sg4_1_cif.got.tgz:536.got - 2010.06.03 18:43:04.
