data_PCOD9116298
_publ_section_title
;
Structure prediction by ZEFSAII (Michael W. Deem and Ramdas Pophale) SiO2 
 PCOD9116298
Probable space group: P 21
;
_chemical_formula_sum "Si O2"
_cell_formula_units_Z 16
_cell_length_a 13.316497
_cell_length_b 5.142102
_cell_length_c 15.752780
_cell_angle_alpha 90.000000
_cell_angle_beta 41.509435
_cell_angle_gamma 90.000000
_cell_volume 714.880224
_symmetry_space_group_name_H-M "P 21"
_symmetry_group_IT_number 4
_symmetry_cell_setting 'monoclinic'
loop_
_space_group_symop_operation_xyz
x,y,z
-x,1/2+y,-z
loop_
_atom_site_type_symbol
_atom_site_label
_atom_site_fract_x
_atom_site_fract_y
_atom_site_fract_z
Si Si1 0.197533 0.208460 0.407669
Si Si2 0.113317 0.440292 0.021694
Si Si3 0.189805 0.244459 0.802376
Si Si4 0.892319 0.148106 0.274212
Si Si5 0.597268 0.420090 0.423628
Si Si6 0.063256 0.697921 0.568793
Si Si7 0.364549 0.507524 0.002579
Si Si8 0.561161 0.995513 0.856261
O O1 0.137008 0.415058 0.513247
O O2 0.346535 0.351608 0.276828
O O3 0.079809 0.208590 0.403243
O O4 0.178693 0.922923 0.461727
O O5 0.981304 0.641239 0.082627
O O6 0.007791 0.209736 0.124856
O O7 0.211420 0.398877 0.875432
O O8 0.222486 0.496551 0.030833
O O9 0.186695 0.391536 0.713783
O O10 0.322126 0.030071 0.712342
O O11 0.747705 0.336103 0.378895
O O12 0.980808 0.194658 0.304967
O O13 0.498257 0.158993 0.477669
O O14 0.423134 0.801029 0.958378
O O15 0.490766 0.287421 0.894545
O O16 0.341108 0.474517 0.118542
#
# Coordination Sequence:
#
# PCOD9116298 Si02
#       8
#     2   2   2   2   2   2   2   2
#     4  10  21  42  62  93 134 166 216 277 328 394
#     4  11  24  43  68 103 132 179 229 287 337 396
#     4  11  24  44  71 100 140 175 233 291 329 401
#     4  11  24  44  70  98 132 177 227 281 333 401
#     4  11  24  47  67  94 134 178 219 274 342 401
#     4  10  23  39  66  95 125 171 221 269 333 395
#     4  10  23  40  66  94 133 173 223 263 347 397
#     4  10  21  43  62  95 134 173 214 278 327 415
#
# _framework density 22.38137
#
# number of rings (size 3 to 8) (size 9 to 14) (size 15 to 20)
#    0.000    1.500    2.500    1.500    5.250    0.000 
#   11.250    0.000    0.000    0.000    0.000    0.000 
#    0.000    0.000    0.000    0.000    0.000    0.000 
#
# Total GULP energy -89082.639681 kJ/mol
# GULP energy per Si atom -5567.664980 kJ/mol
# Density = 2.233043 g / cm^3
# Si number density = 22.381370 Si / 1000 Ang^3
#
#
#
# Elastic Constant Matrix: (Units=GPa)
#
#
# Indices 1 2 3 4 5 6 
#
# 1 -72.8514 -4.8545 37.0403 0.0000 12.6750 0.0000
# 2 -4.8545 75.4261 1.1311 0.0000 10.9246 0.0000
# 3 37.0403 1.1311 47.3042 0.0000 12.1779 0.0000
# 4 0.0000 0.0000 0.0000 47.8292 0.0000 -8.0921
# 5 12.6750 10.9246 12.1779 0.0000 25.3229 0.0000
# 6 0.0000 0.0000 0.0000 -8.0921 0.0000 13.5301
#
#
#
# Elastic Compliance Matrix: (Units=1/GPa)
#
#
# Indices 1 2 3 4 5 6 
#
# 1 -0.009704 -0.001000 0.007146 0.000000 0.001852 0.000000
# 2 -0.001000 0.014121 0.002151 0.000000 -0.006626 0.000000
# 3 0.007146 0.002151 0.019006 0.000000 -0.013645 0.000000
# 4 0.000000 0.000000 0.000000 0.023262 0.000000 0.013912
# 5 0.001852 -0.006626 -0.013645 0.000000 0.047983 0.000000
# 6 0.000000 0.000000 0.000000 0.013912 0.000000 0.082230
#
#
# Mechanical properties :
#
#
# Convention : Reuss Voigt Hill
#
# Bulk Modulus (GPa) = 24.98987 12.94586 18.96786
# Shear Modulus (GPa) = 28.79489 18.44057 23.61773
#
# Velocity S-wave (km/s) = 3.59075 2.87352 3.25197
# Velocity P-wave (km/s) = 5.32739 4.09955 4.75328
#
# Compressibility (1/GPa) = 0.04001621
#
# Stress axis : x y z
#
# Youngs Moduli (GPa) = -103.04560 70.81612 52.61602
#
# Poissons Ratio (x) = 0.07082 -0.37599
# Poissons Ratio (y) = -0.10305 -0.11319
# Poissons Ratio (z) = 0.73635 -0.15234
#
# Static dielectric constant tensor:
#      x y z
#    x 1.806100 0.000000 -0.007730 
#    y 0.000000 1.911560 0.000000 
#    z -0.007730 0.000000 1.848340 
# 
# From -- ./inp_files/13845.got.cif
#   From: 2010.05.17/outbox.cif.g08.bks.cpg/sg4_7_cif.got.tgz:13845.got - 2010.06.03 18:43:04.
