data_PCOD9116751
_publ_section_title
;
Structure prediction by ZEFSAII (Michael W. Deem and Ramdas Pophale) SiO2 
 PCOD9116751
Probable space group: P 21
;
_chemical_formula_sum "Si O2"
_cell_formula_units_Z 14
_cell_length_a 20.544930
_cell_length_b 7.772846
_cell_length_c 9.327342
_cell_angle_alpha 90.000000
_cell_angle_beta 153.328343
_cell_angle_gamma 90.000000
_cell_volume 668.605577
_symmetry_space_group_name_H-M "P 21"
_symmetry_group_IT_number 4
_symmetry_cell_setting 'monoclinic'
loop_
_space_group_symop_operation_xyz
x,y,z
-x,1/2+y,-z
loop_
_atom_site_type_symbol
_atom_site_label
_atom_site_fract_x
_atom_site_fract_y
_atom_site_fract_z
Si Si1 0.947095 0.622770 0.766463
Si Si2 0.301489 0.645507 0.984565
Si Si3 0.137369 0.728392 0.395330
Si Si4 0.248298 0.675449 0.208502
Si Si5 0.326345 0.283050 0.905968
Si Si6 0.602867 0.324258 0.256224
Si Si7 0.527312 0.454094 0.804390
O O1 0.879444 0.433812 0.635263
O O2 0.829190 0.756476 0.474304
O O3 0.006001 0.659840 0.042144
O O4 0.087791 0.629061 0.942201
O O5 0.163702 0.670022 0.607937
O O6 0.338809 0.444924 0.035749
O O7 0.262850 0.698804 0.068439
O O8 0.428167 0.771909 0.175376
O O9 0.289693 0.687340 0.612756
O O10 0.301130 0.839134 0.408905
O O11 0.363890 0.522136 0.469690
O O12 0.445919 0.301254 0.016568
O O13 0.373359 0.102902 0.071196
O O14 0.570176 0.446020 0.057201
#
# Coordination Sequence:
#
# PCOD9116751 Si02
#       7
#     2   2   2   2   2   2   2
#     4  11  22  43  66  97 136 177 229 279 340 399
#     4  11  24  43  67  98 137 179 223 274 346 406
#     4  10  22  40  65  96 133 172 226 282 324 404
#     4  10  25  41  68 100 137 176 226 275 347 413
#     4  11  23  40  72  95 132 175 222 280 342 396
#     4   9  21  41  65  96 124 169 225 279 317 389
#     4  10  23  44  67  98 133 170 231 285 324 407
#
# _framework density 20.9391
#
# number of rings (size 3 to 8) (size 9 to 14) (size 15 to 20)
#    0.000    1.714    2.857    0.857   16.000    1.143 
#    0.000    0.000    3.143    0.000    0.000    0.000 
#    0.000    0.000    0.000    0.000    0.000    0.000 
#
# Total GULP energy -77942.468610 kJ/mol
# GULP energy per Si atom -5567.319186 kJ/mol
# Density = 2.089144 g / cm^3
# Si number density = 20.939100 Si / 1000 Ang^3
#
#
#
# Elastic Constant Matrix: (Units=GPa)
#
#
# Indices 1 2 3 4 5 6 
#
# 1 119.1484 15.2361 47.3421 0.0000 -15.2292 0.0000
# 2 15.2361 66.6791 9.6975 0.0000 -2.5457 0.0000
# 3 47.3421 9.6975 103.1256 0.0000 24.0047 0.0000
# 4 0.0000 0.0000 0.0000 36.5430 0.0000 -7.6016
# 5 -15.2292 -2.5457 24.0047 0.0000 31.6130 0.0000
# 6 0.0000 0.0000 0.0000 -7.6016 0.0000 13.6645
#
#
#
# Elastic Compliance Matrix: (Units=1/GPa)
#
#
# Indices 1 2 3 4 5 6 
#
# 1 0.014205 -0.001301 -0.009678 0.000000 0.014087 0.000000
# 2 -0.001301 0.015532 -0.001225 0.000000 0.001555 0.000000
# 3 -0.009678 -0.001225 0.018662 0.000000 -0.018931 0.000000
# 4 0.000000 0.000000 0.000000 0.030946 0.000000 0.017215
# 5 0.014087 0.001555 -0.018931 0.000000 0.052919 0.000000
# 6 0.000000 0.000000 0.000000 0.017215 0.000000 0.082759
#
#
# Mechanical properties :
#
#
# Convention : Reuss Voigt Hill
#
# Bulk Modulus (GPa) = 41.68242 48.16718 44.92480
# Shear Modulus (GPa) = 20.20782 30.80925 25.50854
#
# Velocity S-wave (km/s) = 3.10994 3.84001 3.49409
# Velocity P-wave (km/s) = 5.73108 6.53562 6.14653
#
# Compressibility (1/GPa) = 0.02399093
#
# Stress axis : x y z
#
# Youngs Moduli (GPa) = 70.39632 64.38343 53.58537
#
# Poissons Ratio (x) = 0.08373 0.51860
# Poissons Ratio (y) = 0.09155 0.06567
# Poissons Ratio (z) = 0.68130 0.07890
#
# Static dielectric constant tensor:
#      x y z
#    x 1.760550 0.000000 -0.017450 
#    y 0.000000 1.836130 0.000000 
#    z -0.017450 0.000000 1.791990 
# 
# From -- ./inp_files/7960.got.cif
#   From: 2010.05.17/outbox.cif.g08.bks.cpg/sg4_4_cif.got.tgz:7960.got - 2010.06.03 18:43:04.
