data_PCOD9116592
_publ_section_title
;
Structure prediction by ZEFSAII (Michael W. Deem and Ramdas Pophale) SiO2 
 PCOD9116592
Probable space group: P 21
;
_chemical_formula_sum "Si O2"
_cell_formula_units_Z 14
_cell_length_a 12.689892
_cell_length_b 7.822092
_cell_length_c 11.601298
_cell_angle_alpha 90.000000
_cell_angle_beta 32.071550
_cell_angle_gamma 90.000000
_cell_volume 611.454093
_symmetry_space_group_name_H-M "P 21"
_symmetry_group_IT_number 4
_symmetry_cell_setting 'monoclinic'
loop_
_space_group_symop_operation_xyz
x,y,z
-x,1/2+y,-z
loop_
_atom_site_type_symbol
_atom_site_label
_atom_site_fract_x
_atom_site_fract_y
_atom_site_fract_z
Si Si1 0.294064 0.268680 0.936044
Si Si2 0.130497 0.876981 0.612961
Si Si3 0.556247 0.265290 0.117567
Si Si4 0.420595 0.894656 0.154653
Si Si5 0.143604 0.899525 0.990508
Si Si6 0.407821 0.798434 0.530617
Si Si7 0.272943 0.239403 0.580044
O O1 0.438125 0.258094 0.912170
O O2 0.421004 0.363189 0.718248
O O3 0.211217 0.088049 0.967437
O O4 0.099971 0.364601 0.156761
O O5 0.205749 0.870150 0.412517
O O6 0.251267 0.736379 0.577830
O O7 0.199295 0.056599 0.603726
O O8 0.755989 0.276360 0.007238
O O9 0.385605 0.322587 0.366211
O O10 0.502899 0.076433 0.122400
O O11 0.575505 0.374859 0.984519
O O12 0.251974 0.872850 0.768084
O O13 0.911256 0.850701 0.202497
O O14 0.558362 0.705583 0.479639
#
# Coordination Sequence:
#
# PCOD9116592 Si02
#       7
#     2   2   2   2   2   2   2
#     4  11  23  38  61  90 119 156 198 242 295 351
#     4  10  22  39  60  87 119 155 195 243 296 349
#     4  10  22  41  63  87 118 155 197 245 295 349
#     4  10  22  41  63  87 118 155 197 245 295 349
#     4  11  23  38  61  90 119 156 198 242 295 351
#     4  10  22  38  58  86 120 154 194 238 288 348
#     4  10  22  39  60  87 119 155 195 243 296 349
#
# _framework density 22.896242999999998
#
# number of rings (size 3 to 8) (size 9 to 14) (size 15 to 20)
#    0.000    1.714    0.000    3.429    0.000   11.429 
#    0.000    0.000    0.000    0.000    0.000    0.000 
#    0.000    0.000    0.000    0.000    0.000    0.000 
#
# Total GULP energy -78060.061687 kJ/mol
# GULP energy per Si atom -5575.718692 kJ/mol
# Density = 2.284413 g / cm^3
# Si number density = 22.896243 Si / 1000 Ang^3
#
#
#
# Elastic Constant Matrix: (Units=GPa)
#
#
# Indices 1 2 3 4 5 6 
#
# 1 84.6014 -1.3888 47.8681 0.0000 34.6541 0.0000
# 2 -1.3888 60.7457 31.6223 0.0000 11.6534 0.0000
# 3 47.8681 31.6223 172.2460 0.0000 9.4890 0.0000
# 4 0.0000 0.0000 0.0000 25.3100 0.0000 4.8173
# 5 34.6541 11.6534 9.4890 0.0000 37.0978 0.0000
# 6 0.0000 0.0000 0.0000 4.8173 0.0000 28.4398
#
#
#
# Elastic Compliance Matrix: (Units=1/GPa)
#
#
# Indices 1 2 3 4 5 6 
#
# 1 0.027420 0.009893 -0.007966 0.000000 -0.026684 0.000000
# 2 0.009893 0.022706 -0.006102 0.000000 -0.014813 0.000000
# 3 -0.007966 -0.006102 0.008747 0.000000 0.007121 0.000000
# 4 0.000000 0.000000 0.000000 0.040826 0.000000 -0.006915
# 5 -0.026684 -0.014813 0.007121 0.000000 0.054714 0.000000
# 6 0.000000 0.000000 0.000000 -0.006915 0.000000 0.036333
#
#
# Mechanical properties :
#
#
# Convention : Reuss Voigt Hill
#
# Bulk Modulus (GPa) = 19.79280 52.64401 36.21840
# Shear Modulus (GPa) = 23.15466 34.13563 28.64515
#
# Velocity S-wave (km/s) = 3.18352 3.86538 3.54091
# Velocity P-wave (km/s) = 4.70918 6.55469 5.70703
#
# Compressibility (1/GPa) = 0.05052343
#
# Stress axis : x y z
#
# Youngs Moduli (GPa) = 36.46953 44.04039 114.31842
#
# Poissons Ratio (x) = -0.43569 0.91071
# Poissons Ratio (y) = -0.36079 0.69756
# Poissons Ratio (z) = 0.29053 0.26873
#
# Static dielectric constant tensor:
#      x y z
#    x 1.842040 0.000000 -0.006230 
#    y 0.000000 2.001440 0.000000 
#    z -0.006230 0.000000 1.823630 
# 
# From -- ./inp_files/2469.got.cif
#   From: 2010.05.17/outbox.cif.g08.bks.cpg/sg4_2_cif.got.tgz:2469.got - 2010.06.03 18:43:04.
