data_PCOD9116369
_publ_section_title
;
Structure prediction by ZEFSAII (Michael W. Deem and Ramdas Pophale) SiO2 
 PCOD9116369
Probable space group: P 21
;
_chemical_formula_sum "Si O2"
_cell_formula_units_Z 14
_cell_length_a 9.160760
_cell_length_b 11.331906
_cell_length_c 8.893368
_cell_angle_alpha 90.000000
_cell_angle_beta 131.265470
_cell_angle_gamma 90.000000
_cell_volume 693.942020
_symmetry_space_group_name_H-M "P 21"
_symmetry_group_IT_number 4
_symmetry_cell_setting 'monoclinic'
loop_
_space_group_symop_operation_xyz
x,y,z
-x,1/2+y,-z
loop_
_atom_site_type_symbol
_atom_site_label
_atom_site_fract_x
_atom_site_fract_y
_atom_site_fract_z
Si Si1 0.336227 0.040020 0.651578
Si Si2 0.033950 0.572936 0.389435
Si Si3 0.300754 0.766803 0.602813
Si Si4 0.230420 0.093171 0.044245
Si Si5 0.638964 0.715867 0.606291
Si Si6 0.588084 0.913651 0.327970
Si Si7 0.513234 0.710653 0.031375
O O1 0.357942 0.116952 0.518691
O O2 0.496858 0.092078 0.875734
O O3 0.132332 0.058837 0.599167
O O4 0.341575 0.903971 0.618661
O O5 0.096831 0.709785 0.423916
O O6 0.224867 0.498076 0.562374
O O7 0.949119 0.537777 0.168515
O O8 0.451711 0.710255 0.587387
O O9 0.333670 0.737634 0.801601
O O10 0.192275 0.175326 0.163055
O O11 0.390557 0.992034 0.192070
O O12 0.324168 0.179704 0.982200
O O13 0.627109 0.838127 0.506575
O O14 0.565653 0.818141 0.177492
#
# Coordination Sequence:
#
# PCOD9116369 Si02
#       7
#     2   2   2   2   2   2   2
#     4  10  23  39  64  98 127 162 222 265 305 394
#     4  11  24  40  66  94 130 167 221 263 322 366
#     4  11  22  40  67  92 131 173 208 265 328 371
#     4  10  21  43  60  96 131 159 216 262 312 394
#     4  10  22  43  65  90 133 171 210 260 327 381
#     4  11  21  42  66  91 128 174 209 269 319 373
#     4   9  19  37  64  89 126 166 214 254 317 375
#
# _framework density 20.174595
#
# number of rings (size 3 to 8) (size 9 to 14) (size 15 to 20)
#    0.000    1.714    2.857    2.571    6.000    0.000 
#    5.143    1.429    0.000    0.000    0.000    0.000 
#    0.000    0.000    0.000    0.000    0.000    0.000 
#
# Total GULP energy -77976.239831 kJ/mol
# GULP energy per Si atom -5569.731416 kJ/mol
# Density = 2.012868 g / cm^3
# Si number density = 20.174595 Si / 1000 Ang^3
#
#
#
# Elastic Constant Matrix: (Units=GPa)
#
#
# Indices 1 2 3 4 5 6 
#
# 1 44.3616 26.9538 36.4988 0.0000 -21.1180 0.0000
# 2 26.9538 124.0438 47.6661 0.0000 -5.4415 0.0000
# 3 36.4988 47.6661 113.7377 0.0000 -13.9995 0.0000
# 4 0.0000 0.0000 0.0000 14.1890 0.0000 -15.8689
# 5 -21.1180 -5.4415 -13.9995 0.0000 33.7391 0.0000
# 6 0.0000 0.0000 0.0000 -15.8689 0.0000 16.1345
#
#
#
# Elastic Compliance Matrix: (Units=1/GPa)
#
#
# Indices 1 2 3 4 5 6 
#
# 1 0.044131 -0.005038 -0.009222 0.000000 0.022984 0.000000
# 2 -0.005038 0.010185 -0.002990 0.000000 -0.002751 0.000000
# 3 -0.009222 -0.002990 0.012893 0.000000 -0.000904 0.000000
# 4 0.000000 0.000000 0.000000 -0.704890 0.000000 -0.693286
# 5 0.022984 -0.002751 -0.000904 0.000000 0.043206 0.000000
# 6 0.000000 0.000000 0.000000 -0.693286 0.000000 -0.619894
#
#
# Mechanical properties :
#
#
# Convention : Reuss Voigt Hill
#
# Bulk Modulus (GPa) = 30.57166 56.04227 43.30696
# Shear Modulus (GPa) = -4.27728 24.21417 9.96844
#
# Velocity S-wave (km/s) = -1.45765 3.46819 2.22527
# Velocity P-wave (km/s) = 3.51475 6.62395 5.30237
#
# Compressibility (1/GPa) = 0.03271003
#
# Stress axis : x y z
#
# Youngs Moduli (GPa) = 22.65971 98.18647 77.55949
#
# Poissons Ratio (x) = 0.49462 0.71523
# Poissons Ratio (y) = 0.11415 0.23193
# Poissons Ratio (z) = 0.20896 0.29361
#
# Static dielectric constant tensor:
#      x y z
#    x 1.687220 0.000000 0.007860 
#    y 0.000000 1.760280 0.000000 
#    z 0.007860 0.000000 1.803790 
# 
# From -- ./inp_files/6209.got.cif
#   From: 2010.05.17/outbox.cif.g08.bks.cpg/sg4_4_cif.got.tgz:6209.got - 2010.06.03 18:43:04.
