data_PCOD9116957
_publ_section_title
;
Structure prediction by ZEFSAII (Michael W. Deem and Ramdas Pophale) SiO2 
 PCOD9116957
Probable space group: P 21
;
_chemical_formula_sum "Si O2"
_cell_formula_units_Z 16
_cell_length_a 8.745053
_cell_length_b 13.705793
_cell_length_c 6.801593
_cell_angle_alpha 90.000000
_cell_angle_beta 55.657909
_cell_angle_gamma 90.000000
_cell_volume 673.117949
_symmetry_space_group_name_H-M "P 21"
_symmetry_group_IT_number 4
_symmetry_cell_setting 'monoclinic'
loop_
_space_group_symop_operation_xyz
x,y,z
-x,1/2+y,-z
loop_
_atom_site_type_symbol
_atom_site_label
_atom_site_fract_x
_atom_site_fract_y
_atom_site_fract_z
Si Si1 0.109541 0.340720 0.708394
Si Si2 0.412778 0.989381 0.662925
Si Si3 0.348852 0.462319 0.849835
Si Si4 0.707663 0.282492 0.138556
Si Si5 0.886193 0.188683 0.358387
Si Si6 0.228078 0.497649 0.344010
Si Si7 0.759094 0.675704 0.140589
Si Si8 0.574426 0.276634 0.820562
O O1 0.208997 0.409565 0.799581
O O2 0.148526 0.393943 0.474905
O O3 0.199043 0.235375 0.690625
O O4 0.894793 0.327926 0.910138
O O5 0.510924 0.021076 0.389812
O O6 0.375906 0.873843 0.681306
O O7 0.562743 0.001066 0.726238
O O8 0.241251 0.059902 0.827470
O O9 0.478912 0.381004 0.859753
O O10 0.235638 0.511765 0.106083
O O11 0.768103 0.198101 0.242594
O O12 0.583482 0.253085 0.044625
O O13 0.779728 0.262371 0.581362
O O14 0.877933 0.084411 0.468817
O O15 0.091755 0.208808 0.130946
O O16 0.558862 0.705095 0.204372
#
# Coordination Sequence:
#
# PCOD9116957 Si02
#       8
#     2   2   2   2   2   2   2   2
#     4   9  23  42  68  97 134 176 228 282 336 407
#     4  11  21  42  68  98 136 179 226 283 339 401
#     4  10  22  42  66  96 132 183 226 278 340 402
#     4  11  23  42  72  97 135 181 223 285 346 399
#     4  11  24  45  67 102 140 177 229 288 334 408
#     4  11  22  42  68 100 138 179 232 280 337 408
#     4  10  23  45  69 100 140 177 232 283 339 409
#     4  11  22  42  68  98 135 176 228 279 339 408
#
# _framework density 23.769978999999999
#
# number of rings (size 3 to 8) (size 9 to 14) (size 15 to 20)
#    0.000    1.500    3.750    0.750    0.000    5.000 
#    2.250    2.500    0.000    0.000    0.000    0.000 
#    0.000    0.000    0.000    0.000    0.000    0.000 
#
# Total GULP energy -89454.054600 kJ/mol
# GULP energy per Si atom -5590.878413 kJ/mol
# Density = 2.371588 g / cm^3
# Si number density = 23.769979 Si / 1000 Ang^3
#
#
#
# Elastic Constant Matrix: (Units=GPa)
#
#
# Indices 1 2 3 4 5 6 
#
# 1 38.9675 -3.2504 21.5010 0.0000 -7.5775 0.0000
# 2 -3.2504 40.7993 8.0735 0.0000 -10.6072 0.0000
# 3 21.5010 8.0735 116.7363 0.0000 5.1237 0.0000
# 4 0.0000 0.0000 0.0000 41.2564 0.0000 -10.8356
# 5 -7.5775 -10.6072 5.1237 0.0000 34.4881 0.0000
# 6 0.0000 0.0000 0.0000 -10.8356 0.0000 14.3854
#
#
#
# Elastic Compliance Matrix: (Units=1/GPa)
#
#
# Indices 1 2 3 4 5 6 
#
# 1 0.031876 0.006476 -0.006758 0.000000 0.009999 0.000000
# 2 0.006476 0.028539 -0.003638 0.000000 0.010741 0.000000
# 3 -0.006758 -0.003638 0.010244 0.000000 -0.004126 0.000000
# 4 0.000000 0.000000 0.000000 0.030216 0.000000 0.022760
# 5 0.009999 0.010741 -0.004126 0.000000 0.035109 0.000000
# 6 0.000000 0.000000 0.000000 0.022760 0.000000 0.086658
#
#
# Mechanical properties :
#
#
# Convention : Reuss Voigt Hill
#
# Bulk Modulus (GPa) = 15.91868 27.68349 21.80108
# Shear Modulus (GPa) = 19.88701 29.37126 24.62913
#
# Velocity S-wave (km/s) = 2.89562 3.51899 3.22241
# Velocity P-wave (km/s) = 4.22977 5.30874 4.79967
#
# Compressibility (1/GPa) = 0.06281929
#
# Stress axis : x y z
#
# Youngs Moduli (GPa) = 31.37172 35.04029 97.62106
#
# Poissons Ratio (x) = -0.22694 0.65971
# Poissons Ratio (y) = -0.20318 0.35515
# Poissons Ratio (z) = 0.21201 0.12748
#
# Static dielectric constant tensor:
#      x y z
#    x 1.863830 0.000000 -0.002220 
#    y 0.000000 1.941840 0.000000 
#    z -0.002220 0.000000 1.901180 
# 
# From -- ./inp_files/1831.got.cif
#   From: 2010.05.17/outbox.cif.g08.bks.cpg/sg4_1_cif.got.tgz:1831.got - 2010.06.03 18:43:04.
