data_PCOD9116767
_publ_section_title
;
Structure prediction by ZEFSAII (Michael W. Deem and Ramdas Pophale) SiO2 
 PCOD9116767
Probable space group: P 21
;
_chemical_formula_sum "Si O2"
_cell_formula_units_Z 12
_cell_length_a 10.067846
_cell_length_b 8.900521
_cell_length_c 10.760174
_cell_angle_alpha 90.000000
_cell_angle_beta 26.017039
_cell_angle_gamma 90.000000
_cell_volume 422.939213
_symmetry_space_group_name_H-M "P 21"
_symmetry_group_IT_number 4
_symmetry_cell_setting 'monoclinic'
loop_
_space_group_symop_operation_xyz
x,y,z
-x,1/2+y,-z
loop_
_atom_site_type_symbol
_atom_site_label
_atom_site_fract_x
_atom_site_fract_y
_atom_site_fract_z
Si Si1 0.135452 0.186380 0.539004
Si Si2 0.304823 0.580247 0.790181
Si Si3 0.048707 0.982233 0.223084
Si Si4 0.286604 0.886286 0.674372
Si Si5 0.529563 0.278161 0.987493
Si Si6 0.509789 0.186372 0.730170
O O1 0.105920 0.320304 0.665633
O O2 0.785719 0.151135 0.807806
O O3 0.403158 0.084295 0.364346
O O4 0.250364 0.254979 0.312969
O O5 0.236537 0.754850 0.817007
O O6 0.441541 0.507923 0.548121
O O7 0.023565 0.482598 0.075810
O O8 0.306646 0.930711 0.104545
O O9 0.807124 0.085892 0.491816
O O10 0.219418 0.073144 0.970519
O O11 0.410258 0.795031 0.450006
O O12 0.457982 0.271796 0.903634
#
# Coordination Sequence:
#
# PCOD9116767 Si02
#       6
#     2   2   2   2   2   2
#     4  10  22  45  72 107 147 212 249 312 396 456
#     4  12  28  53  78 115 154 206 268 327 400 469
#     4  10  22  41  69 107 150 211 246 323 379 459
#     4  12  30  50  81 114 153 208 262 342 387 478
#     4  10  22  40  67 111 152 206 242 320 380 470
#     4  12  24  43  73 114 154 199 267 318 390 464
#
# _framework density 28.372869999999999
#
# number of rings (size 3 to 8) (size 9 to 14) (size 15 to 20)
#    1.000    0.000    1.667    4.000    2.333    5.333 
#    0.000    0.000    0.000    0.000    0.000    0.000 
#    0.000    0.000    0.000    0.000    0.000    0.000 
#
# Total GULP energy -67195.527390 kJ/mol
# GULP energy per Si atom -5599.627283 kJ/mol
# Density = 2.830829 g / cm^3
# Si number density = 28.372870 Si / 1000 Ang^3
#
#
#
# Elastic Constant Matrix: (Units=GPa)
#
#
# Indices 1 2 3 4 5 6 
#
# 1 77.0304 34.1231 34.6432 0.0000 15.2155 0.0000
# 2 34.1231 153.7992 69.6950 0.0000 -3.5244 0.0000
# 3 34.6432 69.6950 250.6775 0.0000 15.3573 0.0000
# 4 0.0000 0.0000 0.0000 72.1813 0.0000 -11.0789
# 5 15.2155 -3.5244 15.3573 0.0000 55.6574 0.0000
# 6 0.0000 0.0000 0.0000 -11.0789 0.0000 41.2188
#
#
#
# Elastic Compliance Matrix: (Units=1/GPa)
#
#
# Indices 1 2 3 4 5 6 
#
# 1 0.015650 -0.003094 -0.001046 0.000000 -0.004186 0.000000
# 2 -0.003094 0.008113 -0.001944 0.000000 0.001896 0.000000
# 3 -0.001046 -0.001944 0.004745 0.000000 -0.001146 0.000000
# 4 0.000000 0.000000 0.000000 0.014450 0.000000 0.003884
# 5 -0.004186 0.001896 -0.001146 0.000000 0.019548 0.000000
# 6 0.000000 0.000000 0.000000 0.003884 0.000000 0.025305
#
#
# Mechanical properties :
#
#
# Convention : Reuss Voigt Hill
#
# Bulk Modulus (GPa) = 61.20508 84.26995 72.73751
# Shear Modulus (GPa) = 47.42731 56.68122 52.05426
#
# Velocity S-wave (km/s) = 4.09292 4.47444 4.28793
# Velocity P-wave (km/s) = 6.62982 7.51396 7.08569
#
# Compressibility (1/GPa) = 0.01633851
#
# Stress axis : x y z
#
# Youngs Moduli (GPa) = 63.89885 123.26030 210.76970
#
# Poissons Ratio (x) = 0.38137 0.22049
# Poissons Ratio (y) = 0.19771 0.40977
# Poissons Ratio (z) = 0.06685 0.23964
#
# Static dielectric constant tensor:
#      x y z
#    x 2.301430 0.000000 -0.019420 
#    y 0.000000 2.321310 0.000000 
#    z -0.019420 0.000000 2.106640 
# 
# From -- ./inp_files/12236.got.cif
#   From: 2010.05.17/outbox.cif.g08.bks.cpg/sg4_7_cif.got.tgz:12236.got - 2010.06.03 18:43:04.
