data_PCOD9116381
_publ_section_title
;
Structure prediction by ZEFSAII (Michael W. Deem and Ramdas Pophale) SiO2 
 PCOD9116381
Probable space group: P 21
;
_chemical_formula_sum "Si O2"
_cell_formula_units_Z 16
_cell_length_a 8.270813
_cell_length_b 9.090511
_cell_length_c 11.470961
_cell_angle_alpha 90.000000
_cell_angle_beta 68.426518
_cell_angle_gamma 90.000000
_cell_volume 802.036973
_symmetry_space_group_name_H-M "P 21"
_symmetry_group_IT_number 4
_symmetry_cell_setting 'monoclinic'
loop_
_space_group_symop_operation_xyz
x,y,z
-x,1/2+y,-z
loop_
_atom_site_type_symbol
_atom_site_label
_atom_site_fract_x
_atom_site_fract_y
_atom_site_fract_z
Si Si1 0.764467 0.588270 0.371170
Si Si2 0.591242 0.577895 0.668890
Si Si3 0.317885 0.835747 0.780324
Si Si4 0.764315 0.501497 0.848875
Si Si5 0.112296 0.658453 0.183395
Si Si6 0.644059 0.804357 0.196851
Si Si7 0.035885 0.209407 0.019104
Si Si8 0.481644 0.549527 0.097770
O O1 0.674788 0.586220 0.519461
O O2 0.730957 0.432169 0.318523
O O3 0.688274 0.707751 0.299869
O O4 0.969076 0.626196 0.319180
O O5 0.458785 0.712294 0.716413
O O6 0.745373 0.565995 0.724171
O O7 0.466969 0.438936 0.727452
O O8 0.139008 0.776796 0.882299
O O9 0.416679 0.937194 0.847393
O O10 0.830157 0.331791 0.832762
O O11 0.876812 0.602052 0.908240
O O12 0.567945 0.521371 0.950460
O O13 0.275730 0.550975 0.151568
O O14 0.021420 0.625885 0.083552
O O15 0.530197 0.707132 0.138765
O O16 0.821419 0.822444 0.074157
#
# Coordination Sequence:
#
# PCOD9116381 Si02
#       8
#     2   2   2   2   2   2   2   2
#     4  10  25  45  62  95 135 184 226 263 331 394
#     4  12  24  43  66  97 133 182 229 265 321 410
#     4  11  24  42  68  99 132 169 222 279 338 394
#     4  11  24  41  66 103 125 171 222 271 342 395
#     4  11  22  44  69  92 138 171 214 279 337 391
#     4   9  21  41  72  92 135 173 214 277 335 389
#     4  10  23  41  67 103 130 161 221 284 341 388
#     4  10  21  43  64 101 130 161 212 280 345 389
#
# _framework density 19.949206
#
# number of rings (size 3 to 8) (size 9 to 14) (size 15 to 20)
#    0.000    1.500    2.500    2.250    3.500    2.000 
#    4.500    0.000    0.000    0.000    0.000    0.000 
#    0.000    0.000    0.000    0.000    0.000    0.000 
#
# Total GULP energy -89337.736376 kJ/mol
# GULP energy per Si atom -5583.608524 kJ/mol
# Density = 1.990380 g / cm^3
# Si number density = 19.949206 Si / 1000 Ang^3
#
#
#
# Elastic Constant Matrix: (Units=GPa)
#
#
# Indices 1 2 3 4 5 6 
#
# 1 112.7533 32.9485 54.1490 0.0000 -14.5864 0.0000
# 2 32.9485 84.9639 47.6181 0.0000 -4.9613 0.0000
# 3 54.1490 47.6181 139.4923 0.0000 6.5834 0.0000
# 4 0.0000 0.0000 0.0000 20.6571 0.0000 -7.9983
# 5 -14.5864 -4.9613 6.5834 0.0000 21.3831 0.0000
# 6 0.0000 0.0000 0.0000 -7.9983 0.0000 28.8283
#
#
#
# Elastic Compliance Matrix: (Units=1/GPa)
#
#
# Indices 1 2 3 4 5 6 
#
# 1 0.013043 -0.001693 -0.004958 0.000000 0.010031 0.000000
# 2 -0.001693 0.015316 -0.004753 0.000000 0.003862 0.000000
# 3 -0.004958 -0.004753 0.011089 0.000000 -0.007899 0.000000
# 4 0.000000 0.000000 0.000000 0.054236 0.000000 0.015048
# 5 0.010031 0.003862 -0.007899 0.000000 0.056936 0.000000
# 6 0.000000 0.000000 0.000000 0.015048 0.000000 0.038863
#
#
# Mechanical properties :
#
#
# Convention : Reuss Voigt Hill
#
# Bulk Modulus (GPa) = 60.10439 67.40451 63.75445
# Shear Modulus (GPa) = 22.95282 27.67329 25.31306
#
# Velocity S-wave (km/s) = 3.39568 3.72854 3.56599
# Velocity P-wave (km/s) = 6.75043 7.23861 6.99877
#
# Compressibility (1/GPa) = 0.01663772
#
# Stress axis : x y z
#
# Youngs Moduli (GPa) = 76.67223 65.29194 90.17920
#
# Poissons Ratio (x) = 0.11055 0.44714
# Poissons Ratio (y) = 0.12982 0.42865
# Poissons Ratio (z) = 0.38017 0.31035
#
# Static dielectric constant tensor:
#      x y z
#    x 1.739520 0.000000 -0.002580 
#    y 0.000000 1.775610 0.000000 
#    z -0.002580 0.000000 1.702170 
# 
# From -- ./inp_files/7659.got.cif
#   From: 2010.05.17/outbox.cif.g08.bks.cpg/sg4_4_cif.got.tgz:7659.got - 2010.06.03 18:43:04.
