data_PCOD9116402
_publ_section_title
;
Structure prediction by ZEFSAII (Michael W. Deem and Ramdas Pophale) SiO2 
 PCOD9116402
Probable space group: P 21
;
_chemical_formula_sum "Si O2"
_cell_formula_units_Z 16
_cell_length_a 6.658481
_cell_length_b 13.169560
_cell_length_c 8.102328
_cell_angle_alpha 90.000000
_cell_angle_beta 103.541253
_cell_angle_gamma 90.000000
_cell_volume 690.736772
_symmetry_space_group_name_H-M "P 21"
_symmetry_group_IT_number 4
_symmetry_cell_setting 'monoclinic'
loop_
_space_group_symop_operation_xyz
x,y,z
-x,1/2+y,-z
loop_
_atom_site_type_symbol
_atom_site_label
_atom_site_fract_x
_atom_site_fract_y
_atom_site_fract_z
Si Si1 0.918364 0.726990 0.619576
Si Si2 0.203022 0.572486 0.491300
Si Si3 0.306435 0.112349 0.856259
Si Si4 0.506838 0.240839 0.611917
Si Si5 0.692961 0.340751 0.912091
Si Si6 0.059423 0.639931 0.977884
Si Si7 0.368956 0.502988 0.876084
Si Si8 0.915523 0.430797 0.246624
O O1 0.690349 0.766781 0.536027
O O2 0.073425 0.822597 0.662038
O O3 0.012738 0.644403 0.513448
O O4 0.921288 0.671555 0.795923
O O5 0.366521 0.649507 0.444359
O O6 0.294763 0.520234 0.674255
O O7 0.119376 0.489826 0.345880
O O8 0.398502 0.196439 0.756406
O O9 0.452347 0.082435 0.037244
O O10 0.270474 0.007849 0.746907
O O11 0.084935 0.139253 0.890983
O O12 0.657964 0.329768 0.707688
O O13 0.477263 0.394189 0.924706
O O14 0.770971 0.228651 0.973719
O O15 0.865014 0.406533 0.043931
O O16 0.181256 0.537505 0.956544
#
# Coordination Sequence:
#
# PCOD9116402 Si02
#       8
#     2   2   2   2   2   2   2   2
#     4  10  23  43  66  98 132 173 223 270 332 398
#     4  11  23  44  70  92 137 177 213 282 336 391
#     4  11  22  41  66  96 133 177 219 271 331 392
#     4  12  23  42  67  98 131 179 221 268 336 395
#     4  10  22  41  65 100 128 170 228 268 329 398
#     4  10  21  43  66  93 137 176 215 279 334 389
#     4  10  22  42  65  98 130 171 229 268 330 397
#     4  10  22  44  63  99 134 169 226 270 330 392
#
# _framework density 23.163675000000001
#
# number of rings (size 3 to 8) (size 9 to 14) (size 15 to 20)
#    0.000    1.500    2.500    2.250    0.000    0.000 
#   11.250    2.500    0.000    0.000    0.000    0.000 
#    0.000    0.000    0.000    0.000    0.000    0.000 
#
# Total GULP energy -89171.036374 kJ/mol
# GULP energy per Si atom -5573.189773 kJ/mol
# Density = 2.311095 g / cm^3
# Si number density = 23.163675 Si / 1000 Ang^3
#
#
#
# Elastic Constant Matrix: (Units=GPa)
#
#
# Indices 1 2 3 4 5 6 
#
# 1 56.8338 17.6046 46.4201 0.0000 14.2963 0.0000
# 2 17.6046 58.0498 17.0346 0.0000 5.7609 0.0000
# 3 46.4201 17.0346 103.1521 0.0000 26.8810 0.0000
# 4 0.0000 0.0000 0.0000 31.6699 0.0000 15.9099
# 5 14.2963 5.7609 26.8810 0.0000 47.6555 0.0000
# 6 0.0000 0.0000 0.0000 15.9099 0.0000 32.2169
#
#
#
# Elastic Compliance Matrix: (Units=1/GPa)
#
#
# Indices 1 2 3 4 5 6 
#
# 1 0.029359 -0.005249 -0.011976 0.000000 -0.001418 0.000000
# 2 -0.005249 0.019056 -0.000698 0.000000 -0.000336 0.000000
# 3 -0.011976 -0.000698 0.016695 0.000000 -0.005740 0.000000
# 4 0.000000 0.000000 0.000000 0.041994 0.000000 -0.020738
# 5 -0.001418 -0.000336 -0.005740 0.000000 0.024688 0.000000
# 6 0.000000 0.000000 0.000000 -0.020738 0.000000 0.041281
#
#
# Mechanical properties :
#
#
# Convention : Reuss Voigt Hill
#
# Bulk Modulus (GPa) = 34.16913 42.23936 38.20425
# Shear Modulus (GPa) = 22.86531 31.44023 27.15277
#
# Velocity S-wave (km/s) = 3.14525 3.68816 3.42747
# Velocity P-wave (km/s) = 5.28898 6.03419 5.67384
#
# Compressibility (1/GPa) = 0.02926618
#
# Stress axis : x y z
#
# Youngs Moduli (GPa) = 34.06104 52.47597 59.89911
#
# Poissons Ratio (x) = 0.27543 0.71734
# Poissons Ratio (y) = 0.17877 0.04178
# Poissons Ratio (z) = 0.40791 0.03660
#
# Static dielectric constant tensor:
#      x y z
#    x 1.856630 0.000000 0.060360 
#    y 0.000000 1.931420 0.000000 
#    z 0.060360 0.000000 1.929450 
# 
# From -- ./inp_files/4700.got.cif
#   From: 2010.05.17/outbox.cif.g08.bks.cpg/sg4_3_cif.got.tgz:4700.got - 2010.06.03 18:43:04.
