data_PCOD9116926
_publ_section_title
;
Structure prediction by ZEFSAII (Michael W. Deem and Ramdas Pophale) SiO2 
 PCOD9116926
Probable space group: P 21
;
_chemical_formula_sum "Si O2"
_cell_formula_units_Z 14
_cell_length_a 13.567273
_cell_length_b 5.712762
_cell_length_c 8.546856
_cell_angle_alpha 90.000000
_cell_angle_beta 76.864035
_cell_angle_gamma 90.000000
_cell_volume 645.104089
_symmetry_space_group_name_H-M "P 21"
_symmetry_group_IT_number 4
_symmetry_cell_setting 'monoclinic'
loop_
_space_group_symop_operation_xyz
x,y,z
-x,1/2+y,-z
loop_
_atom_site_type_symbol
_atom_site_label
_atom_site_fract_x
_atom_site_fract_y
_atom_site_fract_z
Si Si1 0.738416 0.061450 0.976917
Si Si2 0.745456 0.743655 0.662352
Si Si3 0.961349 0.790672 0.444130
Si Si4 0.450151 0.462506 0.398722
Si Si5 0.569879 0.091766 0.236082
Si Si6 0.033946 0.723895 0.063624
Si Si7 0.379967 0.862371 0.193963
O O1 0.845548 0.175501 0.974755
O O2 0.651257 0.242926 0.955075
O O3 0.749081 0.887232 0.825318
O O4 0.677239 0.977058 0.151090
O O5 0.842626 0.795054 0.525914
O O6 0.726787 0.477577 0.718203
O O7 0.643513 0.789913 0.602556
O O8 0.998864 0.547264 0.513563
O O9 0.990881 0.759418 0.253276
O O10 0.552500 0.365842 0.283170
O O11 0.457462 0.497455 0.579519
O O12 0.411294 0.680478 0.313989
O O13 0.478943 0.023082 0.149592
O O14 0.989171 0.474321 0.013729
#
# Coordination Sequence:
#
# PCOD9116926 Si02
#       7
#     2   2   2   2   2   2   2
#     4  11  26  44  70 102 139 189 241 301 370 441
#     4  10  24  43  70 101 132 189 242 293 363 447
#     4  12  25  48  82 106 148 197 254 318 372 458
#     4  10  22  42  61 102 134 184 229 285 355 439
#     4  11  23  41  67  97 146 179 233 293 359 435
#     4  12  29  52  74 114 154 192 256 323 390 440
#     4  10  23  42  68  96 141 176 243 281 357 448
#
# _framework density 21.701924000000002
#
# number of rings (size 3 to 8) (size 9 to 14) (size 15 to 20)
#    0.000    1.143    2.857    1.714   12.000    1.143 
#    0.000    0.000    0.000    0.000    0.000    0.000 
#    0.000    0.000    0.000    0.000    0.000    0.000 
#
# Total GULP energy -77968.362604 kJ/mol
# GULP energy per Si atom -5569.168757 kJ/mol
# Density = 2.165253 g / cm^3
# Si number density = 21.701924 Si / 1000 Ang^3
#
#
#
# Elastic Constant Matrix: (Units=GPa)
#
#
# Indices 1 2 3 4 5 6 
#
# 1 107.9184 24.1060 46.4991 0.0000 -17.5081 0.0000
# 2 24.1060 83.0380 38.9463 0.0000 9.5080 0.0000
# 3 46.4991 38.9463 107.0350 0.0000 -17.7351 0.0000
# 4 0.0000 0.0000 0.0000 45.4739 0.0000 22.0017
# 5 -17.5081 9.5080 -17.7351 0.0000 40.9798 0.0000
# 6 0.0000 0.0000 0.0000 22.0017 0.0000 40.1254
#
#
#
# Elastic Compliance Matrix: (Units=1/GPa)
#
#
# Indices 1 2 3 4 5 6 
#
# 1 0.012028 -0.002186 -0.003764 0.000000 0.004017 0.000000
# 2 -0.002186 0.016482 -0.006287 0.000000 -0.007479 0.000000
# 3 -0.003764 -0.006287 0.014264 0.000000 0.006023 0.000000
# 4 0.000000 0.000000 0.000000 0.029931 0.000000 -0.016412
# 5 0.004017 -0.007479 0.006023 0.000000 0.030461 0.000000
# 6 0.000000 0.000000 0.000000 -0.016412 0.000000 0.033921
#
#
# Mechanical properties :
#
#
# Convention : Reuss Voigt Hill
#
# Bulk Modulus (GPa) = 54.64631 57.45493 56.05062
# Shear Modulus (GPa) = 29.82197 37.87849 33.85023
#
# Velocity S-wave (km/s) = 3.71099 4.18233 3.95369
# Velocity P-wave (km/s) = 6.60280 7.06077 6.83563
#
# Compressibility (1/GPa) = 0.01829950
#
# Stress axis : x y z
#
# Youngs Moduli (GPa) = 83.13760 60.67104 70.10823
#
# Poissons Ratio (x) = 0.13264 0.26391
# Poissons Ratio (y) = 0.18176 0.44076
# Poissons Ratio (z) = 0.31296 0.38143
#
# Static dielectric constant tensor:
#      x y z
#    x 1.771450 0.000000 -0.032930 
#    y 0.000000 2.142430 0.000000 
#    z -0.032930 0.000000 1.889030 
# 
# From -- ./inp_files/7071.got.cif
#   From: 2010.05.17/outbox.cif.g08.bks.cpg/sg4_4_cif.got.tgz:7071.got - 2010.06.03 18:43:04.
