data_PCOD9116991
_publ_section_title
;
Structure prediction by ZEFSAII (Michael W. Deem and Ramdas Pophale) SiO2 
 PCOD9116991
Probable space group: P 21
;
_chemical_formula_sum "Si O2"
_cell_formula_units_Z 16
_cell_length_a 5.682147
_cell_length_b 15.140011
_cell_length_c 7.571665
_cell_angle_alpha 90.000000
_cell_angle_beta 103.795306
_cell_angle_gamma 90.000000
_cell_volume 632.583804
_symmetry_space_group_name_H-M "P 21"
_symmetry_group_IT_number 4
_symmetry_cell_setting 'monoclinic'
loop_
_space_group_symop_operation_xyz
x,y,z
-x,1/2+y,-z
loop_
_atom_site_type_symbol
_atom_site_label
_atom_site_fract_x
_atom_site_fract_y
_atom_site_fract_z
Si Si1 0.391359 0.103140 0.869330
Si Si2 0.365038 0.240248 0.378803
Si Si3 0.865468 0.942156 0.190973
Si Si4 0.527191 0.054163 0.301151
Si Si5 0.305720 0.883650 0.438039
Si Si6 0.120537 0.520988 0.176329
Si Si7 0.511306 0.795175 0.003139
Si Si8 0.942312 0.343392 0.260123
O O1 0.612252 0.063349 0.791109
O O2 0.111894 0.073584 0.787369
O O3 0.452781 0.072943 0.083455
O O4 0.421608 0.208625 0.875063
O O5 0.473492 0.143155 0.396386
O O6 0.506651 0.304333 0.536335
O O7 0.398699 0.271563 0.179720
O O8 0.081013 0.257795 0.358209
O O9 0.054968 0.870666 0.291939
O O10 0.796479 0.013521 0.328322
O O11 0.633417 0.884584 0.092326
O O12 0.950123 0.998256 0.039058
O O13 0.392080 0.975202 0.374358
O O14 0.237301 0.885722 0.630558
O O15 0.128390 0.422805 0.259656
O O16 0.223984 0.813285 0.932087
#
# Coordination Sequence:
#
# PCOD9116991 Si02
#       8
#     2   2   2   2   2   2   2   2
#     4  10  23  40  69 109 136 180 235 294 353 419
#     4  10  23  43  69 100 134 183 234 282 353 425
#     4  11  22  43  72  99 134 179 233 292 352 414
#     4  10  22  42  68  98 136 183 233 282 351 421
#     4  11  24  42  70  98 137 182 232 288 349 417
#     4  11  22  41  70 101 138 182 234 288 352 420
#     4  10  23  40  69 104 137 179 234 293 352 419
#     4  11  23  43  69  95 138 186 231 285 350 425
#
# _framework density 25.293092000000001
#
# number of rings (size 3 to 8) (size 9 to 14) (size 15 to 20)
#    0.000    1.500    2.500    2.250    5.250    2.000 
#    0.000    5.000    0.000    0.000    0.000    0.000 
#    0.000    0.000    0.000    0.000    0.000    0.000 
#
# Total GULP energy -89455.346187 kJ/mol
# GULP energy per Si atom -5590.959137 kJ/mol
# Density = 2.523552 g / cm^3
# Si number density = 25.293092 Si / 1000 Ang^3
#
#
#
# Elastic Constant Matrix: (Units=GPa)
#
#
# Indices 1 2 3 4 5 6 
#
# 1 113.5658 57.0534 29.9866 0.0000 9.2742 0.0000
# 2 57.0534 157.1889 45.5895 0.0000 -3.0119 0.0000
# 3 29.9866 45.5895 41.5440 0.0000 15.3628 0.0000
# 4 0.0000 0.0000 0.0000 34.5545 0.0000 -7.5367
# 5 9.2742 -3.0119 15.3628 0.0000 38.4722 0.0000
# 6 0.0000 0.0000 0.0000 -7.5367 0.0000 26.7460
#
#
#
# Elastic Compliance Matrix: (Units=1/GPa)
#
#
# Indices 1 2 3 4 5 6 
#
# 1 0.011596 -0.002810 -0.004894 0.000000 -0.001061 0.000000
# 2 -0.002810 0.011194 -0.012707 0.000000 0.006628 0.000000
# 3 -0.004894 -0.012707 0.048666 0.000000 -0.019248 0.000000
# 4 0.000000 0.000000 0.000000 0.030835 0.000000 0.008689
# 5 -0.001061 0.006628 -0.019248 0.000000 0.034454 0.000000
# 6 0.000000 0.000000 0.000000 0.008689 0.000000 0.039837
#
#
# Mechanical properties :
#
#
# Convention : Reuss Voigt Hill
#
# Bulk Modulus (GPa) = 32.64371 64.17306 48.40839
# Shear Modulus (GPa) = 21.96695 31.93250 26.94972
#
# Velocity S-wave (km/s) = 2.95022 3.55702 3.26774
# Velocity P-wave (km/s) = 4.95371 6.50359 5.78083
#
# Compressibility (1/GPa) = 0.03063377
#
# Stress axis : x y z
#
# Youngs Moduli (GPa) = 86.23664 89.33412 20.54831
#
# Poissons Ratio (x) = 0.25100 0.10057
# Poissons Ratio (y) = 0.24230 0.26110
# Poissons Ratio (z) = 0.42208 1.13516
#
# Static dielectric constant tensor:
#      x y z
#    x 2.117180 0.000000 -0.009650 
#    y 0.000000 1.938040 0.000000 
#    z -0.009650 0.000000 2.018590 
# 
# From -- ./inp_files/1581.got.cif
#   From: 2010.05.17/outbox.cif.g08.bks.cpg/sg4_1_cif.got.tgz:1581.got - 2010.06.03 18:43:04.
