data_PCOD9116167
_publ_section_title
;
Structure prediction by ZEFSAII (Michael W. Deem and Ramdas Pophale) SiO2 
 PCOD9116167
Probable space group: P 21
;
_chemical_formula_sum "Si O2"
_cell_formula_units_Z 16
_cell_length_a 16.247323
_cell_length_b 7.410598
_cell_length_c 14.657321
_cell_angle_alpha 90.000000
_cell_angle_beta 23.740769
_cell_angle_gamma 90.000000
_cell_volume 710.497567
_symmetry_space_group_name_H-M "P 21"
_symmetry_group_IT_number 4
_symmetry_cell_setting 'monoclinic'
loop_
_space_group_symop_operation_xyz
x,y,z
-x,1/2+y,-z
loop_
_atom_site_type_symbol
_atom_site_label
_atom_site_fract_x
_atom_site_fract_y
_atom_site_fract_z
Si Si1 0.431192 0.663740 0.267495
Si Si2 0.068355 0.859326 0.542507
Si Si3 0.851473 0.210574 0.848986
Si Si4 0.720614 0.193752 0.241269
Si Si5 0.512937 0.010710 0.288266
Si Si6 0.546347 0.985314 0.568140
Si Si7 0.122846 0.193293 0.749844
Si Si8 0.229556 0.036708 0.203629
O O1 0.210704 0.743156 0.465736
O O2 0.548506 0.827749 0.198320
O O3 0.440041 0.517367 0.338255
O O4 0.549094 0.594206 0.058827
O O5 0.216110 0.948296 0.316581
O O6 0.911845 0.714937 0.657903
O O7 0.949401 0.028864 0.706766
O O8 0.851933 0.380850 0.781967
O O9 0.983457 0.251715 0.805519
O O10 0.620914 0.159336 0.113571
O O11 0.655404 0.388191 0.266091
O O12 0.629061 0.043650 0.265139
O O13 0.609822 0.163644 0.449405
O O14 0.960891 0.156519 0.993772
O O15 0.276185 0.043496 0.553204
O O16 0.724818 0.842963 0.367874
#
# Coordination Sequence:
#
# PCOD9116167 Si02
#       8
#     2   2   2   2   2   2   2   2
#     4  12  25  43  69 104 136 183 234 289 352 426
#     4  12  26  45  70 101 135 186 235 293 362 421
#     4  11  22  45  71  95 141 180 228 291 357 415
#     4  10  23  42  67  99 139 186 223 293 340 413
#     4  10  21  40  68  98 137 178 225 281 348 413
#     4  11  24  43  65 102 138 181 238 280 351 421
#     4  10  21  41  65  97 134 184 224 282 346 414
#     4  12  26  45  69 102 138 182 235 295 358 427
#
# _framework density 22.519428999999999
#
# number of rings (size 3 to 8) (size 9 to 14) (size 15 to 20)
#    0.000    1.000    3.750    3.750    0.000    5.000 
#    2.250    0.000    0.000    0.000    0.000    0.000 
#    0.000    0.000    0.000    0.000    0.000    0.000 
#
# Total GULP energy -89360.173069 kJ/mol
# GULP energy per Si atom -5585.010817 kJ/mol
# Density = 2.246817 g / cm^3
# Si number density = 22.519429 Si / 1000 Ang^3
#
#
#
# Elastic Constant Matrix: (Units=GPa)
#
#
# Indices 1 2 3 4 5 6 
#
# 1 27.4671 8.9590 8.7101 0.0000 7.2144 0.0000
# 2 8.9590 86.4831 35.8144 0.0000 -0.4250 0.0000
# 3 8.7101 35.8144 128.7013 0.0000 8.4194 0.0000
# 4 0.0000 0.0000 0.0000 36.5603 0.0000 8.2931
# 5 7.2144 -0.4250 8.4194 0.0000 30.5323 0.0000
# 6 0.0000 0.0000 0.0000 8.2931 0.0000 41.7629
#
#
#
# Elastic Compliance Matrix: (Units=1/GPa)
#
#
# Indices 1 2 3 4 5 6 
#
# 1 0.040429 -0.003790 -0.001072 0.000000 -0.009310 0.000000
# 2 -0.003790 0.013468 -0.003628 0.000000 0.002083 0.000000
# 3 -0.001072 -0.003628 0.009001 0.000000 -0.002279 0.000000
# 4 0.000000 0.000000 0.000000 0.028642 0.000000 -0.005688
# 5 -0.009310 0.002083 -0.002279 0.000000 0.035610 0.000000
# 6 0.000000 0.000000 0.000000 -0.005688 0.000000 0.025074
#
#
# Mechanical properties :
#
#
# Convention : Reuss Voigt Hill
#
# Bulk Modulus (GPa) = 21.77790 38.84652 30.31221
# Shear Modulus (GPa) = 27.09888 34.38229 30.74058
#
# Velocity S-wave (km/s) = 3.47270 3.91165 3.69869
# Velocity P-wave (km/s) = 5.07654 6.13913 5.63295
#
# Compressibility (1/GPa) = 0.04591812
#
# Stress axis : x y z
#
# Youngs Moduli (GPa) = 24.73494 74.24969 111.09764
#
# Poissons Ratio (x) = 0.28139 0.11915
# Poissons Ratio (y) = 0.09374 0.40302
# Poissons Ratio (z) = 0.02653 0.26935
#
# Static dielectric constant tensor:
#      x y z
#    x 1.841600 0.000000 0.035880 
#    y 0.000000 1.872510 0.000000 
#    z 0.035880 0.000000 1.893040 
# 
# From -- ./inp_files/3456.got.cif
#   From: 2010.05.17/outbox.cif.g08.bks.cpg/sg4_2_cif.got.tgz:3456.got - 2010.06.03 18:43:04.
