data_PCOD9116930
_publ_section_title
;
Structure prediction by ZEFSAII (Michael W. Deem and Ramdas Pophale) SiO2 
 PCOD9116930
Probable space group: P 21
;
_chemical_formula_sum "Si O2"
_cell_formula_units_Z 14
_cell_length_a 11.219026
_cell_length_b 11.398107
_cell_length_c 12.769747
_cell_angle_alpha 90.000000
_cell_angle_beta 22.556449
_cell_angle_gamma 90.000000
_cell_volume 626.385051
_symmetry_space_group_name_H-M "P 21"
_symmetry_group_IT_number 4
_symmetry_cell_setting 'monoclinic'
loop_
_space_group_symop_operation_xyz
x,y,z
-x,1/2+y,-z
loop_
_atom_site_type_symbol
_atom_site_label
_atom_site_fract_x
_atom_site_fract_y
_atom_site_fract_z
Si Si1 0.476258 0.059530 0.923732
Si Si2 0.622430 0.410604 0.181508
Si Si3 0.717156 0.935932 0.263620
Si Si4 0.548835 0.645803 0.644668
Si Si5 0.220655 0.622125 0.519314
Si Si6 0.208232 0.549234 0.111788
Si Si7 0.945679 0.336768 0.203124
O O1 0.593658 0.151993 0.739075
O O2 0.687020 0.058527 0.854201
O O3 0.474916 0.937143 0.859999
O O4 0.119428 0.081459 0.241411
O O5 0.537496 0.280889 0.283680
O O6 0.432389 0.516050 0.390654
O O7 0.986744 0.431370 0.902014
O O8 0.378455 0.893342 0.572358
O O9 0.661130 0.065819 0.261466
O O10 0.819685 0.848566 0.084276
O O11 0.910905 0.629899 0.326473
O O12 0.482273 0.589279 0.812424
O O13 0.150096 0.716194 0.665366
O O14 0.091819 0.420016 0.174256
#
# Coordination Sequence:
#
# PCOD9116930 Si02
#       7
#     2   2   2   2   2   2   2
#     4  10  23  39  62  95 124 163 210 258 318 374
#     4  10  26  40  64  98 127 166 211 264 316 377
#     4  10  23  40  65  93 122 169 206 256 317 374
#     4  10  23  41  64  91 129 163 209 260 315 375
#     4  10  23  40  59  96 122 161 211 256 317 367
#     4  10  22  42  63  91 124 165 211 252 318 378
#     4  10  22  42  63  90 122 167 208 258 311 377
#
# _framework density 22.350469
#
# number of rings (size 3 to 8) (size 9 to 14) (size 15 to 20)
#    0.857    1.143    0.000    1.714    6.000    2.286 
#    2.571    0.000    0.000    0.000    0.000    0.000 
#    0.000    0.000    0.000    0.000    0.000    0.000 
#
# Total GULP energy -78191.686637 kJ/mol
# GULP energy per Si atom -5585.120474 kJ/mol
# Density = 2.229960 g / cm^3
# Si number density = 22.350469 Si / 1000 Ang^3
#
#
#
# Elastic Constant Matrix: (Units=GPa)
#
#
# Indices 1 2 3 4 5 6 
#
# 1 77.2622 11.6096 -8.5526 0.0000 -10.4693 0.0000
# 2 11.6096 78.4850 -13.3291 0.0000 -10.6288 0.0000
# 3 -8.5526 -13.3291 77.9617 0.0000 -1.8834 0.0000
# 4 0.0000 0.0000 0.0000 20.3846 0.0000 2.9406
# 5 -10.4693 -10.6288 -1.8834 0.0000 33.0757 0.0000
# 6 0.0000 0.0000 0.0000 2.9406 0.0000 5.4737
#
#
#
# Elastic Compliance Matrix: (Units=1/GPa)
#
#
# Indices 1 2 3 4 5 6 
#
# 1 0.013837 -0.001260 0.001400 0.000000 0.004055 0.000000
# 2 -0.001260 0.013893 0.002339 0.000000 0.004199 0.000000
# 3 0.001400 0.002339 0.013428 0.000000 0.001959 0.000000
# 4 0.000000 0.000000 0.000000 0.053178 0.000000 -0.028568
# 5 0.004055 0.004199 0.001959 0.000000 0.032978 0.000000
# 6 0.000000 0.000000 0.000000 -0.028568 0.000000 0.198038
#
#
# Mechanical properties :
#
#
# Convention : Reuss Voigt Hill
#
# Bulk Modulus (GPa) = 21.68428 23.68494 22.68461
# Shear Modulus (GPa) = 14.89137 28.05223 21.47180
#
# Velocity S-wave (km/s) = 2.58401 3.54659 3.10286
# Velocity P-wave (km/s) = 4.31577 5.23366 4.79672
#
# Compressibility (1/GPa) = 0.04611635
#
# Stress axis : x y z
#
# Youngs Moduli (GPa) = 72.27167 71.97630 74.47336
#
# Poissons Ratio (x) = 0.09068 -0.10430
# Poissons Ratio (y) = 0.09105 -0.17416
# Poissons Ratio (z) = -0.10122 -0.16832
#
# Static dielectric constant tensor:
#      x y z
#    x 1.860700 0.000000 0.059510 
#    y 0.000000 1.828850 0.000000 
#    z 0.059510 0.000000 1.786440 
# 
# From -- ./inp_files/2695.got.cif
#   From: 2010.05.17/outbox.cif.g08.bks.cpg/sg4_2_cif.got.tgz:2695.got - 2010.06.03 18:43:04.
