data_PCOD9116211
_publ_section_title
;
Structure prediction by ZEFSAII (Michael W. Deem and Ramdas Pophale) SiO2 
 PCOD9116211
Probable space group: P 21
;
_chemical_formula_sum "Si O2"
_cell_formula_units_Z 16
_cell_length_a 11.764958
_cell_length_b 11.202188
_cell_length_c 5.237535
_cell_angle_alpha 90.000000
_cell_angle_beta 79.032961
_cell_angle_gamma 90.000000
_cell_volume 677.665291
_symmetry_space_group_name_H-M "P 21"
_symmetry_group_IT_number 4
_symmetry_cell_setting 'monoclinic'
loop_
_space_group_symop_operation_xyz
x,y,z
-x,1/2+y,-z
loop_
_atom_site_type_symbol
_atom_site_label
_atom_site_fract_x
_atom_site_fract_y
_atom_site_fract_z
Si Si1 0.857605 0.867690 0.266520
Si Si2 0.119043 0.791227 0.209794
Si Si3 0.521235 0.227757 0.470713
Si Si4 0.320508 0.208808 0.911725
Si Si5 0.249026 0.858249 0.646736
Si Si6 0.797659 0.020686 0.791806
Si Si7 0.383462 0.030719 0.250189
Si Si8 0.570187 0.919372 0.833689
O O1 0.769695 0.755734 0.259024
O O2 0.840861 0.939538 0.536655
O O3 0.986893 0.818092 0.200049
O O4 0.830541 0.958366 0.046136
O O5 0.151876 0.843181 0.472453
O O6 0.146758 0.651087 0.219529
O O7 0.197653 0.847989 0.950656
O O8 0.447210 0.185576 0.741526
O O9 0.656331 0.251905 0.423575
O O10 0.479614 0.128236 0.289204
O O11 0.467877 0.357888 0.413132
O O12 0.292775 0.098223 0.104689
O O13 0.345676 0.320882 0.080558
O O14 0.318486 0.975531 0.521094
O O15 0.658472 0.029231 0.798805
O O16 0.455749 0.935643 0.052894
#
# Coordination Sequence:
#
# PCOD9116211 Si02
#       8
#     2   2   2   2   2   2   2   2
#     4  11  25  51  73 103 143 188 256 295 349 441
#     4  12  28  49  73 107 145 189 246 303 364 427
#     4  11  23  41  67 102 144 188 239 290 366 451
#     4  10  23  42  68 104 138 193 240 296 356 444
#     4  12  27  46  69 109 152 187 238 308 362 439
#     4  11  24  46  78 103 137 199 238 298 365 429
#     4  11  25  40  70 107 149 191 229 308 382 424
#     4  10  21  41  64 103 146 187 238 292 360 449
#
# _framework density 23.610475999999998
#
# number of rings (size 3 to 8) (size 9 to 14) (size 15 to 20)
#    0.000    1.000    2.500    3.000    7.000    2.000 
#    2.250    0.000    0.000    0.000    0.000    0.000 
#    0.000    0.000    0.000    0.000    0.000    0.000 
#
# Total GULP energy -89451.142487 kJ/mol
# GULP energy per Si atom -5590.696405 kJ/mol
# Density = 2.355674 g / cm^3
# Si number density = 23.610476 Si / 1000 Ang^3
#
#
#
# Elastic Constant Matrix: (Units=GPa)
#
#
# Indices 1 2 3 4 5 6 
#
# 1 113.7363 31.3649 14.9209 0.0000 -7.1831 0.0000
# 2 31.3649 87.9464 35.9593 0.0000 -5.7971 0.0000
# 3 14.9209 35.9593 125.1326 0.0000 -4.8266 0.0000
# 4 0.0000 0.0000 0.0000 38.6491 0.0000 9.0347
# 5 -7.1831 -5.7971 -4.8266 0.0000 31.9363 0.0000
# 6 0.0000 0.0000 0.0000 9.0347 0.0000 31.3911
#
#
#
# Elastic Compliance Matrix: (Units=1/GPa)
#
#
# Indices 1 2 3 4 5 6 
#
# 1 0.009833 -0.003341 -0.000151 0.000000 0.001582 0.000000
# 2 -0.003341 0.014122 -0.003611 0.000000 0.001266 0.000000
# 3 -0.000151 -0.003611 0.009074 0.000000 0.000682 0.000000
# 4 0.000000 0.000000 0.000000 0.027740 0.000000 -0.007984
# 5 0.001582 0.001266 0.000682 0.000000 0.032001 0.000000
# 6 0.000000 0.000000 0.000000 -0.007984 0.000000 0.034154
#
#
# Mechanical properties :
#
#
# Convention : Reuss Voigt Hill
#
# Bulk Modulus (GPa) = 53.12804 54.58950 53.85877
# Shear Modulus (GPa) = 33.92026 36.70001 35.31014
#
# Velocity S-wave (km/s) = 3.79444 3.94686 3.87140
# Velocity P-wave (km/s) = 6.46125 6.62883 6.54558
#
# Compressibility (1/GPa) = 0.01882245
#
# Stress axis : x y z
#
# Youngs Moduli (GPa) = 101.69494 70.81201 110.21009
#
# Poissons Ratio (x) = 0.23656 0.01670
# Poissons Ratio (y) = 0.33973 0.39797
# Poissons Ratio (z) = 0.01541 0.25570
#
# Static dielectric constant tensor:
#      x y z
#    x 1.873870 0.000000 0.019220 
#    y 0.000000 2.003740 0.000000 
#    z 0.019220 0.000000 1.910460 
# 
# From -- ./inp_files/3066.got.cif
#   From: 2010.05.17/outbox.cif.g08.bks.cpg/sg4_2_cif.got.tgz:3066.got - 2010.06.03 18:43:04.
