data_PCOD9116809
_publ_section_title
;
Structure prediction by ZEFSAII (Michael W. Deem and Ramdas Pophale) SiO2 
 PCOD9116809
Probable space group: P 21
;
_chemical_formula_sum "Si O2"
_cell_formula_units_Z 16
_cell_length_a 8.804885
_cell_length_b 7.428156
_cell_length_c 11.099846
_cell_angle_alpha 90.000000
_cell_angle_beta 59.751798
_cell_angle_gamma 90.000000
_cell_volume 627.134446
_symmetry_space_group_name_H-M "P 21"
_symmetry_group_IT_number 4
_symmetry_cell_setting 'monoclinic'
loop_
_space_group_symop_operation_xyz
x,y,z
-x,1/2+y,-z
loop_
_atom_site_type_symbol
_atom_site_label
_atom_site_fract_x
_atom_site_fract_y
_atom_site_fract_z
Si Si1 0.280245 0.772370 0.919979
Si Si2 0.767086 0.825098 0.211796
Si Si3 0.379120 0.954381 0.647444
Si Si4 0.025318 0.438234 0.073389
Si Si5 0.991017 0.123462 0.266168
Si Si6 0.238111 0.574492 0.408004
Si Si7 0.627304 0.432922 0.629233
Si Si8 0.674691 0.745432 0.775672
O O1 0.349220 0.790387 0.752060
O O2 0.474131 0.774841 0.902335
O O3 0.140261 0.932700 0.954245
O O4 0.152029 0.614791 0.023078
O O5 0.741936 0.632691 0.284691
O O6 0.576333 0.904321 0.263433
O O7 0.884996 0.969201 0.236750
O O8 0.847074 0.803970 0.048878
O O9 0.031401 0.823851 0.785826
O O10 0.578931 0.020514 0.596310
O O11 0.358679 0.902157 0.518341
O O12 0.202744 0.124193 0.188245
O O13 0.915007 0.093527 0.431972
O O14 0.266258 0.775495 0.347809
O O15 0.232744 0.431793 0.301453
O O16 0.679920 0.627584 0.651413
#
# Coordination Sequence:
#
# PCOD9116809 Si02
#       8
#     2   2   2   2   2   2   2   2
#     4  11  24  47  71 107 144 196 253 311 365 432
#     4  11  23  43  74 110 144 192 256 312 374 431
#     4  10  22  40  79 113 145 188 248 325 372 435
#     4  12  23  44  73  98 146 186 258 308 341 452
#     4  12  25  46  74 109 153 196 246 300 388 455
#     4  10  24  42  72 111 147 192 245 303 380 448
#     4  11  21  42  75 107 148 188 250 313 373 442
#     4  11  26  48  72 109 161 192 240 312 383 463
#
# _framework density 25.512872999999999
#
# number of rings (size 3 to 8) (size 9 to 14) (size 15 to 20)
#    0.000    1.000    3.750    2.250    7.000    0.000 
#    2.250    1.250    0.000    0.000    0.000    0.000 
#    0.000    0.000    0.000    0.000    0.000    0.000 
#
# Total GULP energy -89100.108283 kJ/mol
# GULP energy per Si atom -5568.756768 kJ/mol
# Density = 2.545480 g / cm^3
# Si number density = 25.512873 Si / 1000 Ang^3
#
#
#
# Elastic Constant Matrix: (Units=GPa)
#
#
# Indices 1 2 3 4 5 6 
#
# 1 75.7018 9.8658 14.5515 0.0000 -24.8080 0.0000
# 2 9.8658 146.0686 12.0306 0.0000 -9.2310 0.0000
# 3 14.5515 12.0306 90.4670 0.0000 -29.4762 0.0000
# 4 0.0000 0.0000 0.0000 52.2600 0.0000 -7.5561
# 5 -24.8080 -9.2310 -29.4762 0.0000 30.6295 0.0000
# 6 0.0000 0.0000 0.0000 -7.5561 0.0000 24.7379
#
#
#
# Elastic Compliance Matrix: (Units=1/GPa)
#
#
# Indices 1 2 3 4 5 6 
#
# 1 0.018466 -0.000369 0.002791 0.000000 0.017531 0.000000
# 2 -0.000369 0.006994 -0.000410 0.000000 0.001414 0.000000
# 3 0.002791 -0.000410 0.016543 0.000000 0.018057 0.000000
# 4 0.000000 0.000000 0.000000 0.020019 0.000000 0.006115
# 5 0.017531 0.001414 0.018057 0.000000 0.064651 0.000000
# 6 0.000000 0.000000 0.000000 0.006115 0.000000 0.042292
#
#
# Mechanical properties :
#
#
# Convention : Reuss Voigt Hill
#
# Bulk Modulus (GPa) = 21.72646 42.79256 32.25951
# Shear Modulus (GPa) = 27.73411 39.91145 33.82278
#
# Velocity S-wave (km/s) = 3.30064 3.95950 3.64499
# Velocity P-wave (km/s) = 4.80208 6.14108 5.51239
#
# Compressibility (1/GPa) = 0.04602683
#
# Stress axis : x y z
#
# Youngs Moduli (GPa) = 54.15214 142.97609 60.44994
#
# Poissons Ratio (x) = 0.05279 -0.16871
# Poissons Ratio (y) = 0.01999 0.02478
# Poissons Ratio (z) = -0.15113 0.05860
#
# Static dielectric constant tensor:
#      x y z
#    x 2.136680 0.000000 -0.092760 
#    y 0.000000 2.053330 0.000000 
#    z -0.092760 0.000000 2.097500 
# 
# From -- ./inp_files/13668.got.cif
#   From: 2010.05.17/outbox.cif.g08.bks.cpg/sg4_7_cif.got.tgz:13668.got - 2010.06.03 18:43:04.
