data_PCOD9116271
_publ_section_title
;
Structure prediction by ZEFSAII (Michael W. Deem and Ramdas Pophale) SiO2 
 PCOD9116271
Probable space group: P 21
;
_chemical_formula_sum "Si O2"
_cell_formula_units_Z 16
_cell_length_a 18.843188
_cell_length_b 5.009646
_cell_length_c 23.373909
_cell_angle_alpha 90.000000
_cell_angle_beta 163.911762
_cell_angle_gamma 90.000000
_cell_volume 611.443855
_symmetry_space_group_name_H-M "P 21"
_symmetry_group_IT_number 4
_symmetry_cell_setting 'monoclinic'
loop_
_space_group_symop_operation_xyz
x,y,z
-x,1/2+y,-z
loop_
_atom_site_type_symbol
_atom_site_label
_atom_site_fract_x
_atom_site_fract_y
_atom_site_fract_z
Si Si1 0.150284 0.836610 0.633031
Si Si2 0.449691 0.510175 0.658452
Si Si3 0.600873 0.380301 0.282778
Si Si4 0.791895 0.231758 0.077173
Si Si5 0.889300 0.229944 0.702743
Si Si6 0.828794 0.201004 0.878076
Si Si7 0.383370 0.534643 0.400281
Si Si8 0.044800 0.692971 0.675231
O O1 0.359753 0.745466 0.748830
O O2 0.916188 0.639328 0.435233
O O3 0.182531 0.807450 0.725644
O O4 0.536151 0.713747 0.774338
O O5 0.348396 0.666416 0.523642
O O6 0.673314 0.312167 0.811556
O O7 0.195606 0.365048 0.486627
O O8 0.884628 0.436802 0.528656
O O9 0.444155 0.645179 0.144995
O O10 0.887194 0.531271 0.144474
O O11 0.765894 0.163712 0.124627
O O12 0.019669 0.031541 0.233859
O O13 0.824703 0.145016 0.717000
O O14 0.630925 0.144266 0.674325
O O15 0.016396 0.427841 0.998810
O O16 0.378013 0.216208 0.393453
#
# Coordination Sequence:
#
# PCOD9116271 Si02
#       8
#     2   2   2   2   2   2   2   2
#     4  10  21  41  69 105 136 187 236 283 359 424
#     4  11  24  47  72  97 142 190 236 290 369 416
#     4  11  24  43  73 104 142 189 234 298 354 426
#     4  11  26  42  69 108 137 186 240 287 356 420
#     4  11  25  46  68 101 136 183 244 293 346 434
#     4  12  30  47  68 107 144 184 240 297 361 422
#     4  12  25  46  72  96 135 187 237 290 358 423
#     4  10  23  44  71 100 146 186 233 296 349 435
#
# _framework density 26.167567999999999
#
# number of rings (size 3 to 8) (size 9 to 14) (size 15 to 20)
#    0.000    1.000    3.750    1.500    7.000    0.000 
#    0.000    7.500    0.000    0.000    0.000    0.000 
#    0.000    0.000    0.000    0.000    0.000    0.000 
#
# Total GULP energy -89541.443854 kJ/mol
# GULP energy per Si atom -5596.340241 kJ/mol
# Density = 2.610801 g / cm^3
# Si number density = 26.167568 Si / 1000 Ang^3
#
#
#
# Elastic Constant Matrix: (Units=GPa)
#
#
# Indices 1 2 3 4 5 6 
#
# 1 168.2628 22.7116 19.4754 0.0000 -13.7206 0.0000
# 2 22.7116 66.7938 15.4480 0.0000 -2.6006 0.0000
# 3 19.4754 15.4480 54.6846 0.0000 -17.2800 0.0000
# 4 0.0000 0.0000 0.0000 29.9172 0.0000 6.3740
# 5 -13.7206 -2.6006 -17.2800 0.0000 34.6270 0.0000
# 6 0.0000 0.0000 0.0000 6.3740 0.0000 41.2787
#
#
#
# Elastic Compliance Matrix: (Units=1/GPa)
#
#
# Indices 1 2 3 4 5 6 
#
# 1 0.006482 -0.001854 -0.001208 0.000000 0.001827 0.000000
# 2 -0.001854 0.016594 -0.004590 0.000000 -0.001779 0.000000
# 3 -0.001208 -0.004590 0.023451 0.000000 0.010880 0.000000
# 4 0.000000 0.000000 0.000000 0.034563 0.000000 -0.005337
# 5 0.001827 -0.001779 0.010880 0.000000 0.034899 0.000000
# 6 0.000000 0.000000 0.000000 -0.005337 0.000000 0.025050
#
#
# Mechanical properties :
#
#
# Convention : Reuss Voigt Hill
#
# Bulk Modulus (GPa) = 32.02516 45.00127 38.51321
# Shear Modulus (GPa) = 29.98533 36.63834 33.31184
#
# Velocity S-wave (km/s) = 3.38878 3.74591 3.57181
# Velocity P-wave (km/s) = 5.25137 5.99531 5.63563
#
# Compressibility (1/GPa) = 0.03122545
#
# Stress axis : x y z
#
# Youngs Moduli (GPa) = 154.27328 60.26297 42.64176
#
# Poissons Ratio (x) = 0.11170 0.05150
# Poissons Ratio (y) = 0.28596 0.19571
# Poissons Ratio (z) = 0.18632 0.27658
#
# Static dielectric constant tensor:
#      x y z
#    x 2.048970 0.000000 0.021550 
#    y 0.000000 2.099950 0.000000 
#    z 0.021550 0.000000 2.112370 
# 
# From -- ./inp_files/15889.got.cif
#   From: 2010.05.17/outbox.cif.g08.bks.cpg/sg4_8_cif.got.tgz:15889.got - 2010.06.03 18:43:04.
