data_PCOD9116734
_publ_section_title
;
Structure prediction by ZEFSAII (Michael W. Deem and Ramdas Pophale) SiO2 
 PCOD9116734
Probable space group: P 21
;
_chemical_formula_sum "Si O2"
_cell_formula_units_Z 14
_cell_length_a 9.413763
_cell_length_b 14.054275
_cell_length_c 5.032778
_cell_angle_alpha 90.000000
_cell_angle_beta 107.409727
_cell_angle_gamma 90.000000
_cell_volume 635.351612
_symmetry_space_group_name_H-M "P 21"
_symmetry_group_IT_number 4
_symmetry_cell_setting 'monoclinic'
loop_
_space_group_symop_operation_xyz
x,y,z
-x,1/2+y,-z
loop_
_atom_site_type_symbol
_atom_site_label
_atom_site_fract_x
_atom_site_fract_y
_atom_site_fract_z
Si Si1 0.411793 0.717870 0.468489
Si Si2 0.018013 0.816430 0.483114
Si Si3 0.671095 0.335595 0.078864
Si Si4 0.115193 0.627426 0.238125
Si Si5 0.100205 0.512210 0.739354
Si Si6 0.386434 0.413800 0.049554
Si Si7 0.301026 0.294842 0.504512
O O1 0.384886 0.751254 0.754288
O O2 0.295464 0.635745 0.339253
O O3 0.073919 0.548912 0.430679
O O4 0.587578 0.709419 0.511974
O O5 0.157436 0.843558 0.746823
O O6 0.059068 0.728288 0.316473
O O7 0.875623 0.786578 0.580591
O O8 0.974888 0.909051 0.285740
O O9 0.562909 0.422788 0.099881
O O10 0.642616 0.302905 0.761751
O O11 0.055098 0.592329 0.923897
O O12 0.275635 0.495190 0.892401
O O13 0.345604 0.378250 0.321104
O O14 0.343912 0.327789 0.824520
#
# Coordination Sequence:
#
# PCOD9116734 Si02
#       7
#     2   2   2   2   2   2   2
#     4   9  18  35  56  83 112 150 199 240 287 361
#     4  10  22  40  64  92 126 160 198 258 312 362
#     4   9  18  33  60  85 111 152 192 237 300 353
#     4  11  23  38  61  89 121 163 208 253 308 366
#     4  11  23  38  61  89 121 163 208 253 308 366
#     4   9  18  35  56  83 112 150 199 240 287 361
#     4   9  18  33  60  85 111 152 192 237 300 353
#
# _framework density 22.035041
#
# number of rings (size 3 to 8) (size 9 to 14) (size 15 to 20)
#    0.000    2.286    0.000    3.429    0.000   10.286 
#    0.000    1.429    0.000   17.143    0.000    0.000 
#    0.000    0.000    0.000    0.000    0.000    0.000 
#
# Total GULP energy -78085.885539 kJ/mol
# GULP energy per Si atom -5577.563253 kJ/mol
# Density = 2.198489 g / cm^3
# Si number density = 22.035041 Si / 1000 Ang^3
#
#
#
# Elastic Constant Matrix: (Units=GPa)
#
#
# Indices 1 2 3 4 5 6 
#
# 1 145.7302 20.4988 18.6236 0.0000 5.1854 0.0000
# 2 20.4988 57.8848 -0.8728 0.0000 -2.9266 0.0000
# 3 18.6236 -0.8728 68.8802 0.0000 1.1517 0.0000
# 4 0.0000 0.0000 0.0000 21.7665 0.0000 9.4751
# 5 5.1854 -2.9266 1.1517 0.0000 25.5754 0.0000
# 6 0.0000 0.0000 0.0000 9.4751 0.0000 32.5325
#
#
#
# Elastic Compliance Matrix: (Units=1/GPa)
#
#
# Indices 1 2 3 4 5 6 
#
# 1 0.007582 -0.002805 -0.002056 0.000000 -0.001766 0.000000
# 2 -0.002805 0.018417 0.000948 0.000000 0.002634 0.000000
# 3 -0.002056 0.000948 0.015088 0.000000 -0.000154 0.000000
# 4 0.000000 0.000000 0.000000 0.052613 0.000000 -0.015324
# 5 -0.001766 0.002634 -0.000154 0.000000 0.039766 0.000000
# 6 0.000000 0.000000 0.000000 -0.015324 0.000000 0.035202
#
#
# Mechanical properties :
#
#
# Convention : Reuss Voigt Hill
#
# Bulk Modulus (GPa) = 30.06611 38.77716 34.42164
# Shear Modulus (GPa) = 26.65507 31.59125 29.12316
#
# Velocity S-wave (km/s) = 3.48180 3.79051 3.63943
# Velocity P-wave (km/s) = 5.46244 6.06576 5.77199
#
# Compressibility (1/GPa) = 0.03326003
#
# Stress axis : x y z
#
# Youngs Moduli (GPa) = 131.88800 54.29889 66.27578
#
# Poissons Ratio (x) = 0.15233 0.13627
# Poissons Ratio (y) = 0.36999 -0.06282
# Poissons Ratio (z) = 0.27117 -0.05147
#
# Static dielectric constant tensor:
#      x y z
#    x 1.914970 0.000000 0.007170 
#    y 0.000000 1.828550 0.000000 
#    z 0.007170 0.000000 1.784510 
# 
# From -- ./inp_files/1635.got.cif
#   From: 2010.05.17/outbox.cif.g08.bks.cpg/sg4_1_cif.got.tgz:1635.got - 2010.06.03 18:43:04.
