data_PCOD9116716
_publ_section_title
;
Structure prediction by ZEFSAII (Michael W. Deem and Ramdas Pophale) SiO2 
 PCOD9116716
Probable space group: P 21
;
_chemical_formula_sum "Si O2"
_cell_formula_units_Z 16
_cell_length_a 14.416517
_cell_length_b 9.083692
_cell_length_c 5.035981
_cell_angle_alpha 90.000000
_cell_angle_beta 108.043229
_cell_angle_gamma 90.000000
_cell_volume 627.056327
_symmetry_space_group_name_H-M "P 21"
_symmetry_group_IT_number 4
_symmetry_cell_setting 'monoclinic'
loop_
_space_group_symop_operation_xyz
x,y,z
-x,1/2+y,-z
loop_
_atom_site_type_symbol
_atom_site_label
_atom_site_fract_x
_atom_site_fract_y
_atom_site_fract_z
Si Si1 0.177784 0.726940 0.352843
Si Si2 0.376598 0.427552 0.080406
Si Si3 0.380756 0.698986 0.408786
Si Si4 0.489769 0.437538 0.676369
Si Si5 0.189747 0.041243 0.122204
Si Si6 0.219842 0.221127 0.675149
Si Si7 0.004362 0.350539 0.481323
Si Si8 0.980677 0.108920 0.101697
O O1 0.287455 0.681231 0.517469
O O2 0.095500 0.781299 0.484685
O O3 0.201867 0.872362 0.204549
O O4 0.122053 0.599465 0.138381
O O5 0.468977 0.411480 0.965642
O O6 0.292926 0.343648 0.849246
O O7 0.356001 0.598504 0.129306
O O8 0.404592 0.374914 0.402714
O O9 0.473388 0.610565 0.612138
O O10 0.414553 0.859317 0.347646
O O11 0.224124 0.153911 0.383653
O O12 0.072735 0.065928 0.007461
O O13 0.234598 0.082587 0.882546
O O14 0.111763 0.285052 0.633916
O O15 0.010260 0.510330 0.625028
O O16 0.994125 0.282797 0.176036
#
# Coordination Sequence:
#
# PCOD9116716 Si02
#       8
#     2   2   2   2   2   2   2   2
#     4  11  23  43  65 103 137 188 232 285 343 413
#     4  10  24  44  74 100 137 181 231 278 351 414
#     4  10  26  46  75 103 138 180 229 296 351 419
#     4  10  25  47  72 107 135 178 233 292 354 404
#     4  10  24  39  64 100 144 182 230 283 330 403
#     4  11  21  45  65 104 139 188 229 273 345 407
#     4  10  23  38  66  99 143 189 226 290 326 419
#     4  10  22  40  63  94 145 188 234 279 338 399
#
# _framework density 25.516047
#
# number of rings (size 3 to 8) (size 9 to 14) (size 15 to 20)
#    0.750    1.000    1.250    1.500    7.000    4.000 
#    2.250    0.000    0.000    0.000    0.000    0.000 
#    0.000    0.000    0.000    0.000    0.000    0.000 
#
# Total GULP energy -89230.578783 kJ/mol
# GULP energy per Si atom -5576.911174 kJ/mol
# Density = 2.545797 g / cm^3
# Si number density = 25.516047 Si / 1000 Ang^3
#
#
#
# Elastic Constant Matrix: (Units=GPa)
#
#
# Indices 1 2 3 4 5 6 
#
# 1 72.4856 9.9166 3.5606 0.0000 2.1706 0.0000
# 2 9.9166 63.7789 -0.8466 0.0000 6.9069 0.0000
# 3 3.5606 -0.8466 54.4753 0.0000 -6.0048 0.0000
# 4 0.0000 0.0000 0.0000 30.9585 0.0000 1.8678
# 5 2.1706 6.9069 -6.0048 0.0000 19.8105 0.0000
# 6 0.0000 0.0000 0.0000 1.8678 0.0000 30.6154
#
#
#
# Elastic Compliance Matrix: (Units=1/GPa)
#
#
# Indices 1 2 3 4 5 6 
#
# 1 0.014170 -0.002093 -0.001086 0.000000 -0.001152 0.000000
# 2 -0.002093 0.016611 -0.000226 0.000000 -0.005631 0.000000
# 3 -0.001086 -0.000226 0.019084 0.000000 0.005982 0.000000
# 4 0.000000 0.000000 0.000000 0.032421 0.000000 -0.001978
# 5 -0.001152 -0.005631 0.005982 0.000000 0.054381 0.000000
# 6 0.000000 0.000000 0.000000 -0.001978 0.000000 0.032784
#
#
# Mechanical properties :
#
#
# Convention : Reuss Voigt Hill
#
# Bulk Modulus (GPa) = 23.22525 24.00013 23.61269
# Shear Modulus (GPa) = 26.23140 28.15084 27.19112
#
# Velocity S-wave (km/s) = 3.20978 3.32514 3.26797
# Velocity P-wave (km/s) = 4.78109 4.91614 4.84909
#
# Compressibility (1/GPa) = 0.04305659
#
# Stress axis : x y z
#
# Youngs Moduli (GPa) = 70.57169 60.19979 52.40046
#
# Poissons Ratio (x) = 0.12599 0.05689
# Poissons Ratio (y) = 0.14770 0.01183
# Poissons Ratio (z) = 0.07662 0.01359
#
# Static dielectric constant tensor:
#      x y z
#    x 2.021390 0.000000 0.036050 
#    y 0.000000 2.047590 0.000000 
#    z 0.036050 0.000000 2.023490 
# 
# From -- ./inp_files/3576.got.cif
#   From: 2010.05.17/outbox.cif.g08.bks.cpg/sg4_2_cif.got.tgz:3576.got - 2010.06.03 18:43:04.
