data_PCOD9116103
_publ_section_title
;
Structure prediction by ZEFSAII (Michael W. Deem and Ramdas Pophale) SiO2 
 PCOD9116103
Probable space group: P 21
;
_chemical_formula_sum "Si O2"
_cell_formula_units_Z 14
_cell_length_a 6.773501
_cell_length_b 20.727517
_cell_length_c 5.082801
_cell_angle_alpha 90.000000
_cell_angle_beta 129.787928
_cell_angle_gamma 90.000000
_cell_volume 548.354394
_symmetry_space_group_name_H-M "P 21"
_symmetry_group_IT_number 4
_symmetry_cell_setting 'monoclinic'
loop_
_space_group_symop_operation_xyz
x,y,z
-x,1/2+y,-z
loop_
_atom_site_type_symbol
_atom_site_label
_atom_site_fract_x
_atom_site_fract_y
_atom_site_fract_z
Si Si1 0.099101 0.387910 0.552990
Si Si2 0.801021 0.011810 0.139909
Si Si3 0.250003 0.718286 0.485693
Si Si4 0.239121 0.972237 0.137668
Si Si5 0.013532 0.766951 0.788226
Si Si6 0.655455 0.346757 0.590326
Si Si7 0.607289 0.077220 0.448994
O O1 0.292087 0.439301 0.853347
O O2 0.187955 0.321873 0.480152
O O3 0.910140 0.362309 0.624967
O O4 0.946451 0.434410 0.220232
O O5 0.816527 0.056195 0.410455
O O6 0.074372 0.996812 0.242839
O O7 0.656347 0.048978 0.781449
O O8 0.099944 0.720461 0.630711
O O9 0.438373 0.781477 0.631633
O O10 0.403257 0.653597 0.560715
O O11 0.029943 0.727893 0.073304
O O12 0.439424 0.917721 0.416158
O O13 0.370781 0.035565 0.138039
O O14 0.246535 0.816231 0.052802
#
# Coordination Sequence:
#
# PCOD9116103 Si02
#       7
#     2   2   2   2   2   2   2
#     4   9  16  37  60  87 115 158 198 256 302 350
#     4  11  24  39  57  94 127 154 206 257 304 375
#     4   9  17  33  52  88 114 159 211 239 301 376
#     4  10  21  40  62  89 125 161 205 256 311 358
#     4   8  15  30  57  81 108 157 205 239 291 366
#     4   7  16  31  61  82 112 159 206 238 303 352
#     4  12  25  36  63  93 125 166 201 253 322 369
#
# _framework density 25.530933999999998
#
# number of rings (size 3 to 8) (size 9 to 14) (size 15 to 20)
#    0.857    1.714    1.429    0.857    4.000    0.000 
#    0.000    0.000    0.000   12.000    0.000    0.000 
#    0.000    0.000    0.000    0.000    0.000    0.000 
#
# Total GULP energy -77935.753366 kJ/mol
# GULP energy per Si atom -5566.839526 kJ/mol
# Density = 2.547282 g / cm^3
# Si number density = 25.530934 Si / 1000 Ang^3
#
#
#
# Elastic Constant Matrix: (Units=GPa)
#
#
# Indices 1 2 3 4 5 6 
#
# 1 55.0088 33.1317 29.7718 0.0000 -14.7713 0.0000
# 2 33.1317 89.3988 3.3189 0.0000 -8.6257 0.0000
# 3 29.7718 3.3189 115.8440 0.0000 -29.6653 0.0000
# 4 0.0000 0.0000 0.0000 29.8974 0.0000 -5.8482
# 5 -14.7713 -8.6257 -29.6653 0.0000 38.7718 0.0000
# 6 0.0000 0.0000 0.0000 -5.8482 0.0000 28.2396
#
#
#
# Elastic Compliance Matrix: (Units=1/GPa)
#
#
# Indices 1 2 3 4 5 6 
#
# 1 0.028511 -0.009952 -0.006004 0.000000 0.004054 0.000000
# 2 -0.009952 0.014920 0.002499 0.000000 0.001440 0.000000
# 3 -0.006004 0.002499 0.012014 0.000000 0.007461 0.000000
# 4 0.000000 0.000000 0.000000 0.034860 0.000000 0.007219
# 5 0.004054 0.001440 0.007461 0.000000 0.033365 0.000000
# 6 0.000000 0.000000 0.000000 0.007219 0.000000 0.036906
#
#
# Mechanical properties :
#
#
# Convention : Reuss Voigt Hill
#
# Bulk Modulus (GPa) = 35.04934 43.63293 39.34113
# Shear Modulus (GPa) = 25.38029 32.31703 28.84866
#
# Velocity S-wave (km/s) = 3.15635 3.56167 3.36512
# Velocity P-wave (km/s) = 5.20014 5.83449 5.52642
#
# Compressibility (1/GPa) = 0.02853121
#
# Stress axis : x y z
#
# Youngs Moduli (GPa) = 35.07362 67.02233 83.23372
#
# Poissons Ratio (x) = 0.66704 0.49974
# Poissons Ratio (y) = 0.34907 -0.20800
# Poissons Ratio (z) = 0.21058 -0.16749
#
# Static dielectric constant tensor:
#      x y z
#    x 2.140490 0.000000 0.019990 
#    y 0.000000 2.080830 0.000000 
#    z 0.019990 0.000000 2.096240 
# 
# From -- ./inp_files/2192.got.cif
#   From: 2010.05.17/outbox.cif.g08.bks.cpg/sg4_2_cif.got.tgz:2192.got - 2010.06.03 18:43:04.
