data_PCOD9116686
_publ_section_title
;
Structure prediction by ZEFSAII (Michael W. Deem and Ramdas Pophale) SiO2 
 PCOD9116686
Probable space group: P 21
;
_chemical_formula_sum "Si O2"
_cell_formula_units_Z 14
_cell_length_a 15.054997
_cell_length_b 7.289355
_cell_length_c 7.069851
_cell_angle_alpha 90.000000
_cell_angle_beta 52.798399
_cell_angle_gamma 90.000000
_cell_volume 617.977861
_symmetry_space_group_name_H-M "P 21"
_symmetry_group_IT_number 4
_symmetry_cell_setting 'monoclinic'
loop_
_space_group_symop_operation_xyz
x,y,z
-x,1/2+y,-z
loop_
_atom_site_type_symbol
_atom_site_label
_atom_site_fract_x
_atom_site_fract_y
_atom_site_fract_z
Si Si1 0.494339 0.572120 0.672559
Si Si2 0.036150 0.994799 0.165928
Si Si3 0.704483 0.081861 0.805853
Si Si4 0.532407 0.993307 0.724228
Si Si5 0.933802 0.155314 0.634153
Si Si6 0.337191 0.993507 0.258418
Si Si7 0.882871 0.665324 0.313246
O O1 0.517481 0.777279 0.713335
O O2 0.481357 0.573350 0.466134
O O3 0.595582 0.456523 0.632196
O O4 0.380848 0.517796 0.922877
O O5 0.995865 0.158335 0.352728
O O6 0.928368 0.874755 0.234611
O O7 0.096298 0.847310 0.225798
O O8 0.107992 0.064931 0.899473
O O9 0.706122 0.302629 0.771837
O O10 0.649484 0.018651 0.680192
O O11 0.826492 0.034416 0.724144
O O12 0.433074 0.062222 0.990243
O O13 0.022834 0.080489 0.670078
O O14 0.235644 0.128328 0.437078
#
# Coordination Sequence:
#
# PCOD9116686 Si02
#       7
#     2   2   2   2   2   2   2
#     4  10  22  40  60 100 122 173 213 270 323 391
#     4  10  25  41  68  97 134 171 227 273 334 396
#     4  10  22  40  67  88 130 170 214 267 331 391
#     4  10  22  40  66  93 132 167 221 266 327 391
#     4  10  24  42  66  97 132 176 219 274 340 392
#     4  10  22  42  65  90 131 171 213 271 328 389
#     4  10  25  43  68  97 133 174 225 277 329 406
#
# _framework density 22.654533000000001
#
# number of rings (size 3 to 8) (size 9 to 14) (size 15 to 20)
#    0.857    1.143    0.000    1.714    6.000    6.857 
#    0.000    0.000    0.000    0.000    0.000    0.000 
#    0.000    0.000    0.000    0.000    0.000    0.000 
#
# Total GULP energy -78084.999447 kJ/mol
# GULP energy per Si atom -5577.499960 kJ/mol
# Density = 2.260297 g / cm^3
# Si number density = 22.654533 Si / 1000 Ang^3
#
#
#
# Elastic Constant Matrix: (Units=GPa)
#
#
# Indices 1 2 3 4 5 6 
#
# 1 147.4281 2.7011 62.7644 0.0000 9.1172 0.0000
# 2 2.7011 54.6653 21.2169 0.0000 10.5486 0.0000
# 3 62.7644 21.2169 104.7532 0.0000 32.5549 0.0000
# 4 0.0000 0.0000 0.0000 28.5886 0.0000 7.6022
# 5 9.1172 10.5486 32.5549 0.0000 31.8484 0.0000
# 6 0.0000 0.0000 0.0000 7.6022 0.0000 15.9450
#
#
#
# Elastic Compliance Matrix: (Units=1/GPa)
#
#
# Indices 1 2 3 4 5 6 
#
# 1 0.009659 0.001580 -0.007453 0.000000 0.004330 0.000000
# 2 0.001580 0.020400 -0.004159 0.000000 -0.002957 0.000000
# 3 -0.007453 -0.004159 0.020171 0.000000 -0.017107 0.000000
# 4 0.000000 0.000000 0.000000 0.040058 0.000000 -0.019099
# 5 0.004330 -0.002957 -0.017107 0.000000 0.048625 0.000000
# 6 0.000000 0.000000 0.000000 -0.019099 0.000000 0.071822
#
#
# Mechanical properties :
#
#
# Convention : Reuss Voigt Hill
#
# Bulk Modulus (GPa) = 33.15109 53.35681 43.25395
# Shear Modulus (GPa) = 20.75938 29.95401 25.35669
#
# Velocity S-wave (km/s) = 3.03040 3.64016 3.34919
# Velocity P-wave (km/s) = 5.18744 6.42427 5.83870
#
# Compressibility (1/GPa) = 0.03016492
#
# Stress axis : x y z
#
# Youngs Moduli (GPa) = 103.52750 49.01925 49.57648
#
# Poissons Ratio (x) = -0.07745 0.36950
# Poissons Ratio (y) = -0.16357 0.20621
# Poissons Ratio (z) = 0.77161 0.20389
#
# Static dielectric constant tensor:
#      x y z
#    x 1.842920 0.000000 -0.018600 
#    y 0.000000 1.921740 0.000000 
#    z -0.018600 0.000000 1.823030 
# 
# From -- ./inp_files/3615.got.cif
#   From: 2010.05.17/outbox.cif.g08.bks.cpg/sg4_2_cif.got.tgz:3615.got - 2010.06.03 18:43:04.
