data_PCOD9116018
_publ_section_title
;
Structure prediction by ZEFSAII (Michael W. Deem and Ramdas Pophale) SiO2 
 PCOD9116018
Probable space group: P 21
;
_chemical_formula_sum "Si O2"
_cell_formula_units_Z 16
_cell_length_a 17.331869
_cell_length_b 8.189782
_cell_length_c 18.029143
_cell_angle_alpha 90.000000
_cell_angle_beta 16.267279
_cell_angle_gamma 90.000000
_cell_volume 716.860514
_symmetry_space_group_name_H-M "P 21"
_symmetry_group_IT_number 4
_symmetry_cell_setting 'monoclinic'
loop_
_space_group_symop_operation_xyz
x,y,z
-x,1/2+y,-z
loop_
_atom_site_type_symbol
_atom_site_label
_atom_site_fract_x
_atom_site_fract_y
_atom_site_fract_z
Si Si1 0.963325 0.473440 0.889234
Si Si2 0.326025 0.862994 0.992684
Si Si3 0.484750 0.137459 0.597904
Si Si4 0.688742 0.964979 0.992136
Si Si5 0.078702 0.356874 0.507403
Si Si6 0.710130 0.955016 0.140475
Si Si7 0.281151 0.137451 0.622343
Si Si8 0.905476 0.465378 0.507530
O O1 0.198559 0.611890 0.671602
O O2 0.140285 0.313364 0.745996
O O3 0.821105 0.442190 0.941696
O O4 0.723559 0.511511 0.169511
O O5 0.303802 0.664212 0.006369
O O6 0.174875 0.911499 0.208161
O O7 0.642412 0.911207 0.709746
O O8 0.374685 0.311844 0.726210
O O9 0.453307 0.123319 0.538841
O O10 0.941538 0.910240 0.708306
O O11 0.412184 0.917035 0.204254
O O12 0.685155 0.899548 0.078594
O O13 0.083933 0.161083 0.502748
O O14 0.049431 0.409706 0.449810
O O15 0.485992 0.096667 0.365447
O O16 0.019993 0.016520 0.865837
#
# Coordination Sequence:
#
# PCOD9116018 Si02
#       8
#     2   2   2   2   2   2   2   2
#     4  12  25  44  68  97 132 174 223 271 332 390
#     4  10  21  40  66  90 122 171 217 255 304 397
#     4  12  26  43  62 102 138 163 215 294 335 371
#     4  10  21  40  66  90 123 171 217 255 304 397
#     4  10  21  39  63  92 124 160 211 259 314 380
#     4  12  25  44  68  97 132 175 223 270 333 390
#     4  12  24  43  72  91 127 182 227 261 330 411
#     4  10  21  39  63  93 124 160 211 259 314 380
#
# _framework density 22.319542999999999
#
# number of rings (size 3 to 8) (size 9 to 14) (size 15 to 20)
#    0.000    1.000    1.250    6.000    3.500    0.000 
#    6.750    0.000    0.000    0.000    0.000    0.000 
#    0.000    0.000    0.000    0.000    0.000    0.000 
#
# Total GULP energy -89593.796412 kJ/mol
# GULP energy per Si atom -5599.612276 kJ/mol
# Density = 2.226874 g / cm^3
# Si number density = 22.319543 Si / 1000 Ang^3
#
#
#
# Elastic Constant Matrix: (Units=GPa)
#
#
# Indices 1 2 3 4 5 6 
#
# 1 83.1314 -2.0793 10.9248 0.0000 9.4367 0.0000
# 2 -2.0793 21.9531 4.0905 0.0000 -0.4961 0.0000
# 3 10.9248 4.0905 100.1557 0.0000 1.4492 0.0000
# 4 0.0000 0.0000 0.0000 19.6006 0.0000 -4.1088
# 5 9.4367 -0.4961 1.4492 0.0000 40.3543 0.0000
# 6 0.0000 0.0000 0.0000 -4.1088 0.0000 25.5584
#
#
#
# Elastic Compliance Matrix: (Units=1/GPa)
#
#
# Indices 1 2 3 4 5 6 
#
# 1 0.012572 0.001384 -0.001386 0.000000 -0.002873 0.000000
# 2 0.001384 0.046069 -0.002037 0.000000 0.000316 0.000000
# 3 -0.001386 -0.002037 0.010220 0.000000 -0.000068 0.000000
# 4 0.000000 0.000000 0.000000 0.052798 0.000000 0.008488
# 5 -0.002873 0.000316 -0.000068 0.000000 0.025459 0.000000
# 6 0.000000 0.000000 0.000000 0.008488 0.000000 0.040491
#
#
# Mechanical properties :
#
#
# Convention : Reuss Voigt Hill
#
# Bulk Modulus (GPa) = 15.43617 25.67916 20.55767
# Shear Modulus (GPa) = 23.44317 29.92294 26.68306
#
# Velocity S-wave (km/s) = 3.24442 3.66548 3.46135
# Velocity P-wave (km/s) = 4.57886 5.42628 5.02048
#
# Compressibility (1/GPa) = 0.06478289
#
# Stress axis : x y z
#
# Youngs Moduli (GPa) = 79.54126 21.70634 97.84882
#
# Poissons Ratio (x) = -0.03004 0.13565
# Poissons Ratio (y) = -0.11010 0.19933
# Poissons Ratio (z) = 0.11027 0.04422
#
# Static dielectric constant tensor:
#      x y z
#    x 1.749270 0.000000 -0.003500 
#    y 0.000000 1.880150 0.000000 
#    z -0.003500 0.000000 1.790840 
# 
# From -- ./inp_files/14175.got.cif
#   From: 2010.05.17/outbox.cif.g08.bks.cpg/sg4_8_cif.got.tgz:14175.got - 2010.06.03 18:43:04.
