data_PCOD9116152
_publ_section_title
;
Structure prediction by ZEFSAII (Michael W. Deem and Ramdas Pophale) SiO2 
 PCOD9116152
Probable space group: P 21
;
_chemical_formula_sum "Si O2"
_cell_formula_units_Z 10
_cell_length_a 8.160176
_cell_length_b 5.266453
_cell_length_c 9.312195
_cell_angle_alpha 90.000000
_cell_angle_beta 101.611923
_cell_angle_gamma 90.000000
_cell_volume 392.002686
_symmetry_space_group_name_H-M "P 21"
_symmetry_group_IT_number 4
_symmetry_cell_setting 'monoclinic'
loop_
_space_group_symop_operation_xyz
x,y,z
-x,1/2+y,-z
loop_
_atom_site_type_symbol
_atom_site_label
_atom_site_fract_x
_atom_site_fract_y
_atom_site_fract_z
Si Si1 0.445450 0.130010 0.748226
Si Si2 0.884708 0.554710 0.484848
Si Si3 0.759191 0.834537 0.732568
Si Si4 0.610790 0.491939 0.937409
Si Si5 0.953265 0.270229 0.050998
O O1 0.266118 0.057712 0.656800
O O2 0.479518 0.426243 0.787418
O O3 0.604759 0.027005 0.685551
O O4 0.456264 0.050627 0.917878
O O5 0.781799 0.633573 0.610493
O O6 0.982817 0.287406 0.514961
O O7 0.714461 0.712595 0.878248
O O8 0.952702 0.911188 0.798914
O O9 0.755988 0.291055 0.999121
O O10 0.010799 0.470170 0.937245
#
# Coordination Sequence:
#
# PCOD9116152 Si02
#       5
#     2   2   2   2   2
#     4  12  26  47  78 116 159 203 268 326 398 470
#     4  12  33  54  78 113 163 218 268 324 399 476
#     4  11  26  46  77 109 156 206 259 322 393 469
#     4  11  24  43  74 114 150 200 256 327 393 464
#     4  10  21  40  67 104 144 187 247 303 379 447
#
# _framework density 25.510028999999999
#
# number of rings (size 3 to 8) (size 9 to 14) (size 15 to 20)
#    0.000    0.800    4.000    1.200    8.400    8.000 
#    0.000    0.000    0.000    0.000    0.000    0.000 
#    0.000    0.000    0.000    0.000    0.000    0.000 
#
# Total GULP energy -55669.095932 kJ/mol
# GULP energy per Si atom -5566.909593 kJ/mol
# Density = 2.545197 g / cm^3
# Si number density = 25.510029 Si / 1000 Ang^3
#
#
#
# Elastic Constant Matrix: (Units=GPa)
#
#
# Indices 1 2 3 4 5 6 
#
# 1 125.5440 36.7429 53.8753 0.0000 27.2724 0.0000
# 2 36.7429 93.1142 16.9213 0.0000 10.9623 0.0000
# 3 53.8753 16.9213 81.2672 0.0000 21.3025 0.0000
# 4 0.0000 0.0000 0.0000 25.8910 0.0000 1.9158
# 5 27.2724 10.9623 21.3025 0.0000 61.5094 0.0000
# 6 0.0000 0.0000 0.0000 1.9158 0.0000 53.0045
#
#
#
# Elastic Compliance Matrix: (Units=1/GPa)
#
#
# Indices 1 2 3 4 5 6 
#
# 1 0.012460 -0.003365 -0.006895 0.000000 -0.002537 0.000000
# 2 -0.003365 0.012166 -0.000138 0.000000 -0.000629 0.000000
# 3 -0.006895 -0.000138 0.017704 0.000000 -0.003050 0.000000
# 4 0.000000 0.000000 0.000000 0.038727 0.000000 -0.001400
# 5 -0.002537 -0.000629 -0.003050 0.000000 0.018551 0.000000
# 6 0.000000 0.000000 0.000000 -0.001400 0.000000 0.018917
#
#
# Mechanical properties :
#
#
# Convention : Reuss Voigt Hill
#
# Bulk Modulus (GPa) = 46.43441 57.22271 51.82856
# Shear Modulus (GPa) = 34.13011 40.90671 37.51841
#
# Velocity S-wave (km/s) = 3.66171 4.00878 3.83917
# Velocity P-wave (km/s) = 6.00995 6.62626 6.32561
#
# Compressibility (1/GPa) = 0.02153576
#
# Stress axis : x y z
#
# Youngs Moduli (GPa) = 80.25654 82.19360 56.48486
#
# Poissons Ratio (x) = 0.27659 0.38944
# Poissons Ratio (y) = 0.27007 0.00777
# Poissons Ratio (z) = 0.55333 0.01131
#
# Static dielectric constant tensor:
#      x y z
#    x 2.444820 0.000000 0.040850 
#    y 0.000000 2.495200 0.000000 
#    z 0.040850 0.000000 2.130900 
# 
# From -- ./inp_files/5051.got.cif
#   From: 2010.05.17/outbox.cif.g08.bks.cpg/sg4_3_cif.got.tgz:5051.got - 2010.06.03 18:43:04.
