data_PCOD9116162
_publ_section_title
;
Structure prediction by ZEFSAII (Michael W. Deem and Ramdas Pophale) SiO2 
 PCOD9116162
Probable space group: P 21
;
_chemical_formula_sum "Si O2"
_cell_formula_units_Z 16
_cell_length_a 16.160558
_cell_length_b 9.427149
_cell_length_c 8.221143
_cell_angle_alpha 90.000000
_cell_angle_beta 32.859117
_cell_angle_gamma 90.000000
_cell_volume 679.561663
_symmetry_space_group_name_H-M "P 21"
_symmetry_group_IT_number 4
_symmetry_cell_setting 'monoclinic'
loop_
_space_group_symop_operation_xyz
x,y,z
-x,1/2+y,-z
loop_
_atom_site_type_symbol
_atom_site_label
_atom_site_fract_x
_atom_site_fract_y
_atom_site_fract_z
Si Si1 0.743657 0.001450 0.392635
Si Si2 0.520684 0.218659 0.901674
Si Si3 0.258561 0.028544 0.930760
Si Si4 0.766779 0.797615 0.807831
Si Si5 0.772273 0.347555 0.717410
Si Si6 0.905375 0.044339 0.476339
Si Si7 0.304253 0.168219 0.543478
Si Si8 0.043386 0.105007 0.740217
O O1 0.599790 0.105061 0.653150
O O2 0.823189 0.005116 0.441316
O O3 0.700018 0.839429 0.418602
O O4 0.868533 0.074059 0.068886
O O5 0.645654 0.307906 0.792885
O O6 0.393703 0.309040 0.019619
O O7 0.421209 0.141691 0.204417
O O8 0.343995 0.060174 0.622380
O O9 0.260525 0.182324 0.011567
O O10 0.298346 0.909620 0.998542
O O11 0.081521 0.006416 0.180552
O O12 0.827053 0.951754 0.747157
O O13 0.898944 0.730312 0.473103
O O14 0.880618 0.467766 0.466177
O O15 0.872661 0.206919 0.570994
O O16 0.134498 0.134991 0.757294
#
# Coordination Sequence:
#
# PCOD9116162 Si02
#       8
#     2   2   2   2   2   2   2   2
#     4  11  22  39  72 103 135 181 240 289 342 419
#     4  10  24  43  70  99 139 186 237 278 353 426
#     4  11  23  42  68 101 145 175 230 292 357 405
#     4  10  23  42  73  98 141 187 231 287 353 414
#     4  10  24  40  72  98 141 180 229 290 353 420
#     4  11  20  39  67 103 136 178 234 284 351 408
#     4  11  23  41  70  99 142 180 232 292 347 420
#     4  10  21  40  68 103 129 181 235 282 344 412
#
# _framework density 23.544588000000001
#
# number of rings (size 3 to 8) (size 9 to 14) (size 15 to 20)
#    0.000    1.500    3.750    1.500    7.000    1.000 
#    0.000    3.750   11.000    0.000    0.000    0.000 
#    0.000    0.000    0.000    0.000    0.000    0.000 
#
# Total GULP energy -89462.143481 kJ/mol
# GULP energy per Si atom -5591.383968 kJ/mol
# Density = 2.349100 g / cm^3
# Si number density = 23.544588 Si / 1000 Ang^3
#
#
#
# Elastic Constant Matrix: (Units=GPa)
#
#
# Indices 1 2 3 4 5 6 
#
# 1 41.7834 7.8935 9.4620 0.0000 -4.7802 0.0000
# 2 7.8935 122.6383 25.9164 0.0000 -9.6093 0.0000
# 3 9.4620 25.9164 115.2210 0.0000 -12.6458 0.0000
# 4 0.0000 0.0000 0.0000 23.6218 0.0000 -4.2230
# 5 -4.7802 -9.6093 -12.6458 0.0000 28.0335 0.0000
# 6 0.0000 0.0000 0.0000 -4.2230 0.0000 28.8621
#
#
#
# Elastic Compliance Matrix: (Units=1/GPa)
#
#
# Indices 1 2 3 4 5 6 
#
# 1 0.024827 -0.001039 -0.001451 0.000000 0.003223 0.000000
# 2 -0.001039 0.008732 -0.001652 0.000000 0.002071 0.000000
# 3 -0.001451 -0.001652 0.009553 0.000000 0.003496 0.000000
# 4 0.000000 0.000000 0.000000 0.043471 0.000000 0.006361
# 5 0.003223 0.002071 0.003496 0.000000 0.038508 0.000000
# 6 0.000000 0.000000 0.000000 0.006361 0.000000 0.035578
#
#
# Mechanical properties :
#
#
# Convention : Reuss Voigt Hill
#
# Bulk Modulus (GPa) = 28.71192 40.68738 34.69965
# Shear Modulus (GPa) = 27.69130 31.86152 29.77641
#
# Velocity S-wave (km/s) = 3.43318 3.68263 3.56009
# Velocity P-wave (km/s) = 5.28553 5.94987 5.62751
#
# Compressibility (1/GPa) = 0.03482874
#
# Stress axis : x y z
#
# Youngs Moduli (GPa) = 40.27946 114.51869 104.67573
#
# Poissons Ratio (x) = 0.11895 0.15193
# Poissons Ratio (y) = 0.04184 0.17287
# Poissons Ratio (z) = 0.05846 0.18913
#
# Static dielectric constant tensor:
#      x y z
#    x 1.966670 0.000000 0.014910 
#    y 0.000000 1.897970 0.000000 
#    z 0.014910 0.000000 1.882080 
# 
# From -- ./inp_files/5384.got.cif
#   From: 2010.05.17/outbox.cif.g08.bks.cpg/sg4_3_cif.got.tgz:5384.got - 2010.06.03 18:43:04.
