data_PCOD9116226
_publ_section_title
;
Structure prediction by ZEFSAII (Michael W. Deem and Ramdas Pophale) SiO2 
 PCOD9116226
Probable space group: P 21
;
_chemical_formula_sum "Si O2"
_cell_formula_units_Z 16
_cell_length_a 11.132087
_cell_length_b 8.102984
_cell_length_c 13.693079
_cell_angle_alpha 90.000000
_cell_angle_beta 146.792086
_cell_angle_gamma 90.000000
_cell_volume 676.470114
_symmetry_space_group_name_H-M "P 21"
_symmetry_group_IT_number 4
_symmetry_cell_setting 'monoclinic'
loop_
_space_group_symop_operation_xyz
x,y,z
-x,1/2+y,-z
loop_
_atom_site_type_symbol
_atom_site_label
_atom_site_fract_x
_atom_site_fract_y
_atom_site_fract_z
Si Si1 0.772391 0.647760 0.380204
Si Si2 0.434158 0.466313 0.664858
Si Si3 0.675180 0.506847 0.517366
Si Si4 0.286454 0.635650 0.737818
Si Si5 0.711389 0.873849 0.629444
Si Si6 0.904414 0.918062 0.071548
Si Si7 0.898062 0.284455 0.980882
Si Si8 0.511349 0.948055 0.949927
O O1 0.713973 0.827308 0.382374
O O2 0.712510 0.522877 0.427871
O O3 0.620360 0.602186 0.185798
O O4 0.030193 0.629792 0.538803
O O5 0.420145 0.618538 0.728214
O O6 0.335583 0.497879 0.491260
O O7 0.673339 0.384850 0.815434
O O8 0.660557 0.693725 0.549957
O O9 0.455600 0.414120 0.397870
O O10 0.882081 0.431171 0.714168
O O11 0.334867 0.802623 0.829815
O O12 0.375039 0.496178 0.871895
O O13 0.955451 0.869807 0.836011
O O14 0.866134 0.096528 0.993301
O O15 0.700837 0.892960 0.003986
O O16 0.965005 0.792586 0.026422
#
# Coordination Sequence:
#
# PCOD9116226 Si02
#       8
#     2   2   2   2   2   2   2   2
#     4  11  23  46  72  93 133 181 227 291 337 396
#     4  11  24  44  66  96 136 176 227 281 337 403
#     4  10  21  41  65  96 132 170 218 271 340 402
#     4  12  28  45  70 100 134 183 235 280 338 403
#     4  10  23  38  65  96 132 172 214 273 333 410
#     4  11  23  43  69 100 136 176 219 282 339 408
#     4  11  24  41  69  98 139 175 218 276 351 403
#     4  12  26  46  72  99 140 179 232 284 339 405
#
# _framework density 23.652190999999998
#
# number of rings (size 3 to 8) (size 9 to 14) (size 15 to 20)
#    0.000    1.000    3.750    2.250    3.500    2.000 
#    0.000    0.000    0.000    0.000    0.000    0.000 
#    0.000    0.000    0.000    0.000    0.000    0.000 
#
# Total GULP energy -89625.178094 kJ/mol
# GULP energy per Si atom -5601.573631 kJ/mol
# Density = 2.359836 g / cm^3
# Si number density = 23.652191 Si / 1000 Ang^3
#
#
#
# Elastic Constant Matrix: (Units=GPa)
#
#
# Indices 1 2 3 4 5 6 
#
# 1 60.3196 -5.1882 21.9584 0.0000 4.0098 0.0000
# 2 -5.1882 27.7004 -1.3939 0.0000 -1.4720 0.0000
# 3 21.9584 -1.3939 108.2404 0.0000 4.0143 0.0000
# 4 0.0000 0.0000 0.0000 25.2213 0.0000 -0.7892
# 5 4.0098 -1.4720 4.0143 0.0000 28.7309 0.0000
# 6 0.0000 0.0000 0.0000 -0.7892 0.0000 29.8073
#
#
#
# Elastic Compliance Matrix: (Units=1/GPa)
#
#
# Indices 1 2 3 4 5 6 
#
# 1 0.018284 0.003143 -0.003599 0.000000 -0.001888 0.000000
# 2 0.003143 0.036757 -0.000219 0.000000 0.001475 0.000000
# 3 -0.003599 -0.000219 0.010000 0.000000 -0.000906 0.000000
# 4 0.000000 0.000000 0.000000 0.039682 0.000000 0.001051
# 5 -0.001888 0.001475 -0.000906 0.000000 0.035271 0.000000
# 6 0.000000 0.000000 0.000000 0.001051 0.000000 0.033577
#
#
# Mechanical properties :
#
#
# Convention : Reuss Voigt Hill
#
# Bulk Modulus (GPa) = 15.70076 25.22368 20.46222
# Shear Modulus (GPa) = 25.49070 28.81085 27.15077
#
# Velocity S-wave (km/s) = 3.28644 3.49392 3.39177
# Velocity P-wave (km/s) = 4.58841 5.19271 4.89989
#
# Compressibility (1/GPa) = 0.06369117
#
# Stress axis : x y z
#
# Youngs Moduli (GPa) = 54.69179 27.20600 100.00450
#
# Poissons Ratio (x) = -0.08551 0.35989
# Poissons Ratio (y) = -0.17190 0.02190
# Poissons Ratio (z) = 0.19682 0.00596
#
# Static dielectric constant tensor:
#      x y z
#    x 1.858780 0.000000 -0.023040 
#    y 0.000000 1.954860 0.000000 
#    z -0.023040 0.000000 1.860490 
# 
# From -- ./inp_files/12540.got.cif
#   From: 2010.05.17/outbox.cif.g08.bks.cpg/sg4_7_cif.got.tgz:12540.got - 2010.06.03 18:43:04.
