data_PCOD9116020
_publ_section_title
;
Structure prediction by ZEFSAII (Michael W. Deem and Ramdas Pophale) SiO2 
 PCOD9116020
Probable space group: P 21
;
_chemical_formula_sum "Si O2"
_cell_formula_units_Z 16
_cell_length_a 16.582806
_cell_length_b 9.787744
_cell_length_c 7.812644
_cell_angle_alpha 90.000000
_cell_angle_beta 143.865914
_cell_angle_gamma 90.000000
_cell_volume 747.743763
_symmetry_space_group_name_H-M "P 21"
_symmetry_group_IT_number 4
_symmetry_cell_setting 'monoclinic'
loop_
_space_group_symop_operation_xyz
x,y,z
-x,1/2+y,-z
loop_
_atom_site_type_symbol
_atom_site_label
_atom_site_fract_x
_atom_site_fract_y
_atom_site_fract_z
Si Si1 0.128768 0.738610 0.872186
Si Si2 0.855160 0.506854 0.912350
Si Si3 0.607927 0.674279 0.318398
Si Si4 0.515614 0.886700 0.401901
Si Si5 0.614723 0.113009 0.822506
Si Si6 0.995150 0.492766 0.800300
Si Si7 0.106632 0.246238 0.791220
Si Si8 0.287153 0.088270 0.862696
O O1 0.079769 0.632517 0.931723
O O2 0.995808 0.778310 0.537997
O O3 0.229370 0.658916 0.916827
O O4 0.188670 0.873850 0.058834
O O5 0.724817 0.589299 0.617608
O O6 0.946403 0.464216 0.907922
O O7 0.933477 0.611698 0.169958
O O8 0.601856 0.826149 0.389170
O O9 0.462186 0.608876 0.126903
O O10 0.643154 0.661136 0.180602
O O11 0.461506 0.745281 0.390899
O O12 0.590617 0.981751 0.665710
O O13 0.389420 0.974183 0.110138
O O14 0.855325 0.518263 0.448825
O O15 0.089438 0.373815 0.886084
O O16 0.245293 0.197169 0.936652
#
# Coordination Sequence:
#
# PCOD9116020 Si02
#       8
#     2   2   2   2   2   2   2   2
#     4  11  22  39  60  99 126 171 215 266 326 397
#     4  11  22  44  65  88 134 168 219 271 327 391
#     4   9  23  41  67  95 125 181 217 266 337 385
#     4  10  22  42  64  97 127 177 221 270 333 387
#     4  10  21  39  63  93 132 166 229 263 329 391
#     4  10  23  39  66  96 123 170 220 267 329 389
#     4  11  22  39  70  92 129 176 211 270 337 388
#     4  10  21  45  65  94 138 169 220 275 328 396
#
# _framework density 21.397701999999999
#
# number of rings (size 3 to 8) (size 9 to 14) (size 15 to 20)
#    0.750    1.000    0.000    5.250    1.750    0.000 
#    9.000    1.250    0.000    0.000    0.000    0.000 
#    0.000    0.000    0.000    0.000    0.000    0.000 
#
# Total GULP energy -89281.436969 kJ/mol
# GULP energy per Si atom -5580.089811 kJ/mol
# Density = 2.134900 g / cm^3
# Si number density = 21.397702 Si / 1000 Ang^3
#
#
#
# Elastic Constant Matrix: (Units=GPa)
#
#
# Indices 1 2 3 4 5 6 
#
# 1 150.5421 56.3078 22.1988 0.0000 -5.4315 0.0000
# 2 56.3078 118.1857 15.0778 0.0000 0.9808 0.0000
# 3 22.1988 15.0778 29.3868 0.0000 7.8535 0.0000
# 4 0.0000 0.0000 0.0000 22.0512 0.0000 5.2190
# 5 -5.4315 0.9808 7.8535 0.0000 24.7267 0.0000
# 6 0.0000 0.0000 0.0000 5.2190 0.0000 43.3995
#
#
#
# Elastic Compliance Matrix: (Units=1/GPa)
#
#
# Indices 1 2 3 4 5 6 
#
# 1 0.009012 -0.003553 -0.006066 0.000000 0.004047 0.000000
# 2 -0.003553 0.010489 -0.002598 0.000000 -0.000371 0.000000
# 3 -0.006066 -0.002598 0.044009 0.000000 -0.015207 0.000000
# 4 0.000000 0.000000 0.000000 0.046677 0.000000 -0.005613
# 5 0.004047 -0.000371 -0.015207 0.000000 0.046176 0.000000
# 6 0.000000 0.000000 0.000000 -0.005613 0.000000 0.023717
#
#
# Mechanical properties :
#
#
# Convention : Reuss Voigt Hill
#
# Bulk Modulus (GPa) = 25.59254 53.92038 39.75646
# Shear Modulus (GPa) = 22.98427 31.67083 27.32755
#
# Velocity S-wave (km/s) = 3.28097 3.85139 3.57757
# Velocity P-wave (km/s) = 5.13219 6.71055 5.97373
#
# Compressibility (1/GPa) = 0.03907389
#
# Stress axis : x y z
#
# Youngs Moduli (GPa) = 110.95905 95.33989 22.72287
#
# Poissons Ratio (x) = 0.33879 0.13784
# Poissons Ratio (y) = 0.39429 0.05904
# Poissons Ratio (z) = 0.67312 0.24770
#
# Static dielectric constant tensor:
#      x y z
#    x 1.785850 0.000000 0.034340 
#    y 0.000000 1.762250 0.000000 
#    z 0.034340 0.000000 1.788010 
# 
# From -- ./inp_files/9573.got.cif
#   From: 2010.05.17/outbox.cif.g08.bks.cpg/sg4_5_cif.got.tgz:9573.got - 2010.06.03 18:43:04.
