data_PCOD9116279
_publ_section_title
;
Structure prediction by ZEFSAII (Michael W. Deem and Ramdas Pophale) SiO2 
 PCOD9116279
Probable space group: P 21
;
_chemical_formula_sum "Si O2"
_cell_formula_units_Z 16
_cell_length_a 8.778366
_cell_length_b 5.142147
_cell_length_c 19.676081
_cell_angle_alpha 90.000000
_cell_angle_beta 48.473174
_cell_angle_gamma 90.000000
_cell_volume 664.925415
_symmetry_space_group_name_H-M "P 21"
_symmetry_group_IT_number 4
_symmetry_cell_setting 'monoclinic'
loop_
_space_group_symop_operation_xyz
x,y,z
-x,1/2+y,-z
loop_
_atom_site_type_symbol
_atom_site_label
_atom_site_fract_x
_atom_site_fract_y
_atom_site_fract_z
Si Si1 0.239841 0.448640 0.976515
Si Si2 0.689185 0.346401 0.791035
Si Si3 0.761517 0.685183 0.272636
Si Si4 0.641566 0.877559 0.450145
Si Si5 0.316012 0.732193 0.363068
Si Si6 0.957371 0.835261 0.730988
Si Si7 0.965179 0.448117 0.921034
Si Si8 0.100318 0.013269 0.547306
O O1 0.210330 0.732227 0.017037
O O2 0.138593 0.228393 0.053644
O O3 0.468818 0.377772 0.889353
O O4 0.105912 0.450302 0.946990
O O5 0.673778 0.371314 0.713459
O O6 0.790509 0.067548 0.775248
O O7 0.837628 0.569681 0.774400
O O8 0.733048 0.860785 0.348109
O O9 0.537720 0.616395 0.311456
O O10 0.883481 0.431078 0.260091
O O11 0.889048 0.845285 0.180622
O O12 0.484400 0.634822 0.499556
O O13 0.815315 0.791649 0.451795
O O14 0.127530 0.534712 0.413517
O O15 0.251247 0.911910 0.445272
O O16 0.075726 0.846150 0.623516
#
# Coordination Sequence:
#
# PCOD9116279 Si02
#       8
#     2   2   2   2   2   2   2   2
#     4  10  21  41  70 100 140 172 229 295 370 406
#     4  11  22  46  69 103 137 194 225 300 360 427
#     4  11  24  45  69 105 142 192 242 292 362 437
#     4  11  25  44  67  96 141 187 227 285 357 414
#     4  11  22  42  69 105 137 191 251 298 349 429
#     4  10  25  43  68  97 150 181 236 285 365 426
#     4  10  22  41  67 106 135 176 229 302 346 436
#     4  10  23  40  65 100 140 183 239 295 343 419
#
# _framework density 24.062849
#
# number of rings (size 3 to 8) (size 9 to 14) (size 15 to 20)
#    0.000    1.500    2.500    1.500    1.750    8.000 
#    0.000    2.500    0.000    0.000    0.000    0.000 
#    0.000    0.000    0.000    0.000    0.000    0.000 
#
# Total GULP energy -89711.750835 kJ/mol
# GULP energy per Si atom -5606.984427 kJ/mol
# Density = 2.400808 g / cm^3
# Si number density = 24.062849 Si / 1000 Ang^3
#
#
#
# Elastic Constant Matrix: (Units=GPa)
#
#
# Indices 1 2 3 4 5 6 
#
# 1 107.5285 13.8924 32.3168 0.0000 -24.3904 0.0000
# 2 13.8924 84.0817 16.0669 0.0000 -5.3123 0.0000
# 3 32.3168 16.0669 128.4245 0.0000 -16.0824 0.0000
# 4 0.0000 0.0000 0.0000 32.0392 0.0000 -5.3356
# 5 -24.3904 -5.3123 -16.0824 0.0000 45.3442 0.0000
# 6 0.0000 0.0000 0.0000 -5.3356 0.0000 28.5865
#
#
#
# Elastic Compliance Matrix: (Units=1/GPa)
#
#
# Indices 1 2 3 4 5 6 
#
# 1 0.011236 -0.001140 -0.002035 0.000000 0.005188 0.000000
# 2 -0.001140 0.012338 -0.001206 0.000000 0.000405 0.000000
# 3 -0.002035 -0.001206 0.008680 0.000000 0.001843 0.000000
# 4 0.000000 0.000000 0.000000 0.032213 0.000000 0.006013
# 5 0.005188 0.000405 0.001843 0.000000 0.025545 0.000000
# 6 0.000000 0.000000 0.000000 0.006013 0.000000 0.036104
#
#
# Mechanical properties :
#
#
# Convention : Reuss Voigt Hill
#
# Bulk Modulus (GPa) = 42.56784 49.39853 45.98319
# Shear Modulus (GPa) = 35.03662 38.37789 36.70725
#
# Velocity S-wave (km/s) = 3.81996 3.99796 3.90997
# Velocity P-wave (km/s) = 6.09793 6.47187 6.28768
#
# Compressibility (1/GPa) = 0.02349191
#
# Stress axis : x y z
#
# Youngs Moduli (GPa) = 89.00318 81.05353 115.20174
#
# Poissons Ratio (x) = 0.09238 0.23444
# Poissons Ratio (y) = 0.10144 0.13894
# Poissons Ratio (z) = 0.18112 0.09775
#
# Static dielectric constant tensor:
#      x y z
#    x 1.953200 0.000000 0.013540 
#    y 0.000000 1.933980 0.000000 
#    z 0.013540 0.000000 1.875340 
# 
# From -- ./inp_files/15584.got.cif
#   From: 2010.05.17/outbox.cif.g08.bks.cpg/sg4_8_cif.got.tgz:15584.got - 2010.06.03 18:43:04.
