data_PCOD9116718
_publ_section_title
;
Structure prediction by ZEFSAII (Michael W. Deem and Ramdas Pophale) SiO2 
 PCOD9116718
Probable space group: P 21
;
_chemical_formula_sum "Si O2"
_cell_formula_units_Z 16
_cell_length_a 5.614311
_cell_length_b 9.519297
_cell_length_c 10.918226
_cell_angle_alpha 90.000000
_cell_angle_beta 104.998305
_cell_angle_gamma 90.000000
_cell_volume 563.638491
_symmetry_space_group_name_H-M "P 21"
_symmetry_group_IT_number 4
_symmetry_cell_setting 'monoclinic'
loop_
_space_group_symop_operation_xyz
x,y,z
-x,1/2+y,-z
loop_
_atom_site_type_symbol
_atom_site_label
_atom_site_fract_x
_atom_site_fract_y
_atom_site_fract_z
Si Si1 0.557265 0.279770 0.799173
Si Si2 0.000000 0.655032 0.500001
Si Si3 0.557265 0.779771 0.799173
Si Si4 0.307986 0.027020 0.859927
Si Si5 0.249372 0.911390 0.419192
Si Si6 0.692013 0.027022 0.140075
Si Si7 1.000000 0.182747 0.000000
Si Si8 0.750621 0.911387 0.580803
O O1 0.438202 0.126637 0.776547
O O2 0.699733 0.344973 0.704948
O O3 0.323975 0.373491 0.807210
O O4 0.762768 0.273130 0.933289
O O5 0.953159 0.536364 0.599546
O O6 0.793963 0.775105 0.498343
O O7 0.206028 0.775111 0.501655
O O8 0.046846 0.536361 0.400459
O O9 0.438203 0.626638 0.776545
O O10 0.762771 0.773131 0.933288
O O11 0.699728 0.844975 0.704946
O O12 0.323973 0.873489 0.807213
O O13 0.065043 0.087978 0.890666
O O14 0.499999 0.029943 0.000001
O O15 0.499999 0.980879 0.499997
O O16 0.934957 0.087977 0.109335
#
# Coordination Sequence:
#
# PCOD9116718 Si02
#       8
#     2   2   2   2   2   2   2   2
#     4  11  24  41  65  96 127 169 215 258 319 380
#     4  10  24  44  68  98 124 170 220 256 328 382
#     4  11  24  41  65  96 127 169 215 258 319 380
#     4  10  22  40  63  95 128 167 214 256 316 381
#     4  11  24  44  67  95 131 166 213 270 316 377
#     4  10  22  40  63  95 128 167 214 256 316 381
#     4  10  24  44  66  92 136 170 208 268 314 376
#     4  11  24  44  67  95 131 166 213 270 316 377
#
# _framework density 28.386990999999998
#
# number of rings (size 3 to 8) (size 9 to 14) (size 15 to 20)
#    0.000    1.500    0.000    4.500    0.000   15.000 
#    0.000    5.000    0.000    0.000    0.000    0.000 
#    0.000    0.000    0.000    0.000    0.000    0.000 
#
# Total GULP energy -89537.684185 kJ/mol
# GULP energy per Si atom -5596.105262 kJ/mol
# Density = 2.832238 g / cm^3
# Si number density = 28.386991 Si / 1000 Ang^3
#
#
#
# Elastic Constant Matrix: (Units=GPa)
#
#
# Indices 1 2 3 4 5 6 
#
# 1 121.7788 50.8324 33.1063 0.0000 -14.1367 0.0000
# 2 50.8324 148.6679 27.9549 0.0000 -4.2840 0.0000
# 3 33.1063 27.9549 95.0013 0.0000 -22.9425 0.0000
# 4 0.0000 0.0000 0.0000 41.0997 0.0000 -13.3317
# 5 -14.1367 -4.2840 -22.9425 0.0000 40.9468 0.0000
# 6 0.0000 0.0000 0.0000 -13.3317 0.0000 63.4594
#
#
#
# Elastic Compliance Matrix: (Units=1/GPa)
#
#
# Indices 1 2 3 4 5 6 
#
# 1 0.010321 -0.003055 -0.002214 0.000000 0.002003 0.000000
# 2 -0.003055 0.008033 -0.001562 0.000000 -0.001090 0.000000
# 3 -0.002214 -0.001562 0.013338 0.000000 0.006546 0.000000
# 4 0.000000 0.000000 0.000000 0.026110 0.000000 0.005485
# 5 0.002003 -0.001090 0.006546 0.000000 0.028667 0.000000
# 6 0.000000 0.000000 0.000000 0.005485 0.000000 0.016910
#
#
# Mechanical properties :
#
#
# Convention : Reuss Voigt Hill
#
# Bulk Modulus (GPa) = 55.46347 65.47060 60.46703
# Shear Modulus (GPa) = 40.63272 46.00480 43.31876
#
# Velocity S-wave (km/s) = 3.78747 4.03007 3.91065
# Velocity P-wave (km/s) = 6.22152 6.69096 6.46051
#
# Compressibility (1/GPa) = 0.01802989
#
# Stress axis : x y z
#
# Youngs Moduli (GPa) = 96.88741 124.48100 74.97256
#
# Poissons Ratio (x) = 0.38029 0.16599
# Poissons Ratio (y) = 0.29599 0.11714
# Poissons Ratio (z) = 0.21451 0.19449
#
# Static dielectric constant tensor:
#      x y z
#    x 2.132640 0.000000 0.033560 
#    y 0.000000 2.083290 0.000000 
#    z 0.033560 0.000000 2.323860 
# 
# From -- ./inp_files/10299.got.cif
#   From: 2010.05.17/outbox.cif.g08.bks.cpg/sg4_6_cif.got.tgz:10299.got - 2010.06.03 18:43:04.
