data_PCOD9116984
_publ_section_title
;
Structure prediction by ZEFSAII (Michael W. Deem and Ramdas Pophale) SiO2 
 PCOD9116984
Probable space group: P 21
;
_chemical_formula_sum "Si O2"
_cell_formula_units_Z 14
_cell_length_a 10.810210
_cell_length_b 12.821558
_cell_length_c 5.144685
_cell_angle_alpha 90.000000
_cell_angle_beta 120.447172
_cell_angle_gamma 90.000000
_cell_volume 614.737535
_symmetry_space_group_name_H-M "P 21"
_symmetry_group_IT_number 4
_symmetry_cell_setting 'monoclinic'
loop_
_space_group_symop_operation_xyz
x,y,z
-x,1/2+y,-z
loop_
_atom_site_type_symbol
_atom_site_label
_atom_site_fract_x
_atom_site_fract_y
_atom_site_fract_z
Si Si1 0.880714 0.604420 0.224679
Si Si2 0.881891 0.996629 0.260717
Si Si3 0.280360 0.033180 0.442060
Si Si4 0.135128 0.842870 0.436541
Si Si5 0.200284 0.718985 0.013814
Si Si6 0.700574 0.801891 0.996033
Si Si7 0.462308 0.225657 0.673978
O O1 0.819824 0.592416 0.453386
O O2 0.036474 0.550527 0.406748
O O3 0.788715 0.539366 0.917279
O O4 0.838817 0.723784 0.119902
O O5 0.005362 0.924040 0.267620
O O6 0.832025 0.097571 0.052994
O O7 0.752649 0.914960 0.146066
O O8 0.421910 0.103453 0.586487
O O9 0.276828 0.915625 0.543440
O O10 0.131083 0.787004 0.708696
O O11 0.139266 0.758713 0.217711
O O12 0.369376 0.738654 0.175049
O O13 0.622628 0.791998 0.635131
O O14 0.594691 0.756492 0.102598
#
# Coordination Sequence:
#
# PCOD9116984 Si02
#       7
#     2   2   2   2   2   2   2
#     4   9  19  36  62  94 122 157 213 259 307 371
#     4  11  25  43  68  98 128 170 218 266 327 383
#     4   9  19  39  65  88 123 169 202 252 314 379
#     4  11  25  44  67  96 131 168 211 271 332 372
#     4  12  27  43  66  97 131 166 217 275 310 388
#     4  10  22  42  68  92 132 176 210 265 320 381
#     4  10  23  43  64  97 131 170 219 256 318 386
#
# _framework density 22.773948000000001
#
# number of rings (size 3 to 8) (size 9 to 14) (size 15 to 20)
#    0.000    1.714    0.000    3.429    0.000   16.000 
#    0.000    0.000    0.000    0.000    0.000    0.000 
#    0.000    0.000    0.000    0.000    0.000    0.000 
#
# Total GULP energy -78197.747404 kJ/mol
# GULP energy per Si atom -5585.553386 kJ/mol
# Density = 2.272211 g / cm^3
# Si number density = 22.773948 Si / 1000 Ang^3
#
#
#
# Elastic Constant Matrix: (Units=GPa)
#
#
# Indices 1 2 3 4 5 6 
#
# 1 56.5152 -0.0177 0.2019 0.0000 7.2955 0.0000
# 2 -0.0177 115.7839 -6.0331 0.0000 13.2265 0.0000
# 3 0.2019 -6.0331 33.0110 0.0000 3.5295 0.0000
# 4 0.0000 0.0000 0.0000 18.9661 0.0000 -2.6262
# 5 7.2955 13.2265 3.5295 0.0000 29.1147 0.0000
# 6 0.0000 0.0000 0.0000 -2.6262 0.0000 29.4637
#
#
#
# Elastic Compliance Matrix: (Units=1/GPa)
#
#
# Indices 1 2 3 4 5 6 
#
# 1 0.018328 0.000593 0.000523 0.000000 -0.004925 0.000000
# 2 0.000593 0.009280 0.002187 0.000000 -0.004629 0.000000
# 3 0.000523 0.002187 0.031214 0.000000 -0.004909 0.000000
# 4 0.000000 0.000000 0.000000 0.053385 0.000000 0.004758
# 5 -0.004925 -0.004629 -0.004909 0.000000 0.038279 0.000000
# 6 0.000000 0.000000 0.000000 0.004758 0.000000 0.034364
#
#
# Mechanical properties :
#
#
# Convention : Reuss Voigt Hill
#
# Bulk Modulus (GPa) = 15.28396 21.51250 18.39823
# Shear Modulus (GPa) = 24.99320 29.58614 27.28967
#
# Velocity S-wave (km/s) = 3.31637 3.60824 3.46538
# Velocity P-wave (km/s) = 4.62495 5.17937 4.90999
#
# Compressibility (1/GPa) = 0.06542809
#
# Stress axis : x y z
#
# Youngs Moduli (GPa) = 54.55987 107.76245 32.03654
#
# Poissons Ratio (x) = -0.06387 -0.01675
# Poissons Ratio (y) = -0.03234 -0.07007
# Poissons Ratio (z) = -0.02852 -0.23571
#
# Static dielectric constant tensor:
#      x y z
#    x 1.852640 0.000000 0.033250 
#    y 0.000000 1.880610 0.000000 
#    z 0.033250 0.000000 1.836800 
# 
# From -- ./inp_files/2787.got.cif
#   From: 2010.05.17/outbox.cif.g08.bks.cpg/sg4_2_cif.got.tgz:2787.got - 2010.06.03 18:43:04.
