data_PCOD9116609
_publ_section_title
;
Structure prediction by ZEFSAII (Michael W. Deem and Ramdas Pophale) SiO2 
 PCOD9116609
Probable space group: P 21
;
_chemical_formula_sum "Si O2"
_cell_formula_units_Z 16
_cell_length_a 19.104948
_cell_length_b 6.193606
_cell_length_c 7.265009
_cell_angle_alpha 90.000000
_cell_angle_beta 110.330613
_cell_angle_gamma 90.000000
_cell_volume 806.104040
_symmetry_space_group_name_H-M "P 21"
_symmetry_group_IT_number 4
_symmetry_cell_setting 'monoclinic'
loop_
_space_group_symop_operation_xyz
x,y,z
-x,1/2+y,-z
loop_
_atom_site_type_symbol
_atom_site_label
_atom_site_fract_x
_atom_site_fract_y
_atom_site_fract_z
Si Si1 0.607928 0.233080 0.468156
Si Si2 0.670453 0.523346 0.832346
Si Si3 0.897190 0.195151 0.016480
Si Si4 0.033653 0.896272 0.259197
Si Si5 0.444659 0.404900 0.270968
Si Si6 0.085308 0.079460 0.684939
Si Si7 0.345021 0.644974 0.899644
Si Si8 0.784423 0.863944 0.050077
O O1 0.662283 0.374497 0.645911
O O2 0.532497 0.368086 0.360175
O O3 0.641724 0.169114 0.303688
O O4 0.583617 0.030893 0.573150
O O5 0.597909 0.676844 0.777315
O O6 0.741154 0.680965 0.896734
O O7 0.672330 0.369959 0.012990
O O8 0.895833 0.365852 0.181645
O O9 0.906995 0.322358 0.836669
O O10 0.971205 0.048435 0.108977
O O11 0.826094 0.040281 0.963515
O O12 0.988775 0.690905 0.299234
O O13 0.070311 0.020001 0.461910
O O14 0.416966 0.545341 0.071424
O O15 0.151752 0.249366 0.772347
O O16 0.277252 0.484340 0.884460
#
# Coordination Sequence:
#
# PCOD9116609 Si02
#       8
#     2   2   2   2   2   2   2   2
#     4  11  22  40  69  97 130 167 217 275 329 378
#     4  10  22  45  64  91 135 169 215 266 319 390
#     4  11  22  41  69  99 133 168 217 265 330 376
#     4  11  22  39  70 103 127 167 211 277 319 375
#     4  10  22  38  63 102 128 162 215 277 325 378
#     4  11  22  41  69  96 137 161 218 267 322 381
#     4  10  24  42  66  93 131 174 217 264 323 391
#     4  10  24  46  64  91 137 180 210 261 319 397
#
# _framework density 19.848557
#
# number of rings (size 3 to 8) (size 9 to 14) (size 15 to 20)
#    0.000    1.500    3.750    0.750    1.750    2.000 
#    0.000   16.250    0.000    0.000    0.000    0.000 
#    0.000    0.000    0.000    0.000    0.000    0.000 
#
# Total GULP energy -89460.883745 kJ/mol
# GULP energy per Si atom -5591.305234 kJ/mol
# Density = 1.980338 g / cm^3
# Si number density = 19.848557 Si / 1000 Ang^3
#
#
#
# Elastic Constant Matrix: (Units=GPa)
#
#
# Indices 1 2 3 4 5 6 
#
# 1 81.8080 24.9322 41.7472 0.0000 -3.0944 0.0000
# 2 24.9322 71.8877 19.7748 0.0000 -11.6015 0.0000
# 3 41.7472 19.7748 104.0271 0.0000 -27.3204 0.0000
# 4 0.0000 0.0000 0.0000 141.4245 0.0000 135.7221
# 5 -3.0944 -11.6015 -27.3204 0.0000 22.6220 0.0000
# 6 0.0000 0.0000 0.0000 135.7221 0.0000 179.4646
#
#
#
# Elastic Compliance Matrix: (Units=1/GPa)
#
#
# Indices 1 2 3 4 5 6 
#
# 1 0.018256 -0.005650 -0.009311 0.000000 -0.011645 0.000000
# 2 -0.005650 0.017023 0.001642 0.000000 0.009940 0.000000
# 3 -0.009311 0.001642 0.018927 0.000000 0.022427 0.000000
# 4 0.000000 0.000000 0.000000 0.025784 0.000000 -0.019500
# 5 -0.011645 0.009940 0.022427 0.000000 0.074794 0.000000
# 6 0.000000 0.000000 0.000000 -0.019500 0.000000 0.020319
#
#
# Mechanical properties :
#
#
# Convention : Reuss Voigt Hill
#
# Bulk Modulus (GPa) = 36.27270 47.84792 42.06031
# Shear Modulus (GPa) = 23.70453 80.12012 51.91232
#
# Velocity S-wave (km/s) = 3.45957 6.36029 5.11967
# Velocity P-wave (km/s) = 5.85428 8.83723 7.49564
#
# Compressibility (1/GPa) = 0.02756894
#
# Stress axis : x y z
#
# Youngs Moduli (GPa) = 54.77513 58.74568 52.83440
#
# Poissons Ratio (x) = 0.33190 0.49193
# Poissons Ratio (y) = 0.30947 -0.08675
# Poissons Ratio (z) = 0.51000 -0.09646
#
# Static dielectric constant tensor:
#      x y z
#    x 1.683310 0.000000 0.018980 
#    y 0.000000 1.711990 0.000000 
#    z 0.018980 0.000000 1.640140 
# 
# From -- ./inp_files/4205.got.cif
#   From: 2010.05.17/outbox.cif.g08.bks.cpg/sg4_3_cif.got.tgz:4205.got - 2010.06.03 18:43:04.
