data_PCOD9116616
_publ_section_title
;
Structure prediction by ZEFSAII (Michael W. Deem and Ramdas Pophale) SiO2 
 PCOD9116616
Probable space group: P 21
;
_chemical_formula_sum "Si O2"
_cell_formula_units_Z 14
_cell_length_a 14.368496
_cell_length_b 5.568066
_cell_length_c 12.799725
_cell_angle_alpha 90.000000
_cell_angle_beta 147.545649
_cell_angle_gamma 90.000000
_cell_volume 549.527257
_symmetry_space_group_name_H-M "P 21"
_symmetry_group_IT_number 4
_symmetry_cell_setting 'monoclinic'
loop_
_space_group_symop_operation_xyz
x,y,z
-x,1/2+y,-z
loop_
_atom_site_type_symbol
_atom_site_label
_atom_site_fract_x
_atom_site_fract_y
_atom_site_fract_z
Si Si1 0.179083 0.983940 0.147931
Si Si2 0.765634 0.992688 0.780501
Si Si3 0.979511 0.754181 0.303112
Si Si4 0.161477 0.059996 0.621539
Si Si5 0.361849 0.554059 0.832580
Si Si6 0.304090 0.754954 0.471678
Si Si7 0.597866 0.817590 0.914455
O O1 0.247957 0.735334 0.164192
O O2 0.227187 0.948602 0.316677
O O3 0.263627 0.234815 0.200242
O O4 0.970438 0.994136 0.940371
O O5 0.653165 0.042607 0.570121
O O6 0.939005 0.590139 0.364906
O O7 0.142038 0.675210 0.389048
O O8 0.796998 0.777425 0.072449
O O9 0.032609 0.011482 0.403306
O O10 0.733946 0.807780 0.290205
O O11 0.264730 0.807610 0.723439
O O12 0.528425 0.589405 0.916363
O O13 0.397681 0.518625 0.989715
O O14 0.457417 0.847482 0.690210
#
# Coordination Sequence:
#
# PCOD9116616 Si02
#       7
#     2   2   2   2   2   2   2
#     4   8  16  35  61  89 114 153 195 246 316 374
#     4   8  16  35  61  89 114 153 195 246 316 374
#     4  11  23  41  61  89 124 166 213 265 308 369
#     4  11  24  45  64  84 125 178 219 261 318 367
#     4  11  24  45  64  84 125 178 219 261 318 367
#     4  10  22  38  64  94 118 160 212 258 302 386
#     4  11  23  41  61  89 124 166 213 265 308 369
#
# _framework density 25.476444000000001
#
# number of rings (size 3 to 8) (size 9 to 14) (size 15 to 20)
#    0.857    1.143    1.429    3.429    0.000    1.143 
#   10.286    0.000    0.000    1.714    0.000    0.000 
#    0.000    0.000    0.000    0.000    0.000    0.000 
#
# Total GULP energy -78146.438610 kJ/mol
# GULP energy per Si atom -5581.888472 kJ/mol
# Density = 2.541846 g / cm^3
# Si number density = 25.476444 Si / 1000 Ang^3
#
#
#
# Elastic Constant Matrix: (Units=GPa)
#
#
# Indices 1 2 3 4 5 6 
#
# 1 62.4116 20.3349 31.0130 0.0000 2.5370 0.0000
# 2 20.3349 189.0270 30.1308 0.0000 17.0878 0.0000
# 3 31.0130 30.1308 176.2475 0.0000 4.3458 0.0000
# 4 0.0000 0.0000 0.0000 47.9622 0.0000 5.3145
# 5 2.5370 17.0878 4.3458 0.0000 42.9848 0.0000
# 6 0.0000 0.0000 0.0000 5.3145 0.0000 9.7279
#
#
#
# Elastic Compliance Matrix: (Units=1/GPa)
#
#
# Indices 1 2 3 4 5 6 
#
# 1 0.017947 -0.001450 -0.002905 0.000000 -0.000189 0.000000
# 2 -0.001450 0.005746 -0.000675 0.000000 -0.002131 0.000000
# 3 -0.002905 -0.000675 0.006305 0.000000 -0.000198 0.000000
# 4 0.000000 0.000000 0.000000 0.022193 0.000000 -0.012124
# 5 -0.000189 -0.002131 -0.000198 0.000000 0.024142 0.000000
# 6 0.000000 0.000000 0.000000 -0.012124 0.000000 0.109421
#
#
# Mechanical properties :
#
#
# Convention : Reuss Voigt Hill
#
# Bulk Modulus (GPa) = 50.15672 65.62706 57.89189
# Shear Modulus (GPa) = 24.69607 43.21546 33.95577
#
# Velocity S-wave (km/s) = 3.11685 4.12307 3.65475
# Velocity P-wave (km/s) = 5.71692 6.96291 6.37045
#
# Compressibility (1/GPa) = 0.01993751
#
# Stress axis : x y z
#
# Youngs Moduli (GPa) = 55.72081 174.02140 158.59728
#
# Poissons Ratio (x) = 0.25241 0.46078
# Poissons Ratio (y) = 0.08082 0.10699
# Poissons Ratio (z) = 0.16189 0.11740
#
# Static dielectric constant tensor:
#      x y z
#    x 1.977000 0.000000 0.058460 
#    y 0.000000 2.039840 0.000000 
#    z 0.058460 0.000000 2.158770 
# 
# From -- ./inp_files/14308.got.cif
#   From: 2010.05.17/outbox.cif.g08.bks.cpg/sg4_8_cif.got.tgz:14308.got - 2010.06.03 18:43:04.
