data_PCOD9116104
_publ_section_title
;
Structure prediction by ZEFSAII (Michael W. Deem and Ramdas Pophale) SiO2 
 PCOD9116104
Probable space group: P 21
;
_chemical_formula_sum "Si O2"
_cell_formula_units_Z 16
_cell_length_a 15.875032
_cell_length_b 8.748801
_cell_length_c 19.786623
_cell_angle_alpha 90.000000
_cell_angle_beta 15.724733
_cell_angle_gamma 90.000000
_cell_volume 744.782972
_symmetry_space_group_name_H-M "P 21"
_symmetry_group_IT_number 4
_symmetry_cell_setting 'monoclinic'
loop_
_space_group_symop_operation_xyz
x,y,z
-x,1/2+y,-z
loop_
_atom_site_type_symbol
_atom_site_label
_atom_site_fract_x
_atom_site_fract_y
_atom_site_fract_z
Si Si1 0.726905 0.956870 0.492156
Si Si2 0.190366 0.589635 0.287090
Si Si3 0.204079 0.197038 0.898610
Si Si4 0.539914 0.716331 0.538577
Si Si5 0.883337 0.697561 0.882848
Si Si6 0.909410 0.906510 0.505488
Si Si7 0.510787 0.380591 0.553485
Si Si8 0.395312 0.360520 0.026798
O O1 0.668096 0.789729 0.507554
O O2 0.412378 0.051474 0.715676
O O3 0.792258 0.948642 0.521515
O O4 0.018316 0.040684 0.230532
O O5 0.251769 0.502834 0.310501
O O6 0.163025 0.456688 0.252607
O O7 0.482587 0.696687 0.039775
O O8 0.922958 0.719878 0.501234
O O9 0.303166 0.345833 0.779279
O O10 0.288106 0.198669 0.913220
O O11 0.834264 0.188229 0.172689
O O12 0.656558 0.546742 0.435810
O O13 0.639344 0.830839 0.401489
O O14 0.737502 0.814714 0.942701
O O15 0.213019 0.763582 0.649964
O O16 0.274628 0.945433 0.233219
#
# Coordination Sequence:
#
# PCOD9116104 Si02
#       8
#     2   2   2   2   2   2   2   2
#     4  11  23  41  66  94 129 167 217 266 327 389
#     4  10  24  39  68  91 135 172 225 271 335 388
#     4  10  21  40  62  92 120 172 204 263 324 386
#     4  11  22  40  61  91 124 167 210 271 320 389
#     4  10  22  39  64  90 125 168 210 258 331 384
#     4  10  25  41  67  99 130 178 221 277 328 400
#     4  10  22  37  63  86 126 160 214 260 326 380
#     4  10  23  41  65  91 133 174 215 274 331 398
#
# _framework density 21.482769999999999
#
# number of rings (size 3 to 8) (size 9 to 14) (size 15 to 20)
#    0.750    1.000    0.000    4.500    5.250    2.000 
#    0.000    0.000    0.000    0.000    0.000    0.000 
#    0.000    0.000    0.000    0.000    0.000    0.000 
#
# Total GULP energy -89069.416427 kJ/mol
# GULP energy per Si atom -5566.838527 kJ/mol
# Density = 2.143387 g / cm^3
# Si number density = 21.482770 Si / 1000 Ang^3
#
#
#
# Elastic Constant Matrix: (Units=GPa)
#
#
# Indices 1 2 3 4 5 6 
#
# 1 61.6917 19.2485 14.8402 0.0000 7.8818 0.0000
# 2 19.2485 100.4985 16.6159 0.0000 28.2709 0.0000
# 3 14.8402 16.6159 34.9307 0.0000 9.6321 0.0000
# 4 0.0000 0.0000 0.0000 9.2033 0.0000 7.0199
# 5 7.8818 28.2709 9.6321 0.0000 23.4481 0.0000
# 6 0.0000 0.0000 0.0000 7.0199 0.0000 33.9355
#
#
#
# Elastic Compliance Matrix: (Units=1/GPa)
#
#
# Indices 1 2 3 4 5 6 
#
# 1 0.018604 -0.002232 -0.006608 0.000000 -0.000848 0.000000
# 2 -0.002232 0.015511 -0.001669 0.000000 -0.017265 0.000000
# 3 -0.006608 -0.001669 0.035030 0.000000 -0.010156 0.000000
# 4 0.000000 0.000000 0.000000 0.129013 0.000000 -0.026688
# 5 -0.000848 -0.017265 -0.010156 0.000000 0.067920 0.000000
# 6 0.000000 0.000000 0.000000 -0.026688 0.000000 0.034988
#
#
# Mechanical properties :
#
#
# Convention : Reuss Voigt Hill
#
# Bulk Modulus (GPa) = 20.77889 33.17001 26.97445
# Shear Modulus (GPa) = 14.78733 23.07847 18.93290
#
# Velocity S-wave (km/s) = 2.62646 3.28117 2.97190
# Velocity P-wave (km/s) = 4.34639 5.46156 4.93557
#
# Compressibility (1/GPa) = 0.04812576
#
# Stress axis : x y z
#
# Youngs Moduli (GPa) = 53.75169 64.47205 28.54684
#
# Poissons Ratio (x) = 0.14392 0.18865
# Poissons Ratio (y) = 0.11999 0.04764
# Poissons Ratio (z) = 0.35521 0.10760
#
# Static dielectric constant tensor:
#      x y z
#    x 1.881220 0.000000 0.057020 
#    y 0.000000 1.801880 0.000000 
#    z 0.057020 0.000000 1.883640 
# 
# From -- ./inp_files/15240.got.cif
#   From: 2010.05.17/outbox.cif.g08.bks.cpg/sg4_8_cif.got.tgz:15240.got - 2010.06.03 18:43:04.
