data_PCOD9116547
_publ_section_title
;
Structure prediction by ZEFSAII (Michael W. Deem and Ramdas Pophale) SiO2 
 PCOD9116547
Probable space group: P 21
;
_chemical_formula_sum "Si O2"
_cell_formula_units_Z 12
_cell_length_a 11.237766
_cell_length_b 8.433033
_cell_length_c 4.744184
_cell_angle_alpha 90.000000
_cell_angle_beta 99.714207
_cell_angle_gamma 90.000000
_cell_volume 443.152469
_symmetry_space_group_name_H-M "P 21"
_symmetry_group_IT_number 4
_symmetry_cell_setting 'monoclinic'
loop_
_space_group_symop_operation_xyz
x,y,z
-x,1/2+y,-z
loop_
_atom_site_type_symbol
_atom_site_label
_atom_site_fract_x
_atom_site_fract_y
_atom_site_fract_z
Si Si1 0.467577 0.371710 0.555236
Si Si2 0.677884 0.170719 0.530805
Si Si3 0.250240 0.155262 0.548390
Si Si4 0.056408 0.407110 0.334593
Si Si5 0.701247 0.447624 0.936216
Si Si6 0.107508 0.620530 0.821283
O O1 0.563308 0.280410 0.394850
O O2 0.384361 0.508261 0.392419
O O3 0.378735 0.241375 0.647408
O O4 0.556839 0.448716 0.822448
O O5 0.771811 0.133730 0.322697
O O6 0.890184 0.013370 0.897871
O O7 0.153049 0.293218 0.527360
O O8 0.246618 0.089788 0.231582
O O9 0.253147 0.999772 0.742980
O O10 0.017763 0.525657 0.566647
O O11 0.956176 0.290434 0.170643
O O12 0.733677 0.279412 0.801928
#
# Coordination Sequence:
#
# PCOD9116547 Si02
#       6
#     2   2   2   2   2   2
#     4  10  21  47  75 120 164 221 268 343 408 506
#     4  10  23  50  78 122 165 224 273 341 414 504
#     4  12  24  49  74 116 162 218 271 339 411 491
#     4  12  29  53  86 115 166 215 287 352 413 496
#     4  10  25  43  75 113 161 213 270 330 407 492
#     4  12  28  56  82 120 162 221 283 351 423 487
#
# _framework density 27.078713
#
# number of rings (size 3 to 8) (size 9 to 14) (size 15 to 20)
#    1.000    0.000    3.333    2.000    2.333    4.000 
#    3.000    0.000    0.000    0.000    0.000    0.000 
#    0.000    0.000    0.000    0.000    0.000    0.000 
#
# Total GULP energy -67184.112393 kJ/mol
# GULP energy per Si atom -5598.676033 kJ/mol
# Density = 2.701708 g / cm^3
# Si number density = 27.078713 Si / 1000 Ang^3
#
#
#
# Elastic Constant Matrix: (Units=GPa)
#
#
# Indices 1 2 3 4 5 6 
#
# 1 117.5124 63.3247 17.9352 0.0000 8.8153 0.0000
# 2 63.3247 174.5419 23.1092 0.0000 -7.1836 0.0000
# 3 17.9352 23.1092 93.2481 0.0000 -4.8854 0.0000
# 4 0.0000 0.0000 0.0000 48.5397 0.0000 -5.2872
# 5 8.8153 -7.1836 -4.8854 0.0000 22.4213 0.0000
# 6 0.0000 0.0000 0.0000 -5.2872 0.0000 74.3592
#
#
#
# Elastic Compliance Matrix: (Units=1/GPa)
#
#
# Indices 1 2 3 4 5 6 
#
# 1 0.011475 -0.004221 -0.001485 0.000000 -0.006188 0.000000
# 2 -0.004221 0.007534 -0.000851 0.000000 0.003888 0.000000
# 3 -0.001485 -0.000851 0.011367 0.000000 0.002788 0.000000
# 4 0.000000 0.000000 0.000000 0.020763 0.000000 0.001476
# 5 -0.006188 0.003888 0.002788 0.000000 0.048886 0.000000
# 6 0.000000 0.000000 0.000000 0.001476 0.000000 0.013553
#
#
# Mechanical properties :
#
#
# Convention : Reuss Voigt Hill
#
# Bulk Modulus (GPa) = 57.93787 66.00450 61.97119
# Shear Modulus (GPa) = 37.75096 47.79292 42.77194
#
# Velocity S-wave (km/s) = 3.73784 4.20570 3.97866
# Velocity P-wave (km/s) = 6.33018 6.92906 6.63638
#
# Compressibility (1/GPa) = 0.01725987
#
# Stress axis : x y z
#
# Youngs Moduli (GPa) = 87.14301 132.73957 87.97553
#
# Poissons Ratio (x) = 0.56034 0.13066
# Poissons Ratio (y) = 0.36786 0.07490
# Poissons Ratio (z) = 0.12942 0.11301
#
# Static dielectric constant tensor:
#      x y z
#    x 2.156530 0.000000 0.077090 
#    y 0.000000 2.141120 0.000000 
#    z 0.077090 0.000000 2.158060 
# 
# From -- ./inp_files/2505.got.cif
#   From: 2010.05.17/outbox.cif.g08.bks.cpg/sg4_2_cif.got.tgz:2505.got - 2010.06.03 18:43:04.
