data_PCOD9116564
_publ_section_title
;
Structure prediction by ZEFSAII (Michael W. Deem and Ramdas Pophale) SiO2 
 PCOD9116564
Probable space group: P 21
;
_chemical_formula_sum "Si O2"
_cell_formula_units_Z 16
_cell_length_a 10.995655
_cell_length_b 5.347426
_cell_length_c 12.233718
_cell_angle_alpha 90.000000
_cell_angle_beta 67.914384
_cell_angle_gamma 90.000000
_cell_volume 666.541898
_symmetry_space_group_name_H-M "P 21"
_symmetry_group_IT_number 4
_symmetry_cell_setting 'monoclinic'
loop_
_space_group_symop_operation_xyz
x,y,z
-x,1/2+y,-z
loop_
_atom_site_type_symbol
_atom_site_label
_atom_site_fract_x
_atom_site_fract_y
_atom_site_fract_z
Si Si1 0.188439 0.207190 0.214693
Si Si2 0.083192 0.624195 0.673226
Si Si3 0.916855 0.630256 0.178909
Si Si4 0.653731 0.103034 0.899852
Si Si5 0.168261 0.917018 0.010310
Si Si6 0.479611 0.975550 0.148643
Si Si7 0.489062 0.167280 0.361762
Si Si8 0.654595 0.166128 0.524606
O O1 0.215394 0.499777 0.200523
O O2 0.334968 0.105871 0.189302
O O3 0.066119 0.104350 0.321604
O O4 0.147914 0.138818 0.104184
O O5 0.114109 0.381420 0.739904
O O6 0.190873 0.638909 0.542635
O O7 0.081802 0.889329 0.740680
O O8 0.048284 0.719844 0.067136
O O9 0.822918 0.535202 0.112138
O O10 0.706507 0.290489 0.975504
O O11 0.566663 0.190938 0.827865
O O12 0.560693 0.944285 0.009535
O O13 0.551199 0.104096 0.223666
O O14 0.595858 0.164145 0.420849
O O15 0.410643 0.425078 0.397366
O O16 0.391399 0.931801 0.412783
#
# Coordination Sequence:
#
# PCOD9116564 Si02
#       8
#     2   2   2   2   2   2   2   2
#     4  10  22  40  58  90 135 173 215 273 318 396
#     4  11  23  41  65  95 128 175 220 275 343 380
#     4  11  22  35  61  92 134 176 210 267 330 393
#     4  11  22  40  60  96 137 178 225 267 322 408
#     4  10  22  36  55  91 137 173 221 261 321 402
#     4  11  24  40  65  93 131 185 218 269 333 395
#     4  10  24  45  71  96 130 169 220 280 337 390
#     4  10  23  47  69  99 128 163 225 290 332 390
#
# _framework density 24.004493
#
# number of rings (size 3 to 8) (size 9 to 14) (size 15 to 20)
#    0.000    1.500    2.500    2.250    5.250    0.000 
#    0.000    1.250    0.000    0.000    0.000    0.000 
#    0.000    0.000    0.000    0.000    0.000    0.000 
#
# Total GULP energy -89114.539406 kJ/mol
# GULP energy per Si atom -5569.658713 kJ/mol
# Density = 2.394986 g / cm^3
# Si number density = 24.004493 Si / 1000 Ang^3
#
#
#
# Elastic Constant Matrix: (Units=GPa)
#
#
# Indices 1 2 3 4 5 6 
#
# 1 41.9286 9.8856 11.0168 0.0000 -8.2601 0.0000
# 2 9.8856 110.6975 12.5159 0.0000 2.1661 0.0000
# 3 11.0168 12.5159 45.5016 0.0000 1.6955 0.0000
# 4 0.0000 0.0000 0.0000 27.1910 0.0000 1.6425
# 5 -8.2601 2.1661 1.6955 0.0000 30.1950 0.0000
# 6 0.0000 0.0000 0.0000 1.6425 0.0000 32.1702
#
#
#
# Elastic Compliance Matrix: (Units=1/GPa)
#
#
# Indices 1 2 3 4 5 6 
#
# 1 0.027576 -0.001890 -0.006457 0.000000 0.008042 0.000000
# 2 -0.001890 0.009461 -0.002105 0.000000 -0.001078 0.000000
# 3 -0.006457 -0.002105 0.024230 0.000000 -0.002976 0.000000
# 4 0.000000 0.000000 0.000000 0.036891 0.000000 -0.001884
# 5 0.008042 -0.001078 -0.002976 0.000000 0.035562 0.000000
# 6 0.000000 0.000000 0.000000 -0.001884 0.000000 0.031181
#
#
# Mechanical properties :
#
#
# Convention : Reuss Voigt Hill
#
# Bulk Modulus (GPa) = 24.77357 29.44047 27.10702
# Shear Modulus (GPa) = 25.09285 28.89186 26.99235
#
# Velocity S-wave (km/s) = 3.23668 3.47306 3.35695
# Velocity P-wave (km/s) = 4.93061 5.32673 5.13249
#
# Compressibility (1/GPa) = 0.04036559
#
# Stress axis : x y z
#
# Youngs Moduli (GPa) = 36.26285 105.69182 41.27061
#
# Poissons Ratio (x) = 0.19976 0.26647
# Poissons Ratio (y) = 0.06854 0.08686
# Poissons Ratio (z) = 0.23413 0.22246
#
# Static dielectric constant tensor:
#      x y z
#    x 1.977730 0.000000 -0.050160 
#    y 0.000000 2.229120 0.000000 
#    z -0.050160 0.000000 1.929780 
# 
# From -- ./inp_files/11620.got.cif
#   From: 2010.05.17/outbox.cif.g08.bks.cpg/sg4_6_cif.got.tgz:11620.got - 2010.06.03 18:43:04.
