data_PCOD9116768
_publ_section_title
;
Structure prediction by ZEFSAII (Michael W. Deem and Ramdas Pophale) SiO2 
 PCOD9116768
Probable space group: P 21
;
_chemical_formula_sum "Si O2"
_cell_formula_units_Z 16
_cell_length_a 8.228488
_cell_length_b 13.430518
_cell_length_c 8.001285
_cell_angle_alpha 90.000000
_cell_angle_beta 120.504352
_cell_angle_gamma 90.000000
_cell_volume 761.857064
_symmetry_space_group_name_H-M "P 21"
_symmetry_group_IT_number 4
_symmetry_cell_setting 'monoclinic'
loop_
_space_group_symop_operation_xyz
x,y,z
-x,1/2+y,-z
loop_
_atom_site_type_symbol
_atom_site_label
_atom_site_fract_x
_atom_site_fract_y
_atom_site_fract_z
Si Si1 0.362009 0.310720 0.419635
Si Si2 0.736462 0.612199 0.796970
Si Si3 0.234309 0.060093 0.806208
Si Si4 0.367999 0.643320 0.416459
Si Si5 0.393731 0.476582 0.174533
Si Si6 0.008426 0.380370 0.417481
Si Si7 0.071820 0.666574 0.548572
Si Si8 0.945489 0.988827 0.225490
O O1 0.238954 0.225447 0.258219
O O2 0.529580 0.245349 0.586153
O O3 0.441568 0.387830 0.326205
O O4 0.224853 0.367456 0.474469
O O5 0.529878 0.589107 0.612824
O O6 0.887979 0.537179 0.796687
O O7 0.739730 0.606237 0.997977
O O8 0.426119 0.015139 0.832480
O O9 0.139475 0.136541 0.623645
O O10 0.088702 0.967357 0.738700
O O11 0.319161 0.571030 0.241013
O O12 0.195713 0.665530 0.446987
O O13 0.221367 0.443263 0.969358
O O14 0.986074 0.412586 0.598269
O O15 0.918051 0.272097 0.357291
O O16 0.135787 0.580647 0.707468
#
# Coordination Sequence:
#
# PCOD9116768 Si02
#       8
#     2   2   2   2   2   2   2   2
#     4  10  23  42  68  93 132 169 219 267 325 392
#     4  10  22  44  64  95 131 172 209 274 326 378
#     4  11  24  40  67  92 136 171 217 274 322 390
#     4  10  22  40  67  90 134 168 212 275 320 386
#     4  12  23  43  64 101 129 174 224 264 330 390
#     4  11  22  41  67  93 130 173 219 265 329 392
#     4  11  21  42  63  98 129 173 215 267 332 382
#     4  11  23  40  68  94 131 172 211 276 322 386
#
# _framework density 21.001315999999999
#
# number of rings (size 3 to 8) (size 9 to 14) (size 15 to 20)
#    0.750    0.500    1.250    6.750    1.750    0.000 
#    0.000    1.250    0.000    0.000    0.000    0.000 
#    0.000    0.000    0.000    0.000    0.000    0.000 
#
# Total GULP energy -89354.250349 kJ/mol
# GULP energy per Si atom -5584.640647 kJ/mol
# Density = 2.095352 g / cm^3
# Si number density = 21.001316 Si / 1000 Ang^3
#
#
#
# Elastic Constant Matrix: (Units=GPa)
#
#
# Indices 1 2 3 4 5 6 
#
# 1 79.7403 -2.8170 -7.8364 0.0000 -3.2878 0.0000
# 2 -2.8170 58.0925 -6.5769 0.0000 -6.8958 0.0000
# 3 -7.8364 -6.5769 39.3869 0.0000 -4.9653 0.0000
# 4 0.0000 0.0000 0.0000 13.1364 0.0000 -2.3775
# 5 -3.2878 -6.8958 -4.9653 0.0000 28.3315 0.0000
# 6 0.0000 0.0000 0.0000 -2.3775 0.0000 33.6980
#
#
#
# Elastic Compliance Matrix: (Units=1/GPa)
#
#
# Indices 1 2 3 4 5 6 
#
# 1 0.012986 0.001259 0.003091 0.000000 0.002355 0.000000
# 2 0.001259 0.018357 0.003986 0.000000 0.005313 0.000000
# 3 0.003091 0.003986 0.027443 0.000000 0.006138 0.000000
# 4 0.000000 0.000000 0.000000 0.077109 0.000000 0.005440
# 5 0.002355 0.005313 0.006138 0.000000 0.037939 0.000000
# 6 0.000000 0.000000 0.000000 0.005440 0.000000 0.030059
#
#
# Mechanical properties :
#
#
# Convention : Reuss Voigt Hill
#
# Bulk Modulus (GPa) = 13.25248 15.86212 14.55730
# Shear Modulus (GPa) = 23.54334 27.99653 25.76993
#
# Velocity S-wave (km/s) = 3.35183 3.65510 3.50675
# Velocity P-wave (km/s) = 4.61559 5.03809 4.83146
#
# Compressibility (1/GPa) = 0.07545756
#
# Stress axis : x y z
#
# Youngs Moduli (GPa) = 77.00571 54.47562 36.43859
#
# Poissons Ratio (x) = -0.06860 -0.11263
# Poissons Ratio (y) = -0.09697 -0.14523
# Poissons Ratio (z) = -0.23802 -0.21711
#
# Static dielectric constant tensor:
#      x y z
#    x 1.759190 0.000000 0.009300 
#    y 0.000000 1.752670 0.000000 
#    z 0.009300 0.000000 1.723070 
# 
# From -- ./inp_files/6202.got.cif
#   From: 2010.05.17/outbox.cif.g08.bks.cpg/sg4_4_cif.got.tgz:6202.got - 2010.06.03 18:43:04.
