data_PCOD9116919
_publ_section_title
;
Structure prediction by ZEFSAII (Michael W. Deem and Ramdas Pophale) SiO2 
 PCOD9116919
Probable space group: P 21
;
_chemical_formula_sum "Si O2"
_cell_formula_units_Z 16
_cell_length_a 7.827868
_cell_length_b 13.826030
_cell_length_c 6.431480
_cell_angle_alpha 90.000000
_cell_angle_beta 70.374893
_cell_angle_gamma 90.000000
_cell_volume 655.634033
_symmetry_space_group_name_H-M "P 21"
_symmetry_group_IT_number 4
_symmetry_cell_setting 'monoclinic'
loop_
_space_group_symop_operation_xyz
x,y,z
-x,1/2+y,-z
loop_
_atom_site_type_symbol
_atom_site_label
_atom_site_fract_x
_atom_site_fract_y
_atom_site_fract_z
Si Si1 0.776195 0.155990 0.536613
Si Si2 0.299345 0.095358 0.312277
Si Si3 0.501860 0.261759 0.372091
Si Si4 0.929335 0.862539 0.022561
Si Si5 0.269575 0.815405 0.117075
Si Si6 0.966496 0.012023 0.700369
Si Si7 0.072624 0.140970 0.048910
Si Si8 0.543463 0.928712 0.304208
O O1 0.592255 0.196269 0.514497
O O2 0.818297 0.236214 0.694604
O O3 0.792815 0.053686 0.648743
O O4 0.922309 0.152201 0.291831
O O5 0.319829 0.205707 0.381890
O O6 0.251732 0.100359 0.089145
O O7 0.139361 0.036919 0.489631
O O8 0.478877 0.038085 0.304728
O O9 0.489251 0.369567 0.469620
O O10 0.630213 0.264803 0.117840
O O11 0.754208 0.918064 0.173282
O O12 0.107837 0.878537 0.086894
O O13 0.889742 0.748964 0.044242
O O14 0.961252 0.901871 0.776221
O O15 0.420244 0.874322 0.181902
O O16 0.000257 0.073368 0.896568
#
# Coordination Sequence:
#
# PCOD9116919 Si02
#       8
#     2   2   2   2   2   2   2   2
#     4  10  22  41  72  95 134 180 230 283 351 414
#     4  11  26  45  69 102 148 181 236 297 355 421
#     4  11  23  46  70  99 145 187 226 297 354 417
#     4  12  24  45  75 100 140 184 240 286 358 425
#     4  11  23  46  72  98 142 184 232 297 349 420
#     4  11  24  45  68 104 137 185 233 290 352 427
#     4  11  23  46  71 100 137 187 233 291 354 416
#     4  11  27  44  67 110 135 188 242 289 357 426
#
# _framework density 24.403858
#
# number of rings (size 3 to 8) (size 9 to 14) (size 15 to 20)
#    0.000    1.000    2.500    3.000    7.000    1.000 
#    6.750    0.000    0.000    0.000    0.000    0.000 
#    0.000    0.000    0.000    0.000    0.000    0.000 
#
# Total GULP energy -89569.463233 kJ/mol
# GULP energy per Si atom -5598.091452 kJ/mol
# Density = 2.434831 g / cm^3
# Si number density = 24.403858 Si / 1000 Ang^3
#
#
#
# Elastic Constant Matrix: (Units=GPa)
#
#
# Indices 1 2 3 4 5 6 
#
# 1 30.7626 20.6285 4.6187 0.0000 -11.3520 0.0000
# 2 20.6285 89.3219 12.9763 0.0000 15.9462 0.0000
# 3 4.6187 12.9763 71.7960 0.0000 6.7180 0.0000
# 4 0.0000 0.0000 0.0000 43.0781 0.0000 8.9086
# 5 -11.3520 15.9462 6.7180 0.0000 24.9931 0.0000
# 6 0.0000 0.0000 0.0000 8.9086 0.0000 42.2211
#
#
#
# Elastic Compliance Matrix: (Units=1/GPa)
#
#
# Indices 1 2 3 4 5 6 
#
# 1 0.064583 -0.022269 -0.004312 0.000000 0.044701 0.000000
# 2 -0.022269 0.020488 -0.000103 0.000000 -0.023158 0.000000
# 3 -0.004312 -0.000103 0.014773 0.000000 -0.005864 0.000000
# 4 0.000000 0.000000 0.000000 0.024273 0.000000 -0.005122
# 5 0.044701 -0.023158 -0.005864 0.000000 0.076666 0.000000
# 6 0.000000 0.000000 0.000000 -0.005122 0.000000 0.024765
#
#
# Mechanical properties :
#
#
# Convention : Reuss Voigt Hill
#
# Bulk Modulus (GPa) = 21.51734 29.81417 25.66576
# Shear Modulus (GPa) = 16.98317 32.30226 24.64272
#
# Velocity S-wave (km/s) = 2.64089 3.64215 3.18116
# Velocity P-wave (km/s) = 4.25857 5.47088 4.90235
#
# Compressibility (1/GPa) = 0.04647414
#
# Stress axis : x y z
#
# Youngs Moduli (GPa) = 15.48400 48.80962 67.69044
#
# Poissons Ratio (x) = 1.08694 0.29191
# Poissons Ratio (y) = 0.34481 0.00700
# Poissons Ratio (z) = 0.06677 0.00505
#
# Static dielectric constant tensor:
#      x y z
#    x 1.936230 0.000000 0.010900 
#    y 0.000000 1.980480 0.000000 
#    z 0.010900 0.000000 1.931820 
# 
# From -- ./inp_files/1674.got.cif
#   From: 2010.05.17/outbox.cif.g08.bks.cpg/sg4_1_cif.got.tgz:1674.got - 2010.06.03 18:43:04.
