data_PCOD9116503
_publ_section_title
;
Structure prediction by ZEFSAII (Michael W. Deem and Ramdas Pophale) SiO2 
 PCOD9116503
Probable space group: P 21
;
_chemical_formula_sum "Si O2"
_cell_formula_units_Z 14
_cell_length_a 15.103826
_cell_length_b 8.200848
_cell_length_c 5.357730
_cell_angle_alpha 90.000000
_cell_angle_beta 118.975899
_cell_angle_gamma 90.000000
_cell_volume 580.559894
_symmetry_space_group_name_H-M "P 21"
_symmetry_group_IT_number 4
_symmetry_cell_setting 'monoclinic'
loop_
_space_group_symop_operation_xyz
x,y,z
-x,1/2+y,-z
loop_
_atom_site_type_symbol
_atom_site_label
_atom_site_fract_x
_atom_site_fract_y
_atom_site_fract_z
Si Si1 0.811423 0.034220 0.836581
Si Si2 0.909605 0.329236 0.137033
Si Si3 0.599238 0.512754 0.641881
Si Si4 0.788753 0.559399 0.642639
Si Si5 0.717354 0.293247 0.190929
Si Si6 0.861389 0.842286 0.406294
Si Si7 0.598771 0.175250 0.415798
O O1 0.698107 0.111348 0.702031
O O2 0.817526 0.949616 0.574761
O O3 0.901318 0.170624 0.947709
O O4 0.829434 0.906631 0.089251
O O5 0.824323 0.262142 0.210246
O O6 0.017346 0.349816 0.407937
O O7 0.871872 0.497597 0.956547
O O8 0.684552 0.625900 0.625430
O O9 0.569605 0.364451 0.420126
O O10 0.499958 0.585206 0.626324
O O11 0.660775 0.422410 0.943072
O O12 0.752617 0.386102 0.487547
O O13 0.827807 0.664039 0.463014
O O14 0.636368 0.162872 0.180346
#
# Coordination Sequence:
#
# PCOD9116503 Si02
#       7
#     2   2   2   2   2   2   2
#     4  12  27  49  71 114 151 191 248 322 364 448
#     4  11  24  47  75  98 153 197 247 297 395 434
#     4  10  24  44  72  98 144 197 247 307 381 448
#     4  10  24  47  67 105 143 195 249 309 369 458
#     4  10  21  45  71 100 138 198 244 309 364 459
#     4  12  30  42  78 112 149 191 255 314 367 453
#     4  11  24  46  70 103 146 195 252 306 386 438
#
# _framework density 24.114652
#
# number of rings (size 3 to 8) (size 9 to 14) (size 15 to 20)
#    0.000    1.143    4.286    1.714   10.000    2.286 
#    0.000    0.000    0.000    0.000    0.000    0.000 
#    0.000    0.000    0.000    0.000    0.000    0.000 
#
# Total GULP energy -78088.241804 kJ/mol
# GULP energy per Si atom -5577.731557 kJ/mol
# Density = 2.405977 g / cm^3
# Si number density = 24.114652 Si / 1000 Ang^3
#
#
#
# Elastic Constant Matrix: (Units=GPa)
#
#
# Indices 1 2 3 4 5 6 
#
# 1 134.7247 16.3433 16.9448 0.0000 9.0365 0.0000
# 2 16.3433 53.2141 -3.8651 0.0000 1.6424 0.0000
# 3 16.9448 -3.8651 36.7002 0.0000 -15.1549 0.0000
# 4 0.0000 0.0000 0.0000 33.7451 0.0000 -7.8508
# 5 9.0365 1.6424 -15.1549 0.0000 34.4693 0.0000
# 6 0.0000 0.0000 0.0000 -7.8508 0.0000 48.8790
#
#
#
# Elastic Compliance Matrix: (Units=1/GPa)
#
#
# Indices 1 2 3 4 5 6 
#
# 1 0.008962 -0.003072 -0.006563 0.000000 -0.005088 0.000000
# 2 -0.003072 0.019990 0.004231 0.000000 0.001713 0.000000
# 3 -0.006563 0.004231 0.038305 0.000000 0.018360 0.000000
# 4 0.000000 0.000000 0.000000 0.030784 0.000000 0.004944
# 5 -0.005088 0.001713 0.018360 0.000000 0.038336 0.000000
# 6 0.000000 0.000000 0.000000 0.004944 0.000000 0.021253
#
#
# Mechanical properties :
#
#
# Convention : Reuss Voigt Hill
#
# Bulk Modulus (GPa) = 17.71483 31.49834 24.60658
# Shear Modulus (GPa) = 26.70175 36.43307 31.56741
#
# Velocity S-wave (km/s) = 3.33120 3.89115 3.62201
# Velocity P-wave (km/s) = 4.70721 5.76874 5.26480
#
# Compressibility (1/GPa) = 0.05644988
#
# Stress axis : x y z
#
# Youngs Moduli (GPa) = 111.58349 50.02512 26.10624
#
# Poissons Ratio (x) = 0.15368 0.17132
# Poissons Ratio (y) = 0.34279 -0.11046
# Poissons Ratio (z) = 0.73227 -0.21166
#
# Static dielectric constant tensor:
#      x y z
#    x 2.008110 0.000000 -0.106460 
#    y 0.000000 2.062300 0.000000 
#    z -0.106460 0.000000 2.015090 
# 
# From -- ./inp_files/2479.got.cif
#   From: 2010.05.17/outbox.cif.g08.bks.cpg/sg4_2_cif.got.tgz:2479.got - 2010.06.03 18:43:04.
