data_PCOD9116415
_publ_section_title
;
Structure prediction by ZEFSAII (Michael W. Deem and Ramdas Pophale) SiO2 
 PCOD9116415
Probable space group: P 21
;
_chemical_formula_sum "Si O2"
_cell_formula_units_Z 14
_cell_length_a 10.040906
_cell_length_b 11.460953
_cell_length_c 9.294005
_cell_angle_alpha 90.000000
_cell_angle_beta 31.296914
_cell_angle_gamma 90.000000
_cell_volume 555.596612
_symmetry_space_group_name_H-M "P 21"
_symmetry_group_IT_number 4
_symmetry_cell_setting 'monoclinic'
loop_
_space_group_symop_operation_xyz
x,y,z
-x,1/2+y,-z
loop_
_atom_site_type_symbol
_atom_site_label
_atom_site_fract_x
_atom_site_fract_y
_atom_site_fract_z
Si Si1 0.180880 0.396250 0.264253
Si Si2 0.492048 0.304531 0.731317
Si Si3 0.806707 0.511078 0.385990
Si Si4 0.885480 0.733531 0.146272
Si Si5 0.599179 0.069054 0.723951
Si Si6 0.586725 0.338983 0.234286
Si Si7 0.354859 0.188182 0.220985
O O1 0.196391 0.492635 0.375009
O O2 0.119412 0.274185 0.398946
O O3 0.017565 0.444026 0.284117
O O4 0.440121 0.359608 0.936813
O O5 0.603131 0.411319 0.536037
O O6 0.229454 0.256404 0.904848
O O7 0.667546 0.188278 0.577533
O O8 0.904906 0.596647 0.170652
O O9 0.690731 0.596928 0.611736
O O10 0.661299 0.790008 0.452179
O O11 0.150054 0.797399 0.937282
O O12 0.453752 0.975813 0.758505
O O13 0.426392 0.118215 0.013090
O O14 0.564962 0.274375 0.098808
#
# Coordination Sequence:
#
# PCOD9116415 Si02
#       7
#     2   2   2   2   2   2   2
#     4  10  22  41  68  98 136 175 236 293 360 415
#     4  11  26  43  67 103 135 192 233 291 355 425
#     4  11  24  42  69  99 141 190 230 300 347 430
#     4  11  27  46  71  97 143 188 243 278 354 413
#     4  10  21  43  68 102 137 175 236 295 355 423
#     4  10  24  48  69 101 137 188 231 296 345 417
#     4   9  20  41  66 102 131 178 229 289 358 411
#
# _framework density 25.198138
#
# number of rings (size 3 to 8) (size 9 to 14) (size 15 to 20)
#    0.000    1.714    1.429    0.857    8.000    3.429 
#    2.571    0.000    0.000    0.000    0.000    0.000 
#    0.000    0.000    0.000    0.000    0.000    0.000 
#
# Total GULP energy -78212.581779 kJ/mol
# GULP energy per Si atom -5586.612984 kJ/mol
# Density = 2.514079 g / cm^3
# Si number density = 25.198138 Si / 1000 Ang^3
#
#
#
# Elastic Constant Matrix: (Units=GPa)
#
#
# Indices 1 2 3 4 5 6 
#
# 1 110.5635 33.2088 10.3212 0.0000 -9.5742 0.0000
# 2 33.2088 173.9049 17.4736 0.0000 -4.8665 0.0000
# 3 10.3212 17.4736 59.1094 0.0000 -5.0479 0.0000
# 4 0.0000 0.0000 0.0000 22.3054 0.0000 4.2116
# 5 -9.5742 -4.8665 -5.0479 0.0000 30.5480 0.0000
# 6 0.0000 0.0000 0.0000 4.2116 0.0000 52.6011
#
#
#
# Elastic Compliance Matrix: (Units=1/GPa)
#
#
# Indices 1 2 3 4 5 6 
#
# 1 0.009882 -0.001713 -0.000992 0.000000 0.002660 0.000000
# 2 -0.001713 0.006237 -0.001527 0.000000 0.000204 0.000000
# 3 -0.000992 -0.001527 0.017745 0.000000 0.002378 0.000000
# 4 0.000000 0.000000 0.000000 0.045520 0.000000 -0.003645
# 5 0.002660 0.000204 0.002378 0.000000 0.033995 0.000000
# 6 0.000000 0.000000 0.000000 -0.003645 0.000000 0.019303
#
#
# Mechanical properties :
#
#
# Convention : Reuss Voigt Hill
#
# Bulk Modulus (GPa) = 39.36986 51.73167 45.55077
# Shear Modulus (GPa) = 33.41963 39.92917 36.67440
#
# Velocity S-wave (km/s) = 3.64575 3.98503 3.81916
# Velocity P-wave (km/s) = 5.77755 6.46131 6.12897
#
# Compressibility (1/GPa) = 0.02540014
#
# Stress axis : x y z
#
# Youngs Moduli (GPa) = 101.19352 160.34568 56.35233
#
# Poissons Ratio (x) = 0.27467 0.05590
# Poissons Ratio (y) = 0.17334 0.08605
# Poissons Ratio (z) = 0.10038 0.24486
#
# Static dielectric constant tensor:
#      x y z
#    x 2.083600 0.000000 -0.013140 
#    y 0.000000 2.050460 0.000000 
#    z -0.013140 0.000000 2.040070 
# 
# From -- ./inp_files/2703.got.cif
#   From: 2010.05.17/outbox.cif.g08.bks.cpg/sg4_2_cif.got.tgz:2703.got - 2010.06.03 18:43:04.
