data_PCOD9116646
_publ_section_title
;
Structure prediction by ZEFSAII (Michael W. Deem and Ramdas Pophale) SiO2 
 PCOD9116646
Probable space group: P 21
;
_chemical_formula_sum "Si O2"
_cell_formula_units_Z 16
_cell_length_a 6.766516
_cell_length_b 6.741059
_cell_length_c 18.035530
_cell_angle_alpha 90.000000
_cell_angle_beta 109.354506
_cell_angle_gamma 90.000000
_cell_volume 776.171440
_symmetry_space_group_name_H-M "P 21"
_symmetry_group_IT_number 4
_symmetry_cell_setting 'monoclinic'
loop_
_space_group_symop_operation_xyz
x,y,z
-x,1/2+y,-z
loop_
_atom_site_type_symbol
_atom_site_label
_atom_site_fract_x
_atom_site_fract_y
_atom_site_fract_z
Si Si1 0.762277 0.092600 0.550224
Si Si2 0.490701 0.940896 0.915437
Si Si3 0.069238 0.051365 0.782891
Si Si4 0.702122 0.558566 0.955720
Si Si5 0.487255 0.921306 0.385465
Si Si6 0.119279 0.331429 0.647870
Si Si7 0.118967 0.690947 0.090477
Si Si8 0.119374 0.214668 0.336497
O O1 0.624879 0.242676 0.583817
O O2 0.981040 0.212407 0.569541
O O3 0.638289 0.040635 0.460717
O O4 0.804708 0.884371 0.596868
O O5 0.300877 0.026798 0.844544
O O6 0.543265 0.715554 0.902404
O O7 0.702228 0.059901 0.925900
O O8 0.419160 0.947959 0.992455
O O9 0.988532 0.841501 0.741556
O O10 0.074271 0.210219 0.717402
O O11 0.921999 0.123672 0.831142
O O12 0.797919 0.412305 0.907775
O O13 0.900182 0.665958 0.019410
O O14 0.638005 0.832543 0.342133
O O15 0.313708 0.076916 0.336604
O O16 0.038153 0.555893 0.646494
#
# Coordination Sequence:
#
# PCOD9116646 Si02
#       8
#     2   2   2   2   2   2   2   2
#     4  10  22  39  63 102 126 163 222 270 336 380
#     4  11  23  40  70  98 132 167 217 272 326 387
#     4  10  26  46  62  97 135 181 216 257 330 406
#     4  11  22  41  67 104 125 165 218 273 325 379
#     4  11  22  40  70  95 131 171 213 285 326 381
#     4  10  25  42  65  94 133 171 221 268 319 402
#     4  11  23  41  70  94 135 167 213 273 327 382
#     4  10  23  45  63  94 135 169 222 266 321 401
#
# _framework density 20.614001999999999
#
# number of rings (size 3 to 8) (size 9 to 14) (size 15 to 20)
#    0.000    1.500    3.750    0.000    1.750    8.000 
#    0.000    0.000    0.000    0.000    0.000    0.000 
#    0.000    0.000    0.000    0.000    0.000    0.000 
#
# Total GULP energy -89407.435544 kJ/mol
# GULP energy per Si atom -5587.964721 kJ/mol
# Density = 2.056708 g / cm^3
# Si number density = 20.614002 Si / 1000 Ang^3
#
#
#
# Elastic Constant Matrix: (Units=GPa)
#
#
# Indices 1 2 3 4 5 6 
#
# 1 99.1298 22.1954 11.0209 0.0000 -12.2212 0.0000
# 2 22.1954 109.4107 12.6928 0.0000 -8.6120 0.0000
# 3 11.0209 12.6928 39.5892 0.0000 -2.5354 0.0000
# 4 0.0000 0.0000 0.0000 26.2716 0.0000 6.1176
# 5 -12.2212 -8.6120 -2.5354 0.0000 9.8787 0.0000
# 6 0.0000 0.0000 0.0000 6.1176 0.0000 31.8569
#
#
#
# Elastic Compliance Matrix: (Units=1/GPa)
#
#
# Indices 1 2 3 4 5 6 
#
# 1 0.012267 -0.001166 -0.002170 0.000000 0.013602 0.000000
# 2 -0.001166 0.010204 -0.002511 0.000000 0.006808 0.000000
# 3 -0.002170 -0.002511 0.026797 0.000000 0.002004 0.000000
# 4 0.000000 0.000000 0.000000 0.039846 0.000000 -0.007652
# 5 0.013602 0.006808 0.002004 0.000000 0.124505 0.000000
# 6 0.000000 0.000000 0.000000 -0.007652 0.000000 0.032860
#
#
# Mechanical properties :
#
#
# Convention : Reuss Voigt Hill
#
# Bulk Modulus (GPa) = 26.61420 37.77197 32.19309
# Shear Modulus (GPa) = 18.47091 27.08283 22.77687
#
# Velocity S-wave (km/s) = 2.99664 3.62858 3.32764
# Velocity P-wave (km/s) = 4.99118 5.99322 5.51500
#
# Compressibility (1/GPa) = 0.03757393
#
# Stress axis : x y z
#
# Youngs Moduli (GPa) = 81.51894 98.00454 37.31791
#
# Poissons Ratio (x) = 0.11429 0.08098
# Poissons Ratio (y) = 0.09506 0.09370
# Poissons Ratio (z) = 0.17689 0.24606
#
# Static dielectric constant tensor:
#      x y z
#    x 1.740020 0.000000 0.002900 
#    y 0.000000 1.744790 0.000000 
#    z 0.002900 0.000000 1.717900 
# 
# From -- ./inp_files/4204.got.cif
#   From: 2010.05.17/outbox.cif.g08.bks.cpg/sg4_3_cif.got.tgz:4204.got - 2010.06.03 18:43:04.
