data_PCOD9116443
_publ_section_title
;
Structure prediction by ZEFSAII (Michael W. Deem and Ramdas Pophale) SiO2 
 PCOD9116443
Probable space group: P 21
;
_chemical_formula_sum "Si O2"
_cell_formula_units_Z 16
_cell_length_a 14.216137
_cell_length_b 5.058348
_cell_length_c 17.624238
_cell_angle_alpha 90.000000
_cell_angle_beta 34.931282
_cell_angle_gamma 90.000000
_cell_volume 725.683285
_symmetry_space_group_name_H-M "P 21"
_symmetry_group_IT_number 4
_symmetry_cell_setting 'monoclinic'
loop_
_space_group_symop_operation_xyz
x,y,z
-x,1/2+y,-z
loop_
_atom_site_type_symbol
_atom_site_label
_atom_site_fract_x
_atom_site_fract_y
_atom_site_fract_z
Si Si1 0.401302 0.435110 0.977892
Si Si2 0.391508 0.389464 0.811979
Si Si3 0.460665 0.456849 0.565909
Si Si4 0.079289 0.490709 0.646743
Si Si5 0.905499 0.065148 0.182949
Si Si6 0.284715 0.936222 0.140809
Si Si7 0.198750 0.896321 0.879237
Si Si8 0.715399 0.473520 0.526531
O O1 0.349096 0.365625 0.928109
O O2 0.595017 0.398004 0.867289
O O3 0.350955 0.731322 0.033665
O O4 0.311927 0.233335 0.093516
O O5 0.293429 0.631742 0.840507
O O6 0.585243 0.460996 0.680742
O O7 0.327000 0.129957 0.811432
O O8 0.486330 0.768874 0.537653
O O9 0.268819 0.414966 0.704753
O O10 0.590489 0.378517 0.543273
O O11 0.055680 0.561254 0.752570
O O12 0.143805 0.755306 0.563993
O O13 0.907874 0.396157 0.724946
O O14 0.209333 0.255423 0.545923
O O15 0.869304 0.340631 0.161058
O O16 0.046543 0.939150 0.037459
#
# Coordination Sequence:
#
# PCOD9116443 Si02
#       8
#     2   2   2   2   2   2   2   2
#     4  10  21  43  72  98 132 166 211 269 338 388
#     4  12  25  45  65  95 134 173 217 268 332 388
#     4  12  24  42  62  84 120 175 222 261 308 367
#     4  12  25  42  65  92 130 165 219 264 317 376
#     4  12  26  42  62  91 127 167 215 268 319 373
#     4  10  22  42  71 103 126 167 216 269 328 399
#     4  12  28  41  64  96 131 172 217 273 328 386
#     4  12  25  41  61  91 124 175 215 262 310 389
#
# _framework density 22.048188
#
# number of rings (size 3 to 8) (size 9 to 14) (size 15 to 20)
#    0.000    0.500    3.750    4.500    1.750    4.000 
#    0.000    1.250    0.000    0.000    0.000    0.000 
#    0.000    0.000    0.000    0.000    0.000    0.000 
#
# Total GULP energy -89395.227710 kJ/mol
# GULP energy per Si atom -5587.201732 kJ/mol
# Density = 2.199801 g / cm^3
# Si number density = 22.048188 Si / 1000 Ang^3
#
#
#
# Elastic Constant Matrix: (Units=GPa)
#
#
# Indices 1 2 3 4 5 6 
#
# 1 40.1996 16.2449 -2.1990 0.0000 -17.1450 0.0000
# 2 16.2449 104.8349 17.3055 0.0000 3.8547 0.0000
# 3 -2.1990 17.3055 92.4384 0.0000 -12.7905 0.0000
# 4 0.0000 0.0000 0.0000 33.8723 0.0000 -9.4179
# 5 -17.1450 3.8547 -12.7905 0.0000 25.0669 0.0000
# 6 0.0000 0.0000 0.0000 -9.4179 0.0000 23.8595
#
#
#
# Elastic Compliance Matrix: (Units=1/GPa)
#
#
# Indices 1 2 3 4 5 6 
#
# 1 0.044402 -0.009482 0.007785 0.000000 0.035800 0.000000
# 2 -0.009482 0.012033 -0.003908 0.000000 -0.010330 0.000000
# 3 0.007785 -0.003908 0.013508 0.000000 0.012818 0.000000
# 4 0.000000 0.000000 0.000000 0.033162 0.000000 0.013090
# 5 0.035800 -0.010330 0.012818 0.000000 0.072509 0.000000
# 6 0.000000 0.000000 0.000000 0.013090 0.000000 0.047079
#
#
# Mechanical properties :
#
#
# Convention : Reuss Voigt Hill
#
# Bulk Modulus (GPa) = 17.02580 33.35288 25.18934
# Shear Modulus (GPa) = 19.72542 30.30117 25.01329
#
# Velocity S-wave (km/s) = 2.99432 3.71120 3.37186
# Velocity P-wave (km/s) = 4.43773 5.79000 5.15837
#
# Compressibility (1/GPa) = 0.05873439
#
# Stress axis : x y z
#
# Youngs Moduli (GPa) = 22.52153 83.10524 74.02809
#
# Poissons Ratio (x) = 0.78799 -0.57630
# Poissons Ratio (y) = 0.21355 0.28927
# Poissons Ratio (z) = -0.17533 0.32474
#
# Static dielectric constant tensor:
#      x y z
#    x 1.794710 0.000000 0.026280 
#    y 0.000000 1.782150 0.000000 
#    z 0.026280 0.000000 1.879360 
# 
# From -- ./inp_files/15206.got.cif
#   From: 2010.05.17/outbox.cif.g08.bks.cpg/sg4_8_cif.got.tgz:15206.got - 2010.06.03 18:43:04.
