data_PCOD9116529
_publ_section_title
;
Structure prediction by ZEFSAII (Michael W. Deem and Ramdas Pophale) SiO2 
 PCOD9116529
Probable space group: P 21
;
_chemical_formula_sum "Si O2"
_cell_formula_units_Z 14
_cell_length_a 12.771707
_cell_length_b 8.900857
_cell_length_c 6.537776
_cell_angle_alpha 90.000000
_cell_angle_beta 124.356102
_cell_angle_gamma 90.000000
_cell_volume 613.553085
_symmetry_space_group_name_H-M "P 21"
_symmetry_group_IT_number 4
_symmetry_cell_setting 'monoclinic'
loop_
_space_group_symop_operation_xyz
x,y,z
-x,1/2+y,-z
loop_
_atom_site_type_symbol
_atom_site_label
_atom_site_fract_x
_atom_site_fract_y
_atom_site_fract_z
Si Si1 0.429831 0.487240 0.201749
Si Si2 0.044344 0.783860 0.670080
Si Si3 0.549778 0.310578 0.671200
Si Si4 0.861915 0.765530 0.827404
Si Si5 0.236230 0.031945 0.972871
Si Si6 0.841670 0.957429 0.189589
Si Si7 0.639109 0.684878 0.264139
O O1 0.454779 0.351749 0.384041
O O2 0.398564 0.641305 0.293307
O O3 0.563175 0.532641 0.246430
O O4 0.308064 0.462676 0.924799
O O5 0.928319 0.836195 0.400561
O O6 0.694402 0.644773 0.105553
O O7 0.151736 0.909582 0.762744
O O8 0.990322 0.781090 0.841326
O O9 0.473617 0.301705 0.802881
O O10 0.656755 0.435613 0.794718
O O11 0.850662 0.624323 0.967123
O O12 0.844821 0.910401 0.953815
O O13 0.751588 0.732038 0.540694
O O14 0.901053 0.118774 0.307283
#
# Coordination Sequence:
#
# PCOD9116529 Si02
#       7
#     2   2   2   2   2   2   2
#     4  10  21  46  73 107 143 188 238 295 370 441
#     4  12  27  45  70 106 140 196 249 293 369 427
#     4  10  21  46  73 109 144 189 238 294 377 431
#     4  12  24  44  71  97 144 191 240 302 359 423
#     4  12  24  47  73 105 151 187 241 307 355 442
#     4  12  24  47  70 100 148 185 249 305 353 447
#     4  10  23  41  72 108 140 184 233 298 367 421
#
# _framework density 22.817910000000001
#
# number of rings (size 3 to 8) (size 9 to 14) (size 15 to 20)
#    0.857    0.000    4.286    3.429    0.000    2.286 
#    0.000    1.429    0.000    0.000    0.000    0.000 
#    0.000    0.000    0.000    0.000    0.000    0.000 
#
# Total GULP energy -78175.476121 kJ/mol
# GULP energy per Si atom -5583.962580 kJ/mol
# Density = 2.276598 g / cm^3
# Si number density = 22.817910 Si / 1000 Ang^3
#
#
#
# Elastic Constant Matrix: (Units=GPa)
#
#
# Indices 1 2 3 4 5 6 
#
# 1 80.4387 14.0162 10.0216 0.0000 6.6584 0.0000
# 2 14.0162 124.9171 50.1943 0.0000 11.0232 0.0000
# 3 10.0216 50.1943 121.6066 0.0000 17.1808 0.0000
# 4 0.0000 0.0000 0.0000 48.1619 0.0000 5.9462
# 5 6.6584 11.0232 17.1808 0.0000 27.6475 0.0000
# 6 0.0000 0.0000 0.0000 5.9462 0.0000 33.4383
#
#
#
# Elastic Compliance Matrix: (Units=1/GPa)
#
#
# Indices 1 2 3 4 5 6 
#
# 1 0.012865 -0.001126 -0.000243 0.000000 -0.002499 0.000000
# 2 -0.001126 0.009752 -0.003751 0.000000 -0.001286 0.000000
# 3 -0.000243 -0.003751 0.010493 0.000000 -0.004967 0.000000
# 4 0.000000 0.000000 0.000000 0.021229 0.000000 -0.003775
# 5 -0.002499 -0.001286 -0.004967 0.000000 0.040371 0.000000
# 6 0.000000 0.000000 0.000000 -0.003775 0.000000 0.030577
#
#
# Mechanical properties :
#
#
# Convention : Reuss Voigt Hill
#
# Bulk Modulus (GPa) = 43.72063 52.82520 48.27292
# Shear Modulus (GPa) = 34.92841 38.69822 36.81331
#
# Velocity S-wave (km/s) = 3.91672 4.12267 4.02101
# Velocity P-wave (km/s) = 6.29734 6.77221 6.53909
#
# Compressibility (1/GPa) = 0.02287250
#
# Stress axis : x y z
#
# Youngs Moduli (GPa) = 77.73021 102.54000 95.30021
#
# Poissons Ratio (x) = 0.11541 0.02312
# Poissons Ratio (y) = 0.08749 0.35746
# Poissons Ratio (z) = 0.01886 0.38461
#
# Static dielectric constant tensor:
#      x y z
#    x 1.872740 0.000000 0.001810 
#    y 0.000000 1.854310 0.000000 
#    z 0.001810 0.000000 1.855290 
# 
# From -- ./inp_files/9599.got.cif
#   From: 2010.05.17/outbox.cif.g08.bks.cpg/sg4_5_cif.got.tgz:9599.got - 2010.06.03 18:43:04.
