data_PCOD9116726
_publ_section_title
;
Structure prediction by ZEFSAII (Michael W. Deem and Ramdas Pophale) SiO2 
 PCOD9116726
Probable space group: P 21
;
_chemical_formula_sum "Si O2"
_cell_formula_units_Z 16
_cell_length_a 6.741668
_cell_length_b 6.598654
_cell_length_c 22.262956
_cell_angle_alpha 90.000000
_cell_angle_beta 128.838001
_cell_angle_gamma 90.000000
_cell_volume 771.435517
_symmetry_space_group_name_H-M "P 21"
_symmetry_group_IT_number 4
_symmetry_cell_setting 'monoclinic'
loop_
_space_group_symop_operation_xyz
x,y,z
-x,1/2+y,-z
loop_
_atom_site_type_symbol
_atom_site_label
_atom_site_fract_x
_atom_site_fract_y
_atom_site_fract_z
Si Si1 0.616097 0.807760 0.829336
Si Si2 0.143726 0.079600 0.461792
Si Si3 0.553599 0.758452 0.581569
Si Si4 0.315534 0.531919 0.280191
Si Si5 0.667755 0.866039 0.399691
Si Si6 0.106551 0.059934 0.948662
Si Si7 0.685740 0.399454 0.888701
Si Si8 0.714246 0.566630 0.147212
O O1 0.577067 0.926460 0.759568
O O2 0.619230 0.566082 0.826340
O O3 0.415858 0.880883 0.841758
O O4 0.900155 0.879737 0.902095
O O5 0.338645 0.893406 0.508266
O O6 0.868623 0.988518 0.398688
O O7 0.223640 0.223745 0.423236
O O8 0.171270 0.211790 0.527649
O O9 0.640040 0.879954 0.656303
O O10 0.460119 0.536591 0.583213
O O11 0.466848 0.735450 0.324822
O O12 0.015413 0.574376 0.216906
O O13 0.293871 0.057789 0.926989
O O14 0.928338 0.260632 0.916920
O O15 0.245079 0.022047 0.037621
O O16 0.449333 0.254907 0.859357
#
# Coordination Sequence:
#
# PCOD9116726 Si02
#       8
#     2   2   2   2   2   2   2   2
#     4  10  23  45  64  92 135 172 219 269 324 397
#     4  11  22  41  67 104 126 164 218 273 326 379
#     4  11  23  40  70  97 134 167 216 274 325 387
#     4  10  26  46  63  95 136 182 215 261 330 402
#     4  11  23  41  70  96 132 169 214 271 328 386
#     4  10  22  40  64 101 128 164 220 275 335 381
#     4  11  22  39  70  95 130 172 213 285 328 382
#     4  10  25  42  64  96 133 168 225 268 320 406
#
# _framework density 20.740552000000001
#
# number of rings (size 3 to 8) (size 9 to 14) (size 15 to 20)
#    0.000    1.500    3.750    0.000    1.750    8.000 
#    0.000    0.000    0.000    0.000    0.000    0.000 
#    0.000    0.000    0.000    0.000    0.000    0.000 
#
# Total GULP energy -89407.991548 kJ/mol
# GULP energy per Si atom -5587.999472 kJ/mol
# Density = 2.069335 g / cm^3
# Si number density = 20.740552 Si / 1000 Ang^3
#
#
#
# Elastic Constant Matrix: (Units=GPa)
#
#
# Indices 1 2 3 4 5 6 
#
# 1 102.0490 18.1233 14.3487 0.0000 -9.9783 0.0000
# 2 18.1233 78.5969 11.2631 0.0000 2.0342 0.0000
# 3 14.3487 11.2631 52.0446 0.0000 -7.5279 0.0000
# 4 0.0000 0.0000 0.0000 14.0813 0.0000 -2.1624
# 5 -9.9783 2.0342 -7.5279 0.0000 24.7311 0.0000
# 6 0.0000 0.0000 0.0000 -2.1624 0.0000 27.8583
#
#
#
# Elastic Compliance Matrix: (Units=1/GPa)
#
#
# Indices 1 2 3 4 5 6 
#
# 1 0.010874 -0.002337 -0.001914 0.000000 0.003997 0.000000
# 2 -0.002337 0.013731 -0.002748 0.000000 -0.002909 0.000000
# 3 -0.001914 -0.002748 0.021191 0.000000 0.005904 0.000000
# 4 0.000000 0.000000 0.000000 0.071873 0.000000 0.005579
# 5 0.003997 -0.002909 0.005904 0.000000 0.044084 0.000000
# 6 0.000000 0.000000 0.000000 0.005579 0.000000 0.036329
#
#
# Mechanical properties :
#
#
# Convention : Reuss Voigt Hill
#
# Bulk Modulus (GPa) = 31.44834 35.57340 33.51087
# Shear Modulus (GPa) = 22.45386 25.93117 24.19252
#
# Velocity S-wave (km/s) = 3.29387 3.53974 3.41902
# Velocity P-wave (km/s) = 5.44626 5.82196 5.63724
#
# Compressibility (1/GPa) = 0.03179819
#
# Stress axis : x y z
#
# Youngs Moduli (GPa) = 91.96139 72.82781 47.19039
#
# Poissons Ratio (x) = 0.17017 0.09033
# Poissons Ratio (y) = 0.21487 0.12968
# Poissons Ratio (z) = 0.17603 0.20014
#
# Static dielectric constant tensor:
#      x y z
#    x 1.745420 0.000000 -0.013950 
#    y 0.000000 1.741680 0.000000 
#    z -0.013950 0.000000 1.732530 
# 
# From -- ./inp_files/4002.got.cif
#   From: 2010.05.17/outbox.cif.g08.bks.cpg/sg4_3_cif.got.tgz:4002.got - 2010.06.03 18:43:04.
