data_PCOD9116696
_publ_section_title
;
Structure prediction by ZEFSAII (Michael W. Deem and Ramdas Pophale) SiO2 
 PCOD9116696
Probable space group: P 21
;
_chemical_formula_sum "Si O2"
_cell_formula_units_Z 14
_cell_length_a 5.144398
_cell_length_b 5.578347
_cell_length_c 19.552264
_cell_angle_alpha 90.000000
_cell_angle_beta 124.886319
_cell_angle_gamma 90.000000
_cell_volume 460.260543
_symmetry_space_group_name_H-M "P 21"
_symmetry_group_IT_number 4
_symmetry_cell_setting 'monoclinic'
loop_
_space_group_symop_operation_xyz
x,y,z
-x,1/2+y,-z
loop_
_atom_site_type_symbol
_atom_site_label
_atom_site_fract_x
_atom_site_fract_y
_atom_site_fract_z
Si Si1 0.055683 0.365210 0.820406
Si Si2 0.719690 0.103716 0.895171
Si Si3 0.433198 0.795250 0.750860
Si Si4 0.267776 0.319235 0.551722
Si Si5 0.690866 0.162365 0.034317
Si Si6 0.929865 0.794594 0.319216
Si Si7 0.423334 0.818113 0.599467
O O1 0.384527 0.228443 0.859087
O O2 0.865173 0.327580 0.721424
O O3 0.881226 0.241996 0.857511
O O4 0.148487 0.618845 0.867896
O O5 0.886548 0.120159 0.993404
O O6 0.639744 0.850930 0.848276
O O7 0.280311 0.534364 0.729909
O O8 0.581415 0.809567 0.697179
O O9 0.195485 0.022293 0.709814
O O10 0.098380 0.316115 0.601503
O O11 0.473782 0.560317 0.571739
O O12 0.965580 0.315184 0.455889
O O13 0.476654 0.078479 0.574222
O O14 0.547663 0.430396 0.009269
#
# Coordination Sequence:
#
# PCOD9116696 Si02
#       7
#     2   2   2   2   2   2   2
#     4  10  22  40  62  89 120 156 198 244 296 353
#     4  10  22  40  62  89 120 156 198 244 296 353
#     4   9  17  32  52  80 115 152 194 240 291 346
#     4   8  13  22  41  71 106 144 186 232 282 337
#     4  10  22  42  64  90 122 158 200 246 298 354
#     4   9  17  32  52  80 115 152 194 240 291 346
#     4   8  13  22  41  71 106 144 186 232 282 337
#
# _framework density 30.417558
#
# number of rings (size 3 to 8) (size 9 to 14) (size 15 to 20)
#    0.000    2.857    0.000    0.857    0.000    4.571 
#    0.000   17.143    0.000    0.000    0.000   38.000 
#    0.000    0.000    0.000    0.000    0.000    0.000 
#
# Total GULP energy -78222.776461 kJ/mol
# GULP energy per Si atom -5587.341176 kJ/mol
# Density = 3.034833 g / cm^3
# Si number density = 30.417558 Si / 1000 Ang^3
#
#
#
# Elastic Constant Matrix: (Units=GPa)
#
#
# Indices 1 2 3 4 5 6 
#
# 1 128.5660 34.7827 42.3421 0.0000 -41.5913 0.0000
# 2 34.7827 233.1459 47.2530 0.0000 -10.7508 0.0000
# 3 42.3421 47.2530 223.4091 0.0000 -27.6838 0.0000
# 4 0.0000 0.0000 0.0000 65.5883 0.0000 5.5906
# 5 -41.5913 -10.7508 -27.6838 0.0000 51.0730 0.0000
# 6 0.0000 0.0000 0.0000 5.5906 0.0000 57.0410
#
#
#
# Elastic Compliance Matrix: (Units=1/GPa)
#
#
# Indices 1 2 3 4 5 6 
#
# 1 0.011035 -0.001095 -0.000831 0.000000 0.008305 0.000000
# 2 -0.001095 0.004600 -0.000810 0.000000 -0.000363 0.000000
# 3 -0.000831 -0.000810 0.005038 0.000000 0.001884 0.000000
# 4 0.000000 0.000000 0.000000 0.015375 0.000000 -0.001507
# 5 0.008305 -0.000363 0.001884 0.000000 0.027288 0.000000
# 6 0.000000 0.000000 0.000000 -0.001507 0.000000 0.017679
#
#
# Mechanical properties :
#
#
# Convention : Reuss Voigt Hill
#
# Bulk Modulus (GPa) = 65.78396 92.65294 79.21845
# Shear Modulus (GPa) = 54.61246 65.45667 60.03457
#
# Velocity S-wave (km/s) = 4.24184 4.64393 4.44743
# Velocity P-wave (km/s) = 6.75758 7.69943 7.24383
#
# Compressibility (1/GPa) = 0.01520127
#
# Stress axis : x y z
#
# Youngs Moduli (GPa) = 90.62334 217.38987 198.47667
#
# Poissons Ratio (x) = 0.23803 0.16486
# Poissons Ratio (y) = 0.09923 0.16084
# Poissons Ratio (z) = 0.07527 0.17616
#
# Static dielectric constant tensor:
#      x y z
#    x 2.560310 0.000000 0.199110 
#    y 0.000000 2.380650 0.000000 
#    z 0.199110 0.000000 2.576110 
# 
# From -- ./inp_files/15466.got.cif
#   From: 2010.05.17/outbox.cif.g08.bks.cpg/sg4_8_cif.got.tgz:15466.got - 2010.06.03 18:43:04.
