data_PCOD9116029
_publ_section_title
;
Structure prediction by ZEFSAII (Michael W. Deem and Ramdas Pophale) SiO2 
 PCOD9116029
Probable space group: P 21
;
_chemical_formula_sum "Si O2"
_cell_formula_units_Z 16
_cell_length_a 5.592239
_cell_length_b 9.982215
_cell_length_c 11.622209
_cell_angle_alpha 90.000000
_cell_angle_beta 111.859611
_cell_angle_gamma 90.000000
_cell_volume 602.137404
_symmetry_space_group_name_H-M "P 21"
_symmetry_group_IT_number 4
_symmetry_cell_setting 'monoclinic'
loop_
_space_group_symop_operation_xyz
x,y,z
-x,1/2+y,-z
loop_
_atom_site_type_symbol
_atom_site_label
_atom_site_fract_x
_atom_site_fract_y
_atom_site_fract_z
Si Si1 0.615950 0.294490 0.075186
Si Si2 0.363848 0.465631 0.238610
Si Si3 0.789884 0.842021 0.162338
Si Si4 0.828417 0.258320 0.583494
Si Si5 0.317189 0.226693 0.390103
Si Si6 0.963023 0.502729 0.001500
Si Si7 0.876201 0.526578 0.466611
Si Si8 0.530773 0.082324 0.212258
O O1 0.489573 0.380395 0.156253
O O2 0.718448 0.169147 0.164647
O O3 0.414515 0.248542 0.939669
O O4 0.815134 0.385977 0.044145
O O5 0.232417 0.357744 0.303036
O O6 0.602978 0.529559 0.349729
O O7 0.159773 0.557345 0.133258
O O8 0.032980 0.789231 0.273236
O O9 0.887040 0.934420 0.076001
O O10 0.627239 0.931809 0.222826
O O11 0.522843 0.275026 0.522565
O O12 0.925209 0.372172 0.509148
O O13 0.916101 0.108096 0.569001
O O14 0.143621 0.115942 0.420772
O O15 0.488964 0.144489 0.328255
O O16 0.745265 0.591484 0.902220
#
# Coordination Sequence:
#
# PCOD9116029 Si02
#       8
#     2   2   2   2   2   2   2   2
#     4   9  21  39  59  88 124 162 208 265 327 393
#     4   9  22  41  62  96 127 166 219 266 324 392
#     4  10  22  37  60  95 122 160 216 264 326 389
#     4  11  25  43  66  95 133 174 215 274 329 383
#     4  10  23  41  64  92 129 173 219 264 325 397
#     4  10  21  39  64  89 126 166 208 272 333 382
#     4  11  25  44  68  98 132 175 223 268 329 397
#     4  10  21  40  63  89 123 164 218 269 321 393
#
# _framework density 26.572009999999999
#
# number of rings (size 3 to 8) (size 9 to 14) (size 15 to 20)
#    0.000    2.000    0.000    1.500    0.000   18.000 
#    0.000    2.500    0.000    0.000    0.000    0.000 
#    0.000    0.000    0.000    0.000    0.000    0.000 
#
# Total GULP energy -89515.428488 kJ/mol
# GULP energy per Si atom -5594.714281 kJ/mol
# Density = 2.651153 g / cm^3
# Si number density = 26.572010 Si / 1000 Ang^3
#
#
#
# Elastic Constant Matrix: (Units=GPa)
#
#
# Indices 1 2 3 4 5 6 
#
# 1 30.0182 11.2044 19.1422 0.0000 -2.9212 0.0000
# 2 11.2044 64.8839 28.0530 0.0000 -5.9209 0.0000
# 3 19.1422 28.0530 178.4528 0.0000 29.5749 0.0000
# 4 0.0000 0.0000 0.0000 29.4888 0.0000 -10.1638
# 5 -2.9212 -5.9209 29.5749 0.0000 43.6692 0.0000
# 6 0.0000 0.0000 0.0000 -10.1638 0.0000 46.7329
#
#
#
# Elastic Compliance Matrix: (Units=1/GPa)
#
#
# Indices 1 2 3 4 5 6 
#
# 1 0.038072 -0.004319 -0.004202 0.000000 0.004807 0.000000
# 2 -0.004319 0.017854 -0.003038 0.000000 0.004189 0.000000
# 3 -0.004202 -0.003038 0.007487 0.000000 -0.005764 0.000000
# 4 0.000000 0.000000 0.000000 0.036659 0.000000 0.007973
# 5 0.004807 0.004189 -0.005764 0.000000 0.027692 0.000000
# 6 0.000000 0.000000 0.000000 0.007973 0.000000 0.023132
#
#
# Mechanical properties :
#
#
# Convention : Reuss Voigt Hill
#
# Bulk Modulus (GPa) = 24.81619 43.35047 34.08333
# Shear Modulus (GPa) = 26.67444 38.30853 32.49148
#
# Velocity S-wave (km/s) = 3.17180 3.80107 3.50061
# Velocity P-wave (km/s) = 4.77214 5.96774 5.40311
#
# Compressibility (1/GPa) = 0.04029628
#
# Stress axis : x y z
#
# Youngs Moduli (GPa) = 26.26583 56.01118 133.56321
#
# Poissons Ratio (x) = 0.24193 0.56117
# Poissons Ratio (y) = 0.11345 0.40570
# Poissons Ratio (z) = 0.11036 0.17013
#
# Static dielectric constant tensor:
#      x y z
#    x 2.092370 0.000000 0.051500 
#    y 0.000000 2.083590 0.000000 
#    z 0.051500 0.000000 2.033870 
# 
# From -- ./inp_files/3031.got.cif
#   From: 2010.05.17/outbox.cif.g08.bks.cpg/sg4_2_cif.got.tgz:3031.got - 2010.06.03 18:43:04.
