data_PCOD9116568
_publ_section_title
;
Structure prediction by ZEFSAII (Michael W. Deem and Ramdas Pophale) SiO2 
 PCOD9116568
Probable space group: P 21
;
_chemical_formula_sum "Si O2"
_cell_formula_units_Z 12
_cell_length_a 9.985685
_cell_length_b 9.195719
_cell_length_c 5.252161
_cell_angle_alpha 90.000000
_cell_angle_beta 89.183736
_cell_angle_gamma 90.000000
_cell_volume 482.233648
_symmetry_space_group_name_H-M "P 21"
_symmetry_group_IT_number 4
_symmetry_cell_setting 'monoclinic'
loop_
_space_group_symop_operation_xyz
x,y,z
-x,1/2+y,-z
loop_
_atom_site_type_symbol
_atom_site_label
_atom_site_fract_x
_atom_site_fract_y
_atom_site_fract_z
Si Si1 0.085946 0.378720 0.241652
Si Si2 0.759962 0.870029 0.259898
Si Si3 0.936967 0.642862 0.105241
Si Si4 0.644950 0.374515 0.278032
Si Si5 0.223173 0.774824 0.241952
Si Si6 0.566583 0.081561 0.507160
O O1 0.137812 0.414396 0.517880
O O2 0.064667 0.207135 0.183028
O O3 0.963869 0.477164 0.155500
O O4 0.193233 0.419335 0.018324
O O5 0.799056 0.700216 0.232185
O O6 0.623061 0.946256 0.338455
O O7 0.070402 0.723750 0.211897
O O8 0.753932 0.366696 0.502614
O O9 0.553492 0.226508 0.332168
O O10 0.554268 0.514408 0.331830
O O11 0.711467 0.353682 0.002250
O O12 0.319824 0.639025 0.304052
#
# Coordination Sequence:
#
# PCOD9116568 Si02
#       6
#     2   2   2   2   2   2
#     4  10  22  36  61  92 124 160 202 242 305 374
#     4  10  23  36  68  88 127 161 204 246 317 362
#     4  10  23  40  64  93 123 165 204 247 318 365
#     4  10  24  39  69  90 121 167 209 250 308 358
#     4  10  23  39  69  85 131 158 206 252 314 360
#     4  10  23  44  67  88 126 161 211 255 306 361
#
# _framework density 24.884201999999998
#
# number of rings (size 3 to 8) (size 9 to 14) (size 15 to 20)
#    2.000    0.000    1.667    1.000    7.000    0.000 
#    3.000    1.667    0.000    0.000    0.000    0.000 
#    0.000    0.000    0.000    0.000    0.000    0.000 
#
# Total GULP energy -66846.132411 kJ/mol
# GULP energy per Si atom -5570.511034 kJ/mol
# Density = 2.482756 g / cm^3
# Si number density = 24.884202 Si / 1000 Ang^3
#
#
#
# Elastic Constant Matrix: (Units=GPa)
#
#
# Indices 1 2 3 4 5 6 
#
# 1 63.7934 19.3605 12.2493 0.0000 -27.5483 0.0000
# 2 19.3605 34.9560 -0.2763 0.0000 -25.6301 0.0000
# 3 12.2493 -0.2763 98.0218 0.0000 -21.3533 0.0000
# 4 0.0000 0.0000 0.0000 29.4134 0.0000 -12.9930
# 5 -27.5483 -25.6301 -21.3533 0.0000 41.6108 0.0000
# 6 0.0000 0.0000 0.0000 -12.9930 0.0000 49.2350
#
#
#
# Elastic Compliance Matrix: (Units=1/GPa)
#
#
# Indices 1 2 3 4 5 6 
#
# 1 0.022096 -0.002715 0.000060 0.000000 0.012987 0.000000
# 2 -0.002715 0.058820 0.009014 0.000000 0.039058 0.000000
# 3 0.000060 0.009014 0.012877 0.000000 0.012200 0.000000
# 4 0.000000 0.000000 0.000000 0.038484 0.000000 0.010156
# 5 0.012987 0.039058 0.012200 0.000000 0.062949 0.000000
# 6 0.000000 0.000000 0.000000 0.010156 0.000000 0.022991
#
#
# Mechanical properties :
#
#
# Convention : Reuss Voigt Hill
#
# Bulk Modulus (GPa) = 9.38869 28.82649 19.10759
# Shear Modulus (GPa) = 20.74648 35.08104 27.91376
#
# Velocity S-wave (km/s) = 2.89056 3.75877 3.35288
# Velocity P-wave (km/s) = 3.86284 5.51789 4.76281
#
# Compressibility (1/GPa) = 0.10651116
#
# Stress axis : x y z
#
# Youngs Moduli (GPa) = 45.25612 17.00096 77.65558
#
# Poissons Ratio (x) = 0.04616 -0.00468
# Poissons Ratio (y) = 0.12288 -0.69996
# Poissons Ratio (z) = -0.00273 -0.15324
#
# Static dielectric constant tensor:
#      x y z
#    x 1.951940 0.000000 -0.013400 
#    y 0.000000 2.076360 0.000000 
#    z -0.013400 0.000000 1.948610 
# 
# From -- ./inp_files/2689.got.cif
#   From: 2010.05.17/outbox.cif.g08.bks.cpg/sg4_2_cif.got.tgz:2689.got - 2010.06.03 18:43:04.
