data_PCOD9116803
_publ_section_title
;
Structure prediction by ZEFSAII (Michael W. Deem and Ramdas Pophale) SiO2 
 PCOD9116803
Probable space group: P 21
;
_chemical_formula_sum "Si O2"
_cell_formula_units_Z 16
_cell_length_a 23.967004
_cell_length_b 5.334738
_cell_length_c 7.246292
_cell_angle_alpha 90.000000
_cell_angle_beta 47.039260
_cell_angle_gamma 90.000000
_cell_volume 678.027721
_symmetry_space_group_name_H-M "P 21"
_symmetry_group_IT_number 4
_symmetry_cell_setting 'monoclinic'
loop_
_space_group_symop_operation_xyz
x,y,z
-x,1/2+y,-z
loop_
_atom_site_type_symbol
_atom_site_label
_atom_site_fract_x
_atom_site_fract_y
_atom_site_fract_z
Si Si1 0.519042 0.126750 0.271041
Si Si2 0.309968 0.460898 0.610134
Si Si3 0.138542 0.136456 0.440108
Si Si4 0.727237 0.618466 0.614884
Si Si5 0.624510 0.753136 0.189513
Si Si6 0.171579 0.643213 0.131759
Si Si7 0.414408 0.833943 0.219855
Si Si8 0.015614 0.553251 0.351769
O O1 0.459276 0.149654 0.572037
O O2 0.598465 0.024911 0.173156
O O3 0.472448 0.952767 0.232742
O O4 0.545844 0.339550 0.068662
O O5 0.268798 0.362971 0.521402
O O6 0.332465 0.258005 0.713866
O O7 0.389813 0.567551 0.357716
O O8 0.253626 0.634810 0.852954
O O9 0.187487 0.067861 0.510086
O O10 0.161541 0.409809 0.301272
O O11 0.046733 0.116526 0.663371
O O12 0.158570 0.913285 0.251833
O O13 0.670043 0.448324 0.623535
O O14 0.679709 0.648147 0.911031
O O15 0.105623 0.594025 0.128134
O O16 0.004517 0.267362 0.447752
#
# Coordination Sequence:
#
# PCOD9116803 Si02
#       8
#     2   2   2   2   2   2   2   2
#     4  12  24  44  66  90 124 170 224 284 346 408
#     4  12  26  44  65  99 136 172 225 281 345 407
#     4  10  22  40  73 102 138 184 229 274 335 405
#     4  12  26  44  65  99 136 172 225 281 345 407
#     4  12  24  44  66  92 120 174 226 268 344 414
#     4  10  22  40  73 102 138 184 229 274 335 405
#     4  12  26  44  66  94 132 168 222 294 348 398
#     4   8  16  36  64 104 134 174 230 274 320 396
#
# _framework density 23.597854000000002
#
# number of rings (size 3 to 8) (size 9 to 14) (size 15 to 20)
#    0.000    1.000    3.750    3.000    7.000    0.000 
#    0.000    0.000    2.750    0.000    0.000    0.000 
#    0.000    0.000    0.000    0.000    0.000    0.000 
#
# Total GULP energy -89217.392958 kJ/mol
# GULP energy per Si atom -5576.087060 kJ/mol
# Density = 2.354414 g / cm^3
# Si number density = 23.597854 Si / 1000 Ang^3
#
#
#
# Elastic Constant Matrix: (Units=GPa)
#
#
# Indices 1 2 3 4 5 6 
#
# 1 149.2812 2.6191 11.5709 0.0000 1.7821 0.0000
# 2 2.6191 54.2451 8.2089 0.0000 7.2859 0.0000
# 3 11.5709 8.2089 44.6741 0.0000 20.4138 0.0000
# 4 0.0000 0.0000 0.0000 25.8652 0.0000 0.3712
# 5 1.7821 7.2859 20.4138 0.0000 28.8314 0.0000
# 6 0.0000 0.0000 0.0000 0.3712 0.0000 35.8978
#
#
#
# Elastic Compliance Matrix: (Units=1/GPa)
#
#
# Indices 1 2 3 4 5 6 
#
# 1 0.006867 -0.000149 -0.002327 0.000000 0.001261 0.000000
# 2 -0.000149 0.019199 -0.001887 0.000000 -0.003506 0.000000
# 3 -0.002327 -0.001887 0.034075 0.000000 -0.023506 0.000000
# 4 0.000000 0.000000 0.000000 0.038668 0.000000 -0.000400
# 5 0.001261 -0.003506 -0.023506 0.000000 0.052136 0.000000
# 6 0.000000 0.000000 0.000000 -0.000400 0.000000 0.027861
#
#
# Mechanical properties :
#
#
# Convention : Reuss Voigt Hill
#
# Bulk Modulus (GPa) = 19.45005 32.55534 26.00269
# Shear Modulus (GPa) = 24.42975 33.17231 28.80103
#
# Velocity S-wave (km/s) = 3.22103 3.75338 3.49735
# Velocity P-wave (km/s) = 4.70038 5.71049 5.22987
#
# Compressibility (1/GPa) = 0.05141376
#
# Stress axis : x y z
#
# Youngs Moduli (GPa) = 145.62987 52.08730 29.34721
#
# Poissons Ratio (x) = 0.00775 0.06830
# Poissons Ratio (y) = 0.02166 0.05538
# Poissons Ratio (z) = 0.33894 0.09829
#
# Static dielectric constant tensor:
#      x y z
#    x 1.950050 0.000000 -0.015560 
#    y 0.000000 2.083090 0.000000 
#    z -0.015560 0.000000 1.812140 
# 
# From -- ./inp_files/3963.got.cif
#   From: 2010.05.17/outbox.cif.g08.bks.cpg/sg4_2_cif.got.tgz:3963.got - 2010.06.03 18:43:04.
