data_PCOD9116433
_publ_section_title
;
Structure prediction by ZEFSAII (Michael W. Deem and Ramdas Pophale) SiO2 
 PCOD9116433
Probable space group: P 21
;
_chemical_formula_sum "Si O2"
_cell_formula_units_Z 16
_cell_length_a 9.313575
_cell_length_b 6.082795
_cell_length_c 22.513079
_cell_angle_alpha 90.000000
_cell_angle_beta 36.176049
_cell_angle_gamma 90.000000
_cell_volume 752.842179
_symmetry_space_group_name_H-M "P 21"
_symmetry_group_IT_number 4
_symmetry_cell_setting 'monoclinic'
loop_
_space_group_symop_operation_xyz
x,y,z
-x,1/2+y,-z
loop_
_atom_site_type_symbol
_atom_site_label
_atom_site_fract_x
_atom_site_fract_y
_atom_site_fract_z
Si Si1 0.352836 0.739840 0.138623
Si Si2 0.576718 0.114950 0.404513
Si Si3 0.810926 0.927139 0.444221
Si Si4 0.648543 0.293799 0.728306
Si Si5 0.087141 0.976947 0.756958
Si Si6 0.763395 0.591926 0.913410
Si Si7 0.742632 0.865084 0.231464
Si Si8 0.121302 0.592004 0.457887
O O1 0.435291 0.724627 0.178671
O O2 0.082032 0.639632 0.224286
O O3 0.326770 0.980267 0.117671
O O4 0.542446 0.619278 0.032099
O O5 0.297636 0.185788 0.505016
O O6 0.733634 0.337305 0.343500
O O7 0.682559 0.997497 0.426683
O O8 0.628662 0.985060 0.326860
O O9 0.102958 0.929368 0.342377
O O10 0.745940 0.077576 0.522562
O O11 0.431001 0.411146 0.765813
O O12 0.731168 0.109824 0.652829
O O13 0.898355 0.815974 0.852272
O O14 0.232141 0.111784 0.758108
O O15 0.980072 0.444441 0.868098
O O16 0.999014 0.342780 0.498926
#
# Coordination Sequence:
#
# PCOD9116433 Si02
#       8
#     2   2   2   2   2   2   2   2
#     4  11  22  42  73 105 131 178 234 290 367 433
#     4  11  26  42  68 101 135 186 236 302 343 434
#     4  11  26  42  72 100 139 192 247 290 365 426
#     4  11  25  44  68 101 140 189 232 299 365 445
#     4  10  21  43  70  96 133 176 228 290 350 423
#     4  10  21  44  72  99 134 176 230 298 358 432
#     4  10  24  46  64  96 144 178 233 290 367 429
#     4  10  25  45  69 102 150 191 242 301 361 434
#
# _framework density 21.252791999999999
#
# number of rings (size 3 to 8) (size 9 to 14) (size 15 to 20)
#    0.000    1.500    1.250    3.000   14.000    0.000 
#    2.250    0.000    0.000    0.000    0.000    0.000 
#    0.000    0.000    0.000    0.000    0.000    0.000 
#
# Total GULP energy -89259.451602 kJ/mol
# GULP energy per Si atom -5578.715725 kJ/mol
# Density = 2.120442 g / cm^3
# Si number density = 21.252792 Si / 1000 Ang^3
#
#
#
# Elastic Constant Matrix: (Units=GPa)
#
#
# Indices 1 2 3 4 5 6 
#
# 1 117.1282 18.6464 29.7652 0.0000 14.3381 0.0000
# 2 18.6464 75.6505 26.2064 0.0000 3.0880 0.0000
# 3 29.7652 26.2064 73.8594 0.0000 8.2992 0.0000
# 4 0.0000 0.0000 0.0000 36.2551 0.0000 -3.2675
# 5 14.3381 3.0880 8.2992 0.0000 41.6866 0.0000
# 6 0.0000 0.0000 0.0000 -3.2675 0.0000 22.7403
#
#
#
# Elastic Compliance Matrix: (Units=1/GPa)
#
#
# Indices 1 2 3 4 5 6 
#
# 1 0.009882 -0.001198 -0.003258 0.000000 -0.002662 0.000000
# 2 -0.001198 0.015217 -0.004946 0.000000 0.000270 0.000000
# 3 -0.003258 -0.004946 0.016816 0.000000 -0.001861 0.000000
# 4 0.000000 0.000000 0.000000 0.027944 0.000000 0.004015
# 5 -0.002662 0.000270 -0.001861 0.000000 0.025254 0.000000
# 6 0.000000 0.000000 0.000000 0.004015 0.000000 0.044552
#
#
# Mechanical properties :
#
#
# Convention : Reuss Voigt Hill
#
# Bulk Modulus (GPa) = 43.27299 46.20823 44.74061
# Shear Modulus (GPa) = 30.08881 32.93776 31.51328
#
# Velocity S-wave (km/s) = 3.76674 3.94103 3.85487
# Velocity P-wave (km/s) = 6.27081 6.51908 6.39615
#
# Compressibility (1/GPa) = 0.02310910
#
# Stress axis : x y z
#
# Youngs Moduli (GPa) = 101.19157 65.71779 59.46559
#
# Poissons Ratio (x) = 0.07876 0.19375
# Poissons Ratio (y) = 0.12127 0.29414
# Poissons Ratio (z) = 0.32971 0.32507
#
# Static dielectric constant tensor:
#      x y z
#    x 1.781580 0.000000 -0.038030 
#    y 0.000000 1.833720 0.000000 
#    z -0.038030 0.000000 1.778870 
# 
# From -- ./inp_files/8871.got.cif
#   From: 2010.05.17/outbox.cif.g08.bks.cpg/sg4_5_cif.got.tgz:8871.got - 2010.06.03 18:43:04.
