data_PCOD9116924
_publ_section_title
;
Structure prediction by ZEFSAII (Michael W. Deem and Ramdas Pophale) SiO2 
 PCOD9116924
Probable space group: P 21
;
_chemical_formula_sum "Si O2"
_cell_formula_units_Z 16
_cell_length_a 26.814207
_cell_length_b 4.879281
_cell_length_c 12.595276
_cell_angle_alpha 90.000000
_cell_angle_beta 150.027024
_cell_angle_gamma 90.000000
_cell_volume 823.272288
_symmetry_space_group_name_H-M "P 21"
_symmetry_group_IT_number 4
_symmetry_cell_setting 'monoclinic'
loop_
_space_group_symop_operation_xyz
x,y,z
-x,1/2+y,-z
loop_
_atom_site_type_symbol
_atom_site_label
_atom_site_fract_x
_atom_site_fract_y
_atom_site_fract_z
Si Si1 0.368674 0.529780 0.183606
Si Si2 0.106153 0.323994 0.571821
Si Si3 0.398164 0.600500 0.903403
Si Si4 0.583319 0.342595 0.508371
Si Si5 0.109630 0.598249 0.812605
Si Si6 0.757018 0.634483 0.910938
Si Si7 0.472908 0.592862 0.810617
Si Si8 0.768557 0.297015 0.251279
O O1 0.473859 0.467896 0.323389
O O2 0.393660 0.684010 0.339275
O O3 0.308642 0.263198 0.113795
O O4 0.169748 0.375959 0.991705
O O5 0.100845 0.435662 0.683936
O O6 0.190409 0.099289 0.697705
O O7 0.999382 0.189631 0.353283
O O8 0.135484 0.599099 0.565113
O O9 0.404687 0.633133 0.788582
O O10 0.299420 0.726073 0.772903
O O11 0.429991 0.291838 0.993541
O O12 0.488153 0.784582 0.115180
O O13 0.675250 0.551034 0.673564
O O14 0.577318 0.162712 0.392640
O O15 0.300023 0.690857 0.973576
O O16 0.176833 0.873062 0.932313
#
# Coordination Sequence:
#
# PCOD9116924 Si02
#       8
#     2   2   2   2   2   2   2   2
#     4  12  25  34  56  89 128 161 194 234 278 370
#     4  12  24  37  61  85 115 162 196 250 298 365
#     4  10  22  42  58  89 116 160 200 257 282 352
#     4  12  24  37  57  88 123 169 195 231 285 359
#     4  12  24  40  55  83 122 156 202 245 294 357
#     4  12  24  39  54  80 126 161 198 240 279 353
#     4  10  23  39  63  81 123 160 207 238 296 333
#     4  12  24  38  60  89 125 157 198 243 308 343
#
# _framework density 19.434638
#
# number of rings (size 3 to 8) (size 9 to 14) (size 15 to 20)
#    0.000    0.500    5.000    4.500    3.500    0.000 
#    0.000    0.000    0.000    0.000    0.000    3.500 
#    0.000    0.000    0.000    0.000    0.000    0.000 
#
# Total GULP energy -89395.575786 kJ/mol
# GULP energy per Si atom -5587.223487 kJ/mol
# Density = 1.939040 g / cm^3
# Si number density = 19.434638 Si / 1000 Ang^3
#
#
#
# Elastic Constant Matrix: (Units=GPa)
#
#
# Indices 1 2 3 4 5 6 
#
# 1 71.0166 -2.1774 22.3148 0.0000 3.0056 0.0000
# 2 -2.1774 87.7784 12.8806 0.0000 3.9651 0.0000
# 3 22.3148 12.8806 71.5621 0.0000 14.2086 0.0000
# 4 0.0000 0.0000 0.0000 30.7122 0.0000 5.8186
# 5 3.0056 3.9651 14.2086 0.0000 27.0226 0.0000
# 6 0.0000 0.0000 0.0000 5.8186 0.0000 21.8351
#
#
#
# Elastic Compliance Matrix: (Units=1/GPa)
#
#
# Indices 1 2 3 4 5 6 
#
# 1 0.015739 0.001127 -0.005282 0.000000 0.000861 0.000000
# 2 0.001127 0.011793 -0.002351 0.000000 -0.000620 0.000000
# 3 -0.005282 -0.002351 0.017707 0.000000 -0.008378 0.000000
# 4 0.000000 0.000000 0.000000 0.034292 0.000000 -0.009138
# 5 0.000861 -0.000620 -0.008378 0.000000 0.041406 0.000000
# 6 0.000000 0.000000 0.000000 -0.009138 0.000000 0.048233
#
#
# Mechanical properties :
#
#
# Convention : Reuss Voigt Hill
#
# Bulk Modulus (GPa) = 31.02923 32.93256 31.98090
# Shear Modulus (GPa) = 25.91680 29.06991 27.49336
#
# Velocity S-wave (km/s) = 3.65572 3.87173 3.76527
# Velocity P-wave (km/s) = 5.81547 6.08022 5.94932
#
# Compressibility (1/GPa) = 0.03222767
#
# Stress axis : x y z
#
# Youngs Moduli (GPa) = 63.53696 84.79438 56.47341
#
# Poissons Ratio (x) = -0.09552 0.29827
# Poissons Ratio (y) = -0.07158 0.13277
# Poissons Ratio (z) = 0.33557 0.19935
#
# Static dielectric constant tensor:
#      x y z
#    x 1.693980 0.000000 0.022470 
#    y 0.000000 1.746600 0.000000 
#    z 0.022470 0.000000 1.701680 
# 
# From -- ./inp_files/13131.got.cif
#   From: 2010.05.17/outbox.cif.g08.bks.cpg/sg4_7_cif.got.tgz:13131.got - 2010.06.03 18:43:04.
