data_PCOD9116060
_publ_section_title
;
Structure prediction by ZEFSAII (Michael W. Deem and Ramdas Pophale) SiO2 
 PCOD9116060
Probable space group: P 21
;
_chemical_formula_sum "Si O2"
_cell_formula_units_Z 16
_cell_length_a 12.478163
_cell_length_b 7.744113
_cell_length_c 8.257404
_cell_angle_alpha 90.000000
_cell_angle_beta 57.750183
_cell_angle_gamma 90.000000
_cell_volume 674.834632
_symmetry_space_group_name_H-M "P 21"
_symmetry_group_IT_number 4
_symmetry_cell_setting 'monoclinic'
loop_
_space_group_symop_operation_xyz
x,y,z
-x,1/2+y,-z
loop_
_atom_site_type_symbol
_atom_site_label
_atom_site_fract_x
_atom_site_fract_y
_atom_site_fract_z
Si Si1 0.259034 0.069660 0.960397
Si Si2 0.904704 0.594631 0.225871
Si Si3 0.076540 0.763945 0.600670
Si Si4 0.603224 0.848950 0.942120
Si Si5 0.503315 0.986875 0.568878
Si Si6 0.363359 0.166284 0.420725
Si Si7 0.961662 0.393599 0.713593
Si Si8 0.638288 0.202723 0.724929
O O1 0.156593 0.101113 0.901455
O O2 0.376779 0.969369 0.782303
O O3 0.309808 0.247634 0.997826
O O4 0.183995 0.952608 0.149014
O O5 0.952035 0.405124 0.239051
O O6 0.783425 0.628325 0.439535
O O7 0.003808 0.743897 0.187772
O O8 0.008331 0.821302 0.489356
O O9 0.223778 0.764295 0.433989
O O10 0.040384 0.569188 0.674455
O O11 0.608277 0.727298 0.780441
O O12 0.642809 0.037424 0.844820
O O13 0.458437 0.838396 0.118877
O O14 0.598371 0.828348 0.496923
O O15 0.453256 0.025647 0.431020
O O16 0.577909 0.134615 0.605388
#
# Coordination Sequence:
#
# PCOD9116060 Si02
#       8
#     2   2   2   2   2   2   2   2
#     4  10  25  44  70 101 139 179 234 285 342 412
#     4  11  26  48  69 101 136 186 231 284 343 405
#     4  12  27  46  73 100 137 182 235 284 337 412
#     4  10  22  42  69 103 141 175 226 281 348 418
#     4   9  21  40  64 102 136 176 225 274 349 410
#     4  10  21  39  67  95 139 172 221 274 339 413
#     4  12  26  47  73  98 137 183 236 287 339 404
#     4  10  24  40  67 104 137 181 222 281 347 406
#
# _framework density 23.709513999999999
#
# number of rings (size 3 to 8) (size 9 to 14) (size 15 to 20)
#    0.000    1.500    1.250    2.250   14.000    2.000 
#    0.000    0.000    0.000    0.000    0.000    0.000 
#    0.000    0.000    0.000    0.000    0.000    0.000 
#
# Total GULP energy -89532.206074 kJ/mol
# GULP energy per Si atom -5595.762880 kJ/mol
# Density = 2.365555 g / cm^3
# Si number density = 23.709514 Si / 1000 Ang^3
#
#
#
# Elastic Constant Matrix: (Units=GPa)
#
#
# Indices 1 2 3 4 5 6 
#
# 1 71.9735 8.8812 8.5041 0.0000 8.1473 0.0000
# 2 8.8812 107.0094 15.8494 0.0000 -6.8125 0.0000
# 3 8.5041 15.8494 63.8197 0.0000 7.4660 0.0000
# 4 0.0000 0.0000 0.0000 22.5014 0.0000 -1.0913
# 5 8.1473 -6.8125 7.4660 0.0000 34.6117 0.0000
# 6 0.0000 0.0000 0.0000 -1.0913 0.0000 36.9253
#
#
#
# Elastic Compliance Matrix: (Units=1/GPa)
#
#
# Indices 1 2 3 4 5 6 
#
# 1 0.014579 -0.001244 -0.001235 0.000000 -0.003410 0.000000
# 2 -0.001244 0.010022 -0.002655 0.000000 0.002838 0.000000
# 3 -0.001235 -0.002655 0.016948 0.000000 -0.003888 0.000000
# 4 0.000000 0.000000 0.000000 0.044505 0.000000 0.001315
# 5 -0.003410 0.002838 -0.003888 0.000000 0.031092 0.000000
# 6 0.000000 0.000000 0.000000 0.001315 0.000000 0.027121
#
#
# Mechanical properties :
#
#
# Convention : Reuss Voigt Hill
#
# Bulk Modulus (GPa) = 31.96813 34.36353 33.16583
# Shear Modulus (GPa) = 30.30982 32.77889 31.54436
#
# Velocity S-wave (km/s) = 3.57933 3.72226 3.65149
# Velocity P-wave (km/s) = 5.53124 5.74445 5.63885
#
# Compressibility (1/GPa) = 0.03128115
#
# Stress axis : x y z
#
# Youngs Moduli (GPa) = 68.58948 99.77845 59.00435
#
# Poissons Ratio (x) = 0.12415 0.07286
# Poissons Ratio (y) = 0.08534 0.15667
# Poissons Ratio (z) = 0.08469 0.26493
#
# Static dielectric constant tensor:
#      x y z
#    x 1.889930 0.000000 0.006750 
#    y 0.000000 1.951710 0.000000 
#    z 0.006750 0.000000 1.893840 
# 
# From -- ./inp_files/8011.got.cif
#   From: 2010.05.17/outbox.cif.g08.bks.cpg/sg4_5_cif.got.tgz:8011.got - 2010.06.03 18:43:04.
