data_PCOD9116866
_publ_section_title
;
Structure prediction by ZEFSAII (Michael W. Deem and Ramdas Pophale) SiO2 
 PCOD9116866
Probable space group: P 21
;
_chemical_formula_sum "Si O2"
_cell_formula_units_Z 16
_cell_length_a 15.603413
_cell_length_b 7.697060
_cell_length_c 12.573094
_cell_angle_alpha 90.000000
_cell_angle_beta 29.961114
_cell_angle_gamma 90.000000
_cell_volume 754.129134
_symmetry_space_group_name_H-M "P 21"
_symmetry_group_IT_number 4
_symmetry_cell_setting 'monoclinic'
loop_
_space_group_symop_operation_xyz
x,y,z
-x,1/2+y,-z
loop_
_atom_site_type_symbol
_atom_site_label
_atom_site_fract_x
_atom_site_fract_y
_atom_site_fract_z
Si Si1 0.949637 0.655850 0.176429
Si Si2 0.308657 0.817437 0.826873
Si Si3 0.377017 0.162206 0.626641
Si Si4 0.199182 0.399728 0.320045
Si Si5 0.944468 0.232783 0.421029
Si Si6 0.356861 0.607744 0.960276
Si Si7 0.164757 0.364717 0.004479
Si Si8 0.734122 0.579968 0.608404
O O1 0.787697 0.675429 0.274219
O O2 0.875588 0.652935 0.375427
O O3 0.033643 0.465637 0.069391
O O4 0.114066 0.781327 0.998846
O O5 0.446676 0.685540 0.625544
O O6 0.329213 0.796209 0.933467
O O7 0.369485 0.992976 0.707525
O O8 0.330897 0.305566 0.763674
O O9 0.117624 0.537748 0.489476
O O10 0.290510 0.234614 0.278271
O O11 0.061665 0.302644 0.392290
O O12 0.305865 0.535601 0.131335
O O13 0.801209 0.387458 0.568191
O O14 0.054861 0.230876 0.193068
O O15 0.555795 0.562655 0.738968
O O16 0.232036 0.498718 0.019428
#
# Coordination Sequence:
#
# PCOD9116866 Si02
#       8
#     2   2   2   2   2   2   2   2
#     4  10  22  43  66  92 132 172 224 274 329 397
#     4  11  24  41  68  95 137 175 219 279 332 400
#     4  12  23  42  68  99 132 179 221 270 340 402
#     4  11  23  41  69  93 129 172 223 274 340 395
#     4  10  22  41  66  95 127 171 225 272 332 402
#     4  10  23  45  58  96 133 168 218 281 324 400
#     4   9  22  42  64  91 134 169 216 276 331 393
#     4  11  23  43  65  93 136 176 216 282 332 395
#
# _framework density 21.216525000000001
#
# number of rings (size 3 to 8) (size 9 to 14) (size 15 to 20)
#    0.000    1.500    2.500    3.000    3.500    0.000 
#    2.250    0.000    0.000    0.000    0.000    0.000 
#    0.000    0.000    0.000    0.000    0.000    0.000 
#
# Total GULP energy -89082.416197 kJ/mol
# GULP energy per Si atom -5567.651012 kJ/mol
# Density = 2.116824 g / cm^3
# Si number density = 21.216525 Si / 1000 Ang^3
#
#
#
# Elastic Constant Matrix: (Units=GPa)
#
#
# Indices 1 2 3 4 5 6 
#
# 1 42.4460 1.8477 -2.6001 0.0000 -12.6150 0.0000
# 2 1.8477 50.9568 -1.7937 0.0000 3.2367 0.0000
# 3 -2.6001 -1.7937 67.5330 0.0000 -11.1696 0.0000
# 4 0.0000 0.0000 0.0000 36.3455 0.0000 14.9311
# 5 -12.6150 3.2367 -11.1696 0.0000 33.0267 0.0000
# 6 0.0000 0.0000 0.0000 14.9311 0.0000 35.6909
#
#
#
# Elastic Compliance Matrix: (Units=1/GPa)
#
#
# Indices 1 2 3 4 5 6 
#
# 1 0.027241 -0.001619 0.002916 0.000000 0.011550 0.000000
# 2 -0.001619 0.019847 0.000043 0.000000 -0.002549 0.000000
# 3 0.002916 0.000043 0.015999 0.000000 0.006521 0.000000
# 4 0.000000 0.000000 0.000000 0.033224 0.000000 -0.013899
# 5 0.011550 -0.002549 0.006521 0.000000 0.037145 0.000000
# 6 0.000000 0.000000 0.000000 -0.013899 0.000000 0.033833
#
#
# Mechanical properties :
#
#
# Convention : Reuss Voigt Hill
#
# Bulk Modulus (GPa) = 15.20488 17.31597 16.26042
# Shear Modulus (GPa) = 26.80532 31.91144 29.35838
#
# Velocity S-wave (km/s) = 3.55831 3.88246 3.72392
# Velocity P-wave (km/s) = 4.90553 5.31764 5.11573
#
# Compressibility (1/GPa) = 0.06576837
#
# Stress axis : x y z
#
# Youngs Moduli (GPa) = 36.70928 50.38656 62.50208
#
# Poissons Ratio (x) = 0.08156 -0.18226
# Poissons Ratio (y) = 0.05942 -0.00271
# Poissons Ratio (z) = -0.10705 -0.00218
#
# Static dielectric constant tensor:
#      x y z
#    x 1.769290 0.000000 0.067080 
#    y 0.000000 1.856240 0.000000 
#    z 0.067080 0.000000 1.782440 
# 
# From -- ./inp_files/10076.got.cif
#   From: 2010.05.17/outbox.cif.g08.bks.cpg/sg4_6_cif.got.tgz:10076.got - 2010.06.03 18:43:04.
