data_PCOD9116263
_publ_section_title
;
Structure prediction by ZEFSAII (Michael W. Deem and Ramdas Pophale) SiO2 
 PCOD9116263
Probable space group: P 21
;
_chemical_formula_sum "Si O2"
_cell_formula_units_Z 16
_cell_length_a 11.768044
_cell_length_b 9.276042
_cell_length_c 16.774763
_cell_angle_alpha 90.000000
_cell_angle_beta 27.359127
_cell_angle_gamma 90.000000
_cell_volume 841.533839
_symmetry_space_group_name_H-M "P 21"
_symmetry_group_IT_number 4
_symmetry_cell_setting 'monoclinic'
loop_
_space_group_symop_operation_xyz
x,y,z
-x,1/2+y,-z
loop_
_atom_site_type_symbol
_atom_site_label
_atom_site_fract_x
_atom_site_fract_y
_atom_site_fract_z
Si Si1 0.900546 0.481670 0.620241
Si Si2 0.074485 0.963330 0.676763
Si Si3 0.230772 0.149231 0.885074
Si Si4 0.598243 0.014272 0.764413
Si Si5 0.982518 0.932185 0.920417
Si Si6 0.767041 0.216541 0.800305
Si Si7 0.300254 0.267966 0.188630
Si Si8 0.445805 0.919540 0.314643
O O1 0.919657 0.336891 0.659069
O O2 0.746744 0.601809 0.763334
O O3 0.763048 0.441831 0.622865
O O4 0.167949 0.547715 0.437034
O O5 0.058875 0.931090 0.780300
O O6 0.920410 0.841332 0.723962
O O7 0.334374 0.975728 0.467387
O O8 0.932384 0.113114 0.750670
O O9 0.462704 0.256380 0.724748
O O10 0.335812 0.046453 0.889132
O O11 0.025333 0.266470 0.041517
O O12 0.147478 0.045453 0.866343
O O13 0.654550 0.852737 0.757532
O O14 0.632582 0.115986 0.819178
O O15 0.697641 0.980972 0.117133
O O16 0.550140 0.290182 0.984225
#
# Coordination Sequence:
#
# PCOD9116263 Si02
#       8
#     2   2   2   2   2   2   2   2
#     4  12  20  38  63  97 132 163 207 269 326 406
#     4  11  22  42  64  93 131 170 211 272 324 387
#     4  10  23  46  66  88 130 170 227 264 323 386
#     4  11  21  37  63  92 126 167 208 258 337 389
#     4  10  24  45  68  89 128 175 223 270 317 376
#     4  11  21  36  57  97 130 162 204 265 331 391
#     4  11  22  33  63  96 132 164 206 258 340 388
#     4  10  21  41  68  88 131 165 214 270 320 385
#
# _framework density 19.012902
#
# number of rings (size 3 to 8) (size 9 to 14) (size 15 to 20)
#    0.750    0.500    3.750    5.250    0.000    2.000 
#    2.250    0.000    0.000    0.000    0.000    0.000 
#    0.000    0.000    0.000    0.000    0.000    0.000 
#
# Total GULP energy -89137.768965 kJ/mol
# GULP energy per Si atom -5571.110560 kJ/mol
# Density = 1.896963 g / cm^3
# Si number density = 19.012902 Si / 1000 Ang^3
#
#
#
# Elastic Constant Matrix: (Units=GPa)
#
#
# Indices 1 2 3 4 5 6 
#
# 1 82.3280 46.9415 8.5383 0.0000 12.4109 0.0000
# 2 46.9415 76.8653 -4.8691 0.0000 -4.1964 0.0000
# 3 8.5383 -4.8691 59.2853 0.0000 15.5744 0.0000
# 4 0.0000 0.0000 0.0000 24.9560 0.0000 1.8347
# 5 12.4109 -4.1964 15.5744 0.0000 24.1867 0.0000
# 6 0.0000 0.0000 0.0000 1.8347 0.0000 -0.0474
#
#
#
# Elastic Compliance Matrix: (Units=1/GPa)
#
#
# Indices 1 2 3 4 5 6 
#
# 1 0.022611 -0.014606 -0.000893 0.000000 -0.013561 0.000000
# 2 -0.014606 0.022585 0.001156 0.000000 0.010669 0.000000
# 3 -0.000893 0.001156 0.020363 0.000000 -0.012453 0.000000
# 4 0.000000 0.000000 0.000000 0.010419 0.000000 0.403335
# 5 -0.013561 0.010669 -0.012453 0.000000 0.058173 0.000000
# 6 0.000000 0.000000 0.000000 0.403335 0.000000 -5.486402
#
#
# Mechanical properties :
#
#
# Convention : Reuss Voigt Hill
#
# Bulk Modulus (GPa) = 27.12078 35.52223 31.32150
# Shear Modulus (GPa) = -0.94139 21.01026 10.03443
#
# Velocity S-wave (km/s) = -0.70442 3.32784 2.29982
# Velocity P-wave (km/s) = 3.69239 5.78704 4.85405
#
# Compressibility (1/GPa) = 0.03687210
#
# Stress axis : x y z
#
# Youngs Moduli (GPa) = 44.22548 44.27691 49.10964
#
# Poissons Ratio (x) = 0.64670 0.04388
# Poissons Ratio (y) = 0.64594 -0.05675
# Poissons Ratio (z) = 0.03951 -0.05117
#
# Static dielectric constant tensor:
#      x y z
#    x 1.650460 0.000000 0.007730 
#    y 0.000000 1.671490 0.000000 
#    z 0.007730 0.000000 1.711720 
# 
# From -- ./inp_files/15158.got.cif
#   From: 2010.05.17/outbox.cif.g08.bks.cpg/sg4_8_cif.got.tgz:15158.got - 2010.06.03 18:43:04.
