data_PCOD9116561
_publ_section_title
;
Structure prediction by ZEFSAII (Michael W. Deem and Ramdas Pophale) SiO2 
 PCOD9116561
Probable space group: P 21
;
_chemical_formula_sum "Si O2"
_cell_formula_units_Z 14
_cell_length_a 12.101535
_cell_length_b 5.471686
_cell_length_c 17.777136
_cell_angle_alpha 90.000000
_cell_angle_beta 146.225050
_cell_angle_gamma 90.000000
_cell_volume 654.403017
_symmetry_space_group_name_H-M "P 21"
_symmetry_group_IT_number 4
_symmetry_cell_setting 'monoclinic'
loop_
_space_group_symop_operation_xyz
x,y,z
-x,1/2+y,-z
loop_
_atom_site_type_symbol
_atom_site_label
_atom_site_fract_x
_atom_site_fract_y
_atom_site_fract_z
Si Si1 0.381132 0.728210 0.019827
Si Si2 0.056333 0.083212 0.788021
Si Si3 0.761427 0.977197 0.195930
Si Si4 0.948451 0.368989 0.384012
Si Si5 0.464337 0.939939 0.765278
Si Si6 0.398138 0.441808 0.650196
Si Si7 0.401530 0.520293 0.472952
O O1 0.599280 0.843452 0.154547
O O2 0.388394 0.507612 0.082918
O O3 0.379669 0.663625 0.930150
O O4 0.202141 0.922057 0.921904
O O5 0.129825 0.356753 0.814300
O O6 0.073922 0.999982 0.709904
O O7 0.828756 0.054018 0.680728
O O8 0.926342 0.089721 0.343375
O O9 0.760989 0.425223 0.329647
O O10 0.162250 0.436059 0.535936
O O11 0.497371 0.675428 0.746647
O O12 0.478132 0.174360 0.718086
O O13 0.409754 0.482414 0.567442
O O14 0.512540 0.771629 0.514366
#
# Coordination Sequence:
#
# PCOD9116561 Si02
#       7
#     2   2   2   2   2   2   2
#     4  11  21  34  59  99 141 184 213 261 330 413
#     4  10  23  37  66  97 132 174 230 281 324 391
#     4  11  19  35  60  94 142 183 227 268 314 403
#     4  10  22  35  57  93 140 181 219 259 319 397
#     4  12  23  38  60  96 142 185 204 251 335 431
#     4  11  26  40  64  93 131 174 225 273 333 409
#     4  11  26  49  74  96 120 167 238 309 349 374
#
# _framework density 21.393545
#
# number of rings (size 3 to 8) (size 9 to 14) (size 15 to 20)
#    0.000    1.143    2.857    3.429   12.000    0.000 
#    0.000    0.000    0.000    3.429    0.000    0.000 
#    0.000    0.000    0.000    0.000    0.000    0.000 
#
# Total GULP energy -78102.480798 kJ/mol
# GULP energy per Si atom -5578.748628 kJ/mol
# Density = 2.134485 g / cm^3
# Si number density = 21.393545 Si / 1000 Ang^3
#
#
#
# Elastic Constant Matrix: (Units=GPa)
#
#
# Indices 1 2 3 4 5 6 
#
# 1 67.5485 36.9280 30.4825 0.0000 10.3939 0.0000
# 2 36.9280 123.5171 52.4758 0.0000 1.9919 0.0000
# 3 30.4825 52.4758 95.4479 0.0000 -3.4688 0.0000
# 4 0.0000 0.0000 0.0000 43.2214 0.0000 -12.0529
# 5 10.3939 1.9919 -3.4688 0.0000 32.3292 0.0000
# 6 0.0000 0.0000 0.0000 -12.0529 0.0000 38.6971
#
#
#
# Elastic Compliance Matrix: (Units=1/GPa)
#
#
# Indices 1 2 3 4 5 6 
#
# 1 0.020015 -0.003990 -0.004441 0.000000 -0.006666 0.000000
# 2 -0.003990 0.011412 -0.004998 0.000000 0.000043 0.000000
# 3 -0.004441 -0.004998 0.014764 0.000000 0.003320 0.000000
# 4 0.000000 0.000000 0.000000 0.025337 0.000000 0.007892
# 5 -0.006666 0.000043 0.003320 0.000000 0.033428 0.000000
# 6 0.000000 0.000000 0.000000 0.007892 0.000000 0.028300
#
#
# Mechanical properties :
#
#
# Convention : Reuss Voigt Hill
#
# Bulk Modulus (GPa) = 51.72536 58.47624 55.10080
# Shear Modulus (GPa) = 30.01967 33.95803 31.98885
#
# Velocity S-wave (km/s) = 3.75001 3.98842 3.87105
# Velocity P-wave (km/s) = 6.55596 6.97158 6.76696
#
# Compressibility (1/GPa) = 0.01933288
#
# Stress axis : x y z
#
# Youngs Moduli (GPa) = 49.96264 87.62991 67.73368
#
# Poissons Ratio (x) = 0.34962 0.30079
# Poissons Ratio (y) = 0.19934 0.33855
# Poissons Ratio (z) = 0.22187 0.43799
#
# Static dielectric constant tensor:
#      x y z
#    x 1.742250 0.000000 -0.015340 
#    y 0.000000 2.133900 0.000000 
#    z -0.015340 0.000000 1.770870 
# 
# From -- ./inp_files/12774.got.cif
#   From: 2010.05.17/outbox.cif.g08.bks.cpg/sg4_7_cif.got.tgz:12774.got - 2010.06.03 18:43:04.
