data_PCOD9116916
_publ_section_title
;
Structure prediction by ZEFSAII (Michael W. Deem and Ramdas Pophale) SiO2 
 PCOD9116916
Probable space group: P 21
;
_chemical_formula_sum "Si O2"
_cell_formula_units_Z 14
_cell_length_a 8.804757
_cell_length_b 8.012373
_cell_length_c 9.220358
_cell_angle_alpha 90.000000
_cell_angle_beta 132.320412
_cell_angle_gamma 90.000000
_cell_volume 480.950791
_symmetry_space_group_name_H-M "P 21"
_symmetry_group_IT_number 4
_symmetry_cell_setting 'monoclinic'
loop_
_space_group_symop_operation_xyz
x,y,z
-x,1/2+y,-z
loop_
_atom_site_type_symbol
_atom_site_label
_atom_site_fract_x
_atom_site_fract_y
_atom_site_fract_z
Si Si1 0.053717 0.509080 0.581167
Si Si2 0.466068 0.370033 0.437140
Si Si3 0.402173 0.072102 0.721540
Si Si4 0.535781 0.207038 0.091690
Si Si5 0.703164 0.444023 0.862515
Si Si6 0.894778 0.197372 0.649791
Si Si7 0.959863 0.707427 0.926193
O O1 0.246140 0.614032 0.759591
O O2 0.833750 0.591453 0.471983
O O3 0.976545 0.833858 0.359009
O O4 0.075338 0.526285 0.420669
O O5 0.483405 0.541316 0.355795
O O6 0.515919 0.395150 0.637349
O O7 0.242591 0.306878 0.251029
O O8 0.657371 0.257909 0.500300
O O9 0.444164 0.894803 0.834037
O O10 0.460938 0.208535 0.877733
O O11 0.380177 0.087062 0.083076
O O12 0.870920 0.520714 0.853099
O O13 0.840781 0.293670 0.014524
O O14 0.977621 0.192142 0.864315
#
# Coordination Sequence:
#
# PCOD9116916 Si02
#       7
#     2   2   2   2   2   2   2
#     4  11  21  41  70 105 136 187 220 282 343 419
#     4  10  22  47  68  99 139 187 223 287 341 408
#     4  11  25  45  73 102 143 180 227 286 355 409
#     4  12  25  48  70 106 139 183 227 288 349 417
#     4  11  26  46  74  99 139 187 236 283 351 406
#     4  10  22  41  71 102 145 179 233 280 356 408
#     4  11  23  48  70 101 139 187 232 296 339 413
#
# _framework density 29.109006999999998
#
# number of rings (size 3 to 8) (size 9 to 14) (size 15 to 20)
#    0.000    1.143    4.286    1.714    2.000    4.571 
#   12.857    1.429    0.000    0.000    0.000    0.000 
#    0.000    0.000    0.000    0.000    0.000    0.000 
#
# Total GULP energy -78504.639639 kJ/mol
# GULP energy per Si atom -5607.474260 kJ/mol
# Density = 2.904275 g / cm^3
# Si number density = 29.109007 Si / 1000 Ang^3
#
#
#
# Elastic Constant Matrix: (Units=GPa)
#
#
# Indices 1 2 3 4 5 6 
#
# 1 136.5749 57.7737 62.8430 0.0000 16.6211 0.0000
# 2 57.7737 89.3037 10.6135 0.0000 5.3599 0.0000
# 3 62.8430 10.6135 185.8517 0.0000 10.3366 0.0000
# 4 0.0000 0.0000 0.0000 28.8638 0.0000 -4.2195
# 5 16.6211 5.3599 10.3366 0.0000 61.9775 0.0000
# 6 0.0000 0.0000 0.0000 -4.2195 0.0000 71.2904
#
#
#
# Elastic Compliance Matrix: (Units=1/GPa)
#
#
# Indices 1 2 3 4 5 6 
#
# 1 0.012419 -0.007475 -0.003657 0.000000 -0.002074 0.000000
# 2 -0.007475 0.015821 0.001604 0.000000 0.000369 0.000000
# 3 -0.003657 0.001604 0.006540 0.000000 -0.000249 0.000000
# 4 0.000000 0.000000 0.000000 0.034948 0.000000 0.002068
# 5 -0.002074 0.000369 -0.000249 0.000000 0.016701 0.000000
# 6 0.000000 0.000000 0.000000 0.002068 0.000000 0.014150
#
#
# Mechanical properties :
#
#
# Convention : Reuss Voigt Hill
#
# Bulk Modulus (GPa) = 63.60442 74.91009 69.25725
# Shear Modulus (GPa) = 40.03941 51.12635 45.58288
#
# Velocity S-wave (km/s) = 3.71280 4.19546 3.96149
# Velocity P-wave (km/s) = 6.34647 7.01850 6.69093
#
# Compressibility (1/GPa) = 0.01572218
#
# Stress axis : x y z
#
# Youngs Moduli (GPa) = 80.51856 63.20658 152.91676
#
# Poissons Ratio (x) = 0.47250 0.55925
# Poissons Ratio (y) = 0.60191 -0.24523
# Poissons Ratio (z) = 0.29447 -0.10136
#
# Static dielectric constant tensor:
#      x y z
#    x 2.281800 0.000000 -0.044260 
#    y 0.000000 2.440710 0.000000 
#    z -0.044260 0.000000 2.218800 
# 
# From -- ./inp_files/6497.got.cif
#   From: 2010.05.17/outbox.cif.g08.bks.cpg/sg4_4_cif.got.tgz:6497.got - 2010.06.03 18:43:04.
