data_PCOD9116590
_publ_section_title
;
Structure prediction by ZEFSAII (Michael W. Deem and Ramdas Pophale) SiO2 
 PCOD9116590
Probable space group: P 21
;
_chemical_formula_sum "Si O2"
_cell_formula_units_Z 16
_cell_length_a 11.350789
_cell_length_b 9.143110
_cell_length_c 11.350782
_cell_angle_alpha 90.000000
_cell_angle_beta 39.967316
_cell_angle_gamma 90.000000
_cell_volume 756.689763
_symmetry_space_group_name_H-M "P 21"
_symmetry_group_IT_number 4
_symmetry_cell_setting 'monoclinic'
loop_
_space_group_symop_operation_xyz
x,y,z
-x,1/2+y,-z
loop_
_atom_site_type_symbol
_atom_site_label
_atom_site_fract_x
_atom_site_fract_y
_atom_site_fract_z
Si Si1 0.585903 0.486030 0.719808
Si Si2 0.011453 0.092963 0.131461
Si Si3 0.912085 0.665737 0.587915
Si Si4 0.780193 0.845443 0.914093
Si Si5 0.677104 0.292185 0.433049
Si Si6 0.933053 0.539288 0.177101
Si Si7 0.368546 0.238508 0.488539
Si Si8 0.910810 0.915733 0.410804
O O1 0.749541 0.558026 0.668811
O O2 0.656141 0.359808 0.578127
O O3 0.532965 0.619663 0.671251
O O4 0.419487 0.415732 0.919484
O O5 0.819266 0.160659 0.322979
O O6 0.171241 0.211806 0.032982
O O7 0.031462 0.954604 0.202361
O O8 0.988864 0.067531 0.011142
O O9 0.831191 0.773455 0.750452
O O10 0.973784 0.773515 0.436507
O O11 0.063481 0.557952 0.526228
O O12 0.921865 0.971670 0.843865
O O13 0.778468 0.415730 0.278448
O O14 0.488859 0.263953 0.511133
O O15 0.822967 0.670802 0.319278
O O16 0.297636 0.376860 0.468533
#
# Coordination Sequence:
#
# PCOD9116590 Si02
#       8
#     2   2   2   2   2   2   2   2
#     4  10  22  43  64  92 133 168 220 277 321 389
#     4  10  22  39  63 102 127 172 213 264 340 397
#     4  10  24  46  64  98 126 176 234 260 328 384
#     4  10  22  43  64  92 133 168 220 277 321 389
#     4  10  22  37  65  96 134 167 210 269 333 390
#     4  10  22  37  65  96 134 167 210 269 333 390
#     4  10  22  39  63 102 127 172 213 264 340 397
#     4  10  24  40  68  90 130 172 220 270 318 392
#
# _framework density 21.144729000000002
#
# number of rings (size 3 to 8) (size 9 to 14) (size 15 to 20)
#    0.000    2.000    0.000    1.500   17.500    0.000 
#    4.500    2.500    0.000    0.000    0.000    0.000 
#    0.000    0.000    0.000    0.000    0.000    0.000 
#
# Total GULP energy -89283.405659 kJ/mol
# GULP energy per Si atom -5580.212854 kJ/mol
# Density = 2.109660 g / cm^3
# Si number density = 21.144729 Si / 1000 Ang^3
#
#
#
# Elastic Constant Matrix: (Units=GPa)
#
#
# Indices 1 2 3 4 5 6 
#
# 1 117.1363 57.9757 44.7592 0.0000 15.2492 0.0000
# 2 57.9757 104.7756 58.3752 0.0000 -0.1682 0.0000
# 3 44.7592 58.3752 72.2935 0.0000 3.5628 0.0000
# 4 0.0000 0.0000 0.0000 20.9939 0.0000 -10.7639
# 5 15.2492 -0.1682 3.5628 0.0000 22.9180 0.0000
# 6 0.0000 0.0000 0.0000 -10.7639 0.0000 -4.6907
#
#
#
# Elastic Compliance Matrix: (Units=1/GPa)
#
#
# Indices 1 2 3 4 5 6 
#
# 1 0.013845 -0.005704 -0.003537 0.000000 -0.008704 0.000000
# 2 -0.005704 0.019823 -0.012767 0.000000 0.005926 0.000000
# 3 -0.003537 -0.012767 0.026422 0.000000 -0.001848 0.000000
# 4 0.000000 0.000000 0.000000 0.021885 0.000000 -0.050219
# 5 -0.008704 0.005926 -0.001848 0.000000 0.049756 0.000000
# 6 0.000000 0.000000 0.000000 -0.050219 0.000000 -0.097947
#
#
# Mechanical properties :
#
#
# Convention : Reuss Voigt Hill
#
# Bulk Modulus (GPa) = 62.21141 68.49174 65.35158
# Shear Modulus (GPa) = 60.12633 16.71726 38.42180
#
# Velocity S-wave (km/s) = 5.33829 2.81483 4.26735
# Velocity P-wave (km/s) = 8.21475 6.55946 7.43332
#
# Compressibility (1/GPa) = 0.01607422
#
# Stress axis : x y z
#
# Youngs Moduli (GPa) = 72.22837 50.44591 37.84667
#
# Poissons Ratio (x) = 0.28776 0.13386
# Poissons Ratio (y) = 0.41201 0.48319
# Poissons Ratio (z) = 0.25546 0.64405
#
# Static dielectric constant tensor:
#      x y z
#    x 1.804560 0.000000 0.000680 
#    y 0.000000 1.879670 0.000000 
#    z 0.000680 0.000000 1.802900 
# 
# From -- ./inp_files/7764.got.cif
#   From: 2010.05.17/outbox.cif.g08.bks.cpg/sg4_4_cif.got.tgz:7764.got - 2010.06.03 18:43:04.
