data_PCOD9116109
_publ_section_title
;
Structure prediction by ZEFSAII (Michael W. Deem and Ramdas Pophale) SiO2 
 PCOD9116109
Probable space group: P 21
;
_chemical_formula_sum "Si O2"
_cell_formula_units_Z 16
_cell_length_a 13.104056
_cell_length_b 11.189751
_cell_length_c 5.261247
_cell_angle_alpha 90.000000
_cell_angle_beta 120.625440
_cell_angle_gamma 90.000000
_cell_volume 663.855816
_symmetry_space_group_name_H-M "P 21"
_symmetry_group_IT_number 4
_symmetry_cell_setting 'monoclinic'
loop_
_space_group_symop_operation_xyz
x,y,z
-x,1/2+y,-z
loop_
_atom_site_type_symbol
_atom_site_label
_atom_site_fract_x
_atom_site_fract_y
_atom_site_fract_z
Si Si1 0.344869 0.412580 0.485149
Si Si2 0.929368 0.095744 0.001387
Si Si3 0.209659 0.796365 0.319133
Si Si4 0.163848 0.235887 0.442899
Si Si5 0.014531 0.910538 0.740669
Si Si6 0.220006 0.004952 0.735237
Si Si7 0.393463 0.817504 0.179092
Si Si8 0.288592 0.566441 0.919380
O O1 0.244752 0.309845 0.353919
O O2 0.469975 0.345561 0.669496
O O3 0.344456 0.494692 0.233120
O O4 0.316536 0.489933 0.703445
O O5 0.849356 0.170212 0.694645
O O6 0.846669 0.081601 0.145465
O O7 0.956004 0.968317 0.912744
O O8 0.056655 0.159626 0.185452
O O9 0.199490 0.908033 0.487743
O O10 0.343935 0.788122 0.397260
O O11 0.124015 0.827113 0.968944
O O12 0.087574 0.330736 0.514320
O O13 0.245639 0.139043 0.685056
O O14 0.088972 0.010643 0.692490
O O15 0.324404 0.940881 0.022041
O O16 0.345701 0.699938 0.970228
#
# Coordination Sequence:
#
# PCOD9116109 Si02
#       8
#     2   2   2   2   2   2   2   2
#     4  12  29  49  78 116 147 197 260 312 371 443
#     4  10  21  44  68 102 146 192 237 307 374 458
#     4   9  21  41  66  97 136 191 240 292 374 437
#     4  11  25  41  70 111 143 193 245 319 369 454
#     4  10  21  40  63 106 140 186 241 299 380 443
#     4  11  24  41  70 105 143 199 245 306 379 448
#     4  10  27  48  74 104 144 204 249 309 376 445
#     4  11  28  52  77 109 153 198 251 308 383 452
#
# _framework density 24.101618999999999
#
# number of rings (size 3 to 8) (size 9 to 14) (size 15 to 20)
#    0.000    1.500    2.500    0.750   10.500    1.000 
#    0.000    0.000    0.000    0.000    0.000    0.000 
#    0.000    0.000    0.000    0.000    0.000    0.000 
#
# Total GULP energy -89302.170476 kJ/mol
# GULP energy per Si atom -5581.385655 kJ/mol
# Density = 2.404676 g / cm^3
# Si number density = 24.101619 Si / 1000 Ang^3
#
#
#
# Elastic Constant Matrix: (Units=GPa)
#
#
# Indices 1 2 3 4 5 6 
#
# 1 134.5858 54.8064 47.1408 0.0000 24.8475 0.0000
# 2 54.8064 109.5108 28.9854 0.0000 9.5048 0.0000
# 3 47.1408 28.9854 57.0485 0.0000 1.7796 0.0000
# 4 0.0000 0.0000 0.0000 38.5776 0.0000 6.8559
# 5 24.8475 9.5048 1.7796 0.0000 46.8830 0.0000
# 6 0.0000 0.0000 0.0000 6.8559 0.0000 41.1850
#
#
#
# Elastic Compliance Matrix: (Units=1/GPa)
#
#
# Indices 1 2 3 4 5 6 
#
# 1 0.013090 -0.003730 -0.008739 0.000000 -0.005850 0.000000
# 2 -0.003730 0.011792 -0.002899 0.000000 -0.000304 0.000000
# 3 -0.008739 -0.002899 0.026091 0.000000 0.004229 0.000000
# 4 0.000000 0.000000 0.000000 0.026712 0.000000 -0.004447
# 5 -0.005850 -0.000304 0.004229 0.000000 0.024331 0.000000
# 6 0.000000 0.000000 0.000000 -0.004447 0.000000 0.025021
#
#
# Mechanical properties :
#
#
# Convention : Reuss Voigt Hill
#
# Bulk Modulus (GPa) = 49.41628 62.55668 55.98648
# Shear Modulus (GPa) = 30.39125 36.67663 33.53394
#
# Velocity S-wave (km/s) = 3.55486 3.90519 3.73414
# Velocity P-wave (km/s) = 6.11532 6.80777 6.47082
#
# Compressibility (1/GPa) = 0.02023625
#
# Stress axis : x y z
#
# Youngs Moduli (GPa) = 76.39245 84.80141 38.32673
#
# Poissons Ratio (x) = 0.31635 0.33494
# Poissons Ratio (y) = 0.28498 0.11112
# Poissons Ratio (z) = 0.66759 0.24587
#
# Static dielectric constant tensor:
#      x y z
#    x 1.905010 0.000000 -0.030110 
#    y 0.000000 2.041970 0.000000 
#    z -0.030110 0.000000 2.024310 
# 
# From -- ./inp_files/3117.got.cif
#   From: 2010.05.17/outbox.cif.g08.bks.cpg/sg4_2_cif.got.tgz:3117.got - 2010.06.03 18:43:04.
