data_PCOD9116680
_publ_section_title
;
Structure prediction by ZEFSAII (Michael W. Deem and Ramdas Pophale) SiO2 
 PCOD9116680
Probable space group: P 21
;
_chemical_formula_sum "Si O2"
_cell_formula_units_Z 14
_cell_length_a 9.302313
_cell_length_b 8.435764
_cell_length_c 12.788790
_cell_angle_alpha 90.000000
_cell_angle_beta 136.331737
_cell_angle_gamma 90.000000
_cell_volume 692.942324
_symmetry_space_group_name_H-M "P 21"
_symmetry_group_IT_number 4
_symmetry_cell_setting 'monoclinic'
loop_
_space_group_symop_operation_xyz
x,y,z
-x,1/2+y,-z
loop_
_atom_site_type_symbol
_atom_site_label
_atom_site_fract_x
_atom_site_fract_y
_atom_site_fract_z
Si Si1 0.007941 0.379260 0.262219
Si Si2 0.240139 0.932449 0.324279
Si Si3 0.391674 0.210929 0.553247
Si Si4 0.546195 0.161053 0.862745
Si Si5 0.441714 0.852637 0.939680
Si Si6 0.878169 0.721398 0.119193
Si Si7 0.025599 0.169314 0.070548
O O1 0.798657 0.300776 0.200703
O O2 0.949636 0.561033 0.213351
O O3 0.206156 0.335760 0.435152
O O4 0.053583 0.308038 0.170915
O O5 0.398275 0.791936 0.380120
O O6 0.017547 0.861558 0.241918
O O7 0.335442 0.053300 0.458339
O O8 0.183665 0.033168 0.190971
O O9 0.420245 0.172391 0.689702
O O10 0.470979 0.022014 0.900286
O O11 0.536410 0.325419 0.923366
O O12 0.784596 0.122457 0.958180
O O13 0.633267 0.752322 0.995733
O O14 0.937207 0.713755 0.028524
#
# Coordination Sequence:
#
# PCOD9116680 Si02
#       7
#     2   2   2   2   2   2   2
#     4  10  24  43  62  98 139 173 217 274 332 410
#     4  11  23  41  66 101 131 171 218 280 331 395
#     4  11  25  43  66  98 144 172 214 273 346 396
#     4  11  23  45  66  95 135 171 227 274 330 394
#     4  11  24  43  67  97 127 179 225 278 321 395
#     4  12  21  40  71  98 127 175 231 273 327 385
#     4  10  22  39  70  97 125 173 230 280 317 379
#
# _framework density 20.203703000000001
#
# number of rings (size 3 to 8) (size 9 to 14) (size 15 to 20)
#    0.000    1.143    4.286    1.714    2.000    1.143 
#    2.571    2.857    0.000    0.000    0.000    0.000 
#    0.000    0.000    0.000    0.000    0.000    0.000 
#
# Total GULP energy -78141.512371 kJ/mol
# GULP energy per Si atom -5581.536598 kJ/mol
# Density = 2.015772 g / cm^3
# Si number density = 20.203703 Si / 1000 Ang^3
#
#
#
# Elastic Constant Matrix: (Units=GPa)
#
#
# Indices 1 2 3 4 5 6 
#
# 1 107.3006 12.3288 41.1861 0.0000 1.2517 0.0000
# 2 12.3288 72.9208 35.4003 0.0000 -13.7632 0.0000
# 3 41.1861 35.4003 127.3941 0.0000 -14.7853 0.0000
# 4 0.0000 0.0000 0.0000 33.2995 0.0000 7.3764
# 5 1.2517 -13.7632 -14.7853 0.0000 29.4597 0.0000
# 6 0.0000 0.0000 0.0000 7.3764 0.0000 25.8222
#
#
#
# Elastic Compliance Matrix: (Units=1/GPa)
#
#
# Indices 1 2 3 4 5 6 
#
# 1 0.010808 -0.000540 -0.003639 0.000000 -0.002538 0.000000
# 2 -0.000540 0.016771 -0.003795 0.000000 0.005953 0.000000
# 3 -0.003639 -0.003795 0.010505 0.000000 0.003654 0.000000
# 4 0.000000 0.000000 0.000000 0.032059 0.000000 -0.009158
# 5 -0.002538 0.005953 0.003654 0.000000 0.038668 0.000000
# 6 0.000000 0.000000 0.000000 -0.009158 0.000000 0.041342
#
#
# Mechanical properties :
#
#
# Convention : Reuss Voigt Hill
#
# Bulk Modulus (GPa) = 45.17397 53.93843 49.55620
# Shear Modulus (GPa) = 28.82214 32.29629 30.55922
#
# Velocity S-wave (km/s) = 3.78110 4.00250 3.89338
# Velocity P-wave (km/s) = 6.43973 6.93652 6.69274
#
# Compressibility (1/GPa) = 0.02213664
#
# Stress axis : x y z
#
# Youngs Moduli (GPa) = 92.52500 59.62796 95.19664
#
# Poissons Ratio (x) = 0.03219 0.34639
# Poissons Ratio (y) = 0.04995 0.36125
# Poissons Ratio (z) = 0.33667 0.22627
#
# Static dielectric constant tensor:
#      x y z
#    x 1.711710 0.000000 0.031100 
#    y 0.000000 1.791120 0.000000 
#    z 0.031100 0.000000 1.692490 
# 
# From -- ./inp_files/5351.got.cif
#   From: 2010.05.17/outbox.cif.g08.bks.cpg/sg4_3_cif.got.tgz:5351.got - 2010.06.03 18:43:04.
