data_PCOD9116304
_publ_section_title
;
Structure prediction by ZEFSAII (Michael W. Deem and Ramdas Pophale) SiO2 
 PCOD9116304
Probable space group: P 21
;
_chemical_formula_sum "Si O2"
_cell_formula_units_Z 14
_cell_length_a 16.340759
_cell_length_b 6.955811
_cell_length_c 5.416199
_cell_angle_alpha 90.000000
_cell_angle_beta 113.978188
_cell_angle_gamma 90.000000
_cell_volume 562.494585
_symmetry_space_group_name_H-M "P 21"
_symmetry_group_IT_number 4
_symmetry_cell_setting 'monoclinic'
loop_
_space_group_symop_operation_xyz
x,y,z
-x,1/2+y,-z
loop_
_atom_site_type_symbol
_atom_site_label
_atom_site_fract_x
_atom_site_fract_y
_atom_site_fract_z
Si Si1 0.447252 0.633990 0.203542
Si Si2 0.101342 0.112347 0.351038
Si Si3 0.806457 0.650168 0.038277
Si Si4 0.899026 0.063157 0.157043
Si Si5 0.372551 0.983895 0.375426
Si Si6 0.848212 0.046052 0.592091
Si Si7 0.648222 0.087425 0.421159
O O1 0.419816 0.855063 0.219657
O O2 0.551169 0.597394 0.383677
O O3 0.395063 0.529631 0.368725
O O4 0.414569 0.568493 0.895239
O O5 0.135954 0.069803 0.120020
O O6 0.094446 0.348712 0.343143
O O7 0.168413 0.075320 0.660067
O O8 0.004258 0.027339 0.286808
O O9 0.704949 0.609296 0.838519
O O10 0.836357 0.873335 0.080799
O O11 0.870706 0.161394 0.374533
O O12 0.875229 0.157510 0.869760
O O13 0.335097 0.816087 0.509783
O O14 0.743605 0.994667 0.480457
#
# Coordination Sequence:
#
# PCOD9116304 Si02
#       7
#     2   2   2   2   2   2   2
#     4  10  25  43  71  98 138 174 222 278 330 407
#     4  10  22  41  65  94 132 176 227 272 334 388
#     4  10  23  42  66  96 134 174 223 278 329 398
#     4  10  21  42  64  98 128 179 223 274 331 392
#     4  10  26  45  69 101 137 175 227 271 340 399
#     4  10  21  42  64  95 132 176 220 281 324 399
#     4  10  24  43  65 102 131 174 226 270 342 393
#
# _framework density 24.889126999999998
#
# number of rings (size 3 to 8) (size 9 to 14) (size 15 to 20)
#    0.857    1.143    0.000    1.714    4.000    4.571 
#   15.429    0.000    0.000    0.000    0.000    0.000 
#    0.000    0.000    0.000    0.000    0.000    0.000 
#
# Total GULP energy -78241.856126 kJ/mol
# GULP energy per Si atom -5588.704009 kJ/mol
# Density = 2.483248 g / cm^3
# Si number density = 24.889127 Si / 1000 Ang^3
#
#
#
# Elastic Constant Matrix: (Units=GPa)
#
#
# Indices 1 2 3 4 5 6 
#
# 1 84.9583 11.5668 35.0614 0.0000 -0.9306 0.0000
# 2 11.5668 98.8628 3.0044 0.0000 7.8407 0.0000
# 3 35.0614 3.0044 171.9595 0.0000 -23.4449 0.0000
# 4 0.0000 0.0000 0.0000 -2.4201 0.0000 16.0090
# 5 -0.9306 7.8407 -23.4449 0.0000 59.8945 0.0000
# 6 0.0000 0.0000 0.0000 16.0090 0.0000 17.3819
#
#
#
# Elastic Compliance Matrix: (Units=1/GPa)
#
#
# Indices 1 2 3 4 5 6 
#
# 1 0.013082 -0.001393 -0.002736 0.000000 -0.000686 0.000000
# 2 -0.001393 0.010393 -0.000091 0.000000 -0.001418 0.000000
# 3 -0.002736 -0.000091 0.006730 0.000000 0.002604 0.000000
# 4 0.000000 0.000000 0.000000 -0.058259 0.000000 0.053658
# 5 -0.000686 -0.001418 0.002604 0.000000 0.017890 0.000000
# 6 0.000000 0.000000 0.000000 0.053658 0.000000 0.008112
#
#
# Mechanical properties :
#
#
# Convention : Reuss Voigt Hill
#
# Bulk Modulus (GPa) = 45.94679 50.56065 48.25372
# Shear Modulus (GPa) = 366.49008 35.38113 200.93561
#
# Velocity S-wave (km/s) = 12.14779 3.77443 8.99486
# Velocity P-wave (km/s) = 14.67171 6.27324 11.28301
#
# Compressibility (1/GPa) = 0.02176431
#
# Stress axis : x y z
#
# Youngs Moduli (GPa) = 76.44131 96.21667 148.59201
#
# Poissons Ratio (x) = 0.13403 0.40661
# Poissons Ratio (y) = 0.10649 0.01350
# Poissons Ratio (z) = 0.20918 0.00874
#
# Static dielectric constant tensor:
#      x y z
#    x 1.958400 0.000000 -0.067350 
#    y 0.000000 2.003770 0.000000 
#    z -0.067350 0.000000 1.983600 
# 
# From -- ./inp_files/2559.got.cif
#   From: 2010.05.17/outbox.cif.g08.bks.cpg/sg4_2_cif.got.tgz:2559.got - 2010.06.03 18:43:04.
