data_PCOD9116239
_publ_section_title
;
Structure prediction by ZEFSAII (Michael W. Deem and Ramdas Pophale) SiO2 
 PCOD9116239
Probable space group: P 21
;
_chemical_formula_sum "Si O2"
_cell_formula_units_Z 16
_cell_length_a 9.431594
_cell_length_b 5.367797
_cell_length_c 14.333896
_cell_angle_alpha 90.000000
_cell_angle_beta 66.698340
_cell_angle_gamma 90.000000
_cell_volume 666.490277
_symmetry_space_group_name_H-M "P 21"
_symmetry_group_IT_number 4
_symmetry_cell_setting 'monoclinic'
loop_
_space_group_symop_operation_xyz
x,y,z
-x,1/2+y,-z
loop_
_atom_site_type_symbol
_atom_site_label
_atom_site_fract_x
_atom_site_fract_y
_atom_site_fract_z
Si Si1 0.372092 0.212860 0.463155
Si Si2 0.035837 0.123709 0.768233
Si Si3 0.525179 0.382969 0.723361
Si Si4 0.794294 0.980014 0.135643
Si Si5 0.919465 0.813859 0.557383
Si Si6 0.174109 0.999383 0.245362
Si Si7 0.340917 0.002082 0.661702
Si Si8 0.892421 0.752837 0.929858
O O1 0.247687 0.379058 0.441827
O O2 0.319033 0.196371 0.582574
O O3 0.545096 0.310100 0.415542
O O4 0.388696 0.970026 0.393432
O O5 0.141397 0.322215 0.794725
O O6 0.165782 0.911112 0.719594
O O7 0.945982 0.272053 0.713083
O O8 0.913301 0.013348 0.871413
O O9 0.379260 0.558443 0.792023
O O10 0.658426 0.406404 0.765289
O O11 0.437759 0.126182 0.720697
O O12 0.788607 0.799065 0.046987
O O13 0.935930 0.169609 0.080099
O O14 0.886132 0.724859 0.672759
O O15 0.975066 0.553496 0.492960
O O16 0.168061 0.077297 0.137933
#
# Coordination Sequence:
#
# PCOD9116239 Si02
#       8
#     2   2   2   2   2   2   2   2
#     4  11  23  39  66  94 134 178 230 276 338 413
#     4  10  22  41  68  95 128 172 223 280 336 419
#     4  10  23  44  60  93 135 167 223 279 347 416
#     4  10  21  41  66  94 123 174 221 284 349 406
#     4  11  27  45  70 101 145 192 234 287 352 423
#     4  10  25  42  63  99 137 175 226 284 351 417
#     4  11  22  39  65  93 128 173 220 276 335 404
#     4  11  21  41  68  93 130 165 231 282 344 420
#
# _framework density 24.006350999999999
#
# number of rings (size 3 to 8) (size 9 to 14) (size 15 to 20)
#    0.000    1.500    2.500    1.500    7.000    1.000 
#    2.250    0.000    0.000    0.000    0.000    0.000 
#    0.000    0.000    0.000    0.000    0.000    0.000 
#
# Total GULP energy -89271.952218 kJ/mol
# GULP energy per Si atom -5579.497014 kJ/mol
# Density = 2.395171 g / cm^3
# Si number density = 24.006351 Si / 1000 Ang^3
#
#
#
# Elastic Constant Matrix: (Units=GPa)
#
#
# Indices 1 2 3 4 5 6 
#
# 1 145.0407 18.9518 31.5195 0.0000 9.3542 0.0000
# 2 18.9518 58.7512 11.0505 0.0000 4.1320 0.0000
# 3 31.5195 11.0505 120.6640 0.0000 9.1483 0.0000
# 4 0.0000 0.0000 0.0000 30.1833 0.0000 -6.1925
# 5 9.3542 4.1320 9.1483 0.0000 35.9465 0.0000
# 6 0.0000 0.0000 0.0000 -6.1925 0.0000 29.5813
#
#
#
# Elastic Compliance Matrix: (Units=1/GPa)
#
#
# Indices 1 2 3 4 5 6 
#
# 1 0.007616 -0.002044 -0.001703 0.000000 -0.001314 0.000000
# 2 -0.002044 0.017961 -0.001014 0.000000 -0.001274 0.000000
# 3 -0.001703 -0.001014 0.008956 0.000000 -0.001719 0.000000
# 4 0.000000 0.000000 0.000000 0.034618 0.000000 0.007247
# 5 -0.001314 -0.001274 -0.001719 0.000000 0.028745 0.000000
# 6 0.000000 0.000000 0.000000 0.007247 0.000000 0.035322
#
#
# Mechanical properties :
#
#
# Convention : Reuss Voigt Hill
#
# Bulk Modulus (GPa) = 39.98356 49.72217 44.85287
# Shear Modulus (GPa) = 33.09571 36.67115 34.88343
#
# Velocity S-wave (km/s) = 3.71701 3.91264 3.81608
# Velocity P-wave (km/s) = 5.92563 6.41629 6.17583
#
# Compressibility (1/GPa) = 0.02501028
#
# Stress axis : x y z
#
# Youngs Moduli (GPa) = 131.29414 55.67694 111.66312
#
# Poissons Ratio (x) = 0.11382 0.19013
# Poissons Ratio (y) = 0.26840 0.11325
# Poissons Ratio (z) = 0.22356 0.05647
#
# Static dielectric constant tensor:
#      x y z
#    x 1.935000 0.000000 -0.026140 
#    y 0.000000 2.093370 0.000000 
#    z -0.026140 0.000000 2.024380 
# 
# From -- ./inp_files/7354.got.cif
#   From: 2010.05.17/outbox.cif.g08.bks.cpg/sg4_4_cif.got.tgz:7354.got - 2010.06.03 18:43:04.
