data_PCOD9116470
_publ_section_title
;
Structure prediction by ZEFSAII (Michael W. Deem and Ramdas Pophale) SiO2 
 PCOD9116470
Probable space group: P 21
;
_chemical_formula_sum "Si O2"
_cell_formula_units_Z 16
_cell_length_a 24.593079
_cell_length_b 4.845234
_cell_length_c 15.794652
_cell_angle_alpha 90.000000
_cell_angle_beta 18.849989
_cell_angle_gamma 90.000000
_cell_volume 608.083547
_symmetry_space_group_name_H-M "P 21"
_symmetry_group_IT_number 4
_symmetry_cell_setting 'monoclinic'
loop_
_space_group_symop_operation_xyz
x,y,z
-x,1/2+y,-z
loop_
_atom_site_type_symbol
_atom_site_label
_atom_site_fract_x
_atom_site_fract_y
_atom_site_fract_z
Si Si1 0.135982 0.367330 0.604866
Si Si2 0.105613 0.437726 0.332496
Si Si3 0.590277 0.391850 0.577083
Si Si4 0.576004 0.671034 0.345789
Si Si5 0.564480 0.869996 0.729217
Si Si6 0.085163 0.468851 0.176862
Si Si7 0.259761 0.657810 0.268063
Si Si8 0.952554 0.636552 0.017413
O O1 0.264378 0.237739 0.483800
O O2 0.263918 0.467881 0.344005
O O3 0.985763 0.196178 0.783122
O O4 0.049349 0.610185 0.786465
O O5 0.151920 0.555418 0.171998
O O6 0.227590 0.480527 0.231295
O O7 0.059856 0.115727 0.397857
O O8 0.487142 0.249351 0.654405
O O9 0.515672 0.674747 0.723145
O O10 0.771433 0.493919 0.276591
O O11 0.598020 0.171877 0.642492
O O12 0.541051 0.354154 0.418988
O O13 0.767098 0.774449 0.075588
O O14 0.416497 0.849566 0.015815
O O15 0.912083 0.320301 0.459392
O O16 0.951943 0.945134 0.053598
#
# Coordination Sequence:
#
# PCOD9116470 Si02
#       8
#     2   2   2   2   2   2   2   2
#     4  12  27  47  76 112 154 207 264 326 387 477
#     4  10  21  44  68 102 138 186 246 298 374 452
#     4  12  26  53  76 113 155 210 257 330 394 482
#     4  12  29  50  79 116 156 201 267 338 404 466
#     4  12  29  47  77 112 160 205 262 317 404 468
#     4  11  27  46  76 110 152 205 258 325 398 477
#     4  11  28  45  77 109 155 200 258 321 394 470
#     4  12  25  48  77 108 148 202 264 315 387 464
#
# _framework density 26.312175
#
# number of rings (size 3 to 8) (size 9 to 14) (size 15 to 20)
#    0.000    0.500    3.750    2.250   10.500    4.000 
#    0.000    0.000    0.000    0.000    0.000    0.000 
#    0.000    0.000    0.000    0.000    0.000    0.000 
#
# Total GULP energy -89610.096504 kJ/mol
# GULP energy per Si atom -5600.631032 kJ/mol
# Density = 2.625229 g / cm^3
# Si number density = 26.312175 Si / 1000 Ang^3
#
#
#
# Elastic Constant Matrix: (Units=GPa)
#
#
# Indices 1 2 3 4 5 6 
#
# 1 113.1581 9.6100 19.8014 0.0000 2.3468 0.0000
# 2 9.6100 86.3142 8.7337 0.0000 3.2342 0.0000
# 3 19.8014 8.7337 137.6904 0.0000 -4.5411 0.0000
# 4 0.0000 0.0000 0.0000 31.2785 0.0000 8.1176
# 5 2.3468 3.2342 -4.5411 0.0000 32.9665 0.0000
# 6 0.0000 0.0000 0.0000 8.1176 0.0000 43.4861
#
#
#
# Elastic Compliance Matrix: (Units=1/GPa)
#
#
# Indices 1 2 3 4 5 6 
#
# 1 0.009151 -0.000861 -0.001286 0.000000 -0.000744 0.000000
# 2 -0.000861 0.011793 -0.000663 0.000000 -0.001187 0.000000
# 3 -0.001286 -0.000663 0.007529 0.000000 0.001194 0.000000
# 4 0.000000 0.000000 0.000000 0.033599 0.000000 -0.006272
# 5 -0.000744 -0.001187 0.001194 0.000000 0.030668 0.000000
# 6 0.000000 0.000000 0.000000 -0.006272 0.000000 0.024167
#
#
# Mechanical properties :
#
#
# Convention : Reuss Voigt Hill
#
# Bulk Modulus (GPa) = 43.75873 45.93919 44.84896
# Shear Modulus (GPa) = 38.41913 41.48073 39.94993
#
# Velocity S-wave (km/s) = 3.82531 3.97480 3.90077
# Velocity P-wave (km/s) = 6.01476 6.20988 6.11310
#
# Compressibility (1/GPa) = 0.02285258
#
# Stress axis : x y z
#
# Youngs Moduli (GPa) = 109.28067 84.79590 132.81897
#
# Poissons Ratio (x) = 0.07299 0.17079
# Poissons Ratio (y) = 0.09407 0.08811
# Poissons Ratio (z) = 0.14053 0.05625
#
# Static dielectric constant tensor:
#      x y z
#    x 2.093600 0.000000 0.000720 
#    y 0.000000 2.010790 0.000000 
#    z 0.000720 0.000000 2.070930 
# 
# From -- ./inp_files/14520.got.cif
#   From: 2010.05.17/outbox.cif.g08.bks.cpg/sg4_8_cif.got.tgz:14520.got - 2010.06.03 18:43:04.
