data_PCOD9116241
_publ_section_title
;
Structure prediction by ZEFSAII (Michael W. Deem and Ramdas Pophale) SiO2 
 PCOD9116241
Probable space group: P 21
;
_chemical_formula_sum "Si O2"
_cell_formula_units_Z 16
_cell_length_a 14.227178
_cell_length_b 8.686298
_cell_length_c 11.456305
_cell_angle_alpha 90.000000
_cell_angle_beta 150.511055
_cell_angle_gamma 90.000000
_cell_volume 696.929326
_symmetry_space_group_name_H-M "P 21"
_symmetry_group_IT_number 4
_symmetry_cell_setting 'monoclinic'
loop_
_space_group_symop_operation_xyz
x,y,z
-x,1/2+y,-z
loop_
_atom_site_type_symbol
_atom_site_label
_atom_site_fract_x
_atom_site_fract_y
_atom_site_fract_z
Si Si1 0.643354 0.619340 0.403133
Si Si2 0.267512 0.010565 0.928492
Si Si3 0.592872 0.854998 0.141700
Si Si4 0.020768 0.128812 0.854361
Si Si5 0.262256 0.797618 0.601542
Si Si6 0.212267 0.672595 0.976001
Si Si7 0.031008 0.474819 0.578143
Si Si8 0.956022 0.792225 0.888895
O O1 0.640810 0.713302 0.278383
O O2 0.715640 0.447819 0.457033
O O3 0.767798 0.720200 0.626165
O O4 0.426575 0.613007 0.211586
O O5 0.211131 0.841038 0.915115
O O6 0.877722 0.557055 0.330003
O O7 0.471667 0.975912 0.090278
O O8 0.208280 0.117481 0.973466
O O9 0.780872 0.930237 0.290335
O O10 0.454339 0.798404 0.887015
O O11 0.827796 0.161674 0.572315
O O12 0.991246 0.967795 0.889795
O O13 0.046258 0.261907 0.976789
O O14 0.094636 0.833156 0.512286
O O15 0.093143 0.567624 0.759322
O O16 0.122547 0.694061 0.005579
#
# Coordination Sequence:
#
# PCOD9116241 Si02
#       8
#     2   2   2   2   2   2   2   2
#     4  11  22  42  68  97 140 183 229 289 347 415
#     4   9  23  39  65  99 141 179 227 282 347 417
#     4  10  22  39  66 108 143 183 220 287 350 430
#     4  11  25  47  73  98 137 190 237 295 350 421
#     4  11  24  40  67 105 139 182 233 282 360 420
#     4  10  21  41  66  98 134 179 230 280 344 405
#     4  11  21  37  68 102 143 176 221 280 352 417
#     4  11  24  47  71  95 137 186 241 291 350 409
#
# _framework density 22.957851999999999
#
# number of rings (size 3 to 8) (size 9 to 14) (size 15 to 20)
#    0.000    1.500    2.500    2.250    5.250    2.000 
#    0.000   10.000    0.000    0.000    0.000    0.000 
#    0.000    0.000    0.000    0.000    0.000    0.000 
#
# Total GULP energy -89519.726348 kJ/mol
# GULP energy per Si atom -5594.982897 kJ/mol
# Density = 2.290560 g / cm^3
# Si number density = 22.957852 Si / 1000 Ang^3
#
#
#
# Elastic Constant Matrix: (Units=GPa)
#
#
# Indices 1 2 3 4 5 6 
#
# 1 111.2820 26.6945 30.2795 0.0000 10.0120 0.0000
# 2 26.6945 59.0693 8.6297 0.0000 -1.8044 0.0000
# 3 30.2795 8.6297 81.6495 0.0000 6.3698 0.0000
# 4 0.0000 0.0000 0.0000 32.0219 0.0000 -4.8502
# 5 10.0120 -1.8044 6.3698 0.0000 39.6348 0.0000
# 6 0.0000 0.0000 0.0000 -4.8502 0.0000 39.0323
#
#
#
# Elastic Compliance Matrix: (Units=1/GPa)
#
#
# Indices 1 2 3 4 5 6 
#
# 1 0.011281 -0.004664 -0.003496 0.000000 -0.002500 0.000000
# 2 -0.004664 0.019169 -0.000462 0.000000 0.002125 0.000000
# 3 -0.003496 -0.000462 0.013697 0.000000 -0.001339 0.000000
# 4 0.000000 0.000000 0.000000 0.031828 0.000000 0.003955
# 5 -0.002500 0.002125 -0.001339 0.000000 0.026174 0.000000
# 6 0.000000 0.000000 0.000000 0.003955 0.000000 0.026111
#
#
# Mechanical properties :
#
#
# Convention : Reuss Voigt Hill
#
# Bulk Modulus (GPa) = 37.16884 42.57870 39.87377
# Shear Modulus (GPa) = 32.36840 34.56428 33.46634
#
# Velocity S-wave (km/s) = 3.75894 3.88436 3.82216
# Velocity P-wave (km/s) = 5.92155 6.22128 6.07326
#
# Compressibility (1/GPa) = 0.02690426
#
# Stress axis : x y z
#
# Youngs Moduli (GPa) = 88.64451 52.16653 73.00800
#
# Poissons Ratio (x) = 0.24329 0.25520
# Poissons Ratio (y) = 0.41342 0.03375
# Poissons Ratio (z) = 0.30986 0.02412
#
# Static dielectric constant tensor:
#      x y z
#    x 1.889150 0.000000 0.006810 
#    y 0.000000 1.905250 0.000000 
#    z 0.006810 0.000000 1.833820 
# 
# From -- ./inp_files/12690.got.cif
#   From: 2010.05.17/outbox.cif.g08.bks.cpg/sg4_7_cif.got.tgz:12690.got - 2010.06.03 18:43:04.
