data_PCOD9116644
_publ_section_title
;
Structure prediction by ZEFSAII (Michael W. Deem and Ramdas Pophale) SiO2 
 PCOD9116644
Probable space group: P 21
;
_chemical_formula_sum "Si O2"
_cell_formula_units_Z 14
_cell_length_a 9.169409
_cell_length_b 11.557440
_cell_length_c 6.490406
_cell_angle_alpha 90.000000
_cell_angle_beta 52.148707
_cell_angle_gamma 90.000000
_cell_volume 543.106871
_symmetry_space_group_name_H-M "P 21"
_symmetry_group_IT_number 4
_symmetry_cell_setting 'monoclinic'
loop_
_space_group_symop_operation_xyz
x,y,z
-x,1/2+y,-z
loop_
_atom_site_type_symbol
_atom_site_label
_atom_site_fract_x
_atom_site_fract_y
_atom_site_fract_z
Si Si1 0.718607 0.825080 0.257358
Si Si2 0.960519 0.207754 0.787426
Si Si3 0.019673 0.248898 0.263405
Si Si4 0.252177 0.549013 0.558817
Si Si5 0.041781 0.991046 0.534679
Si Si6 0.567888 0.521990 0.993605
Si Si7 0.533549 0.258847 0.150602
O O1 0.561509 0.778687 0.544366
O O2 0.913217 0.790341 0.192261
O O3 0.714877 0.962774 0.280159
O O4 0.770526 0.766625 0.997239
O O5 0.028910 0.213398 0.492021
O O6 0.008084 0.073773 0.760664
O O7 0.752298 0.245570 0.976926
O O8 0.877349 0.159013 0.282201
O O9 0.924702 0.371937 0.374803
O O10 0.456624 0.568531 0.290256
O O11 0.138700 0.492986 0.460084
O O12 0.212922 0.009882 0.230444
O O13 0.506648 0.382889 0.049248
O O14 0.523645 0.629803 0.877256
#
# Coordination Sequence:
#
# PCOD9116644 Si02
#       7
#     2   2   2   2   2   2   2
#     4  11  24  40  66  92 133 168 207 274 323 371
#     4  11  22  43  65  88 126 171 213 262 314 386
#     4  11  23  41  65  96 126 168 217 259 324 392
#     4  10  22  39  62  95 129 159 220 266 313 387
#     4  11  20  38  67  87 124 169 214 254 323 371
#     4  11  19  36  65  96 121 170 214 263 316 385
#     4  11  22  39  64  98 129 167 223 260 321 394
#
# _framework density 25.777618
#
# number of rings (size 3 to 8) (size 9 to 14) (size 15 to 20)
#    0.000    1.143    7.143    0.000    2.000    0.000 
#    0.000    5.714    3.143    0.000    0.000    0.000 
#    0.000    0.000    0.000    0.000    0.000    0.000 
#
# Total GULP energy -78015.711345 kJ/mol
# GULP energy per Si atom -5572.550810 kJ/mol
# Density = 2.571895 g / cm^3
# Si number density = 25.777618 Si / 1000 Ang^3
#
#
#
# Elastic Constant Matrix: (Units=GPa)
#
#
# Indices 1 2 3 4 5 6 
#
# 1 44.7620 17.7524 16.3877 0.0000 -19.2553 0.0000
# 2 17.7524 88.0008 41.5211 0.0000 -17.6970 0.0000
# 3 16.3877 41.5211 227.1639 0.0000 -36.1217 0.0000
# 4 0.0000 0.0000 0.0000 51.7882 0.0000 -1.0323
# 5 -19.2553 -17.6970 -36.1217 0.0000 28.8050 0.0000
# 6 0.0000 0.0000 0.0000 -1.0323 0.0000 24.5853
#
#
#
# Elastic Compliance Matrix: (Units=1/GPa)
#
#
# Indices 1 2 3 4 5 6 
#
# 1 0.032307 -0.002904 0.001687 0.000000 0.021928 0.000000
# 2 -0.002904 0.013581 -0.001567 0.000000 0.004438 0.000000
# 3 0.001687 -0.001567 0.005737 0.000000 0.007359 0.000000
# 4 0.000000 0.000000 0.000000 0.019326 0.000000 0.000811
# 5 0.021928 0.004438 0.007359 0.000000 0.061329 0.000000
# 6 0.000000 0.000000 0.000000 0.000811 0.000000 0.040709
#
#
# Mechanical properties :
#
#
# Convention : Reuss Voigt Hill
#
# Bulk Modulus (GPa) = 21.71207 56.80548 39.25877
# Shear Modulus (GPa) = 25.78530 39.98673 32.88602
#
# Velocity S-wave (km/s) = 3.16618 3.94282 3.57565
# Velocity P-wave (km/s) = 4.66984 6.54312 5.68418
#
# Compressibility (1/GPa) = 0.04605733
#
# Stress axis : x y z
#
# Youngs Moduli (GPa) = 30.95300 73.63150 174.30529
#
# Poissons Ratio (x) = 0.21379 -0.29402
# Poissons Ratio (y) = 0.08987 0.27319
# Poissons Ratio (z) = -0.05221 0.11540
#
# Static dielectric constant tensor:
#      x y z
#    x 2.089810 0.000000 0.180340 
#    y 0.000000 2.724730 0.000000 
#    z 0.180340 0.000000 2.129960 
# 
# From -- ./inp_files/8423.got.cif
#   From: 2010.05.17/outbox.cif.g08.bks.cpg/sg4_5_cif.got.tgz:8423.got - 2010.06.03 18:43:04.
