data_PCOD9116146
_publ_section_title
;
Structure prediction by ZEFSAII (Michael W. Deem and Ramdas Pophale) SiO2 
 PCOD9116146
Probable space group: P 21
;
_chemical_formula_sum "Si O2"
_cell_formula_units_Z 12
_cell_length_a 10.141628
_cell_length_b 6.987356
_cell_length_c 9.154818
_cell_angle_alpha 90.000000
_cell_angle_beta 41.351266
_cell_angle_gamma 90.000000
_cell_volume 428.604986
_symmetry_space_group_name_H-M "P 21"
_symmetry_group_IT_number 4
_symmetry_cell_setting 'monoclinic'
loop_
_space_group_symop_operation_xyz
x,y,z
-x,1/2+y,-z
loop_
_atom_site_type_symbol
_atom_site_label
_atom_site_fract_x
_atom_site_fract_y
_atom_site_fract_z
Si Si1 0.665460 0.875000 0.568839
Si Si2 0.084391 0.521026 0.050678
Si Si3 0.782236 0.445075 0.050828
Si Si4 0.507702 0.495745 0.760567
Si Si5 0.693133 0.144535 0.784597
Si Si6 0.000757 0.172465 0.325528
O O1 0.669241 0.932879 0.736890
O O2 0.833568 0.031914 0.386765
O O3 0.442373 0.930776 0.705253
O O4 0.662134 0.645262 0.558909
O O5 0.118980 0.740411 0.060560
O O6 0.312937 0.451073 0.822490
O O7 0.016593 0.374061 0.232118
O O8 0.920149 0.528926 0.062160
O O9 0.797792 0.562452 0.886216
O O10 0.408028 0.616842 0.976729
O O11 0.598643 0.306610 0.757170
O O12 0.928506 0.184820 0.552594
#
# Coordination Sequence:
#
# PCOD9116146 Si02
#       6
#     2   2   2   2   2   2
#     4   9  23  41  66  92 129 177 214 271 327 392
#     4  11  24  42  68  96 134 176 219 272 339 387
#     4  11  22  45  63  95 138 169 217 280 330 391
#     4  11  21  44  67  95 135 180 212 284 336 386
#     4  10  21  40  66  94 129 169 229 267 329 396
#     4  10  23  42  62 102 121 177 225 266 325 400
#
# _framework density 27.997810000000001
#
# number of rings (size 3 to 8) (size 9 to 14) (size 15 to 20)
#    1.000    0.667    3.333    1.000    2.333    0.000 
#   12.000    0.000    0.000    0.000    0.000    0.000 
#    0.000    0.000    0.000    0.000    0.000    0.000 
#
# Total GULP energy -66984.483488 kJ/mol
# GULP energy per Si atom -5582.040291 kJ/mol
# Density = 2.793409 g / cm^3
# Si number density = 27.997810 Si / 1000 Ang^3
#
#
#
# Elastic Constant Matrix: (Units=GPa)
#
#
# Indices 1 2 3 4 5 6 
#
# 1 71.0768 14.1052 6.5716 0.0000 -18.3972 0.0000
# 2 14.1052 139.4746 49.8667 0.0000 -19.6796 0.0000
# 3 6.5716 49.8667 114.2750 0.0000 -4.7968 0.0000
# 4 0.0000 0.0000 0.0000 65.0290 0.0000 -5.9444
# 5 -18.3972 -19.6796 -4.7968 0.0000 35.3488 0.0000
# 6 0.0000 0.0000 0.0000 -5.9444 0.0000 27.0912
#
#
#
# Elastic Compliance Matrix: (Units=1/GPa)
#
#
# Indices 1 2 3 4 5 6 
#
# 1 0.016310 -0.000325 -0.000450 0.000000 0.008246 0.000000
# 2 -0.000325 0.009188 -0.003805 0.000000 0.004430 0.000000
# 3 -0.000450 -0.003805 0.010397 0.000000 -0.000941 0.000000
# 4 0.000000 0.000000 0.000000 0.015693 0.000000 0.003443
# 5 0.008246 0.004430 -0.000941 0.000000 0.034920 0.000000
# 6 0.000000 0.000000 0.000000 0.003443 0.000000 0.037668
#
#
# Mechanical properties :
#
#
# Convention : Reuss Voigt Hill
#
# Bulk Modulus (GPa) = 37.40293 51.76816 44.58555
# Shear Modulus (GPa) = 35.15017 42.44600 38.79809
#
# Velocity S-wave (km/s) = 3.54709 3.89787 3.72661
# Velocity P-wave (km/s) = 5.49218 6.22801 5.87163
#
# Compressibility (1/GPa) = 0.02673587
#
# Stress axis : x y z
#
# Youngs Moduli (GPa) = 61.31259 108.83771 96.17715
#
# Poissons Ratio (x) = 0.03537 0.04328
# Poissons Ratio (y) = 0.01993 0.36593
# Poissons Ratio (z) = 0.02759 0.41410
#
# Static dielectric constant tensor:
#      x y z
#    x 2.344840 0.000000 -0.088630 
#    y 0.000000 2.186670 0.000000 
#    z -0.088630 0.000000 2.304080 
# 
# From -- ./inp_files/11953.got.cif
#   From: 2010.05.17/outbox.cif.g08.bks.cpg/sg4_6_cif.got.tgz:11953.got - 2010.06.03 18:43:04.
