data_PCOD9116615
_publ_section_title
;
Structure prediction by ZEFSAII (Michael W. Deem and Ramdas Pophale) SiO2 
 PCOD9116615
Probable space group: P 21
;
_chemical_formula_sum "Si O2"
_cell_formula_units_Z 16
_cell_length_a 9.736975
_cell_length_b 8.341783
_cell_length_c 10.079444
_cell_angle_alpha 90.000000
_cell_angle_beta 52.324645
_cell_angle_gamma 90.000000
_cell_volume 647.982133
_symmetry_space_group_name_H-M "P 21"
_symmetry_group_IT_number 4
_symmetry_cell_setting 'monoclinic'
loop_
_space_group_symop_operation_xyz
x,y,z
-x,1/2+y,-z
loop_
_atom_site_type_symbol
_atom_site_label
_atom_site_fract_x
_atom_site_fract_y
_atom_site_fract_z
Si Si1 0.947879 0.702530 0.868947
Si Si2 0.650179 0.397645 0.749111
Si Si3 0.245037 0.440328 0.346421
Si Si4 0.712421 0.034957 0.379363
Si Si5 0.978374 0.228448 0.637460
Si Si6 0.717844 0.380076 0.394167
Si Si7 0.225274 0.206898 0.743777
Si Si8 0.408977 0.214118 0.072876
O O1 0.781857 0.698470 0.875064
O O2 0.081330 0.556055 0.773505
O O3 0.076072 0.848941 0.755020
O O4 0.873079 0.707976 0.060038
O O5 0.833713 0.367030 0.713576
O O6 0.687526 0.395677 0.569893
O O7 0.560525 0.561250 0.851482
O O8 0.534003 0.252167 0.875469
O O9 0.298762 0.510708 0.456704
O O10 0.123524 0.569953 0.346748
O O11 0.403742 0.372836 0.167872
O O12 0.127554 0.284135 0.448306
O O13 0.643634 0.211008 0.382268
O O14 0.663521 0.871072 0.335650
O O15 0.080616 0.209907 0.713324
O O16 0.670967 0.542021 0.345109
#
# Coordination Sequence:
#
# PCOD9116615 Si02
#       8
#     2   2   2   2   2   2   2   2
#     4  10  22  40  61  92 125 161 204 250 300 370
#     4  12  24  40  59  91 123 160 205 258 321 355
#     4  11  19  36  59  91 120 154 202 254 316 353
#     4   9  20  34  61  91 121 153 197 258 299 356
#     4  11  20  33  62  93 119 152 199 253 307 367
#     4  10  22  38  64  93 124 157 202 261 305 365
#     4  11  20  36  65  94 122 162 202 245 306 365
#     4  12  25  39  63  85 126 163 201 263 304 377
#
# _framework density 24.692039999999999
#
# number of rings (size 3 to 8) (size 9 to 14) (size 15 to 20)
#    0.750    0.500    1.250    8.250    0.000    0.000 
#    0.000    0.000    2.750    3.000    0.000    0.000 
#    0.000    0.000    0.000    0.000    0.000    0.000 
#
# Total GULP energy -89491.224319 kJ/mol
# GULP energy per Si atom -5593.201520 kJ/mol
# Density = 2.463584 g / cm^3
# Si number density = 24.692040 Si / 1000 Ang^3
#
#
#
# Elastic Constant Matrix: (Units=GPa)
#
#
# Indices 1 2 3 4 5 6 
#
# 1 69.7568 17.2034 23.9174 0.0000 4.6946 0.0000
# 2 17.2034 177.3143 68.1696 0.0000 17.2482 0.0000
# 3 23.9174 68.1696 154.5774 0.0000 32.7474 0.0000
# 4 0.0000 0.0000 0.0000 36.9121 0.0000 -7.6662
# 5 4.6946 17.2482 32.7474 0.0000 40.6442 0.0000
# 6 0.0000 0.0000 0.0000 -7.6662 0.0000 19.9922
#
#
#
# Elastic Compliance Matrix: (Units=1/GPa)
#
#
# Indices 1 2 3 4 5 6 
#
# 1 0.015210 -0.000692 -0.002096 0.000000 0.000226 0.000000
# 2 -0.000692 0.006833 -0.002784 0.000000 -0.000577 0.000000
# 3 -0.002096 -0.002784 0.009309 0.000000 -0.006076 0.000000
# 4 0.000000 0.000000 0.000000 0.029436 0.000000 0.011287
# 5 0.000226 -0.000577 -0.006076 0.000000 0.029718 0.000000
# 6 0.000000 0.000000 0.000000 0.011287 0.000000 0.054348
#
#
# Mechanical properties :
#
#
# Convention : Reuss Voigt Hill
#
# Bulk Modulus (GPa) = 49.48688 68.91436 59.20062
# Shear Modulus (GPa) = 30.72507 39.00026 34.86266
#
# Velocity S-wave (km/s) = 3.53133 3.97856 3.76160
# Velocity P-wave (km/s) = 6.05906 7.00538 6.54934
#
# Compressibility (1/GPa) = 0.02020737
#
# Stress axis : x y z
#
# Youngs Moduli (GPa) = 65.74790 146.34056 107.42526
#
# Poissons Ratio (x) = 0.10123 0.22517
# Poissons Ratio (y) = 0.04548 0.29911
# Poissons Ratio (z) = 0.13781 0.40747
#
# Static dielectric constant tensor:
#      x y z
#    x 1.888470 0.000000 -0.037970 
#    y 0.000000 2.063220 0.000000 
#    z -0.037970 0.000000 1.981500 
# 
# From -- ./inp_files/11982.got.cif
#   From: 2010.05.17/outbox.cif.g08.bks.cpg/sg4_6_cif.got.tgz:11982.got - 2010.06.03 18:43:04.
