data_PCOD9116631
_publ_section_title
;
Structure prediction by ZEFSAII (Michael W. Deem and Ramdas Pophale) SiO2 
 PCOD9116631
Probable space group: P 21
;
_chemical_formula_sum "Si O2"
_cell_formula_units_Z 16
_cell_length_a 30.613157
_cell_length_b 5.030439
_cell_length_c 10.576712
_cell_angle_alpha 90.000000
_cell_angle_beta 152.008529
_cell_angle_gamma 90.000000
_cell_volume 764.455777
_symmetry_space_group_name_H-M "P 21"
_symmetry_group_IT_number 4
_symmetry_cell_setting 'monoclinic'
loop_
_space_group_symop_operation_xyz
x,y,z
-x,1/2+y,-z
loop_
_atom_site_type_symbol
_atom_site_label
_atom_site_fract_x
_atom_site_fract_y
_atom_site_fract_z
Si Si1 0.265331 0.211160 0.520927
Si Si2 0.632692 0.225973 0.602245
Si Si3 0.521844 0.531298 0.973033
Si Si4 0.222270 0.729109 0.253427
Si Si5 0.938640 0.201532 0.347640
Si Si6 0.561329 0.597272 0.628237
Si Si7 0.796344 0.067596 0.202862
Si Si8 0.240541 0.076986 0.741349
O O1 0.256156 0.502358 0.436928
O O2 0.229132 0.175271 0.570190
O O3 0.209078 0.004929 0.290937
O O4 0.372706 0.112201 0.789763
O O5 0.545963 0.073130 0.319375
O O6 0.700299 0.281538 0.656789
O O7 0.595164 0.485959 0.578985
O O8 0.699628 0.080831 0.875271
O O9 0.512173 0.237191 0.005104
O O10 0.129569 0.643100 0.943930
O O11 0.024658 0.000637 0.565021
O O12 0.877353 0.153774 0.315754
O O13 0.508692 0.874336 0.497849
O O14 0.650894 0.607259 0.946271
O O15 0.786363 0.277090 0.291872
O O16 0.810768 0.775522 0.293823
#
# Coordination Sequence:
#
# PCOD9116631 Si02
#       8
#     2   2   2   2   2   2   2   2
#     4  12  23  40  61  88 133 174 214 254 300 380
#     4  10  22  39  59  84 124 159 216 265 309 354
#     4  12  23  36  53  85 125 169 216 259 299 353
#     4  11  24  41  64  94 123 164 203 255 332 373
#     4  11  23  44  75 103 125 150 199 268 328 393
#     4  11  23  37  56  85 118 166 222 276 307 345
#     4  10  23  41  67  94 123 164 206 266 316 371
#     4  11  23  40  61  89 125 174 216 247 309 375
#
# _framework density 20.929922999999999
#
# number of rings (size 3 to 8) (size 9 to 14) (size 15 to 20)
#    0.000    1.000    2.500    4.500    0.000   11.000 
#    0.000    0.000    0.000   15.000    0.000    0.000 
#    0.000    0.000    0.000    0.000    0.000    0.000 
#
# Total GULP energy -89541.099629 kJ/mol
# GULP energy per Si atom -5596.318727 kJ/mol
# Density = 2.088229 g / cm^3
# Si number density = 20.929923 Si / 1000 Ang^3
#
#
#
# Elastic Constant Matrix: (Units=GPa)
#
#
# Indices 1 2 3 4 5 6 
#
# 1 47.6336 -8.5731 27.9982 0.0000 -7.1728 0.0000
# 2 -8.5731 36.2703 -8.9750 0.0000 0.2431 0.0000
# 3 27.9982 -8.9750 52.8890 0.0000 -4.1221 0.0000
# 4 0.0000 0.0000 0.0000 31.0055 0.0000 3.0230
# 5 -7.1728 0.2431 -4.1221 0.0000 24.4506 0.0000
# 6 0.0000 0.0000 0.0000 3.0230 0.0000 35.4479
#
#
#
# Elastic Compliance Matrix: (Units=1/GPa)
#
#
# Indices 1 2 3 4 5 6 
#
# 1 0.031910 0.003597 -0.015762 0.000000 0.006668 0.000000
# 2 0.003597 0.029192 0.003150 0.000000 0.001296 0.000000
# 3 -0.015762 0.003150 0.027789 0.000000 0.000030 0.000000
# 4 0.000000 0.000000 0.000000 0.032523 0.000000 -0.002774
# 5 0.006668 0.001296 0.000030 0.000000 0.042847 0.000000
# 6 0.000000 0.000000 0.000000 -0.002774 0.000000 0.028447
#
#
# Mechanical properties :
#
#
# Convention : Reuss Voigt Hill
#
# Bulk Modulus (GPa) = 14.11202 17.52146 15.81674
# Shear Modulus (GPa) = 21.33503 26.60366 23.96935
#
# Velocity S-wave (km/s) = 3.19620 3.56909 3.38778
# Velocity P-wave (km/s) = 4.51421 5.03728 4.78290
#
# Compressibility (1/GPa) = 0.07086157
#
# Stress axis : x y z
#
# Youngs Moduli (GPa) = 31.33825 34.25605 35.98599
#
# Poissons Ratio (x) = -0.12323 0.56722
# Poissons Ratio (y) = -0.11274 -0.11337
# Poissons Ratio (z) = 0.49396 -0.10792
#
# Static dielectric constant tensor:
#      x y z
#    x 1.768560 0.000000 -0.011920 
#    y 0.000000 1.722950 0.000000 
#    z -0.011920 0.000000 1.732060 
# 
# From -- ./inp_files/10132.got.cif
#   From: 2010.05.17/outbox.cif.g08.bks.cpg/sg4_6_cif.got.tgz:10132.got - 2010.06.03 18:43:04.
