data_PCOD9116722
_publ_section_title
;
Structure prediction by ZEFSAII (Michael W. Deem and Ramdas Pophale) SiO2 
 PCOD9116722
Probable space group: P 21
;
_chemical_formula_sum "Si O2"
_cell_formula_units_Z 16
_cell_length_a 14.216643
_cell_length_b 8.432384
_cell_length_c 11.303514
_cell_angle_alpha 90.000000
_cell_angle_beta 150.846829
_cell_angle_gamma 90.000000
_cell_volume 660.115736
_symmetry_space_group_name_H-M "P 21"
_symmetry_group_IT_number 4
_symmetry_cell_setting 'monoclinic'
loop_
_space_group_symop_operation_xyz
x,y,z
-x,1/2+y,-z
loop_
_atom_site_type_symbol
_atom_site_label
_atom_site_fract_x
_atom_site_fract_y
_atom_site_fract_z
Si Si1 0.108480 0.426450 0.095292
Si Si2 0.458655 0.282445 0.575287
Si Si3 0.726933 0.266227 0.650685
Si Si4 0.126643 0.301613 0.717265
Si Si5 0.765472 0.055299 0.000565
Si Si6 0.226884 0.642215 0.549962
Si Si7 0.985164 0.342709 0.316868
Si Si8 0.610594 0.520952 0.937581
O O1 0.232260 0.298789 0.304957
O O2 0.175459 0.598719 0.209276
O O3 0.173131 0.426467 0.028867
O O4 0.883083 0.398882 0.852211
O O5 0.550838 0.288310 0.545861
O O6 0.526814 0.434864 0.727825
O O7 0.554035 0.128901 0.742956
O O8 0.700872 0.246060 0.482222
O O9 0.189656 0.477368 0.824180
O O10 0.913729 0.251353 0.527720
O O11 0.124221 0.282641 0.573486
O O12 0.277611 0.186165 0.946729
O O13 0.909568 0.205416 0.149471
O O14 0.423804 0.559440 0.812327
O O15 0.087589 0.491653 0.367485
O O16 0.788884 0.405930 0.165550
#
# Coordination Sequence:
#
# PCOD9116722 Si02
#       8
#     2   2   2   2   2   2   2   2
#     4  11  24  40  63  94 137 173 217 266 324 401
#     4  10  24  41  60  96 140 176 214 263 331 391
#     4  11  25  39  66  96 129 179 222 259 328 395
#     4  11  23  44  69  98 132 167 223 287 333 380
#     4  10  22  40  63  96 127 173 216 265 334 389
#     4  11  23  43  70  94 129 175 223 270 333 394
#     4  10  24  45  69  92 135 172 219 283 335 383
#     4  10  23  42  70  96 131 175 216 271 332 397
#
# _framework density 24.238173
#
# number of rings (size 3 to 8) (size 9 to 14) (size 15 to 20)
#    0.000    1.500    2.500    1.500    8.750    3.000 
#    0.000    3.750    0.000    0.000    0.000    0.000 
#    0.000    0.000    0.000    0.000    0.000    0.000 
#
# Total GULP energy -89340.026104 kJ/mol
# GULP energy per Si atom -5583.751631 kJ/mol
# Density = 2.418301 g / cm^3
# Si number density = 24.238173 Si / 1000 Ang^3
#
#
#
# Elastic Constant Matrix: (Units=GPa)
#
#
# Indices 1 2 3 4 5 6 
#
# 1 66.3954 13.2730 21.9357 0.0000 2.6394 0.0000
# 2 13.2730 60.6442 26.7310 0.0000 6.6659 0.0000
# 3 21.9357 26.7310 76.0672 0.0000 13.6785 0.0000
# 4 0.0000 0.0000 0.0000 25.7617 0.0000 2.5792
# 5 2.6394 6.6659 13.6785 0.0000 35.1454 0.0000
# 6 0.0000 0.0000 0.0000 2.5792 0.0000 25.9156
#
#
#
# Elastic Compliance Matrix: (Units=1/GPa)
#
#
# Indices 1 2 3 4 5 6 
#
# 1 0.016836 -0.001856 -0.004343 0.000000 0.000778 0.000000
# 2 -0.001856 0.019757 -0.006192 0.000000 -0.001198 0.000000
# 3 -0.004343 -0.006192 0.017532 0.000000 -0.005323 0.000000
# 4 0.000000 0.000000 0.000000 0.039208 0.000000 -0.003902
# 5 0.000778 -0.001198 -0.005323 0.000000 0.030694 0.000000
# 6 0.000000 0.000000 0.000000 -0.003902 0.000000 0.038975
#
#
# Mechanical properties :
#
#
# Convention : Reuss Voigt Hill
#
# Bulk Modulus (GPa) = 34.07994 36.33180 35.20587
# Shear Modulus (GPa) = 25.30818 26.77568 26.04193
#
# Velocity S-wave (km/s) = 3.23483 3.32729 3.28139
# Velocity P-wave (km/s) = 5.29558 5.45740 5.37710
#
# Compressibility (1/GPa) = 0.02934278
#
# Stress axis : x y z
#
# Youngs Moduli (GPa) = 59.39593 50.61508 57.03946
#
# Poissons Ratio (x) = 0.09395 0.24770
# Poissons Ratio (y) = 0.11025 0.35320
# Poissons Ratio (z) = 0.25794 0.31342
#
# Static dielectric constant tensor:
#      x y z
#    x 1.946520 0.000000 -0.025280 
#    y 0.000000 1.936620 0.000000 
#    z -0.025280 0.000000 1.935480 
# 
# From -- ./inp_files/12586.got.cif
#   From: 2010.05.17/outbox.cif.g08.bks.cpg/sg4_7_cif.got.tgz:12586.got - 2010.06.03 18:43:04.
