data_PCOD9116449
_publ_section_title
;
Structure prediction by ZEFSAII (Michael W. Deem and Ramdas Pophale) SiO2 
 PCOD9116449
Probable space group: P 21
;
_chemical_formula_sum "Si O2"
_cell_formula_units_Z 16
_cell_length_a 5.188303
_cell_length_b 15.821801
_cell_length_c 8.595388
_cell_angle_alpha 90.000000
_cell_angle_beta 62.358112
_cell_angle_gamma 90.000000
_cell_volume 625.049049
_symmetry_space_group_name_H-M "P 21"
_symmetry_group_IT_number 4
_symmetry_cell_setting 'monoclinic'
loop_
_space_group_symop_operation_xyz
x,y,z
-x,1/2+y,-z
loop_
_atom_site_type_symbol
_atom_site_label
_atom_site_fract_x
_atom_site_fract_y
_atom_site_fract_z
Si Si1 0.544515 0.828530 0.124507
Si Si2 0.546444 0.445472 0.561502
Si Si3 0.191123 0.023062 0.974331
Si Si4 0.033274 0.410216 0.210179
Si Si5 0.219509 0.137791 0.443401
Si Si6 0.700006 0.039461 0.630553
Si Si7 0.612844 0.108093 0.079494
Si Si8 0.021815 0.233515 0.786720
O O1 0.552750 0.900201 0.256023
O O2 0.205837 0.806749 0.196756
O O3 0.757667 0.757505 0.137563
O O4 0.698408 0.854425 0.919779
O O5 0.664521 0.541364 0.557934
O O6 0.308627 0.466019 0.496345
O O7 0.788051 0.387946 0.404673
O O8 0.387466 0.041099 0.068310
O O9 0.879732 0.063982 0.092549
O O10 0.379707 0.064258 0.779889
O O11 0.124255 0.934349 0.909058
O O12 0.164239 0.494746 0.254394
O O13 0.416485 0.165933 0.245626
O O14 0.209949 0.201547 0.588533
O O15 0.879451 0.117038 0.512552
O O16 0.786520 0.163095 0.905352
#
# Coordination Sequence:
#
# PCOD9116449 Si02
#       8
#     2   2   2   2   2   2   2   2
#     4  12  30  47  74 103 151 202 250 302 381 453
#     4  10  25  44  77 111 144 188 255 313 372 430
#     4  11  21  42  73 108 139 174 236 305 362 430
#     4  10  23  43  71 104 143 185 235 304 366 435
#     4  11  26  45  77 112 147 194 251 316 369 441
#     4  10  21  43  77 107 149 179 242 321 366 421
#     4  12  25  43  73 103 143 191 241 290 376 441
#     4  12  29  49  68 106 154 199 246 309 374 455
#
# _framework density 25.597991
#
# number of rings (size 3 to 8) (size 9 to 14) (size 15 to 20)
#    0.000    1.000    2.500    3.000   12.250    2.000 
#    0.000    0.000    0.000    0.000    0.000    0.000 
#    0.000    0.000    0.000    0.000    0.000    0.000 
#
# Total GULP energy -89380.111831 kJ/mol
# GULP energy per Si atom -5586.256989 kJ/mol
# Density = 2.553973 g / cm^3
# Si number density = 25.597991 Si / 1000 Ang^3
#
#
#
# Elastic Constant Matrix: (Units=GPa)
#
#
# Indices 1 2 3 4 5 6 
#
# 1 124.3412 9.6227 16.7736 0.0000 -1.3975 0.0000
# 2 9.6227 40.7685 12.1452 0.0000 4.0151 0.0000
# 3 16.7736 12.1452 113.2557 0.0000 -14.3308 0.0000
# 4 0.0000 0.0000 0.0000 45.0764 0.0000 0.8792
# 5 -1.3975 4.0151 -14.3308 0.0000 35.7758 0.0000
# 6 0.0000 0.0000 0.0000 0.8792 0.0000 33.5057
#
#
#
# Elastic Compliance Matrix: (Units=1/GPa)
#
#
# Indices 1 2 3 4 5 6 
#
# 1 0.008312 -0.001661 -0.001041 0.000000 0.000094 0.000000
# 2 -0.001661 0.026267 -0.003110 0.000000 -0.004258 0.000000
# 3 -0.001041 -0.003110 0.009856 0.000000 0.004256 0.000000
# 4 0.000000 0.000000 0.000000 0.022196 0.000000 -0.000582
# 5 0.000094 -0.004258 0.004256 0.000000 0.030138 0.000000
# 6 0.000000 0.000000 0.000000 -0.000582 0.000000 0.029861
#
#
# Mechanical properties :
#
#
# Convention : Reuss Voigt Hill
#
# Bulk Modulus (GPa) = 30.47732 39.49428 34.98580
# Shear Modulus (GPa) = 33.51415 38.85983 36.18699
#
# Velocity S-wave (km/s) = 3.62228 3.90048 3.76395
# Velocity P-wave (km/s) = 5.42462 5.97889 5.70849
#
# Compressibility (1/GPa) = 0.03281128
#
# Stress axis : x y z
#
# Youngs Moduli (GPa) = 120.30163 38.07118 101.46322
#
# Poissons Ratio (x) = 0.06324 0.10563
# Poissons Ratio (y) = 0.19984 0.31551
# Poissons Ratio (z) = 0.12524 0.11838
#
# Static dielectric constant tensor:
#      x y z
#    x 2.082340 0.000000 -0.002170 
#    y 0.000000 2.102170 0.000000 
#    z -0.002170 0.000000 2.033520 
# 
# From -- ./inp_files/4926.got.cif
#   From: 2010.05.17/outbox.cif.g08.bks.cpg/sg4_3_cif.got.tgz:4926.got - 2010.06.03 18:43:04.
