data_PCOD9116778
_publ_section_title
;
Structure prediction by ZEFSAII (Michael W. Deem and Ramdas Pophale) SiO2 
 PCOD9116778
Probable space group: P 21
;
_chemical_formula_sum "Si O2"
_cell_formula_units_Z 14
_cell_length_a 12.138179
_cell_length_b 6.825448
_cell_length_c 15.800813
_cell_angle_alpha 90.000000
_cell_angle_beta 153.619239
_cell_angle_gamma 90.000000
_cell_volume 581.666510
_symmetry_space_group_name_H-M "P 21"
_symmetry_group_IT_number 4
_symmetry_cell_setting 'monoclinic'
loop_
_space_group_symop_operation_xyz
x,y,z
-x,1/2+y,-z
loop_
_atom_site_type_symbol
_atom_site_label
_atom_site_fract_x
_atom_site_fract_y
_atom_site_fract_z
Si Si1 0.450914 0.278030 0.825704
Si Si2 0.892846 0.000444 0.658266
Si Si3 0.096895 0.742490 0.953765
Si Si4 0.760833 0.260787 0.208127
Si Si5 0.530528 0.225147 0.225474
Si Si6 0.961281 0.822772 0.347486
Si Si7 0.688400 0.550638 0.775836
O O1 0.439170 0.488261 0.771248
O O2 0.179987 0.217287 0.670565
O O3 0.585084 0.304531 0.008157
O O4 0.649758 0.149685 0.910392
O O5 0.596302 0.022521 0.450884
O O6 0.037251 0.204645 0.739896
O O7 0.991418 0.891038 0.809242
O O8 0.990067 0.879809 0.642981
O O9 0.867749 0.612669 0.823819
O O10 0.195340 0.857413 0.103066
O O11 0.592855 0.302419 0.174223
O O12 0.849223 0.037045 0.266219
O O13 0.316276 0.210002 0.149526
O O14 0.754363 0.321274 0.431375
#
# Coordination Sequence:
#
# PCOD9116778 Si02
#       7
#     2   2   2   2   2   2   2
#     4   9  21  41  65  98 141 172 227 284 346 416
#     4  10  24  46  72  96 148 172 234 302 350 414
#     4  10  23  47  66  97 136 186 231 284 341 410
#     4  10  22  40  68 106 132 181 227 282 364 412
#     4   9  21  41  65  98 141 172 227 284 346 416
#     4  10  22  40  68 106 132 181 227 282 364 412
#     4  10  23  47  66  97 136 186 231 284 341 410
#
# _framework density 24.068774000000001
#
# number of rings (size 3 to 8) (size 9 to 14) (size 15 to 20)
#    0.000    2.286    0.000    0.000   20.000    1.143 
#   23.143    0.000    0.000    0.000    0.000    0.000 
#    0.000    0.000    0.000    0.000    0.000    0.000 
#
# Total GULP energy -78077.922838 kJ/mol
# GULP energy per Si atom -5576.994488 kJ/mol
# Density = 2.401399 g / cm^3
# Si number density = 24.068774 Si / 1000 Ang^3
#
#
#
# Elastic Constant Matrix: (Units=GPa)
#
#
# Indices 1 2 3 4 5 6 
#
# 1 108.1385 17.9459 20.2812 0.0000 31.9799 0.0000
# 2 17.9459 58.9667 24.0502 0.0000 12.3180 0.0000
# 3 20.2812 24.0502 72.9175 0.0000 17.9580 0.0000
# 4 0.0000 0.0000 0.0000 14.9876 0.0000 10.8676
# 5 31.9799 12.3180 17.9580 0.0000 52.3280 0.0000
# 6 0.0000 0.0000 0.0000 10.8676 0.0000 47.1485
#
#
#
# Elastic Compliance Matrix: (Units=1/GPa)
#
#
# Indices 1 2 3 4 5 6 
#
# 1 0.011610 -0.001771 -0.001093 0.000000 -0.006304 0.000000
# 2 -0.001771 0.020198 -0.005751 0.000000 -0.001699 0.000000
# 3 -0.001093 -0.005751 0.016840 0.000000 -0.003758 0.000000
# 4 0.000000 0.000000 0.000000 0.080111 0.000000 -0.018465
# 5 -0.006304 -0.001699 -0.003758 0.000000 0.024652 0.000000
# 6 0.000000 0.000000 0.000000 -0.018465 0.000000 0.025466
#
#
# Mechanical properties :
#
#
# Convention : Reuss Voigt Hill
#
# Bulk Modulus (GPa) = 31.82732 40.50858 36.16795
# Shear Modulus (GPa) = 24.20365 34.74251 29.47308
#
# Velocity S-wave (km/s) = 3.17457 3.80342 3.50313
# Velocity P-wave (km/s) = 5.16617 6.01290 5.60554
#
# Compressibility (1/GPa) = 0.03141955
#
# Stress axis : x y z
#
# Youngs Moduli (GPa) = 86.12929 49.50944 59.38126
#
# Poissons Ratio (x) = 0.08768 0.06489
# Poissons Ratio (y) = 0.15254 0.34150
# Poissons Ratio (z) = 0.09412 0.28473
#
# Static dielectric constant tensor:
#      x y z
#    x 1.986200 0.000000 0.019410 
#    y 0.000000 2.048390 0.000000 
#    z 0.019410 0.000000 1.955700 
# 
# From -- ./inp_files/13906.got.cif
#   From: 2010.05.17/outbox.cif.g08.bks.cpg/sg4_7_cif.got.tgz:13906.got - 2010.06.03 18:43:04.
