data_PCOD9116372
_publ_section_title
;
Structure prediction by ZEFSAII (Michael W. Deem and Ramdas Pophale) SiO2 
 PCOD9116372
Probable space group: P 21
;
_chemical_formula_sum "Si O2"
_cell_formula_units_Z 16
_cell_length_a 11.689576
_cell_length_b 4.986703
_cell_length_c 23.261705
_cell_angle_alpha 90.000000
_cell_angle_beta 152.387871
_cell_angle_gamma 90.000000
_cell_volume 628.475282
_symmetry_space_group_name_H-M "P 21"
_symmetry_group_IT_number 4
_symmetry_cell_setting 'monoclinic'
loop_
_space_group_symop_operation_xyz
x,y,z
-x,1/2+y,-z
loop_
_atom_site_type_symbol
_atom_site_label
_atom_site_fract_x
_atom_site_fract_y
_atom_site_fract_z
Si Si1 0.279085 0.132460 0.654132
Si Si2 0.069393 0.987849 0.716521
Si Si3 0.923836 0.780321 0.883314
Si Si4 0.317212 0.999631 0.132290
Si Si5 0.674610 0.359573 0.581751
Si Si6 0.379491 0.388116 0.056280
Si Si7 0.987448 0.611393 0.184763
Si Si8 0.998213 0.636467 0.576614
O O1 0.540869 0.223757 0.794168
O O2 0.100912 0.340370 0.609529
O O3 0.245923 0.169419 0.571098
O O4 0.188037 0.838231 0.628668
O O5 0.361513 0.039076 0.837509
O O6 0.993647 0.759107 0.638009
O O7 0.873579 0.232509 0.625496
O O8 0.049884 0.924225 0.775936
O O9 0.696112 0.636277 0.811431
O O10 0.883258 0.960607 0.809987
O O11 0.040976 0.956248 0.986579
O O12 0.147367 0.578759 0.966686
O O13 0.422322 0.173027 0.126275
O O14 0.455458 0.139511 0.487450
O O15 0.832095 0.342152 0.710710
O O16 0.273777 0.222356 0.954573
#
# Coordination Sequence:
#
# PCOD9116372 Si02
#       8
#     2   2   2   2   2   2   2   2
#     4  10  22  39  67  95 140 168 240 273 355 410
#     4  10  23  43  72 101 143 187 230 304 356 423
#     4  11  23  41  66  98 139 179 235 293 358 434
#     4  11  22  40  66  97 134 184 224 295 355 423
#     4  10  25  49  71 100 144 191 244 286 358 433
#     4  11  22  44  67 103 141 177 243 290 366 428
#     4   9  26  41  68 105 135 190 236 292 366 427
#     4  10  21  43  63 103 130 182 222 295 338 424
#
# _framework density 25.458441000000001
#
# number of rings (size 3 to 8) (size 9 to 14) (size 15 to 20)
#    0.750    1.000    2.500    0.750    3.500    2.000 
#    6.750    1.250    0.000    0.000    0.000    0.000 
#    0.000    0.000    0.000    0.000    0.000    0.000 
#
# Total GULP energy -89441.750737 kJ/mol
# GULP energy per Si atom -5590.109421 kJ/mol
# Density = 2.540050 g / cm^3
# Si number density = 25.458441 Si / 1000 Ang^3
#
#
#
# Elastic Constant Matrix: (Units=GPa)
#
#
# Indices 1 2 3 4 5 6 
#
# 1 107.3925 17.4944 42.6160 0.0000 -1.5228 0.0000
# 2 17.4944 54.3261 17.1766 0.0000 7.6373 0.0000
# 3 42.6160 17.1766 118.6336 0.0000 -11.9352 0.0000
# 4 0.0000 0.0000 0.0000 35.6957 0.0000 11.7160
# 5 -1.5228 7.6373 -11.9352 0.0000 41.7971 0.0000
# 6 0.0000 0.0000 0.0000 11.7160 0.0000 29.3891
#
#
#
# Elastic Compliance Matrix: (Units=1/GPa)
#
#
# Indices 1 2 3 4 5 6 
#
# 1 0.011161 -0.002401 -0.003682 0.000000 -0.000206 0.000000
# 2 -0.002401 0.020646 -0.002590 0.000000 -0.004599 0.000000
# 3 -0.003682 -0.002590 0.010462 0.000000 0.003326 0.000000
# 4 0.000000 0.000000 0.000000 0.032232 0.000000 -0.012849
# 5 -0.000206 -0.004599 0.003326 0.000000 0.025708 0.000000
# 6 0.000000 0.000000 0.000000 -0.012849 0.000000 0.039149
#
#
# Mechanical properties :
#
#
# Convention : Reuss Voigt Hill
#
# Bulk Modulus (GPa) = 40.12366 48.32513 44.22440
# Shear Modulus (GPa) = 30.30109 34.91406 32.60757
#
# Velocity S-wave (km/s) = 3.45370 3.70728 3.58273
# Velocity P-wave (km/s) = 5.63016 6.11133 5.87567
#
# Compressibility (1/GPa) = 0.02492295
#
# Stress axis : x y z
#
# Youngs Moduli (GPa) = 89.59677 48.43592 95.58656
#
# Poissons Ratio (x) = 0.11629 0.35199
# Poissons Ratio (y) = 0.21511 0.24752
# Poissons Ratio (z) = 0.32994 0.12543
#
# Static dielectric constant tensor:
#      x y z
#    x 2.022360 0.000000 0.004000 
#    y 0.000000 2.073340 0.000000 
#    z 0.004000 0.000000 2.015380 
# 
# From -- ./inp_files/16114.got.cif
#   From: 2010.05.17/outbox.cif.g08.bks.cpg/sg4_9_cif.got.tgz:16114.got - 2010.06.03 18:43:04.
