data_PCOD9116399
_publ_section_title
;
Structure prediction by ZEFSAII (Michael W. Deem and Ramdas Pophale) SiO2 
 PCOD9116399
Probable space group: P 21
;
_chemical_formula_sum "Si O2"
_cell_formula_units_Z 16
_cell_length_a 5.158019
_cell_length_b 14.088602
_cell_length_c 9.852060
_cell_angle_alpha 90.000000
_cell_angle_beta 103.460214
_cell_angle_gamma 90.000000
_cell_volume 696.276428
_symmetry_space_group_name_H-M "P 21"
_symmetry_group_IT_number 4
_symmetry_cell_setting 'monoclinic'
loop_
_space_group_symop_operation_xyz
x,y,z
-x,1/2+y,-z
loop_
_atom_site_type_symbol
_atom_site_label
_atom_site_fract_x
_atom_site_fract_y
_atom_site_fract_z
Si Si1 0.560964 0.973540 0.701886
Si Si2 0.568979 0.133621 0.908088
Si Si3 0.189141 0.796146 0.677528
Si Si4 0.120008 0.367816 0.589451
Si Si5 0.620137 0.486607 0.604935
Si Si6 0.472144 0.147526 0.202670
Si Si7 0.085903 0.331640 0.108721
Si Si8 0.044384 0.252129 0.836179
O O1 0.383675 0.879902 0.658600
O O2 0.547877 0.019003 0.550694
O O3 0.817141 0.927113 0.806173
O O4 0.465812 0.047199 0.803093
O O5 0.341636 0.212274 0.871755
O O6 0.837526 0.174954 0.871262
O O7 0.581487 0.111564 0.070437
O O8 0.297689 0.691503 0.673198
O O9 0.922493 0.821008 0.563996
O O10 0.173321 0.805092 0.838105
O O11 0.422482 0.403995 0.639450
O O12 0.009910 0.290334 0.681700
O O13 0.912263 0.453474 0.591221
O O14 0.655442 0.564434 0.725512
O O15 0.274620 0.238430 0.155599
O O16 0.037095 0.338027 0.943969
#
# Coordination Sequence:
#
# PCOD9116399 Si02
#       8
#     2   2   2   2   2   2   2   2
#     4  10  24  41  64  96 126 170 211 266 315 381
#     4  11  25  42  65  97 128 162 221 259 316 378
#     4  10  21  43  66  88 132 171 210 254 328 381
#     4  11  25  43  65  96 129 167 213 264 320 378
#     4  11  25  42  65  97 128 162 221 259 316 378
#     4  10  24  41  64  96 126 170 211 266 315 381
#     4  10  21  43  66  88 132 171 210 254 328 381
#     4  11  25  43  65  96 129 167 213 264 320 378
#
# _framework density 22.979379000000002
#
# number of rings (size 3 to 8) (size 9 to 14) (size 15 to 20)
#    0.000    1.500    2.500    0.750    7.000    2.000 
#    0.000    0.000    0.000    0.000    0.000    0.000 
#    0.000    0.000    0.000    0.000    0.000    0.000 
#
# Total GULP energy -89175.726545 kJ/mol
# GULP energy per Si atom -5573.482909 kJ/mol
# Density = 2.292708 g / cm^3
# Si number density = 22.979379 Si / 1000 Ang^3
#
#
#
# Elastic Constant Matrix: (Units=GPa)
#
#
# Indices 1 2 3 4 5 6 
#
# 1 65.5409 -8.2259 -3.1552 0.0000 -10.8874 0.0000
# 2 -8.2259 27.0594 31.5971 0.0000 -11.0281 0.0000
# 3 -3.1552 31.5971 92.5143 0.0000 -31.8442 0.0000
# 4 0.0000 0.0000 0.0000 30.6739 0.0000 -12.2214
# 5 -10.8874 -11.0281 -31.8442 0.0000 31.7771 0.0000
# 6 0.0000 0.0000 0.0000 -12.2214 0.0000 16.1177
#
#
#
# Elastic Compliance Matrix: (Units=1/GPa)
#
#
# Indices 1 2 3 4 5 6 
#
# 1 0.018074 0.008040 0.001469 0.000000 0.010455 0.000000
# 2 0.008040 0.065052 -0.020188 0.000000 0.005100 0.000000
# 3 0.001469 -0.020188 0.023686 0.000000 0.017233 0.000000
# 4 0.000000 0.000000 0.000000 0.046714 0.000000 0.035421
# 5 0.010455 0.005100 0.017233 0.000000 0.054091 0.000000
# 6 0.000000 0.000000 0.000000 0.035421 0.000000 0.088902
#
#
# Mechanical properties :
#
#
# Convention : Reuss Voigt Hill
#
# Bulk Modulus (GPa) = 11.70220 25.06076 18.38148
# Shear Modulus (GPa) = 14.43581 26.70697 20.57139
#
# Velocity S-wave (km/s) = 2.50913 3.41283 2.99525
# Velocity P-wave (km/s) = 3.67394 5.14386 4.46974
#
# Compressibility (1/GPa) = 0.08545402
#
# Stress axis : x y z
#
# Youngs Moduli (GPa) = 55.32753 15.37240 42.21891
#
# Poissons Ratio (x) = -0.12359 -0.06203
# Poissons Ratio (y) = -0.44482 0.85231
# Poissons Ratio (z) = -0.08129 0.31034
#
# Static dielectric constant tensor:
#      x y z
#    x 1.939520 0.000000 0.053040 
#    y 0.000000 1.916510 0.000000 
#    z 0.053040 0.000000 1.923730 
# 
# From -- ./inp_files/1458.got.cif
#   From: 2010.05.17/outbox.cif.g08.bks.cpg/sg4_1_cif.got.tgz:1458.got - 2010.06.03 18:43:04.
