data_PCOD9116206
_publ_section_title
;
Structure prediction by ZEFSAII (Michael W. Deem and Ramdas Pophale) SiO2 
 PCOD9116206
Probable space group: P 21
;
_chemical_formula_sum "Si O2"
_cell_formula_units_Z 16
_cell_length_a 23.247934
_cell_length_b 4.932109
_cell_length_c 9.706338
_cell_angle_alpha 90.000000
_cell_angle_beta 145.407222
_cell_angle_gamma 90.000000
_cell_volume 631.861542
_symmetry_space_group_name_H-M "P 21"
_symmetry_group_IT_number 4
_symmetry_cell_setting 'monoclinic'
loop_
_space_group_symop_operation_xyz
x,y,z
-x,1/2+y,-z
loop_
_atom_site_type_symbol
_atom_site_label
_atom_site_fract_x
_atom_site_fract_y
_atom_site_fract_z
Si Si1 0.234102 0.200680 0.619211
Si Si2 0.489916 0.943143 0.884721
Si Si3 0.111603 0.810896 0.973347
Si Si4 0.952867 0.981463 0.467413
Si Si5 0.279029 0.160697 0.399568
Si Si6 0.328455 0.675763 0.939671
Si Si7 0.016917 0.960388 0.127664
Si Si8 0.747582 0.015562 0.928265
O O1 0.274680 0.283303 0.545963
O O2 0.237433 0.485894 0.703815
O O3 0.124775 0.058444 0.396872
O O4 0.304270 0.980099 0.839384
O O5 0.379504 0.977961 0.600739
O O6 0.497139 0.141197 0.032157
O O7 0.573101 0.052515 0.941365
O O8 0.005718 0.936043 0.717442
O O9 0.075376 0.513553 0.948170
O O10 0.196679 0.777245 0.024728
O O11 0.177642 0.979414 0.208075
O O12 0.028845 0.796094 0.526103
O O13 0.843184 0.884830 0.199840
O O14 0.283656 0.345685 0.270123
O O15 0.329725 0.617232 0.106664
O O16 0.983038 0.172845 0.942844
#
# Coordination Sequence:
#
# PCOD9116206 Si02
#       8
#     2   2   2   2   2   2   2   2
#     4  12  26  47  78 107 154 200 259 310 384 457
#     4  12  26  51  81 109 146 197 254 324 397 459
#     4  11  25  43  71 104 153 195 253 301 381 447
#     4  10  21  41  63  95 142 195 232 286 360 442
#     4  12  25  48  79 107 147 199 262 312 380 459
#     4  12  27  51  74 113 148 203 250 326 389 464
#     4  12  25  40  66 108 151 192 250 313 366 443
#     4  11  27  45  76 107 155 195 254 306 387 453
#
# _framework density 25.321999999999999
#
# number of rings (size 3 to 8) (size 9 to 14) (size 15 to 20)
#    0.000    0.500    5.000    2.250    5.250    4.000 
#    2.250    0.000    0.000    0.000    0.000    0.000 
#    0.000    0.000    0.000    0.000    0.000    0.000 
#
# Total GULP energy -89352.622101 kJ/mol
# GULP energy per Si atom -5584.538881 kJ/mol
# Density = 2.526437 g / cm^3
# Si number density = 25.322000 Si / 1000 Ang^3
#
#
#
# Elastic Constant Matrix: (Units=GPa)
#
#
# Indices 1 2 3 4 5 6 
#
# 1 143.0804 14.5191 9.0330 0.0000 -12.2776 0.0000
# 2 14.5191 80.4199 18.5133 0.0000 -20.8936 0.0000
# 3 9.0330 18.5133 97.4467 0.0000 -2.4843 0.0000
# 4 0.0000 0.0000 0.0000 34.4829 0.0000 -2.6702
# 5 -12.2776 -20.8936 -2.4843 0.0000 37.4596 0.0000
# 6 0.0000 0.0000 0.0000 -2.6702 0.0000 30.4505
#
#
#
# Elastic Compliance Matrix: (Units=1/GPa)
#
#
# Indices 1 2 3 4 5 6 
#
# 1 0.007258 -0.000687 -0.000492 0.000000 0.001963 0.000000
# 2 -0.000687 0.015274 -0.002631 0.000000 0.008120 0.000000
# 3 -0.000492 -0.002631 0.010784 0.000000 -0.000914 0.000000
# 4 0.000000 0.000000 0.000000 0.029198 0.000000 0.002560
# 5 0.001963 0.008120 -0.000914 0.000000 0.031807 0.000000
# 6 0.000000 0.000000 0.000000 0.002560 0.000000 0.033065
#
#
# Mechanical properties :
#
#
# Convention : Reuss Voigt Hill
#
# Bulk Modulus (GPa) = 38.91708 45.00862 41.96285
# Shear Modulus (GPa) = 34.82559 39.07071 36.94815
#
# Velocity S-wave (km/s) = 3.71254 3.93231 3.82400
# Velocity P-wave (km/s) = 5.81201 6.19923 6.00874
#
# Compressibility (1/GPa) = 0.02569566
#
# Stress axis : x y z
#
# Youngs Moduli (GPa) = 137.77285 65.47069 92.72800
#
# Poissons Ratio (x) = 0.04498 0.04564
# Poissons Ratio (y) = 0.09466 0.24398
# Poissons Ratio (z) = 0.06782 0.17226
#
# Static dielectric constant tensor:
#      x y z
#    x 2.164360 0.000000 -0.081760 
#    y 0.000000 2.021200 0.000000 
#    z -0.081760 0.000000 2.074560 
# 
# From -- ./inp_files/9806.got.cif
#   From: 2010.05.17/outbox.cif.g08.bks.cpg/sg4_5_cif.got.tgz:9806.got - 2010.06.03 18:43:04.
