data_PCOD9116720
_publ_section_title
;
Structure prediction by ZEFSAII (Michael W. Deem and Ramdas Pophale) SiO2 
 PCOD9116720
Probable space group: P 21
;
_chemical_formula_sum "Si O2"
_cell_formula_units_Z 16
_cell_length_a 7.482666
_cell_length_b 5.398493
_cell_length_c 27.117244
_cell_angle_alpha 90.000000
_cell_angle_beta 45.886642
_cell_angle_gamma 90.000000
_cell_volume 786.460907
_symmetry_space_group_name_H-M "P 21"
_symmetry_group_IT_number 4
_symmetry_cell_setting 'monoclinic'
loop_
_space_group_symop_operation_xyz
x,y,z
-x,1/2+y,-z
loop_
_atom_site_type_symbol
_atom_site_label
_atom_site_fract_x
_atom_site_fract_y
_atom_site_fract_z
Si Si1 0.937331 0.503680 0.346152
Si Si2 0.799358 0.529846 0.921950
Si Si3 0.377925 0.453089 0.805744
Si Si4 0.045102 0.764450 0.548338
Si Si5 0.597872 0.082153 0.596291
Si Si6 0.583159 0.934303 0.807360
Si Si7 0.440015 0.532327 0.073582
Si Si8 0.249121 0.872158 0.342387
O O1 0.917893 0.387494 0.404886
O O2 0.145847 0.394295 0.269613
O O3 0.065886 0.765123 0.335675
O O4 0.671706 0.503049 0.370837
O O5 0.657435 0.302081 0.923421
O O6 0.085805 0.479955 0.856331
O O7 0.716200 0.800133 0.918543
O O8 0.712657 0.512480 0.995860
O O9 0.451769 0.667698 0.829706
O O10 0.540763 0.526230 0.726166
O O11 0.451677 0.168397 0.804585
O O12 0.939288 0.499294 0.583934
O O13 0.290038 0.758965 0.468083
O O14 0.818107 0.883010 0.561287
O O15 0.593321 0.192024 0.652348
O O16 0.582181 0.012474 0.864011
#
# Coordination Sequence:
#
# PCOD9116720 Si02
#       8
#     2   2   2   2   2   2   2   2
#     4  10  25  40  61  88 124 161 207 262 323 369
#     4  10  22  40  64  94 127 170 203 264 312 365
#     4  11  23  41  65  90 131 167 206 263 321 363
#     4  11  22  41  58  88 122 153 212 264 304 391
#     4  11  24  39  63  88 116 169 206 257 330 374
#     4  11  23  42  62  95 126 166 212 259 311 388
#     4  10  22  40  63  95 130 160 218 254 306 385
#     4  10  23  43  58  88 126 154 214 261 305 387
#
# _framework density 20.344303
#
# number of rings (size 3 to 8) (size 9 to 14) (size 15 to 20)
#    0.000    1.500    2.500    1.500    3.500    3.000 
#    0.000    0.000    0.000    0.000    0.000    0.000 
#    0.000    0.000    0.000    0.000    0.000    0.000 
#
# Total GULP energy -89116.972270 kJ/mol
# GULP energy per Si atom -5569.810767 kJ/mol
# Density = 2.029800 g / cm^3
# Si number density = 20.344303 Si / 1000 Ang^3
#
#
#
# Elastic Constant Matrix: (Units=GPa)
#
#
# Indices 1 2 3 4 5 6 
#
# 1 1897.9230 249.5077 2387.6533 0.0000-1087.1332 0.0000
# 2 249.5077 68.2656 307.8903 0.0000 -152.2371 0.0000
# 3 2387.6533 307.8903 3148.3674 0.0000-1392.6014 0.0000
# 4 0.0000 0.0000 0.0000 28.6712 0.0000 3.0922
# 5 -1087.1332 -152.2371-1392.6014 0.0000 666.8367 0.0000
# 6 0.0000 0.0000 0.0000 3.0922 0.0000 15.9886
#
#
#
# Elastic Compliance Matrix: (Units=1/GPa)
#
#
# Indices 1 2 3 4 5 6 
#
# 1 0.014905 -0.002803 -0.007400 0.000000 0.008205 0.000000
# 2 -0.002803 0.030747 0.002655 0.000000 0.007994 0.000000
# 3 -0.007400 0.002655 0.007892 0.000000 0.005023 0.000000
# 4 0.000000 0.000000 0.000000 0.035621 0.000000 -0.006889
# 5 0.008205 0.007994 0.005023 0.000000 0.027191 0.000000
# 6 0.000000 0.000000 0.000000 -0.006889 0.000000 0.063877
#
#
# Mechanical properties :
#
#
# Convention : Reuss Voigt Hill
#
# Bulk Modulus (GPa) = 26.00933 1222.73984 624.37458
# Shear Modulus (GPa) = 24.02188 286.93295 155.47742
#
# Velocity S-wave (km/s) = 3.43996 11.88885 8.75151
# Velocity P-wave (km/s) = 5.34697 28.12094 20.24077
#
# Compressibility (1/GPa) = 0.03844775
#
# Stress axis : x y z
#
# Youngs Moduli (GPa) = 67.09374 32.52358 126.71820
#
# Poissons Ratio (x) = 0.09115 0.93768
# Poissons Ratio (y) = 0.18803 -0.33640
# Poissons Ratio (z) = 0.49648 -0.08634
#
# Static dielectric constant tensor:
#      x y z
#    x 1.725730 0.000000 0.044440 
#    y 0.000000 1.831270 0.000000 
#    z 0.044440 0.000000 1.733390 
# 
# From -- ./inp_files/4015.got.cif
#   From: 2010.05.17/outbox.cif.g08.bks.cpg/sg4_3_cif.got.tgz:4015.got - 2010.06.03 18:43:04.
