data_PCOD9116027
_publ_section_title
;
Structure prediction by ZEFSAII (Michael W. Deem and Ramdas Pophale) SiO2 
 PCOD9116027
Probable space group: P 21
;
_chemical_formula_sum "Si O2"
_cell_formula_units_Z 16
_cell_length_a 5.305199
_cell_length_b 8.588117
_cell_length_c 18.330537
_cell_angle_alpha 90.000000
_cell_angle_beta 122.382346
_cell_angle_gamma 90.000000
_cell_volume 705.295098
_symmetry_space_group_name_H-M "P 21"
_symmetry_group_IT_number 4
_symmetry_cell_setting 'monoclinic'
loop_
_space_group_symop_operation_xyz
x,y,z
-x,1/2+y,-z
loop_
_atom_site_type_symbol
_atom_site_label
_atom_site_fract_x
_atom_site_fract_y
_atom_site_fract_z
Si Si1 0.206791 0.866610 0.803647
Si Si2 0.334885 0.922078 0.068900
Si Si3 0.688192 0.772005 0.996146
Si Si4 0.292182 0.135565 0.544000
Si Si5 0.668641 0.174465 0.396726
Si Si6 0.299377 0.907804 0.416135
Si Si7 0.781881 0.035054 0.254915
Si Si8 0.558090 0.964490 0.711593
O O1 0.112427 0.683944 0.776775
O O2 0.371628 0.927116 0.755738
O O3 0.914828 0.967618 0.779416
O O4 0.457266 0.854568 0.904464
O O5 0.504880 0.960765 0.170479
O O6 0.546838 0.811134 0.052933
O O7 0.301979 0.088753 0.022441
O O8 0.015151 0.845109 0.034884
O O9 0.553736 0.241813 0.553015
O O10 0.980114 0.219757 0.481992
O O11 0.241754 0.987939 0.484314
O O12 0.390728 0.101159 0.641743
O O13 0.710361 0.113015 0.320953
O O14 0.467812 0.325195 0.352300
O O15 0.528830 0.030615 0.416733
O O16 0.029791 0.910564 0.316582
#
# Coordination Sequence:
#
# PCOD9116027 Si02
#       8
#     2   2   2   2   2   2   2   2
#     4  10  22  43  69  92 130 173 223 264 336 403
#     4  11  24  45  73 104 139 184 229 283 349 417
#     4  11  24  45  72 103 140 180 231 285 348 416
#     4  11  25  37  61  93 129 175 214 278 326 390
#     4  10  21  39  64  88 127 169 228 263 324 391
#     4  11  22  42  61  91 130 169 224 268 331 389
#     4   9  22  40  65  95 125 179 216 270 326 411
#     4  11  22  41  65  94 124 173 221 271 322 397
#
# _framework density 22.68554
#
# number of rings (size 3 to 8) (size 9 to 14) (size 15 to 20)
#    0.000    1.500    1.250    3.000    7.000    3.000 
#    6.750    0.000    0.000    0.000    0.000    0.000 
#    0.000    0.000    0.000    0.000    0.000    0.000 
#
# Total GULP energy -89362.179137 kJ/mol
# GULP energy per Si atom -5585.136196 kJ/mol
# Density = 2.263391 g / cm^3
# Si number density = 22.685540 Si / 1000 Ang^3
#
#
#
# Elastic Constant Matrix: (Units=GPa)
#
#
# Indices 1 2 3 4 5 6 
#
# 1 89.8667 18.5992 25.7183 0.0000 28.3462 0.0000
# 2 18.5992 49.7431 32.5274 0.0000 10.8010 0.0000
# 3 25.7183 32.5274 72.0013 0.0000 34.9590 0.0000
# 4 0.0000 0.0000 0.0000 5.2430 0.0000 2.4137
# 5 28.3462 10.8010 34.9590 0.0000 31.1997 0.0000
# 6 0.0000 0.0000 0.0000 2.4137 0.0000 33.8284
#
#
#
# Elastic Compliance Matrix: (Units=1/GPa)
#
#
# Indices 1 2 3 4 5 6 
#
# 1 0.017161 -0.006466 0.007182 0.000000 -0.021400 0.000000
# 2 -0.006466 0.032469 -0.021391 0.000000 0.018602 0.000000
# 3 0.007182 -0.021391 0.045090 0.000000 -0.049643 0.000000
# 4 0.000000 0.000000 0.000000 0.197210 0.000000 -0.014071
# 5 -0.021400 0.018602 -0.049643 0.000000 0.100678 0.000000
# 6 0.000000 0.000000 0.000000 -0.014071 0.000000 0.030565
#
#
# Mechanical properties :
#
#
# Convention : Reuss Voigt Hill
#
# Bulk Modulus (GPa) = 18.73719 40.58899 29.66309
# Shear Modulus (GPa) = 10.36670 23.03861 16.70266
#
# Velocity S-wave (km/s) = 2.14001 3.19025 2.71637
# Velocity P-wave (km/s) = 3.79258 5.61258 4.78982
#
# Compressibility (1/GPa) = 0.05336981
#
# Stress axis : x y z
#
# Youngs Moduli (GPa) = 58.27323 30.79828 22.17785
#
# Poissons Ratio (x) = 0.19914 -0.15927
# Poissons Ratio (y) = 0.37679 0.47440
# Poissons Ratio (z) = -0.41850 0.65880
#
# Static dielectric constant tensor:
#      x y z
#    x 1.879300 0.000000 -0.012970 
#    y 0.000000 1.888600 0.000000 
#    z -0.012970 0.000000 1.841020 
# 
# From -- ./inp_files/3483.got.cif
#   From: 2010.05.17/outbox.cif.g08.bks.cpg/sg4_2_cif.got.tgz:3483.got - 2010.06.03 18:43:04.
