data_PCOD9116667
_publ_section_title
;
Structure prediction by ZEFSAII (Michael W. Deem and Ramdas Pophale) SiO2 
 PCOD9116667
Probable space group: P 21
;
_chemical_formula_sum "Si O2"
_cell_formula_units_Z 16
_cell_length_a 11.944071
_cell_length_b 5.910091
_cell_length_c 21.686593
_cell_angle_alpha 90.000000
_cell_angle_beta 154.748393
_cell_angle_gamma 90.000000
_cell_volume 653.059461
_symmetry_space_group_name_H-M "P 21"
_symmetry_group_IT_number 4
_symmetry_cell_setting 'monoclinic'
loop_
_space_group_symop_operation_xyz
x,y,z
-x,1/2+y,-z
loop_
_atom_site_type_symbol
_atom_site_label
_atom_site_fract_x
_atom_site_fract_y
_atom_site_fract_z
Si Si1 0.666955 0.017030 0.334044
Si Si2 0.725683 0.450952 0.528671
Si Si3 0.123683 0.954175 0.917472
Si Si4 0.122565 0.172790 0.647071
Si Si5 0.365285 0.663182 0.936001
Si Si6 0.723019 0.680011 0.768082
Si Si7 0.690397 0.288854 0.652561
Si Si8 0.645822 0.249492 0.197099
O O1 0.390761 0.074147 0.226594
O O2 0.727769 0.183508 0.307213
O O3 0.884339 0.044814 0.495075
O O4 0.700960 0.776885 0.319045
O O5 0.501297 0.338051 0.373364
O O6 0.710124 0.355211 0.590698
O O7 0.603746 0.702639 0.476508
O O8 0.980566 0.359200 0.618868
O O9 0.211779 0.745688 0.918668
O O10 0.978215 0.836586 0.902020
O O11 0.906999 0.095476 0.772031
O O12 0.368029 0.118585 0.052349
O O13 0.312935 0.017889 0.781810
O O14 0.207784 0.681221 0.793357
O O15 0.450385 0.396295 0.980856
O O16 0.757318 0.485113 0.734216
#
# Coordination Sequence:
#
# PCOD9116667 Si02
#       8
#     2   2   2   2   2   2   2   2
#     4  11  25  45  68 106 143 191 254 312 380 460
#     4  10  22  39  67 108 138 194 242 303 389 441
#     4  10  25  44  69 104 143 197 252 314 383 461
#     4  11  24  41  72 102 146 193 251 318 377 459
#     4  10  24  44  73 106 148 188 250 316 385 465
#     4  10  24  42  68  98 149 187 250 311 376 453
#     4  11  21  41  68 103 148 189 244 314 375 471
#     4  11  25  46  71 103 147 195 249 314 389 452
#
# _framework density 24.500067999999999
#
# number of rings (size 3 to 8) (size 9 to 14) (size 15 to 20)
#    0.000    1.500    2.500    0.750    8.750    2.000 
#    2.250    0.000    0.000    0.000    0.000    0.000 
#    0.000    0.000    0.000    0.000    0.000    0.000 
#
# Total GULP energy -89253.524669 kJ/mol
# GULP energy per Si atom -5578.345292 kJ/mol
# Density = 2.444430 g / cm^3
# Si number density = 24.500068 Si / 1000 Ang^3
#
#
#
# Elastic Constant Matrix: (Units=GPa)
#
#
# Indices 1 2 3 4 5 6 
#
# 1 118.7126 45.7844 29.3843 0.0000 1.2626 0.0000
# 2 45.7844 83.8693 41.4533 0.0000 20.5146 0.0000
# 3 29.3843 41.4533 66.6945 0.0000 -2.8938 0.0000
# 4 0.0000 0.0000 0.0000 53.4823 0.0000 -9.7415
# 5 1.2626 20.5146 -2.8938 0.0000 26.0380 0.0000
# 6 0.0000 0.0000 0.0000 -9.7415 0.0000 39.0371
#
#
#
# Elastic Compliance Matrix: (Units=1/GPa)
#
#
# Indices 1 2 3 4 5 6 
#
# 1 0.011234 -0.007319 -0.000175 0.000000 0.005202 0.000000
# 2 -0.007319 0.030481 -0.016828 0.000000 -0.025531 0.000000
# 3 -0.000175 -0.016828 0.026233 0.000000 0.016183 0.000000
# 4 0.000000 0.000000 0.000000 0.019588 0.000000 0.004888
# 5 0.005202 -0.025531 0.016183 0.000000 0.060067 0.000000
# 6 0.000000 0.000000 0.000000 0.004888 0.000000 0.026836
#
#
# Mechanical properties :
#
#
# Convention : Reuss Voigt Hill
#
# Bulk Modulus (GPa) = 51.80404 55.83560 53.81982
# Shear Modulus (GPa) = 21.78477 33.88846 27.83661
#
# Velocity S-wave (km/s) = 2.98513 3.72317 3.37439
# Velocity P-wave (km/s) = 5.75080 6.42823 6.09893
#
# Compressibility (1/GPa) = 0.01930352
#
# Stress axis : x y z
#
# Youngs Moduli (GPa) = 89.01251 32.80717 38.12058
#
# Poissons Ratio (x) = 0.24011 0.00667
# Poissons Ratio (y) = 0.65147 0.64151
# Poissons Ratio (z) = 0.01558 0.55209
#
# Static dielectric constant tensor:
#      x y z
#    x 1.946930 0.000000 0.053290 
#    y 0.000000 2.027180 0.000000 
#    z 0.053290 0.000000 1.991400 
# 
# From -- ./inp_files/11666.got.cif
#   From: 2010.05.17/outbox.cif.g08.bks.cpg/sg4_6_cif.got.tgz:11666.got - 2010.06.03 18:43:04.
