data_PCOD9116658
_publ_section_title
;
Structure prediction by ZEFSAII (Michael W. Deem and Ramdas Pophale) SiO2 
 PCOD9116658
Probable space group: P 21
;
_chemical_formula_sum "Si O2"
_cell_formula_units_Z 14
_cell_length_a 5.590782
_cell_length_b 8.479819
_cell_length_c 15.164179
_cell_angle_alpha 90.000000
_cell_angle_beta 69.666420
_cell_angle_gamma 90.000000
_cell_volume 674.116901
_symmetry_space_group_name_H-M "P 21"
_symmetry_group_IT_number 4
_symmetry_cell_setting 'monoclinic'
loop_
_space_group_symop_operation_xyz
x,y,z
-x,1/2+y,-z
loop_
_atom_site_type_symbol
_atom_site_label
_atom_site_fract_x
_atom_site_fract_y
_atom_site_fract_z
Si Si1 0.262836 0.936000 0.808432
Si Si2 0.835366 0.820967 0.998379
Si Si3 0.511281 0.045411 0.938747
Si Si4 0.608540 0.450759 0.558556
Si Si5 0.024047 0.444727 0.655480
Si Si6 0.308289 0.756257 0.621578
Si Si7 0.016431 0.761999 0.162494
O O1 0.324444 0.838390 0.714004
O O2 0.041112 0.856924 0.896514
O O3 0.488634 0.950572 0.850428
O O4 0.176398 0.114560 0.795092
O O5 0.601887 0.934087 0.004427
O O6 0.746237 0.639821 0.009031
O O7 0.923041 0.849485 0.086698
O O8 0.724681 0.175397 0.896101
O O9 0.812025 0.407251 0.608638
O O10 0.546922 0.637886 0.572613
O O11 0.709485 0.385291 0.452997
O O12 0.317354 0.383882 0.604257
O O13 0.947851 0.373321 0.758881
O O14 0.071241 0.633615 0.651153
#
# Coordination Sequence:
#
# PCOD9116658 Si02
#       7
#     2   2   2   2   2   2   2
#     4  10  23  43  62 100 128 173 220 271 329 399
#     4  10  22  41  61  97 132 174 219 268 332 392
#     4  10  22  39  65  90 134 179 214 272 326 393
#     4  10  26  46  68  99 131 173 220 279 335 397
#     4  10  26  43  69 101 129 176 219 276 332 401
#     4  10  26  42  70  96 135 169 222 276 338 396
#     4  10  23  40  65  93 135 174 220 270 328 394
#
# _framework density 20.767911999999999
#
# number of rings (size 3 to 8) (size 9 to 14) (size 15 to 20)
#    0.857    1.143    0.000    0.857    8.000    8.000 
#    0.000    0.000    0.000    0.000    0.000    0.000 
#    0.000    0.000    0.000    0.000    0.000    0.000 
#
# Total GULP energy -78059.755825 kJ/mol
# GULP energy per Si atom -5575.696845 kJ/mol
# Density = 2.072064 g / cm^3
# Si number density = 20.767912 Si / 1000 Ang^3
#
#
#
# Elastic Constant Matrix: (Units=GPa)
#
#
# Indices 1 2 3 4 5 6 
#
# 1 88.9863 19.4608 38.0463 0.0000 40.8360 0.0000
# 2 19.4608 69.1914 70.0225 0.0000 10.5386 0.0000
# 3 38.0463 70.0225 140.2240 0.0000 47.2099 0.0000
# 4 0.0000 0.0000 0.0000 50.1177 0.0000 2.9111
# 5 40.8360 10.5386 47.2099 0.0000 29.7910 0.0000
# 6 0.0000 0.0000 0.0000 2.9111 0.0000 27.9464
#
#
#
# Elastic Compliance Matrix: (Units=1/GPa)
#
#
# Indices 1 2 3 4 5 6 
#
# 1 -0.096137 0.116933 -0.134516 0.000000 0.303584 0.000000
# 2 0.116933 -0.096763 0.126552 0.000000 -0.326603 0.000000
# 3 -0.134516 0.126552 -0.142717 0.000000 0.365784 0.000000
# 4 0.000000 0.000000 0.000000 0.020074 0.000000 -0.002091
# 5 0.303584 -0.326603 0.365784 0.000000 -0.846695 0.000000
# 6 0.000000 0.000000 0.000000 -0.002091 0.000000 0.036001
#
#
# Mechanical properties :
#
#
# Convention : Reuss Voigt Hill
#
# Bulk Modulus (GPa) = -8.49762 61.49564 26.49901
# Shear Modulus (GPa) = -3.61428 32.96249 14.67410
#
# Velocity S-wave (km/s) = -1.32064 3.98827 2.66103
# Velocity P-wave (km/s) = 2.53497 7.13327 4.71474
#
# Compressibility (1/GPa) = -0.11767995
#
# Stress axis : x y z
#
# Youngs Moduli (GPa) = -10.40180 -10.33455 -7.00690
#
# Poissons Ratio (x) = 1.20845 -0.94254
# Poissons Ratio (y) = 1.21631 0.88674
# Poissons Ratio (z) = -1.39921 1.30786
#
# Static dielectric constant tensor:
#      x y z
#    x 1.815630 0.000000 -0.020470 
#    y 0.000000 1.753770 0.000000 
#    z -0.020470 0.000000 1.691550 
# 
# From -- ./inp_files/13212.got.cif
#   From: 2010.05.17/outbox.cif.g08.bks.cpg/sg4_7_cif.got.tgz:13212.got - 2010.06.03 18:43:04.
