data_PCOD9116666
_publ_section_title
;
Structure prediction by ZEFSAII (Michael W. Deem and Ramdas Pophale) SiO2 
 PCOD9116666
Probable space group: P 21
;
_chemical_formula_sum "Si O2"
_cell_formula_units_Z 14
_cell_length_a 17.378647
_cell_length_b 6.251778
_cell_length_c 4.930385
_cell_angle_alpha 90.000000
_cell_angle_beta 88.320907
_cell_angle_gamma 90.000000
_cell_volume 535.443715
_symmetry_space_group_name_H-M "P 21"
_symmetry_group_IT_number 4
_symmetry_cell_setting 'monoclinic'
loop_
_space_group_symop_operation_xyz
x,y,z
-x,1/2+y,-z
loop_
_atom_site_type_symbol
_atom_site_label
_atom_site_fract_x
_atom_site_fract_y
_atom_site_fract_z
Si Si1 0.087600 0.440360 0.744090
Si Si2 0.697392 0.884487 0.882012
Si Si3 0.812341 0.593944 0.544982
Si Si4 0.076425 0.742841 0.223883
Si Si5 0.439539 0.126813 0.281239
Si Si6 0.682960 0.297981 0.605469
Si Si7 0.590852 0.931237 0.348362
O O1 0.148891 0.257060 0.666971
O O2 0.072206 0.577100 0.474092
O O3 0.009035 0.323558 0.840625
O O4 0.110450 0.610332 0.969774
O O5 0.763108 0.735187 0.761084
O O6 0.613738 0.848306 0.725749
O O7 0.718721 0.125416 0.806334
O O8 0.667535 0.843351 0.183133
O O9 0.876007 0.450241 0.688135
O O10 0.749715 0.424483 0.444774
O O11 0.519039 0.034835 0.175038
O O12 0.454488 0.196774 0.590537
O O13 0.372502 0.961130 0.234151
O O14 0.627490 0.164978 0.421314
#
# Coordination Sequence:
#
# PCOD9116666 Si02
#       7
#     2   2   2   2   2   2   2
#     4  12  27  53  85 127 158 213 268 328 410 483
#     4  10  25  45  67 105 138 197 257 312 401 471
#     4  11  26  54  74 112 163 202 259 332 402 481
#     4  12  27  53  87 121 164 208 269 334 399 493
#     4  10  22  39  66  99 138 183 247 323 380 465
#     4  10  23  48  65 103 139 192 250 313 394 462
#     4  11  22  42  70  99 140 189 256 316 394 467
#
# _framework density 26.146540999999999
#
# number of rings (size 3 to 8) (size 9 to 14) (size 15 to 20)
#    0.000    1.143    2.857    1.714    2.000    2.286 
#   33.429    0.000    0.000    0.000    0.000    0.000 
#    0.000    0.000    0.000    0.000    0.000    0.000 
#
# Total GULP energy -78095.922381 kJ/mol
# GULP energy per Si atom -5578.280170 kJ/mol
# Density = 2.608703 g / cm^3
# Si number density = 26.146541 Si / 1000 Ang^3
#
#
#
# Elastic Constant Matrix: (Units=GPa)
#
#
# Indices 1 2 3 4 5 6 
#
# 1 141.2243 53.3497 17.9147 0.0000 -22.1447 0.0000
# 2 53.3497 131.8072 39.4716 0.0000 -21.9293 0.0000
# 3 17.9147 39.4716 53.1228 0.0000 -14.1703 0.0000
# 4 0.0000 0.0000 0.0000 36.9683 0.0000 -4.2263
# 5 -22.1447 -21.9293 -14.1703 0.0000 32.3662 0.0000
# 6 0.0000 0.0000 0.0000 -4.2263 0.0000 45.8753
#
#
#
# Elastic Compliance Matrix: (Units=1/GPa)
#
#
# Indices 1 2 3 4 5 6 
#
# 1 0.008815 -0.002981 0.000353 0.000000 0.004167 0.000000
# 2 -0.002981 0.011219 -0.006620 0.000000 0.002663 0.000000
# 3 0.000353 -0.006620 0.025466 0.000000 0.006906 0.000000
# 4 0.000000 0.000000 0.000000 0.027338 0.000000 0.002519
# 5 0.004167 0.002663 0.006906 0.000000 0.038575 0.000000
# 6 0.000000 0.000000 0.000000 0.002519 0.000000 0.022030
#
#
# Mechanical properties :
#
#
# Convention : Reuss Voigt Hill
#
# Bulk Modulus (GPa) = 37.02976 60.84735 48.93856
# Shear Modulus (GPa) = 31.06720 37.40318 34.23519
#
# Velocity S-wave (km/s) = 3.45076 3.78633 3.62243
# Velocity P-wave (km/s) = 5.48362 6.51438 6.02110
#
# Compressibility (1/GPa) = 0.02700530
#
# Stress axis : x y z
#
# Youngs Moduli (GPa) = 113.43697 89.13469 39.26756
#
# Poissons Ratio (x) = 0.26568 -0.01387
# Poissons Ratio (y) = 0.33812 0.25996
# Poissons Ratio (z) = -0.04008 0.59010
#
# Static dielectric constant tensor:
#      x y z
#    x 2.074280 0.000000 0.238490 
#    y 0.000000 2.137170 0.000000 
#    z 0.238490 0.000000 2.667120 
# 
# From -- ./inp_files/3981.got.cif
#   From: 2010.05.17/outbox.cif.g08.bks.cpg/sg4_2_cif.got.tgz:3981.got - 2010.06.03 18:43:04.
