data_PCOD9116760
_publ_section_title
;
Structure prediction by ZEFSAII (Michael W. Deem and Ramdas Pophale) SiO2 
 PCOD9116760
Probable space group: P 21
;
_chemical_formula_sum "Si O2"
_cell_formula_units_Z 16
_cell_length_a 12.741301
_cell_length_b 11.429155
_cell_length_c 7.799461
_cell_angle_alpha 90.000000
_cell_angle_beta 30.483186
_cell_angle_gamma 90.000000
_cell_volume 576.162419
_symmetry_space_group_name_H-M "P 21"
_symmetry_group_IT_number 4
_symmetry_cell_setting 'monoclinic'
loop_
_space_group_symop_operation_xyz
x,y,z
-x,1/2+y,-z
loop_
_atom_site_type_symbol
_atom_site_label
_atom_site_fract_x
_atom_site_fract_y
_atom_site_fract_z
Si Si1 0.903557 0.341470 0.706545
Si Si2 0.786398 0.952335 0.528416
Si Si3 0.680910 0.605668 0.529529
Si Si4 0.339581 0.652092 0.773923
Si Si5 0.881417 0.593569 0.883216
Si Si6 0.353646 0.301651 0.874129
Si Si7 0.560476 0.314294 0.933638
Si Si8 0.925661 0.963576 0.974876
O O1 0.848286 0.223178 0.881547
O O2 0.787101 0.319770 0.693030
O O3 0.814348 0.461696 0.921946
O O4 0.142673 0.373586 0.407292
O O5 0.548327 0.933507 0.844506
O O6 0.912029 0.908889 0.184189
O O7 0.871285 0.078402 0.459346
O O8 0.466867 0.571118 0.730523
O O9 0.586191 0.712013 0.775293
O O10 0.818490 0.629318 0.164081
O O11 0.846182 0.517062 0.384838
O O12 0.493325 0.751995 0.492791
O O13 0.238719 0.570528 0.774610
O O14 0.783404 0.685086 0.895277
O O15 0.190095 0.385876 0.003802
O O16 0.525250 0.318231 0.781492
#
# Coordination Sequence:
#
# PCOD9116760 Si02
#       8
#     2   2   2   2   2   2   2   2
#     4   9  20  42  67  89 126 163 216 265 304 371
#     4   9  20  37  68  89 116 166 211 257 321 356
#     4   9  20  39  66  93 120 164 217 260 316 359
#     4  10  22  40  66  93 125 165 222 269 298 376
#     4   8  19  40  61  90 119 158 217 260 292 373
#     4  11  25  38  61 100 131 164 212 251 337 381
#     4  11  22  41  62  94 137 168 191 268 326 393
#     4  11  22  41  69  94 120 168 222 270 296 377
#
# _framework density 27.769946000000001
#
# number of rings (size 3 to 8) (size 9 to 14) (size 15 to 20)
#    0.750    1.500    0.000    3.000    7.000    2.000 
#    4.500    5.000    0.000    0.000    0.000    0.000 
#    0.000    0.000    0.000    0.000    0.000    0.000 
#
# Total GULP energy -89170.503590 kJ/mol
# GULP energy per Si atom -5573.156474 kJ/mol
# Density = 2.770674 g / cm^3
# Si number density = 27.769946 Si / 1000 Ang^3
#
#
#
# Elastic Constant Matrix: (Units=GPa)
#
#
# Indices 1 2 3 4 5 6 
#
# 1 195.3002 58.6319 24.1457 0.0000 -10.1155 0.0000
# 2 58.6319 75.4520 9.4692 0.0000 -3.7178 0.0000
# 3 24.1457 9.4692 73.9636 0.0000 -24.5218 0.0000
# 4 0.0000 0.0000 0.0000 41.5785 0.0000 -7.9484
# 5 -10.1155 -3.7178 -24.5218 0.0000 48.3642 0.0000
# 6 0.0000 0.0000 0.0000 -7.9484 0.0000 37.4017
#
#
#
# Elastic Compliance Matrix: (Units=1/GPa)
#
#
# Indices 1 2 3 4 5 6 
#
# 1 0.006859 -0.005129 -0.001488 0.000000 0.000286 0.000000
# 2 -0.005129 0.017307 -0.000548 0.000000 -0.000020 0.000000
# 3 -0.001488 -0.000548 0.016779 0.000000 0.008154 0.000000
# 4 0.000000 0.000000 0.000000 0.025069 0.000000 0.005328
# 5 0.000286 -0.000020 0.008154 0.000000 0.024869 0.000000
# 6 0.000000 0.000000 0.000000 0.005328 0.000000 0.027869
#
#
# Mechanical properties :
#
#
# Convention : Reuss Voigt Hill
#
# Bulk Modulus (GPa) = 37.57166 58.80103 48.18635
# Shear Modulus (GPa) = 35.22266 42.30015 38.76141
#
# Velocity S-wave (km/s) = 3.56529 3.90710 3.74010
# Velocity P-wave (km/s) = 5.52335 6.44781 6.00340
#
# Compressibility (1/GPa) = 0.02661580
#
# Stress axis : x y z
#
# Youngs Moduli (GPa) = 145.79642 57.78042 59.59670
#
# Poissons Ratio (x) = 0.29636 0.08866
# Poissons Ratio (y) = 0.74780 0.03266
# Poissons Ratio (z) = 0.21689 0.03166
#
# Static dielectric constant tensor:
#      x y z
#    x 2.157830 0.000000 0.018370 
#    y 0.000000 2.230140 0.000000 
#    z 0.018370 0.000000 2.271240 
# 
# From -- ./inp_files/8297.got.cif
#   From: 2010.05.17/outbox.cif.g08.bks.cpg/sg4_5_cif.got.tgz:8297.got - 2010.06.03 18:43:04.
