data_PCOD9116630
_publ_section_title
;
Structure prediction by ZEFSAII (Michael W. Deem and Ramdas Pophale) SiO2 
 PCOD9116630
Probable space group: P 21
;
_chemical_formula_sum "Si O2"
_cell_formula_units_Z 16
_cell_length_a 9.051781
_cell_length_b 8.266295
_cell_length_c 9.367508
_cell_angle_alpha 90.000000
_cell_angle_beta 62.812128
_cell_angle_gamma 90.000000
_cell_volume 623.478330
_symmetry_space_group_name_H-M "P 21"
_symmetry_group_IT_number 4
_symmetry_cell_setting 'monoclinic'
loop_
_space_group_symop_operation_xyz
x,y,z
-x,1/2+y,-z
loop_
_atom_site_type_symbol
_atom_site_label
_atom_site_fract_x
_atom_site_fract_y
_atom_site_fract_z
Si Si1 0.903881 0.453570 0.080116
Si Si2 0.662612 0.693579 0.301363
Si Si3 0.157059 0.342841 0.207536
Si Si4 0.652220 0.023974 0.444249
Si Si5 0.481721 0.374504 0.904409
Si Si6 0.338652 0.680421 0.871187
Si Si7 0.166650 0.687533 0.226874
Si Si8 0.008646 0.017084 0.290099
O O1 0.835094 0.603869 0.202471
O O2 0.724417 0.364685 0.123416
O O3 0.027020 0.350408 0.127939
O O4 0.979316 0.493427 0.890487
O O5 0.509395 0.577136 0.402120
O O6 0.620184 0.789640 0.176668
O O7 0.661860 0.831701 0.421297
O O8 0.123120 0.510744 0.305880
O O9 0.128215 0.163652 0.279281
O O10 0.354753 0.357908 0.091060
O O11 0.652323 0.110536 0.290785
O O12 0.830085 0.076233 0.420979
O O13 0.485358 0.567263 0.874095
O O14 0.653352 0.277812 0.835188
O O15 0.187923 0.638607 0.048040
O O16 0.049305 0.835177 0.320725
#
# Coordination Sequence:
#
# PCOD9116630 Si02
#       8
#     2   2   2   2   2   2   2   2
#     4  11  20  37  62  96 122 155 212 262 332 364
#     4  11  23  39  64  89 127 166 198 268 315 384
#     4  11  22  35  62  93 125 160 203 271 307 367
#     4  11  22  39  61  93 125 156 213 258 331 373
#     4  10  22  39  58  92 129 166 207 251 309 381
#     4   9  20  36  59  88 124 156 199 262 309 364
#     4  10  23  38  60  94 131 164 210 255 314 372
#     4  11  22  37  64  93 121 163 206 271 311 371
#
# _framework density 25.662481
#
# number of rings (size 3 to 8) (size 9 to 14) (size 15 to 20)
#    0.000    1.500    2.500    3.750    5.250    0.000 
#    0.000    0.000    2.750    0.000    0.000    0.000 
#    0.000    0.000    0.000    0.000    0.000    0.000 
#
# Total GULP energy -89143.884541 kJ/mol
# GULP energy per Si atom -5571.492784 kJ/mol
# Density = 2.560407 g / cm^3
# Si number density = 25.662481 Si / 1000 Ang^3
#
#
#
# Elastic Constant Matrix: (Units=GPa)
#
#
# Indices 1 2 3 4 5 6 
#
# 1 48.0993 23.1589 22.7055 0.0000 -26.2476 0.0000
# 2 23.1589 133.4334 6.5241 0.0000 -3.6170 0.0000
# 3 22.7055 6.5241 65.7183 0.0000 -10.6543 0.0000
# 4 0.0000 0.0000 0.0000 36.1344 0.0000 -14.6347
# 5 -26.2476 -3.6170 -10.6543 0.0000 38.9923 0.0000
# 6 0.0000 0.0000 0.0000 -14.6347 0.0000 44.3250
#
#
#
# Elastic Compliance Matrix: (Units=1/GPa)
#
#
# Indices 1 2 3 4 5 6 
#
# 1 0.042081 -0.006142 -0.009866 0.000000 0.025061 0.000000
# 2 -0.006142 0.008437 0.000775 0.000000 -0.003140 0.000000
# 3 -0.009866 0.000775 0.018294 0.000000 -0.001571 0.000000
# 4 0.000000 0.000000 0.000000 0.031946 0.000000 0.010548
# 5 0.025061 -0.003140 -0.001571 0.000000 0.041795 0.000000
# 6 0.000000 0.000000 0.000000 0.010548 0.000000 0.026043
#
#
# Mechanical properties :
#
#
# Convention : Reuss Voigt Hill
#
# Bulk Modulus (GPa) = 26.07821 39.11421 32.59621
# Shear Modulus (GPa) = 23.60234 36.88117 30.24176
#
# Velocity S-wave (km/s) = 3.03598 3.79511 3.43657
# Velocity P-wave (km/s) = 4.74064 5.87185 5.33630
#
# Compressibility (1/GPa) = 0.03834620
#
# Stress axis : x y z
#
# Youngs Moduli (GPa) = 23.76397 118.52070 54.66418
#
# Poissons Ratio (x) = 0.72794 0.53932
# Poissons Ratio (y) = 0.14595 -0.04238
# Poissons Ratio (z) = 0.23446 -0.09190
#
# Static dielectric constant tensor:
#      x y z
#    x 2.158880 0.000000 0.037750 
#    y 0.000000 2.129900 0.000000 
#    z 0.037750 0.000000 1.971190 
# 
# From -- ./inp_files/11023.got.cif
#   From: 2010.05.17/outbox.cif.g08.bks.cpg/sg4_6_cif.got.tgz:11023.got - 2010.06.03 18:43:04.
