data_PCOD9116969
_publ_section_title
;
Structure prediction by ZEFSAII (Michael W. Deem and Ramdas Pophale) SiO2 
 PCOD9116969
Probable space group: P 21
;
_chemical_formula_sum "Si O2"
_cell_formula_units_Z 16
_cell_length_a 9.082740
_cell_length_b 11.528864
_cell_length_c 7.023008
_cell_angle_alpha 90.000000
_cell_angle_beta 82.420088
_cell_angle_gamma 90.000000
_cell_volume 728.978892
_symmetry_space_group_name_H-M "P 21"
_symmetry_group_IT_number 4
_symmetry_cell_setting 'monoclinic'
loop_
_space_group_symop_operation_xyz
x,y,z
-x,1/2+y,-z
loop_
_atom_site_type_symbol
_atom_site_label
_atom_site_fract_x
_atom_site_fract_y
_atom_site_fract_z
Si Si1 0.564080 0.980800 0.147580
Si Si2 0.887416 0.411094 0.006162
Si Si3 0.243351 0.217009 0.604690
Si Si4 0.615517 0.545475 0.169392
Si Si5 0.915233 0.610336 0.713693
Si Si6 0.816735 0.814282 0.001469
Si Si7 0.761087 0.197912 0.238062
Si Si8 0.506927 0.357061 0.457498
O O1 0.485526 0.918089 0.337942
O O2 0.676501 0.081725 0.190722
O O3 0.662311 0.881645 0.028550
O O4 0.445932 0.041316 0.031132
O O5 0.901751 0.480706 0.803611
O O6 0.781222 0.494973 0.143540
O O7 0.810400 0.284520 0.054458
O O8 0.048892 0.399807 0.071907
O O9 0.371851 0.161997 0.716522
O O10 0.156876 0.131490 0.480164
O O11 0.343199 0.302991 0.464581
O O12 0.147373 0.280315 0.782962
O O13 0.516333 0.459034 0.304923
O O14 0.831176 0.699839 0.872100
O O15 0.085769 0.655769 0.690010
O O16 0.642851 0.270133 0.386156
#
# Coordination Sequence:
#
# PCOD9116969 Si02
#       8
#     2   2   2   2   2   2   2   2
#     4  11  23  43  69  94 139 172 219 279 329 400
#     4  10  22  42  67  94 131 173 220 273 330 388
#     4  11  24  41  67  98 131 172 222 268 337 391
#     4  11  24  41  64  97 130 176 217 268 333 397
#     4  11  22  44  69  94 137 171 220 285 325 397
#     4  10  22  44  67  97 128 177 222 272 336 391
#     4  10  23  43  68 102 131 175 229 268 336 403
#     4  10  24  42  63  98 133 172 225 271 328 397
#
# _framework density 21.948509999999999
#
# number of rings (size 3 to 8) (size 9 to 14) (size 15 to 20)
#    0.000    1.500    2.500    1.500    3.500    5.000 
#    4.500    6.250    0.000    0.000    0.000    0.000 
#    0.000    0.000    0.000    0.000    0.000    0.000 
#
# Total GULP energy -89251.094327 kJ/mol
# GULP energy per Si atom -5578.193395 kJ/mol
# Density = 2.189855 g / cm^3
# Si number density = 21.948510 Si / 1000 Ang^3
#
#
#
# Elastic Constant Matrix: (Units=GPa)
#
#
# Indices 1 2 3 4 5 6 
#
# 1 80.0919 32.3857 47.0060 0.0000 6.9148 0.0000
# 2 32.3857 83.0116 24.6120 0.0000 13.4243 0.0000
# 3 47.0060 24.6120 71.2383 0.0000 11.5583 0.0000
# 4 0.0000 0.0000 0.0000 30.3107 0.0000 -3.5082
# 5 6.9148 13.4243 11.5583 0.0000 26.4386 0.0000
# 6 0.0000 0.0000 0.0000 -3.5082 0.0000 28.0311
#
#
#
# Elastic Compliance Matrix: (Units=1/GPa)
#
#
# Indices 1 2 3 4 5 6 
#
# 1 0.022099 -0.005118 -0.013236 0.000000 0.002606 0.000000
# 2 -0.005118 0.015292 -0.000929 0.000000 -0.006020 0.000000
# 3 -0.013236 -0.000929 0.024168 0.000000 -0.006632 0.000000
# 4 0.000000 0.000000 0.000000 0.033477 0.000000 0.004190
# 5 0.002606 -0.006020 -0.006632 0.000000 0.043098 0.000000
# 6 0.000000 0.000000 0.000000 0.004190 0.000000 0.036199
#
#
# Mechanical properties :
#
#
# Convention : Reuss Voigt Hill
#
# Bulk Modulus (GPa) = 43.49388 49.14992 46.32190
# Shear Modulus (GPa) = 22.66915 25.64528 24.15721
#
# Velocity S-wave (km/s) = 3.21726 3.42194 3.32118
# Velocity P-wave (km/s) = 5.80175 6.16885 5.98812
#
# Compressibility (1/GPa) = 0.02299174
#
# Stress axis : x y z
#
# Youngs Moduli (GPa) = 45.25175 65.39182 41.37679
#
# Poissons Ratio (x) = 0.33471 0.54766
# Poissons Ratio (y) = 0.23162 0.03845
# Poissons Ratio (z) = 0.59895 0.06077
#
# Static dielectric constant tensor:
#      x y z
#    x 1.814860 0.000000 -0.029680 
#    y 0.000000 1.852580 0.000000 
#    z -0.029680 0.000000 1.804170 
# 
# From -- ./inp_files/1400.got.cif
#   From: 2010.05.17/outbox.cif.g08.bks.cpg/sg4_1_cif.got.tgz:1400.got - 2010.06.03 18:43:04.
