data_PCOD9116091
_publ_section_title
;
Structure prediction by ZEFSAII (Michael W. Deem and Ramdas Pophale) SiO2 
 PCOD9116091
Probable space group: P 21
;
_chemical_formula_sum "Si O2"
_cell_formula_units_Z 14
_cell_length_a 8.575546
_cell_length_b 5.158586
_cell_length_c 14.427995
_cell_angle_alpha 90.000000
_cell_angle_beta 98.178619
_cell_angle_gamma 90.000000
_cell_volume 631.769685
_symmetry_space_group_name_H-M "P 21"
_symmetry_group_IT_number 4
_symmetry_cell_setting 'monoclinic'
loop_
_space_group_symop_operation_xyz
x,y,z
-x,1/2+y,-z
loop_
_atom_site_type_symbol
_atom_site_label
_atom_site_fract_x
_atom_site_fract_y
_atom_site_fract_z
Si Si1 0.014690 0.366960 0.189794
Si Si2 0.855276 0.877003 0.093394
Si Si3 0.618689 0.871152 0.234980
Si Si4 0.575426 0.825114 0.958485
Si Si5 0.779024 0.358135 0.331842
Si Si6 0.379189 0.485741 0.237623
Si Si7 0.544828 0.366890 0.446858
O O1 0.929760 0.604560 0.129051
O O2 0.939233 0.327987 0.287108
O O3 0.194822 0.439341 0.218503
O O4 0.974027 0.108068 0.127818
O O5 0.701869 0.926131 0.145090
O O6 0.763455 0.874261 0.988559
O O7 0.703785 0.609028 0.277182
O O8 0.437718 0.781826 0.223258
O O9 0.680452 0.097434 0.304609
O O10 0.526957 0.560470 0.006355
O O11 0.549158 0.831280 0.845433
O O12 0.731088 0.398374 0.435091
O O13 0.442938 0.412931 0.344476
O O14 0.494559 0.590854 0.513153
#
# Coordination Sequence:
#
# PCOD9116091 Si02
#       7
#     2   2   2   2   2   2   2
#     4  10  23  40  65  96 138 179 211 267 347 406
#     4  10  21  40  60  93 136 179 218 255 333 400
#     4   9  18  35  62  87 124 169 216 258 310 384
#     4  12  26  40  68 102 133 175 233 274 316 399
#     4   9  19  38  63  90 125 171 207 267 336 388
#     4  11  25  43  68 101 136 171 229 288 328 396
#     4  11  24  42  68  97 124 168 230 281 332 391
#
# _framework density 22.159976
#
# number of rings (size 3 to 8) (size 9 to 14) (size 15 to 20)
#    0.000    1.714    1.429    2.571    8.000    6.857 
#    0.000    1.429    0.000    0.000    0.000    0.000 
#    0.000    0.000    0.000    0.000    0.000    0.000 
#
# Total GULP energy -78080.880404 kJ/mol
# GULP energy per Si atom -5577.205743 kJ/mol
# Density = 2.210954 g / cm^3
# Si number density = 22.159976 Si / 1000 Ang^3
#
#
#
# Elastic Constant Matrix: (Units=GPa)
#
#
# Indices 1 2 3 4 5 6 
#
# 1 100.2595 26.7282 16.6672 0.0000 -7.9851 0.0000
# 2 26.7282 104.9379 3.6353 0.0000 1.7719 0.0000
# 3 16.6672 3.6353 69.4960 0.0000 -13.4041 0.0000
# 4 0.0000 0.0000 0.0000 28.9777 0.0000 -3.7306
# 5 -7.9851 1.7719 -13.4041 0.0000 27.5929 0.0000
# 6 0.0000 0.0000 0.0000 -3.7306 0.0000 31.9155
#
#
#
# Elastic Compliance Matrix: (Units=1/GPa)
#
#
# Indices 1 2 3 4 5 6 
#
# 1 0.011272 -0.002840 -0.002086 0.000000 0.002431 0.000000
# 2 -0.002840 0.010285 -0.000158 0.000000 -0.001559 0.000000
# 3 -0.002086 -0.000158 0.016312 0.000000 0.007330 0.000000
# 4 0.000000 0.000000 0.000000 0.035037 0.000000 0.004095
# 5 0.002431 -0.001559 0.007330 0.000000 0.040606 0.000000
# 6 0.000000 0.000000 0.000000 0.004095 0.000000 0.031811
#
#
# Mechanical properties :
#
#
# Convention : Reuss Voigt Hill
#
# Bulk Modulus (GPa) = 36.09919 40.97277 38.53598
# Shear Modulus (GPa) = 30.35427 32.87474 31.61450
#
# Velocity S-wave (km/s) = 3.70507 3.85583 3.78120
# Velocity P-wave (km/s) = 5.88464 6.19297 6.04077
#
# Compressibility (1/GPa) = 0.02770145
#
# Stress axis : x y z
#
# Youngs Moduli (GPa) = 88.71920 97.23363 61.30587
#
# Poissons Ratio (x) = 0.27611 0.12787
# Poissons Ratio (y) = 0.25194 0.00966
# Poissons Ratio (z) = 0.18505 0.01532
#
# Static dielectric constant tensor:
#      x y z
#    x 1.882130 0.000000 -0.039340 
#    y 0.000000 1.862810 0.000000 
#    z -0.039340 0.000000 1.932160 
# 
# From -- ./inp_files/13472.got.cif
#   From: 2010.05.17/outbox.cif.g08.bks.cpg/sg4_7_cif.got.tgz:13472.got - 2010.06.03 18:43:04.
