data_PCOD9116418
_publ_section_title
;
Structure prediction by ZEFSAII (Michael W. Deem and Ramdas Pophale) SiO2 
 PCOD9116418
Probable space group: P 21
;
_chemical_formula_sum "Si O2"
_cell_formula_units_Z 16
_cell_length_a 17.718602
_cell_length_b 7.820780
_cell_length_c 5.442760
_cell_angle_alpha 90.000000
_cell_angle_beta 118.484692
_cell_angle_gamma 90.000000
_cell_volume 662.918581
_symmetry_space_group_name_H-M "P 21"
_symmetry_group_IT_number 4
_symmetry_cell_setting 'monoclinic'
loop_
_space_group_symop_operation_xyz
x,y,z
-x,1/2+y,-z
loop_
_atom_site_type_symbol
_atom_site_label
_atom_site_fract_x
_atom_site_fract_y
_atom_site_fract_z
Si Si1 0.017999 0.153040 0.020136
Si Si2 0.157306 0.358615 0.941247
Si Si3 0.999829 0.857795 0.614518
Si Si4 0.555646 0.637336 0.898386
Si Si5 0.460480 0.534884 0.253188
Si Si6 0.851893 0.279962 0.544343
Si Si7 0.250124 0.030957 0.853590
Si Si8 0.731027 0.161262 0.992719
O O1 0.090328 0.285745 0.037580
O O2 0.916356 0.200555 0.839345
O O3 0.027804 0.170491 0.324568
O O4 0.028291 0.987687 0.871343
O O5 0.088096 0.423802 0.635677
O O6 0.209136 0.196666 0.914287
O O7 0.222863 0.513418 0.092434
O O8 0.076845 0.820210 0.553812
O O9 0.510505 0.550528 0.590264
O O10 0.652469 0.569521 0.065696
O O11 0.556181 0.837459 0.835160
O O12 0.509113 0.608721 0.088259
O O13 0.369252 0.628062 0.146160
O O14 0.801393 0.461023 0.467198
O O15 0.777360 0.154127 0.332697
O O16 0.250763 0.861939 0.033462
#
# Coordination Sequence:
#
# PCOD9116418 Si02
#       8
#     2   2   2   2   2   2   2   2
#     4  11  23  37  61  93 130 176 226 278 344 404
#     4  11  22  44  62  92 134 180 226 282 344 415
#     4  11  23  37  61  93 130 176 226 278 344 404
#     4  12  26  50  78 113 151 194 243 306 378 445
#     4  12  26  50  78 113 151 194 243 306 378 445
#     4   9  22  42  60  88 136 170 226 280 336 405
#     4  10  21  43  68  98 132 179 231 288 350 430
#     4  10  21  43  68  98 132 179 231 288 350 430
#
# _framework density 24.135694999999998
#
# number of rings (size 3 to 8) (size 9 to 14) (size 15 to 20)
#    0.750    0.500    3.750    2.250    3.500    0.000 
#    9.000    0.000    0.000    0.000    0.000    0.000 
#    0.000    0.000    0.000    0.000    0.000    0.000 
#
# Total GULP energy -89295.109203 kJ/mol
# GULP energy per Si atom -5580.944325 kJ/mol
# Density = 2.408076 g / cm^3
# Si number density = 24.135695 Si / 1000 Ang^3
#
#
#
# Elastic Constant Matrix: (Units=GPa)
#
#
# Indices 1 2 3 4 5 6 
#
# 1 146.6334 38.8662 44.1781 0.0000 27.2083 0.0000
# 2 38.8662 122.8426 -5.3457 0.0000 1.3758 0.0000
# 3 44.1781 -5.3457 40.6411 0.0000 9.7818 0.0000
# 4 0.0000 0.0000 0.0000 40.6444 0.0000 8.5052
# 5 27.2083 1.3758 9.7818 0.0000 35.7985 0.0000
# 6 0.0000 0.0000 0.0000 8.5052 0.0000 47.6965
#
#
#
# Elastic Compliance Matrix: (Units=1/GPa)
#
#
# Indices 1 2 3 4 5 6 
#
# 1 0.013337 -0.004743 -0.013622 0.000000 -0.006232 0.000000
# 2 -0.004743 0.009888 0.006080 0.000000 0.001563 0.000000
# 3 -0.013622 0.006080 0.040436 0.000000 -0.000930 0.000000
# 4 0.000000 0.000000 0.000000 0.025557 0.000000 -0.004557
# 5 -0.006232 0.001563 -0.000930 0.000000 0.032865 0.000000
# 6 0.000000 0.000000 0.000000 -0.004557 0.000000 0.021779
#
#
# Mechanical properties :
#
#
# Convention : Reuss Voigt Hill
#
# Bulk Modulus (GPa) = 25.58037 51.72383 38.65210
# Shear Modulus (GPa) = 27.55383 40.32245 33.93814
#
# Velocity S-wave (km/s) = 3.38245 4.09180 3.75392
# Velocity P-wave (km/s) = 5.08687 6.61821 5.90241
#
# Compressibility (1/GPa) = 0.03909248
#
# Stress axis : x y z
#
# Youngs Moduli (GPa) = 74.97762 101.13140 24.73015
#
# Poissons Ratio (x) = 0.47964 0.33687
# Poissons Ratio (y) = 0.35560 -0.15036
# Poissons Ratio (z) = 1.02133 -0.61487
#
# Static dielectric constant tensor:
#      x y z
#    x 1.895080 0.000000 -0.056190 
#    y 0.000000 2.036530 0.000000 
#    z -0.056190 0.000000 2.056990 
# 
# From -- ./inp_files/4347.got.cif
#   From: 2010.05.17/outbox.cif.g08.bks.cpg/sg4_3_cif.got.tgz:4347.got - 2010.06.03 18:43:04.
