data_PCOD9116317
_publ_section_title
;
Structure prediction by ZEFSAII (Michael W. Deem and Ramdas Pophale) SiO2 
 PCOD9116317
Probable space group: P 21
;
_chemical_formula_sum "Si O2"
_cell_formula_units_Z 16
_cell_length_a 8.563574
_cell_length_b 12.853226
_cell_length_c 10.740125
_cell_angle_alpha 90.000000
_cell_angle_beta 139.870456
_cell_angle_gamma 90.000000
_cell_volume 761.923843
_symmetry_space_group_name_H-M "P 21"
_symmetry_group_IT_number 4
_symmetry_cell_setting 'monoclinic'
loop_
_space_group_symop_operation_xyz
x,y,z
-x,1/2+y,-z
loop_
_atom_site_type_symbol
_atom_site_label
_atom_site_fract_x
_atom_site_fract_y
_atom_site_fract_z
Si Si1 0.760085 0.937670 0.777862
Si Si2 0.894421 0.251964 0.492464
Si Si3 0.565764 0.438433 0.191605
Si Si4 0.994136 0.552732 0.559133
Si Si5 0.206076 0.835845 0.121010
Si Si6 0.365841 0.386147 0.800372
Si Si7 0.704842 0.499438 0.624219
Si Si8 0.723420 0.149009 0.641822
O O1 0.660280 0.960878 0.855734
O O2 0.506763 0.919291 0.550842
O O3 0.855876 0.043249 0.770731
O O4 0.949631 0.844481 0.893709
O O5 0.703444 0.337231 0.329909
O O6 0.804923 0.189028 0.557782
O O7 0.943918 0.172592 0.410741
O O8 0.145931 0.306100 0.682743
O O9 0.765904 0.528386 0.330721
O O10 0.482424 0.418738 0.001793
O O11 0.905860 0.513652 0.640659
O O12 0.227659 0.486740 0.660505
O O13 0.430932 0.840733 0.165501
O O14 0.203090 0.944924 0.196244
O O15 0.231602 0.739032 0.229558
O O16 0.553806 0.606840 0.538068
#
# Coordination Sequence:
#
# PCOD9116317 Si02
#       8
#     2   2   2   2   2   2   2   2
#     4   9  22  41  64  90 122 164 215 261 310 377
#     4  11  23  42  65  96 127 170 210 264 323 381
#     4  10  22  43  64  89 130 170 203 271 318 370
#     4  10  21  42  66  89 129 164 210 262 319 375
#     4  12  22  43  62  93 131 166 213 266 319 374
#     4  11  25  38  65  95 128 168 209 261 321 386
#     4   9  21  42  65  92 124 165 211 266 306 380
#     4  10  22  41  65  92 123 169 215 259 316 381
#
# _framework density 20.999472999999998
#
# number of rings (size 3 to 8) (size 9 to 14) (size 15 to 20)
#    0.750    1.000    0.000    5.250    1.750    2.000 
#   11.250    0.000    0.000    0.000    0.000    0.000 
#    0.000    0.000    0.000    0.000    0.000    0.000 
#
# Total GULP energy -89277.995426 kJ/mol
# GULP energy per Si atom -5579.874714 kJ/mol
# Density = 2.095168 g / cm^3
# Si number density = 20.999473 Si / 1000 Ang^3
#
#
#
# Elastic Constant Matrix: (Units=GPa)
#
#
# Indices 1 2 3 4 5 6 
#
# 1 48.2279 -2.0996 19.6384 0.0000 9.2219 0.0000
# 2 -2.0996 60.8290 2.1970 0.0000 9.6584 0.0000
# 3 19.6384 2.1970 53.0140 0.0000 10.4621 0.0000
# 4 0.0000 0.0000 0.0000 18.5398 0.0000 -4.4802
# 5 9.2219 9.6584 10.4621 0.0000 22.6667 0.0000
# 6 0.0000 0.0000 0.0000 -4.4802 0.0000 37.3141
#
#
#
# Elastic Compliance Matrix: (Units=1/GPa)
#
#
# Indices 1 2 3 4 5 6 
#
# 1 0.025596 0.002400 -0.008058 0.000000 -0.007717 0.000000
# 2 0.002400 0.017891 0.000073 0.000000 -0.008633 0.000000
# 3 -0.008058 0.000073 0.023329 0.000000 -0.007521 0.000000
# 4 0.000000 0.000000 0.000000 0.055550 0.000000 0.006670
# 5 -0.007717 -0.008633 -0.007521 0.000000 0.054407 0.000000
# 6 0.000000 0.000000 0.000000 0.006670 0.000000 0.027600
#
#
# Mechanical properties :
#
#
# Convention : Reuss Voigt Hill
#
# Bulk Modulus (GPa) = 17.97086 22.39362 20.18224
# Shear Modulus (GPa) = 21.35908 25.19312 23.27610
#
# Velocity S-wave (km/s) = 3.19270 3.46743 3.33290
# Velocity P-wave (km/s) = 4.70823 5.16893 4.94395
#
# Compressibility (1/GPa) = 0.05564565
#
# Stress axis : x y z
#
# Youngs Moduli (GPa) = 39.06809 55.89550 42.86472
#
# Poissons Ratio (x) = -0.13414 0.34542
# Poissons Ratio (y) = -0.09376 -0.00314
# Poissons Ratio (z) = 0.31483 -0.00410
#
# Static dielectric constant tensor:
#      x y z
#    x 1.732590 0.000000 0.002890 
#    y 0.000000 1.763480 0.000000 
#    z 0.002890 0.000000 1.773110 
# 
# From -- ./inp_files/11296.got.cif
#   From: 2010.05.17/outbox.cif.g08.bks.cpg/sg4_6_cif.got.tgz:11296.got - 2010.06.03 18:43:04.
