data_PCOD9116182
_publ_section_title
;
Structure prediction by ZEFSAII (Michael W. Deem and Ramdas Pophale) SiO2 
 PCOD9116182
Probable space group: P 21
;
_chemical_formula_sum "Si O2"
_cell_formula_units_Z 16
_cell_length_a 20.861767
_cell_length_b 5.955493
_cell_length_c 9.217861
_cell_angle_alpha 90.000000
_cell_angle_beta 35.233026
_cell_angle_gamma 90.000000
_cell_volume 660.696394
_symmetry_space_group_name_H-M "P 21"
_symmetry_group_IT_number 4
_symmetry_cell_setting 'monoclinic'
loop_
_space_group_symop_operation_xyz
x,y,z
-x,1/2+y,-z
loop_
_atom_site_type_symbol
_atom_site_label
_atom_site_fract_x
_atom_site_fract_y
_atom_site_fract_z
Si Si1 0.472337 0.787620 0.177212
Si Si2 0.744184 0.988133 0.438879
Si Si3 0.774433 0.061036 0.707678
Si Si4 0.366941 0.169978 0.562135
Si Si5 0.436151 0.885891 0.905787
Si Si6 0.023761 0.667701 0.025711
Si Si7 0.041643 0.917488 0.590148
Si Si8 0.176990 0.208722 0.130436
O O1 0.363476 0.636320 0.384845
O O2 0.576180 0.652899 0.051532
O O3 0.439088 0.984230 0.346518
O O4 0.481097 0.834942 0.988984
O O5 0.756907 0.945530 0.585031
O O6 0.722536 0.764659 0.388756
O O7 0.845217 0.138498 0.197364
O O8 0.885171 0.212556 0.486477
O O9 0.787906 0.890159 0.813852
O O10 0.672177 0.237025 0.917735
O O11 0.468234 0.347907 0.391893
O O12 0.288781 0.126763 0.843180
O O13 0.002360 0.921676 0.006396
O O14 0.962751 0.624726 0.290453
O O15 0.916551 0.835104 0.793139
O O16 0.107170 0.004461 0.328392
#
# Coordination Sequence:
#
# PCOD9116182 Si02
#       8
#     2   2   2   2   2   2   2   2
#     4  10  21  40  74 111 144 183 244 314 395 461
#     4  10  23  41  73 109 142 187 250 319 382 454
#     4  11  25  49  72 107 147 201 254 310 387 465
#     4  11  24  44  74 112 144 197 247 315 383 472
#     4  10  22  43  73 108 146 185 242 315 385 454
#     4  12  26  44  73 114 152 196 263 332 392 458
#     4  12  26  46  74 103 153 208 259 320 388 461
#     4  12  27  47  73 104 154 209 255 311 388 473
#
# _framework density 24.216871000000001
#
# number of rings (size 3 to 8) (size 9 to 14) (size 15 to 20)
#    0.000    1.000    5.000    0.750    1.750    6.000 
#    2.250    0.000    0.000    0.000    0.000    0.000 
#    0.000    0.000    0.000    0.000    0.000    0.000 
#
# Total GULP energy -89342.920518 kJ/mol
# GULP energy per Si atom -5583.932532 kJ/mol
# Density = 2.416175 g / cm^3
# Si number density = 24.216871 Si / 1000 Ang^3
#
#
#
# Elastic Constant Matrix: (Units=GPa)
#
#
# Indices 1 2 3 4 5 6 
#
# 1 53.4640 7.9841 -0.9643 0.0000 -16.9030 0.0000
# 2 7.9841 58.1258 14.3025 0.0000 -5.4406 0.0000
# 3 -0.9643 14.3025 140.0237 0.0000 -6.4847 0.0000
# 4 0.0000 0.0000 0.0000 37.7668 0.0000 -4.0237
# 5 -16.9030 -5.4406 -6.4847 0.0000 32.1092 0.0000
# 6 0.0000 0.0000 0.0000 -4.0237 0.0000 23.0035
#
#
#
# Elastic Compliance Matrix: (Units=1/GPa)
#
#
# Indices 1 2 3 4 5 6 
#
# 1 0.022790 -0.002255 0.000934 0.000000 0.011803 0.000000
# 2 -0.002255 0.018097 -0.001794 0.000000 0.001517 0.000000
# 3 0.000934 -0.001794 0.007409 0.000000 0.001684 0.000000
# 4 0.000000 0.000000 0.000000 0.026981 0.000000 0.004719
# 5 0.011803 0.001517 0.001684 0.000000 0.037954 0.000000
# 6 0.000000 0.000000 0.000000 0.004719 0.000000 0.044297
#
#
# Mechanical properties :
#
#
# Convention : Reuss Voigt Hill
#
# Bulk Modulus (GPa) = 23.77239 32.69536 28.23388
# Shear Modulus (GPa) = 28.12450 33.92864 31.02657
#
# Velocity S-wave (km/s) = 3.41157 3.74710 3.58326
# Velocity P-wave (km/s) = 5.03549 5.67903 5.36692
#
# Compressibility (1/GPa) = 0.04206561
#
# Stress axis : x y z
#
# Youngs Moduli (GPa) = 43.87985 55.25714 134.96556
#
# Poissons Ratio (x) = 0.12462 -0.12605
# Poissons Ratio (y) = 0.09896 0.24210
# Poissons Ratio (z) = -0.04098 0.09912
#
# Static dielectric constant tensor:
#      x y z
#    x 1.981460 0.000000 0.043900 
#    y 0.000000 2.135030 0.000000 
#    z 0.043900 0.000000 1.913510 
# 
# From -- ./inp_files/9844.got.cif
#   From: 2010.05.17/outbox.cif.g08.bks.cpg/sg4_5_cif.got.tgz:9844.got - 2010.06.03 18:43:04.
