data_PCOD9116805
_publ_section_title
;
Structure prediction by ZEFSAII (Michael W. Deem and Ramdas Pophale) SiO2 
 PCOD9116805
Probable space group: P 21
;
_chemical_formula_sum "Si O2"
_cell_formula_units_Z 10
_cell_length_a 7.687083
_cell_length_b 5.211016
_cell_length_c 9.279794
_cell_angle_alpha 90.000000
_cell_angle_beta 93.963358
_cell_angle_gamma 90.000000
_cell_volume 370.836467
_symmetry_space_group_name_H-M "P 21"
_symmetry_group_IT_number 4
_symmetry_cell_setting 'monoclinic'
loop_
_space_group_symop_operation_xyz
x,y,z
-x,1/2+y,-z
loop_
_atom_site_type_symbol
_atom_site_label
_atom_site_fract_x
_atom_site_fract_y
_atom_site_fract_z
Si Si1 0.016108 0.623130 0.337904
Si Si2 0.445482 0.075191 0.175707
Si Si3 0.648150 0.588869 0.232403
Si Si4 0.256887 0.209413 0.445993
Si Si5 0.076855 0.929960 0.071140
O O1 0.198025 0.475332 0.364915
O O2 0.932875 0.650041 0.491876
O O3 0.041188 0.872868 0.238933
O O4 0.043781 0.655363 0.995929
O O5 0.529275 0.354987 0.178127
O O6 0.364566 0.061624 0.332223
O O7 0.275276 0.025193 0.069801
O O8 0.587364 0.854220 0.157260
O O9 0.632824 0.667404 0.401861
O O10 0.851012 0.500501 0.242697
#
# Coordination Sequence:
#
# PCOD9116805 Si02
#       5
#     2   2   2   2   2
#     4  10  24  42  73 105 143 184 233 280 349 419
#     4  12  23  45  68 106 139 181 221 289 355 411
#     4  10  26  39  71 110 145 169 222 284 367 409
#     4  10  22  40  73 107 146 174 221 276 360 431
#     4  12  27  48  73  96 135 194 249 285 333 412
#
# _framework density 26.966066000000001
#
# number of rings (size 3 to 8) (size 9 to 14) (size 15 to 20)
#    1.200    0.000    0.000    6.000    2.800    1.600 
#    0.000    4.000    0.000    2.400    0.000    0.000 
#    0.000    0.000    0.000    0.000    0.000    0.000 
#
# Total GULP energy -55819.337149 kJ/mol
# GULP energy per Si atom -5581.933715 kJ/mol
# Density = 2.690469 g / cm^3
# Si number density = 26.966066 Si / 1000 Ang^3
#
#
#
# Elastic Constant Matrix: (Units=GPa)
#
#
# Indices 1 2 3 4 5 6 
#
# 1 85.6648 65.6378 46.0315 0.0000 -0.9760 0.0000
# 2 65.6378 167.4435 54.5986 0.0000 10.3040 0.0000
# 3 46.0315 54.5986 137.4449 0.0000 -5.0427 0.0000
# 4 0.0000 0.0000 0.0000 50.2562 0.0000 11.0283
# 5 -0.9760 10.3040 -5.0427 0.0000 51.1582 0.0000
# 6 0.0000 0.0000 0.0000 11.0283 0.0000 63.8359
#
#
#
# Elastic Compliance Matrix: (Units=1/GPa)
#
#
# Indices 1 2 3 4 5 6 
#
# 1 0.018299 -0.006046 -0.003682 0.000000 0.001204 0.000000
# 2 -0.006046 0.009002 -0.001627 0.000000 -0.002089 0.000000
# 3 -0.003682 -0.001627 0.009198 0.000000 0.001164 0.000000
# 4 0.000000 0.000000 0.000000 0.020682 0.000000 -0.003573
# 5 0.001204 -0.002089 0.001164 0.000000 0.020106 0.000000
# 6 0.000000 0.000000 0.000000 -0.003573 0.000000 0.016282
#
#
# Mechanical properties :
#
#
# Convention : Reuss Voigt Hill
#
# Bulk Modulus (GPa) = 72.53767 80.34322 76.44044
# Shear Modulus (GPa) = 41.36461 48.00241 44.68351
#
# Velocity S-wave (km/s) = 3.92082 4.22371 4.07508
# Velocity P-wave (km/s) = 6.88877 7.32428 7.10986
#
# Compressibility (1/GPa) = 0.01378594
#
# Stress axis : x y z
#
# Youngs Moduli (GPa) = 54.64871 111.09177 108.71842
#
# Poissons Ratio (x) = 0.67171 0.40034
# Poissons Ratio (y) = 0.33043 0.17693
# Poissons Ratio (z) = 0.20123 0.18079
#
# Static dielectric constant tensor:
#      x y z
#    x 2.099170 0.000000 0.008890 
#    y 0.000000 2.165530 0.000000 
#    z 0.008890 0.000000 2.223960 
# 
# From -- ./inp_files/5113.got.cif
#   From: 2010.05.17/outbox.cif.g08.bks.cpg/sg4_3_cif.got.tgz:5113.got - 2010.06.03 18:43:04.
