data_PCOD9116231
_publ_section_title
;
Structure prediction by ZEFSAII (Michael W. Deem and Ramdas Pophale) SiO2 
 PCOD9116231
Probable space group: P 21
;
_chemical_formula_sum "Si O2"
_cell_formula_units_Z 16
_cell_length_a 11.862433
_cell_length_b 9.483017
_cell_length_c 6.864462
_cell_angle_alpha 90.000000
_cell_angle_beta 124.214093
_cell_angle_gamma 90.000000
_cell_volume 638.560442
_symmetry_space_group_name_H-M "P 21"
_symmetry_group_IT_number 4
_symmetry_cell_setting 'monoclinic'
loop_
_space_group_symop_operation_xyz
x,y,z
-x,1/2+y,-z
loop_
_atom_site_type_symbol
_atom_site_label
_atom_site_fract_x
_atom_site_fract_y
_atom_site_fract_z
Si Si1 0.172988 0.238770 0.486939
Si Si2 0.048164 0.334914 0.737563
Si Si3 0.348619 0.029906 0.904359
Si Si4 0.482322 0.486779 0.302995
Si Si5 0.654779 0.224029 0.579129
Si Si6 0.285458 0.231983 0.177460
Si Si7 0.240363 0.735289 0.716717
Si Si8 0.101908 0.626795 0.934206
O O1 0.139849 0.349711 0.627431
O O2 0.227530 0.104960 0.662205
O O3 0.274687 0.246040 0.401196
O O4 0.026664 0.219545 0.247196
O O5 0.045613 0.468612 0.878892
O O6 0.899902 0.290118 0.519937
O O7 0.131104 0.221485 0.945229
O O8 0.472064 0.029603 0.869408
O O9 0.309892 0.867459 0.892006
O O10 0.358480 0.112759 0.116644
O O11 0.601994 0.385922 0.512578
O O12 0.442622 0.624001 0.388391
O O13 0.356147 0.378110 0.182210
O O14 0.665164 0.180550 0.363562
O O15 0.805060 0.192179 0.809073
O O16 0.200288 0.628555 0.842732
#
# Coordination Sequence:
#
# PCOD9116231 Si02
#       8
#     2   2   2   2   2   2   2   2
#     4  10  22  41  69 101 132 174 217 289 353 418
#     4  10  21  41  66 101 138 167 226 282 350 418
#     4  10  23  44  64  95 137 174 231 280 349 409
#     4  11  25  45  69 100 139 191 241 295 339 413
#     4  11  25  46  67 102 143 183 246 283 347 418
#     4  11  23  44  69  97 131 183 230 282 350 411
#     4  10  23  42  67 102 138 180 219 295 351 419
#     4  11  22  41  69 102 136 178 226 282 355 422
#
# _framework density 25.056360000000002
#
# number of rings (size 3 to 8) (size 9 to 14) (size 15 to 20)
#    0.000    1.500    2.500    1.500    1.750    5.000 
#    4.500    3.750    0.000    0.000    0.000    0.000 
#    0.000    0.000    0.000    0.000    0.000    0.000 
#
# Total GULP energy -89344.744324 kJ/mol
# GULP energy per Si atom -5584.046520 kJ/mol
# Density = 2.499933 g / cm^3
# Si number density = 25.056360 Si / 1000 Ang^3
#
#
#
# Elastic Constant Matrix: (Units=GPa)
#
#
# Indices 1 2 3 4 5 6 
#
# 1 84.6255 18.7921 37.0531 0.0000 -24.7790 0.0000
# 2 18.7921 64.9367 37.7123 0.0000 -22.7220 0.0000
# 3 37.0531 37.7123 111.7846 0.0000 -5.9330 0.0000
# 4 0.0000 0.0000 0.0000 38.9230 0.0000 -1.0219
# 5 -24.7790 -22.7220 -5.9330 0.0000 54.2279 0.0000
# 6 0.0000 0.0000 0.0000 -1.0219 0.0000 25.2435
#
#
#
# Elastic Compliance Matrix: (Units=1/GPa)
#
#
# Indices 1 2 3 4 5 6 
#
# 1 0.015987 0.000894 -0.005224 0.000000 0.007108 0.000000
# 2 0.000894 0.022649 -0.007455 0.000000 0.009083 0.000000
# 3 -0.005224 -0.007455 0.012975 0.000000 -0.004091 0.000000
# 4 0.000000 0.000000 0.000000 0.025719 0.000000 0.001041
# 5 0.007108 0.009083 -0.004091 0.000000 0.025047 0.000000
# 6 0.000000 0.000000 0.000000 0.001041 0.000000 0.039656
#
#
# Mechanical properties :
#
#
# Convention : Reuss Voigt Hill
#
# Bulk Modulus (GPa) = 35.66103 49.82907 42.74505
# Shear Modulus (GPa) = 28.57973 34.86483 31.72228
#
# Velocity S-wave (km/s) = 3.38097 3.73427 3.56200
# Velocity P-wave (km/s) = 5.43180 6.20669 5.83213
#
# Compressibility (1/GPa) = 0.02804181
#
# Stress axis : x y z
#
# Youngs Moduli (GPa) = 62.55232 44.15257 77.06973
#
# Poissons Ratio (x) = -0.03949 0.40258
# Poissons Ratio (y) = -0.05595 0.57458
# Poissons Ratio (z) = 0.32675 0.32917
#
# Static dielectric constant tensor:
#      x y z
#    x 2.070310 0.000000 0.026190 
#    y 0.000000 1.990340 0.000000 
#    z 0.026190 0.000000 1.985790 
# 
# From -- ./inp_files/2883.got.cif
#   From: 2010.05.17/outbox.cif.g08.bks.cpg/sg4_2_cif.got.tgz:2883.got - 2010.06.03 18:43:04.
