data_PCOD9116854
_publ_section_title
;
Structure prediction by ZEFSAII (Michael W. Deem and Ramdas Pophale) SiO2 
 PCOD9116854
Probable space group: P 21
;
_chemical_formula_sum "Si O2"
_cell_formula_units_Z 14
_cell_length_a 9.718667
_cell_length_b 5.018693
_cell_length_c 20.642757
_cell_angle_alpha 90.000000
_cell_angle_beta 146.537276
_cell_angle_gamma 90.000000
_cell_volume 555.171732
_symmetry_space_group_name_H-M "P 21"
_symmetry_group_IT_number 4
_symmetry_cell_setting 'monoclinic'
loop_
_space_group_symop_operation_xyz
x,y,z
-x,1/2+y,-z
loop_
_atom_site_type_symbol
_atom_site_label
_atom_site_fract_x
_atom_site_fract_y
_atom_site_fract_z
Si Si1 0.702784 0.126000 0.329958
Si Si2 0.501376 0.875270 0.955744
Si Si3 0.834516 0.604191 0.582201
Si Si4 0.981873 0.083556 0.713088
Si Si5 0.139143 0.171117 0.085513
Si Si6 0.569262 0.612218 0.353403
Si Si7 0.961945 0.296401 0.850239
O O1 0.697007 0.336898 0.385672
O O2 0.927852 0.171836 0.369927
O O3 0.435079 0.173453 0.191134
O O4 0.699633 0.836947 0.361171
O O5 0.273951 0.992623 0.824748
O O6 0.413899 0.625292 0.965551
O O7 0.747649 0.765372 0.016925
O O8 0.832792 0.811628 0.640727
O O9 0.604134 0.650474 0.443625
O O10 0.885214 0.305148 0.625408
O O11 0.964802 0.223054 0.776016
O O12 0.099633 0.088976 0.145894
O O13 0.016522 0.920974 0.999854
O O14 0.278868 0.631994 0.220365
#
# Coordination Sequence:
#
# PCOD9116854 Si02
#       7
#     2   2   2   2   2   2   2
#     4  11  24  44  68  98 139 178 231 282 343 405
#     4  10  22  41  65  95 134 183 221 268 341 412
#     4  12  25  42  71 101 140 175 238 278 330 423
#     4  11  25  42  66 104 133 185 221 283 348 399
#     4  11  25  41  67 102 131 180 227 284 343 400
#     4  11  24  45  70 100 132 190 223 286 346 389
#     4  10  25  45  69  94 143 171 229 277 347 410
#
# _framework density 25.217421999999999
#
# number of rings (size 3 to 8) (size 9 to 14) (size 15 to 20)
#    0.000    1.143    0.000    6.000    4.000   11.429 
#    0.000    0.000    0.000    0.000    0.000    0.000 
#    0.000    0.000    0.000    0.000    0.000    0.000 
#
# Total GULP energy -78319.382063 kJ/mol
# GULP energy per Si atom -5594.241576 kJ/mol
# Density = 2.516003 g / cm^3
# Si number density = 25.217422 Si / 1000 Ang^3
#
#
#
# Elastic Constant Matrix: (Units=GPa)
#
#
# Indices 1 2 3 4 5 6 
#
# 1 66.3705 13.9756 19.8188 0.0000 10.4932 0.0000
# 2 13.9756 120.0148 34.2899 0.0000 -6.4352 0.0000
# 3 19.8188 34.2899 130.5825 0.0000 2.2575 0.0000
# 4 0.0000 0.0000 0.0000 32.7630 0.0000 -16.4942
# 5 10.4932 -6.4352 2.2575 0.0000 42.9979 0.0000
# 6 0.0000 0.0000 0.0000 -16.4942 0.0000 29.6257
#
#
#
# Elastic Compliance Matrix: (Units=1/GPa)
#
#
# Indices 1 2 3 4 5 6 
#
# 1 0.016674 -0.001583 -0.002042 0.000000 -0.004199 0.000000
# 2 -0.001583 0.009253 -0.002222 0.000000 0.001888 0.000000
# 3 -0.002042 -0.002222 0.008556 0.000000 -0.000283 0.000000
# 4 0.000000 0.000000 0.000000 0.042409 0.000000 0.023611
# 5 -0.004199 0.001888 -0.000283 0.000000 0.024579 0.000000
# 6 0.000000 0.000000 0.000000 0.023611 0.000000 0.046900
#
#
# Mechanical properties :
#
#
# Convention : Reuss Voigt Hill
#
# Bulk Modulus (GPa) = 43.88302 50.34848 47.11575
# Shear Modulus (GPa) = 29.82179 37.66957 33.74568
#
# Velocity S-wave (km/s) = 3.44261 3.86915 3.66210
# Velocity P-wave (km/s) = 5.76556 6.32215 6.05026
#
# Compressibility (1/GPa) = 0.02278786
#
# Stress axis : x y z
#
# Youngs Moduli (GPa) = 59.97360 108.07575 116.87233
#
# Poissons Ratio (x) = 0.17112 0.23869
# Poissons Ratio (y) = 0.09496 0.25969
# Poissons Ratio (z) = 0.12248 0.24015
#
# Static dielectric constant tensor:
#      x y z
#    x 2.014870 0.000000 -0.016460 
#    y 0.000000 1.938010 0.000000 
#    z -0.016460 0.000000 2.014220 
# 
# From -- ./inp_files/15598.got.cif
#   From: 2010.05.17/outbox.cif.g08.bks.cpg/sg4_8_cif.got.tgz:15598.got - 2010.06.03 18:43:04.
