data_PCOD9116779
_publ_section_title
;
Structure prediction by ZEFSAII (Michael W. Deem and Ramdas Pophale) SiO2 
 PCOD9116779
Probable space group: P 21
;
_chemical_formula_sum "Si O2"
_cell_formula_units_Z 16
_cell_length_a 17.850457
_cell_length_b 5.170427
_cell_length_c 8.845311
_cell_angle_alpha 90.000000
_cell_angle_beta 116.357712
_cell_angle_gamma 90.000000
_cell_volume 731.502985
_symmetry_space_group_name_H-M "P 21"
_symmetry_group_IT_number 4
_symmetry_cell_setting 'monoclinic'
loop_
_space_group_symop_operation_xyz
x,y,z
-x,1/2+y,-z
loop_
_atom_site_type_symbol
_atom_site_label
_atom_site_fract_x
_atom_site_fract_y
_atom_site_fract_z
Si Si1 0.564493 0.030260 0.717722
Si Si2 0.200078 0.986541 0.687694
Si Si3 0.960248 0.229203 0.892331
Si Si4 0.386397 0.030536 0.422545
Si Si5 0.714834 0.991315 0.313378
Si Si6 0.788328 0.316594 0.622114
Si Si7 0.975905 0.626521 0.384424
Si Si8 0.550385 0.094324 0.039657
O O1 0.592812 0.303321 0.676829
O O2 0.588303 0.008652 0.913244
O O3 0.463045 0.016751 0.611228
O O4 0.603920 0.803656 0.652445
O O5 0.266440 0.214760 0.737869
O O6 0.170246 0.962476 0.485121
O O7 0.121406 0.052498 0.717816
O O8 0.242950 0.712184 0.753561
O O9 0.860069 0.270674 0.807874
O O10 0.982086 0.150226 0.740266
O O11 0.006801 0.495419 0.975053
O O12 0.294630 0.970202 0.404035
O O13 0.755604 0.052123 0.512851
O O14 0.617313 0.049705 0.230432
O O15 0.017340 0.395655 0.518508
O O16 0.523860 0.390964 0.001697
#
# Coordination Sequence:
#
# PCOD9116779 Si02
#       8
#     2   2   2   2   2   2   2   2
#     4  10  23  41  60 100 128 170 225 253 345 392
#     4  10  22  40  68  99 122 173 234 281 323 424
#     4  12  28  46  69 107 145 179 235 302 368 422
#     4  10  22  40  68  86 133 180 209 271 316 426
#     4  10  23  39  66 100 130 166 230 277 331 408
#     4  10  24  44  71  95 133 177 238 264 354 409
#     4  12  22  45  77  99 135 185 232 294 356 434
#     4  12  24  41  67  96 134 170 217 294 337 393
#
# _framework density 21.872774
#
# number of rings (size 3 to 8) (size 9 to 14) (size 15 to 20)
#    0.750    0.500    1.250    4.500    5.250    1.000 
#    6.750    0.000    0.000    0.000    0.000    0.000 
#    0.000    0.000    0.000    0.000    0.000    0.000 
#
# Total GULP energy -89388.409816 kJ/mol
# GULP energy per Si atom -5586.775613 kJ/mol
# Density = 2.182299 g / cm^3
# Si number density = 21.872774 Si / 1000 Ang^3
#
#
#
# Elastic Constant Matrix: (Units=GPa)
#
#
# Indices 1 2 3 4 5 6 
#
# 1 73.6447 -7.2283 11.4318 0.0000 9.1005 0.0000
# 2 -7.2283 72.1393 14.9276 0.0000 2.4081 0.0000
# 3 11.4318 14.9276 51.1040 0.0000 16.4910 0.0000
# 4 0.0000 0.0000 0.0000 27.1791 0.0000 5.7085
# 5 9.1005 2.4081 16.4910 0.0000 32.3001 0.0000
# 6 0.0000 0.0000 0.0000 5.7085 0.0000 23.1370
#
#
#
# Elastic Compliance Matrix: (Units=1/GPa)
#
#
# Indices 1 2 3 4 5 6 
#
# 1 0.014599 0.002179 -0.003020 0.000000 -0.002734 0.000000
# 2 0.002179 0.015126 -0.005201 0.000000 0.000914 0.000000
# 3 -0.003020 -0.005201 0.025577 0.000000 -0.011820 0.000000
# 4 0.000000 0.000000 0.000000 0.038804 0.000000 -0.009574
# 5 -0.002734 0.000914 -0.011820 0.000000 0.037696 0.000000
# 6 0.000000 0.000000 0.000000 -0.009574 0.000000 0.045583
#
#
# Mechanical properties :
#
#
# Convention : Reuss Voigt Hill
#
# Bulk Modulus (GPa) = 23.13811 26.12778 24.63294
# Shear Modulus (GPa) = 24.52486 28.37370 26.44928
#
# Velocity S-wave (km/s) = 3.35214 3.60559 3.48118
# Velocity P-wave (km/s) = 5.05806 5.41341 5.23875
#
# Compressibility (1/GPa) = 0.04321875
#
# Stress axis : x y z
#
# Youngs Moduli (GPa) = 68.49679 66.11108 39.09799
#
# Poissons Ratio (x) = -0.14406 0.11808
# Poissons Ratio (y) = -0.14926 0.20333
# Poissons Ratio (z) = 0.20687 0.34382
#
# Static dielectric constant tensor:
#      x y z
#    x 1.839340 0.000000 0.015590 
#    y 0.000000 1.795880 0.000000 
#    z 0.015590 0.000000 1.815310 
# 
# From -- ./inp_files/9402.got.cif
#   From: 2010.05.17/outbox.cif.g08.bks.cpg/sg4_5_cif.got.tgz:9402.got - 2010.06.03 18:43:04.
