data_PCOD9116574
_publ_section_title
;
Structure prediction by ZEFSAII (Michael W. Deem and Ramdas Pophale) SiO2 
 PCOD9116574
Probable space group: P 21
;
_chemical_formula_sum "Si O2"
_cell_formula_units_Z 16
_cell_length_a 7.582857
_cell_length_b 13.496319
_cell_length_c 8.325607
_cell_angle_alpha 90.000000
_cell_angle_beta 123.372771
_cell_angle_gamma 90.000000
_cell_volume 711.553350
_symmetry_space_group_name_H-M "P 21"
_symmetry_group_IT_number 4
_symmetry_cell_setting 'monoclinic'
loop_
_space_group_symop_operation_xyz
x,y,z
-x,1/2+y,-z
loop_
_atom_site_type_symbol
_atom_site_label
_atom_site_fract_x
_atom_site_fract_y
_atom_site_fract_z
Si Si1 0.269765 0.571010 0.482187
Si Si2 0.658464 0.642483 0.159691
Si Si3 0.663528 0.218193 0.757928
Si Si4 0.957861 0.252766 0.512667
Si Si5 0.853901 0.447200 0.336590
Si Si6 0.290856 0.069618 0.174338
Si Si7 0.743022 0.767487 0.644729
Si Si8 0.940849 0.386446 0.035451
O O1 0.263029 0.620332 0.302012
O O2 0.217827 0.667885 0.565710
O O3 0.496732 0.527745 0.637794
O O4 0.087242 0.493663 0.429251
O O5 0.454084 0.690137 0.136128
O O6 0.712766 0.544091 0.292580
O O7 0.857896 0.717367 0.273910
O O8 0.650168 0.604117 0.975440
O O9 0.484292 0.267707 0.553592
O O10 0.845372 0.295631 0.888151
O O11 0.858223 0.361959 0.471890
O O12 0.085441 0.256905 0.410431
O O13 0.809662 0.400044 0.138205
O O14 0.238307 0.167635 0.244993
O O15 0.106180 0.988963 0.076770
O O16 0.821287 0.858014 0.794485
#
# Coordination Sequence:
#
# PCOD9116574 Si02
#       8
#     2   2   2   2   2   2   2   2
#     4  10  22  40  63  91 126 158 202 254 301 358
#     4   9  20  38  59  87 124 155 206 250 297 364
#     4  10  22  41  63  86 121 166 195 254 303 354
#     4   9  19  39  63  82 121 167 191 249 305 353
#     4   9  20  40  62  88 121 163 200 251 304 362
#     4  10  22  39  63  93 119 160 205 251 303 361
#     4   9  21  41  60  88 125 156 199 251 304 357
#     4  10  22  36  67  85 121 157 206 244 305 359
#
# _framework density 22.486014999999998
#
# number of rings (size 3 to 8) (size 9 to 14) (size 15 to 20)
#    0.000    2.500    0.000    0.000   14.000    0.000 
#    9.000    0.000    0.000    0.000    0.000    0.000 
#    0.000    0.000    0.000    0.000    0.000    0.000 
#
# Total GULP energy -89319.837342 kJ/mol
# GULP energy per Si atom -5582.489834 kJ/mol
# Density = 2.243484 g / cm^3
# Si number density = 22.486015 Si / 1000 Ang^3
#
#
#
# Elastic Constant Matrix: (Units=GPa)
#
#
# Indices 1 2 3 4 5 6 
#
# 1 35.0870 -1.3144 -0.0981 0.0000 -0.1838 0.0000
# 2 -1.3144 77.0668 28.0986 0.0000 2.4974 0.0000
# 3 -0.0981 28.0986 59.1598 0.0000 1.5408 0.0000
# 4 0.0000 0.0000 0.0000 30.7299 0.0000 -3.9199
# 5 -0.1838 2.4974 1.5408 0.0000 16.3986 0.0000
# 6 0.0000 0.0000 0.0000 -3.9199 0.0000 27.9788
#
#
#
# Elastic Compliance Matrix: (Units=1/GPa)
#
#
# Indices 1 2 3 4 5 6 
#
# 1 0.028522 0.000560 -0.000226 0.000000 0.000255 0.000000
# 2 0.000560 0.015751 -0.007436 0.000000 -0.001694 0.000000
# 3 -0.000226 -0.007436 0.020456 0.000000 -0.000792 0.000000
# 4 0.000000 0.000000 0.000000 0.033134 0.000000 0.004642
# 5 0.000255 -0.001694 -0.000792 0.000000 0.061316 0.000000
# 6 0.000000 0.000000 0.000000 0.004642 0.000000 0.036392
#
#
# Mechanical properties :
#
#
# Convention : Reuss Voigt Hill
#
# Bulk Modulus (GPa) = 19.79158 24.96509 22.37833
# Shear Modulus (GPa) = 22.06377 24.66330 23.36353
#
# Velocity S-wave (km/s) = 3.13584 3.31543 3.22689
# Velocity P-wave (km/s) = 4.68318 5.07767 4.88441
#
# Compressibility (1/GPa) = 0.05052654
#
# Stress axis : x y z
#
# Youngs Moduli (GPa) = 35.06029 63.48614 48.88648
#
# Poissons Ratio (x) = -0.03558 0.01102
# Poissons Ratio (y) = -0.01965 0.36353
# Poissons Ratio (z) = 0.00791 0.47210
#
# Static dielectric constant tensor:
#      x y z
#    x 1.807550 0.000000 0.004240 
#    y 0.000000 1.900270 0.000000 
#    z 0.004240 0.000000 1.898080 
# 
# From -- ./inp_files/6783.got.cif
#   From: 2010.05.17/outbox.cif.g08.bks.cpg/sg4_4_cif.got.tgz:6783.got - 2010.06.03 18:43:04.
