data_PCOD9116359
_publ_section_title
;
Structure prediction by ZEFSAII (Michael W. Deem and Ramdas Pophale) SiO2 
 PCOD9116359
Probable space group: P 21
;
_chemical_formula_sum "Si O2"
_cell_formula_units_Z 12
_cell_length_a 4.837996
_cell_length_b 17.162155
_cell_length_c 5.370223
_cell_angle_alpha 90.000000
_cell_angle_beta 83.254126
_cell_angle_gamma 90.000000
_cell_volume 442.805017
_symmetry_space_group_name_H-M "P 21"
_symmetry_group_IT_number 4
_symmetry_cell_setting 'monoclinic'
loop_
_space_group_symop_operation_xyz
x,y,z
-x,1/2+y,-z
loop_
_atom_site_type_symbol
_atom_site_label
_atom_site_fract_x
_atom_site_fract_y
_atom_site_fract_z
Si Si1 0.701693 0.617520 0.206680
Si Si2 0.064830 0.702420 0.812643
Si Si3 0.438700 0.820749 0.001739
Si Si4 0.560535 0.765684 0.494431
Si Si5 0.152828 0.981493 0.108784
Si Si6 0.655014 0.043693 0.390689
O O1 0.714440 0.682503 0.428553
O O2 0.423041 0.572285 0.323794
O O3 0.771385 0.673269 0.964052
O O4 0.880522 0.540913 0.120598
O O5 0.218837 0.749178 0.019584
O O6 0.227011 0.751974 0.577945
O O7 0.208989 0.619802 0.745087
O O8 0.590633 0.816616 0.248105
O O9 0.271310 0.900486 0.999430
O O10 0.642462 0.807524 0.743083
O O11 0.380444 0.019761 0.269855
O O12 0.879000 0.977677 0.306908
#
# Coordination Sequence:
#
# PCOD9116359 Si02
#       6
#     2   2   2   2   2   2
#     4  10  21  42  73 100 139 188 244 287 353 424
#     4   8  20  40  67 100 131 186 239 288 349 420
#     4  10  22  43  65 101 150 178 245 290 368 407
#     4   9  21  42  64  99 136 189 235 296 340 436
#     4  11  25  42  68 103 148 185 236 296 367 412
#     4  10  23  43  67 101 136 188 235 293 349 435
#
# _framework density 27.099968000000001
#
# number of rings (size 3 to 8) (size 9 to 14) (size 15 to 20)
#    1.000    1.333    0.000    1.000    2.333    8.000 
#    0.000    0.000    0.000    0.000    0.000    0.000 
#    0.000    0.000    0.000    0.000    0.000    0.000 
#
# Total GULP energy -66805.968122 kJ/mol
# GULP energy per Si atom -5567.164010 kJ/mol
# Density = 2.703829 g / cm^3
# Si number density = 27.099968 Si / 1000 Ang^3
#
#
#
# Elastic Constant Matrix: (Units=GPa)
#
#
# Indices 1 2 3 4 5 6 
#
# 1 79.8115 11.3020 43.7397 0.0000 -20.9067 0.0000
# 2 11.3020 78.4288 32.0896 0.0000 -8.0492 0.0000
# 3 43.7397 32.0896 189.7085 0.0000 -14.8521 0.0000
# 4 0.0000 0.0000 0.0000 24.8896 0.0000 -5.6841
# 5 -20.9067 -8.0492 -14.8521 0.0000 34.3782 0.0000
# 6 0.0000 0.0000 0.0000 -5.6841 0.0000 22.9564
#
#
#
# Elastic Compliance Matrix: (Units=1/GPa)
#
#
# Indices 1 2 3 4 5 6 
#
# 1 0.016526 -0.000227 -0.003094 0.000000 0.008660 0.000000
# 2 -0.000227 0.013877 -0.002123 0.000000 0.002194 0.000000
# 3 -0.003094 -0.002123 0.006373 0.000000 0.000375 0.000000
# 4 0.000000 0.000000 0.000000 0.042586 0.000000 0.010544
# 5 0.008660 0.002194 0.000375 0.000000 0.035030 0.000000
# 6 0.000000 0.000000 0.000000 0.010544 0.000000 0.046172
#
#
# Mechanical properties :
#
#
# Convention : Reuss Voigt Hill
#
# Bulk Modulus (GPa) = 38.62799 58.02350 48.32575
# Shear Modulus (GPa) = 27.76537 33.83267 30.79902
#
# Velocity S-wave (km/s) = 3.20434 3.53716 3.37485
# Velocity P-wave (km/s) = 5.28916 6.17571 5.74955
#
# Compressibility (1/GPa) = 0.02588796
#
# Stress axis : x y z
#
# Youngs Moduli (GPa) = 60.51171 72.06165 156.91037
#
# Poissons Ratio (x) = 0.01634 0.48546
# Poissons Ratio (y) = 0.01372 0.33317
# Poissons Ratio (z) = 0.18721 0.15301
#
# Static dielectric constant tensor:
#      x y z
#    x 2.261070 0.000000 0.047000 
#    y 0.000000 2.088720 0.000000 
#    z 0.047000 0.000000 2.192230 
# 
# From -- ./inp_files/589.got.cif
#   From: 2010.05.17/outbox.cif.g08.bks.cpg/sg4_1_cif.got.tgz:589.got - 2010.06.03 18:43:04.
