data_PCOD9116741
_publ_section_title
;
Structure prediction by ZEFSAII (Michael W. Deem and Ramdas Pophale) SiO2 
 PCOD9116741
Probable space group: P 21
;
_chemical_formula_sum "Si O2"
_cell_formula_units_Z 16
_cell_length_a 8.962210
_cell_length_b 12.952041
_cell_length_c 5.248637
_cell_angle_alpha 90.000000
_cell_angle_beta 106.993866
_cell_angle_gamma 90.000000
_cell_volume 582.653543
_symmetry_space_group_name_H-M "P 21"
_symmetry_group_IT_number 4
_symmetry_cell_setting 'monoclinic'
loop_
_space_group_symop_operation_xyz
x,y,z
-x,1/2+y,-z
loop_
_atom_site_type_symbol
_atom_site_label
_atom_site_fract_x
_atom_site_fract_y
_atom_site_fract_z
Si Si1 0.914147 0.333390 0.829132
Si Si2 0.923266 0.515764 0.543355
Si Si3 0.162961 0.457503 0.296469
Si Si4 0.816934 0.706635 0.278959
Si Si5 0.573761 0.840302 0.815238
Si Si6 0.170138 0.639193 0.947174
Si Si7 0.570412 0.662554 0.524451
Si Si8 0.518009 0.047046 0.041465
O O1 0.015727 0.256574 0.699698
O O2 0.827877 0.424905 0.631284
O O3 0.043060 0.398188 0.051158
O O4 0.822847 0.259140 0.978833
O O5 0.841257 0.581314 0.278893
O O6 0.074013 0.454728 0.514812
O O7 0.002643 0.604210 0.755012
O O8 0.330143 0.408727 0.338783
O O9 0.181705 0.574161 0.212759
O O10 0.735528 0.712061 0.516791
O O11 0.693906 0.767458 0.037041
O O12 0.476176 0.758064 0.602206
O O13 0.505735 0.926262 0.969583
O O14 0.304073 0.588985 0.838133
O O15 0.572752 0.579605 0.750753
O O16 0.520451 0.610572 0.236512
#
# Coordination Sequence:
#
# PCOD9116741 Si02
#       8
#     2   2   2   2   2   2   2   2
#     4  10  22  40  65 106 145 181 225 296 373 433
#     4  11  23  39  70 108 141 184 233 299 368 450
#     4   9  20  39  67 100 139 181 235 284 356 454
#     4  11  24  44  76 108 145 190 241 300 370 440
#     4  10  24  47  75 104 143 198 249 292 374 429
#     4  10  23  42  64 101 145 186 235 297 361 432
#     4  12  26  49  73 108 140 196 252 310 348 432
#     4  11  28  48  76 103 146 194 260 296 358 440
#
# _framework density 27.460571999999999
#
# number of rings (size 3 to 8) (size 9 to 14) (size 15 to 20)
#    0.000    1.500    2.500    1.500   10.500    0.000 
#    4.500    0.000    0.000    0.000    0.000    0.000 
#    0.000    0.000    0.000    0.000    0.000    0.000 
#
# Total GULP energy -89373.748115 kJ/mol
# GULP energy per Si atom -5585.859257 kJ/mol
# Density = 2.739807 g / cm^3
# Si number density = 27.460572 Si / 1000 Ang^3
#
#
#
# Elastic Constant Matrix: (Units=GPa)
#
#
# Indices 1 2 3 4 5 6 
#
# 1 41.2391 19.6518 24.9955 0.0000 -15.9684 0.0000
# 2 19.6518 149.4799 46.6611 0.0000 -1.1822 0.0000
# 3 24.9955 46.6611 120.3274 0.0000 -9.3045 0.0000
# 4 0.0000 0.0000 0.0000 52.0672 0.0000 -16.1819
# 5 -15.9684 -1.1822 -9.3045 0.0000 35.8768 0.0000
# 6 0.0000 0.0000 0.0000 -16.1819 0.0000 37.5060
#
#
#
# Elastic Compliance Matrix: (Units=1/GPa)
#
#
# Indices 1 2 3 4 5 6 
#
# 1 0.033860 -0.002820 -0.004880 0.000000 0.013712 0.000000
# 2 -0.002820 0.007856 -0.002590 0.000000 -0.001668 0.000000
# 3 -0.004880 -0.002590 0.010362 0.000000 0.000430 0.000000
# 4 0.000000 0.000000 0.000000 0.022180 0.000000 0.009570
# 5 0.013712 -0.001668 0.000430 0.000000 0.034033 0.000000
# 6 0.000000 0.000000 0.000000 0.009570 0.000000 0.030791
#
#
# Mechanical properties :
#
#
# Convention : Reuss Voigt Hill
#
# Bulk Modulus (GPa) = 31.74704 54.85145 43.29925
# Shear Modulus (GPa) = 29.38419 39.73921 34.56170
#
# Velocity S-wave (km/s) = 3.27471 3.80825 3.55152
# Velocity P-wave (km/s) = 5.08767 6.27336 5.71137
#
# Compressibility (1/GPa) = 0.03149900
#
# Stress axis : x y z
#
# Youngs Moduli (GPa) = 29.53348 127.29573 96.50841
#
# Poissons Ratio (x) = 0.35894 0.47095
# Poissons Ratio (y) = 0.08328 0.24991
# Poissons Ratio (z) = 0.14412 0.32964
#
# Static dielectric constant tensor:
#      x y z
#    x 2.297850 0.000000 0.098330 
#    y 0.000000 2.200050 0.000000 
#    z 0.098330 0.000000 2.173700 
# 
# From -- ./inp_files/2824.got.cif
#   From: 2010.05.17/outbox.cif.g08.bks.cpg/sg4_2_cif.got.tgz:2824.got - 2010.06.03 18:43:04.
