data_PCOD9116010
_publ_section_title
;
Structure prediction by ZEFSAII (Michael W. Deem and Ramdas Pophale) SiO2 
 PCOD9116010
Probable space group: P 21
;
_chemical_formula_sum "Si O2"
_cell_formula_units_Z 14
_cell_length_a 16.341830
_cell_length_b 6.867642
_cell_length_c 15.441543
_cell_angle_alpha 90.000000
_cell_angle_beta 163.561085
_cell_angle_gamma 90.000000
_cell_volume 490.427317
_symmetry_space_group_name_H-M "P 21"
_symmetry_group_IT_number 4
_symmetry_cell_setting 'monoclinic'
loop_
_space_group_symop_operation_xyz
x,y,z
-x,1/2+y,-z
loop_
_atom_site_type_symbol
_atom_site_label
_atom_site_fract_x
_atom_site_fract_y
_atom_site_fract_z
Si Si1 0.338061 0.579070 0.170541
Si Si2 0.813475 0.692281 0.757080
Si Si3 0.778066 0.338940 0.089572
Si Si4 0.863506 0.308348 0.465637
Si Si5 0.671475 0.229456 0.600137
Si Si6 0.263375 0.568439 0.506222
Si Si7 0.348355 0.076593 0.879903
O O1 0.555427 0.745546 0.428250
O O2 0.501929 0.387157 0.369828
O O3 0.298812 0.632237 0.030479
O O4 0.036086 0.593113 0.914464
O O5 0.576975 0.631234 0.592975
O O6 0.061483 0.797626 0.067371
O O7 0.726457 0.388314 0.136546
O O8 0.098863 0.390670 0.385192
O O9 0.596327 0.514249 0.858703
O O10 0.824415 0.259358 0.526877
O O11 0.751553 0.513871 0.316528
O O12 0.178438 0.258803 0.748895
O O13 0.674587 0.135704 0.228708
O O14 0.817008 0.096120 0.675115
#
# Coordination Sequence:
#
# PCOD9116010 Si02
#       7
#     2   2   2   2   2   2   2
#     4  11  23  40  61  88 118 156 205 247 294 357
#     4  10  24  38  56  84 118 150 192 250 296 340
#     4  10  22  39  60  87 121 158 195 243 302 355
#     4  10  21  39  62  91 123 159 201 243 296 357
#     4  11  23  40  61  88 118 156 205 247 294 357
#     4  10  22  39  60  87 121 158 195 243 302 355
#     4  10  21  39  62  91 123 159 201 243 296 357
#
# _framework density 28.546534000000001
#
# number of rings (size 3 to 8) (size 9 to 14) (size 15 to 20)
#    0.000    1.714    0.000    3.429    0.000   12.571 
#    0.000    2.857    0.000    0.000    0.000    0.000 
#    0.000    0.000    0.000    0.000    0.000    0.000 
#
# Total GULP energy -78176.001415 kJ/mol
# GULP energy per Si atom -5584.000101 kJ/mol
# Density = 2.848156 g / cm^3
# Si number density = 28.546534 Si / 1000 Ang^3
#
#
#
# Elastic Constant Matrix: (Units=GPa)
#
#
# Indices 1 2 3 4 5 6 
#
# 1 106.0295 14.1162 23.2423 0.0000 3.8938 0.0000
# 2 14.1162 45.5453 -6.8663 0.0000 5.3332 0.0000
# 3 23.2423 -6.8663 120.0739 0.0000 14.4937 0.0000
# 4 0.0000 0.0000 0.0000 36.3219 0.0000 -7.5153
# 5 3.8938 5.3332 14.4937 0.0000 33.2541 0.0000
# 6 0.0000 0.0000 0.0000 -7.5153 0.0000 41.5135
#
#
#
# Elastic Compliance Matrix: (Units=1/GPa)
#
#
# Indices 1 2 3 4 5 6 
#
# 1 0.010394 -0.003602 -0.002260 0.000000 0.000346 0.000000
# 2 -0.003602 0.024003 0.002622 0.000000 -0.004570 0.000000
# 3 -0.002260 0.002622 0.009430 0.000000 -0.004266 0.000000
# 4 0.000000 0.000000 0.000000 0.028603 0.000000 0.005178
# 5 0.000346 -0.004570 -0.004266 0.000000 0.032623 0.000000
# 6 0.000000 0.000000 0.000000 0.005178 0.000000 0.025026
#
#
# Mechanical properties :
#
#
# Convention : Reuss Voigt Hill
#
# Bulk Modulus (GPa) = 26.77649 36.95923 31.86786
# Shear Modulus (GPa) = 33.55501 38.29499 35.92500
#
# Velocity S-wave (km/s) = 3.43220 3.66661 3.55134
# Velocity P-wave (km/s) = 5.01069 5.55882 5.29186
#
# Compressibility (1/GPa) = 0.03734619
#
# Stress axis : x y z
#
# Youngs Moduli (GPa) = 96.21334 41.66132 106.03954
#
# Poissons Ratio (x) = 0.15008 0.23960
# Poissons Ratio (y) = 0.34661 -0.27799
# Poissons Ratio (z) = 0.21740 -0.10922
#
# Static dielectric constant tensor:
#      x y z
#    x 2.168040 0.000000 -0.034230 
#    y 0.000000 2.567130 0.000000 
#    z -0.034230 0.000000 2.067160 
# 
# From -- ./inp_files/14201.got.cif
#   From: 2010.05.17/outbox.cif.g08.bks.cpg/sg4_8_cif.got.tgz:14201.got - 2010.06.03 18:43:04.
