data_PCOD9116016
_publ_section_title
;
Structure prediction by ZEFSAII (Michael W. Deem and Ramdas Pophale) SiO2 
 PCOD9116016
Probable space group: P 21
;
_chemical_formula_sum "Si O2"
_cell_formula_units_Z 12
_cell_length_a 5.109086
_cell_length_b 4.866363
_cell_length_c 24.037457
_cell_angle_alpha 90.000000
_cell_angle_beta 50.721173
_cell_angle_gamma 90.000000
_cell_volume 462.614069
_symmetry_space_group_name_H-M "P 21"
_symmetry_group_IT_number 4
_symmetry_cell_setting 'monoclinic'
loop_
_space_group_symop_operation_xyz
x,y,z
-x,1/2+y,-z
loop_
_atom_site_type_symbol
_atom_site_label
_atom_site_fract_x
_atom_site_fract_y
_atom_site_fract_z
Si Si1 0.291496 0.099110 0.631354
Si Si2 0.321678 0.307437 0.049221
Si Si3 0.458828 0.865824 0.857523
Si Si4 0.566621 0.595459 0.658475
Si Si5 0.854866 0.248079 0.486602
Si Si6 0.623775 0.385605 0.764001
O O1 0.929498 0.230689 0.691088
O O2 0.472447 0.142315 0.547213
O O3 0.525691 0.296324 0.638022
O O4 0.344913 0.803767 0.651583
O O5 0.395435 0.420559 0.101057
O O6 0.927625 0.262328 0.089825
O O7 0.473716 0.526742 0.985847
O O8 0.686259 0.624940 0.800093
O O9 0.451736 0.138787 0.820576
O O10 0.454444 0.557823 0.736790
O O11 0.951955 0.704642 0.597856
O O12 0.928427 0.545191 0.501917
#
# Coordination Sequence:
#
# PCOD9116016 Si02
#       6
#     2   2   2   2   2   2
#     4  10  21  39  63  89 137 185 245 305 367 430
#     4  12  26  52  80 110 144 188 234 290 350 436
#     4  12  28  45  77 112 150 186 238 290 364 442
#     4  10  21  39  63  89 137 185 245 305 367 430
#     4   8  16  34  58  86 118 182 242 304 358 416
#     4  12  26  41  65 108 140 194 230 300 370 444
#
# _framework density 25.939546
#
# number of rings (size 3 to 8) (size 9 to 14) (size 15 to 20)
#    0.000    1.333    0.000    5.000    7.000    0.000 
#    0.000   11.667    0.000    0.000    0.000    0.000 
#    0.000    0.000    0.000    0.000    0.000    0.000 
#
# Total GULP energy -67182.348385 kJ/mol
# GULP energy per Si atom -5598.529032 kJ/mol
# Density = 2.588051 g / cm^3
# Si number density = 25.939546 Si / 1000 Ang^3
#
#
#
# Elastic Constant Matrix: (Units=GPa)
#
#
# Indices 1 2 3 4 5 6 
#
# 1 108.1592 8.5086 36.8827 0.0000 -6.5343 0.0000
# 2 8.5086 126.3692 30.4916 0.0000 4.2324 0.0000
# 3 36.8827 30.4916 67.1561 0.0000 9.3046 0.0000
# 4 0.0000 0.0000 0.0000 45.5303 0.0000 -7.2133
# 5 -6.5343 4.2324 9.3046 0.0000 42.2584 0.0000
# 6 0.0000 0.0000 0.0000 -7.2133 0.0000 24.0763
#
#
#
# Elastic Compliance Matrix: (Units=1/GPa)
#
#
# Indices 1 2 3 4 5 6 
#
# 1 0.011906 0.000871 -0.007403 0.000000 0.003384 0.000000
# 2 0.000871 0.008951 -0.004577 0.000000 0.000246 0.000000
# 3 -0.007403 -0.004577 0.021795 0.000000 -0.005485 0.000000
# 4 0.000000 0.000000 0.000000 0.023058 0.000000 0.006908
# 5 0.003384 0.000246 -0.005485 0.000000 0.025370 0.000000
# 6 0.000000 0.000000 0.000000 0.006908 0.000000 0.043604
#
#
# Mechanical properties :
#
#
# Convention : Reuss Voigt Hill
#
# Bulk Modulus (GPa) = 48.93773 50.38338 49.66056
# Shear Modulus (GPa) = 30.54132 37.42643 33.98387
#
# Velocity S-wave (km/s) = 3.43505 3.80258 3.62348
# Velocity P-wave (km/s) = 5.88556 6.22456 6.05743
#
# Compressibility (1/GPa) = 0.02043413
#
# Stress axis : x y z
#
# Youngs Moduli (GPa) = 83.99050 111.72296 45.88281
#
# Poissons Ratio (x) = -0.09735 0.33969
# Poissons Ratio (y) = -0.07319 0.20999
# Poissons Ratio (z) = 0.62182 0.51132
#
# Static dielectric constant tensor:
#      x y z
#    x 2.020810 0.000000 -0.024820 
#    y 0.000000 1.953380 0.000000 
#    z -0.024820 0.000000 2.151160 
# 
# From -- ./inp_files/4184.got.cif
#   From: 2010.05.17/outbox.cif.g08.bks.cpg/sg4_3_cif.got.tgz:4184.got - 2010.06.03 18:43:04.
