data_PCOD9116270
_publ_section_title
;
Structure prediction by ZEFSAII (Michael W. Deem and Ramdas Pophale) SiO2 
 PCOD9116270
Probable space group: P 21
;
_chemical_formula_sum "Si O2"
_cell_formula_units_Z 12
_cell_length_a 13.295424
_cell_length_b 7.632597
_cell_length_c 9.199437
_cell_angle_alpha 90.000000
_cell_angle_beta 150.739140
_cell_angle_gamma 90.000000
_cell_volume 456.304837
_symmetry_space_group_name_H-M "P 21"
_symmetry_group_IT_number 4
_symmetry_cell_setting 'monoclinic'
loop_
_space_group_symop_operation_xyz
x,y,z
-x,1/2+y,-z
loop_
_atom_site_type_symbol
_atom_site_label
_atom_site_fract_x
_atom_site_fract_y
_atom_site_fract_z
Si Si1 0.421385 0.910810 0.597614
Si Si2 0.211015 0.990394 0.054129
Si Si3 0.872621 0.866593 0.018454
Si Si4 0.299452 0.454203 0.805301
Si Si5 0.993281 0.664149 0.624547
Si Si6 0.339348 0.514837 0.516619
O O1 0.282372 0.015290 0.311404
O O2 0.646729 0.902045 0.805248
O O3 0.317931 0.721380 0.464282
O O4 0.486070 0.968895 0.838686
O O5 0.083992 0.168991 0.878663
O O6 0.428206 0.977979 0.243654
O O7 0.094937 0.820267 0.848449
O O8 0.825570 0.912335 0.791122
O O9 0.026756 0.002267 0.289237
O O10 0.144097 0.588199 0.689896
O O11 0.328286 0.479095 0.672003
O O12 0.202381 0.257910 0.695187
#
# Coordination Sequence:
#
# PCOD9116270 Si02
#       6
#     2   2   2   2   2   2
#     4   9  20  40  67 101 132 172 229 284 339 403
#     4  10  21  43  77  95 133 183 231 276 343 419
#     4   9  20  41  71  95 132 177 225 272 341 410
#     4  11  27  42  68 102 143 181 226 288 355 396
#     4  11  25  47  62  98 141 189 218 276 358 416
#     4  10  21  41  69 105 129 172 239 286 328 402
#
# _framework density 26.298207999999999
#
# number of rings (size 3 to 8) (size 9 to 14) (size 15 to 20)
#    0.000    2.000    1.667    0.000   16.333    0.000 
#    3.000    1.667    0.000    0.000    0.000    0.000 
#    0.000    0.000    0.000    0.000    0.000    0.000 
#
# Total GULP energy -67201.488399 kJ/mol
# GULP energy per Si atom -5600.124033 kJ/mol
# Density = 2.623835 g / cm^3
# Si number density = 26.298208 Si / 1000 Ang^3
#
#
#
# Elastic Constant Matrix: (Units=GPa)
#
#
# Indices 1 2 3 4 5 6 
#
# 1 129.0091 26.9106 82.7510 0.0000 -24.8225 0.0000
# 2 26.9106 136.8776 52.5825 0.0000 -15.4074 0.0000
# 3 82.7510 52.5825 154.4763 0.0000 -34.4218 0.0000
# 4 0.0000 0.0000 0.0000 34.0948 0.0000 -16.6644
# 5 -24.8225 -15.4074 -34.4218 0.0000 63.2852 0.0000
# 6 0.0000 0.0000 0.0000 -16.6644 0.0000 13.4522
#
#
#
# Elastic Compliance Matrix: (Units=1/GPa)
#
#
# Indices 1 2 3 4 5 6 
#
# 1 0.011916 0.000169 -0.006133 0.000000 0.001379 0.000000
# 2 0.000169 0.008425 -0.002829 0.000000 0.000578 0.000000
# 3 -0.006133 -0.002829 0.011416 0.000000 0.003115 0.000000
# 4 0.000000 0.000000 0.000000 0.074343 0.000000 0.092095
# 5 0.001379 0.000578 0.003115 0.000000 0.018177 0.000000
# 6 0.000000 0.000000 0.000000 0.092095 0.000000 0.188423
#
#
# Mechanical properties :
#
#
# Convention : Reuss Voigt Hill
#
# Bulk Modulus (GPa) = 70.57714 82.76126 76.66920
# Shear Modulus (GPa) = 14.92491 39.37437 27.14964
#
# Velocity S-wave (km/s) = 2.38486 3.87360 3.21655
# Velocity P-wave (km/s) = 5.87188 7.17948 6.55835
#
# Compressibility (1/GPa) = 0.01416889
#
# Stress axis : x y z
#
# Youngs Moduli (GPa) = 83.92409 118.70039 87.59585
#
# Poissons Ratio (x) = -0.02002 0.53724
# Poissons Ratio (y) = -0.01416 0.24782
# Poissons Ratio (z) = 0.51472 0.33582
#
# Static dielectric constant tensor:
#      x y z
#    x 2.155490 0.000000 -0.007030 
#    y 0.000000 2.045550 0.000000 
#    z -0.007030 0.000000 2.046790 
# 
# From -- ./inp_files/9212.got.cif
#   From: 2010.05.17/outbox.cif.g08.bks.cpg/sg4_5_cif.got.tgz:9212.got - 2010.06.03 18:43:04.
