data_PCOD9116118
_publ_section_title
;
Structure prediction by ZEFSAII (Michael W. Deem and Ramdas Pophale) SiO2 
 PCOD9116118
Probable space group: P 21
;
_chemical_formula_sum "Si O2"
_cell_formula_units_Z 14
_cell_length_a 11.639549
_cell_length_b 11.270455
_cell_length_c 13.535304
_cell_angle_alpha 90.000000
_cell_angle_beta 22.142170
_cell_angle_gamma 90.000000
_cell_volume 669.235196
_symmetry_space_group_name_H-M "P 21"
_symmetry_group_IT_number 4
_symmetry_cell_setting 'monoclinic'
loop_
_space_group_symop_operation_xyz
x,y,z
-x,1/2+y,-z
loop_
_atom_site_type_symbol
_atom_site_label
_atom_site_fract_x
_atom_site_fract_y
_atom_site_fract_z
Si Si1 0.539872 0.909100 0.572701
Si Si2 0.121593 0.359369 0.169007
Si Si3 0.187608 0.609269 0.026655
Si Si4 0.649406 0.173264 0.549258
Si Si5 0.802508 0.285711 0.611765
Si Si6 0.177064 0.224954 0.506393
Si Si7 0.097196 0.290993 0.894479
O O1 0.670744 0.839925 0.564060
O O2 0.729889 0.865981 0.327290
O O3 0.585391 0.047823 0.552668
O O4 0.193763 0.864682 0.838840
O O5 0.102185 0.473792 0.115523
O O6 0.935055 0.245579 0.276754
O O7 0.959224 0.372489 0.405875
O O8 0.475677 0.333396 0.905022
O O9 0.067103 0.677260 0.220113
O O10 0.025699 0.671586 0.062153
O O11 0.546893 0.631978 0.727487
O O12 0.730510 0.170339 0.600683
O O13 0.354223 0.255298 0.767778
O O14 0.018009 0.256476 0.530664
#
# Coordination Sequence:
#
# PCOD9116118 Si02
#       7
#     2   2   2   2   2   2   2
#     4  10  24  42  64  90 124 168 202 261 306 372
#     4  10  23  39  59  96 120 160 206 252 316 362
#     4  10  21  40  64  88 120 164 204 257 304 374
#     4  10  26  39  65  93 129 160 211 255 317 368
#     4  10  23  39  59  97 122 162 205 254 313 371
#     4  10  21  43  62  90 125 160 212 246 316 371
#     4  10  24  40  63  92 122 166 208 251 314 366
#
# _framework density 20.919402999999999
#
# number of rings (size 3 to 8) (size 9 to 14) (size 15 to 20)
#    0.857    1.143    0.000    1.714    6.000    2.286 
#    2.571    0.000    0.000    0.000    0.000    0.000 
#    0.000    0.000    0.000    0.000    0.000    0.000 
#
# Total GULP energy -78177.206387 kJ/mol
# GULP energy per Si atom -5584.086170 kJ/mol
# Density = 2.087179 g / cm^3
# Si number density = 20.919403 Si / 1000 Ang^3
#
#
#
# Elastic Constant Matrix: (Units=GPa)
#
#
# Indices 1 2 3 4 5 6 
#
# 1 92.9439 11.5024 19.9237 0.0000 -23.8618 0.0000
# 2 11.5024 90.7240 12.7458 0.0000 -8.7538 0.0000
# 3 19.9237 12.7458 115.0531 0.0000 -3.9668 0.0000
# 4 0.0000 0.0000 0.0000 15.0431 0.0000 3.2762
# 5 -23.8618 -8.7538 -3.9668 0.0000 22.1081 0.0000
# 6 0.0000 0.0000 0.0000 3.2762 0.0000 12.6207
#
#
#
# Elastic Compliance Matrix: (Units=1/GPa)
#
#
# Indices 1 2 3 4 5 6 
#
# 1 0.015374 -0.000094 -0.002094 0.000000 0.016180 0.000000
# 2 -0.000094 0.011606 -0.001122 0.000000 0.004293 0.000000
# 3 -0.002094 -0.001122 0.009142 0.000000 -0.001064 0.000000
# 4 0.000000 0.000000 0.000000 0.070459 0.000000 -0.018291
# 5 0.016180 0.004293 -0.001064 0.000000 0.064205 0.000000
# 6 0.000000 0.000000 0.000000 -0.018291 0.000000 0.083983
#
#
# Mechanical properties :
#
#
# Convention : Reuss Voigt Hill
#
# Bulk Modulus (GPa) = 33.89470 43.00719 38.45095
# Shear Modulus (GPa) = 18.43508 26.92431 22.67970
#
# Velocity S-wave (km/s) = 2.97179 3.59144 3.29621
# Velocity P-wave (km/s) = 5.29274 6.14826 5.73647
#
# Compressibility (1/GPa) = 0.02950314
#
# Stress axis : x y z
#
# Youngs Moduli (GPa) = 65.04608 86.16143 109.38741
#
# Poissons Ratio (x) = 0.00808 0.22906
# Poissons Ratio (y) = 0.00610 0.12268
# Poissons Ratio (z) = 0.13621 0.09663
#
# Static dielectric constant tensor:
#      x y z
#    x 1.742700 0.000000 0.020360 
#    y 0.000000 1.745740 0.000000 
#    z 0.020360 0.000000 1.735240 
# 
# From -- ./inp_files/2701.got.cif
#   From: 2010.05.17/outbox.cif.g08.bks.cpg/sg4_2_cif.got.tgz:2701.got - 2010.06.03 18:43:04.
