data_PCOD9116973
_publ_section_title
;
Structure prediction by ZEFSAII (Michael W. Deem and Ramdas Pophale) SiO2 
 PCOD9116973
Probable space group: P 21
;
_chemical_formula_sum "Si O2"
_cell_formula_units_Z 16
_cell_length_a 8.088057
_cell_length_b 14.907922
_cell_length_c 6.768575
_cell_angle_alpha 90.000000
_cell_angle_beta 121.099223
_cell_angle_gamma 90.000000
_cell_volume 698.829715
_symmetry_space_group_name_H-M "P 21"
_symmetry_group_IT_number 4
_symmetry_cell_setting 'monoclinic'
loop_
_space_group_symop_operation_xyz
x,y,z
-x,1/2+y,-z
loop_
_atom_site_type_symbol
_atom_site_label
_atom_site_fract_x
_atom_site_fract_y
_atom_site_fract_z
Si Si1 0.529213 0.760440 0.748932
Si Si2 0.105858 0.458678 0.474266
Si Si3 0.338041 0.056433 0.184225
Si Si4 0.502842 0.390960 0.899644
Si Si5 0.644033 0.051832 0.690425
Si Si6 0.033187 0.491045 0.847884
Si Si7 0.708106 0.248333 0.754704
Si Si8 0.059271 0.322701 0.116806
O O1 0.585839 0.655971 0.822938
O O2 0.332432 0.762266 0.501477
O O3 0.716290 0.797185 0.743950
O O4 0.504924 0.828743 0.913324
O O5 0.288491 0.411621 0.691650
O O6 0.192516 0.532867 0.377962
O O7 0.012008 0.381318 0.281403
O O8 0.996928 0.500393 0.593063
O O9 0.456400 0.021576 0.452973
O O10 0.386219 0.986354 0.039448
O O11 0.118192 0.048812 0.118716
O O12 0.609063 0.329465 0.804952
O O13 0.605682 0.153673 0.724413
O O14 0.746366 0.010113 0.944861
O O15 0.010096 0.388568 0.903533
O O16 0.919408 0.241050 0.980999
#
# Coordination Sequence:
#
# PCOD9116973 Si02
#       8
#     2   2   2   2   2   2   2   2
#     4  11  24  45  69  97 142 181 224 289 338 402
#     4  10  22  42  67  97 134 178 221 278 345 399
#     4  10  23  45  68 101 136 180 236 275 342 411
#     4  11  22  43  68  99 135 178 226 280 343 401
#     4   9  23  42  66  95 136 172 225 282 331 404
#     4  11  21  43  69  95 134 178 221 283 343 397
#     4  11  23  43  65  98 133 177 226 277 336 408
#     4  11  22  41  68  94 136 174 225 278 334 412
#
# _framework density 22.895420999999999
#
# number of rings (size 3 to 8) (size 9 to 14) (size 15 to 20)
#    0.000    1.500    3.750    0.750    0.000    4.000 
#    2.250    8.750    0.000    0.000    0.000    0.000 
#    0.000    0.000    0.000    0.000    0.000    0.000 
#
# Total GULP energy -89236.611450 kJ/mol
# GULP energy per Si atom -5577.288216 kJ/mol
# Density = 2.284331 g / cm^3
# Si number density = 22.895421 Si / 1000 Ang^3
#
#
#
# Elastic Constant Matrix: (Units=GPa)
#
#
# Indices 1 2 3 4 5 6 
#
# 1 52.3670 34.1286 35.8663 0.0000 1.4289 0.0000
# 2 34.1286 94.2506 35.4919 0.0000 -11.2008 0.0000
# 3 35.8663 35.4919 95.5586 0.0000 3.6108 0.0000
# 4 0.0000 0.0000 0.0000 35.1076 0.0000 8.7044
# 5 1.4289 -11.2008 3.6108 0.0000 33.4196 0.0000
# 6 0.0000 0.0000 0.0000 8.7044 0.0000 19.5729
#
#
#
# Elastic Compliance Matrix: (Units=1/GPa)
#
#
# Indices 1 2 3 4 5 6 
#
# 1 0.030103 -0.008216 -0.008128 0.000000 -0.003162 0.000000
# 2 -0.008216 0.015341 -0.002833 0.000000 0.005799 0.000000
# 3 -0.008128 -0.002833 0.014650 0.000000 -0.002185 0.000000
# 4 0.000000 0.000000 0.000000 0.032014 0.000000 -0.014237
# 5 -0.003162 0.005799 -0.002185 0.000000 0.032238 0.000000
# 6 0.000000 0.000000 0.000000 -0.014237 0.000000 0.057422
#
#
# Mechanical properties :
#
#
# Convention : Reuss Voigt Hill
#
# Bulk Modulus (GPa) = 45.99624 50.34997 48.17310
# Shear Modulus (GPa) = 21.99063 26.73264 24.36164
#
# Velocity S-wave (km/s) = 3.10253 3.42072 3.26550
# Velocity P-wave (km/s) = 5.74174 6.13521 5.94173
#
# Compressibility (1/GPa) = 0.02174091
#
# Stress axis : x y z
#
# Youngs Moduli (GPa) = 33.21885 65.18440 68.25761
#
# Poissons Ratio (x) = 0.53553 0.55479
# Poissons Ratio (y) = 0.27292 0.19340
# Poissons Ratio (z) = 0.27000 0.18469
#
# Static dielectric constant tensor:
#      x y z
#    x 1.922890 0.000000 0.015360 
#    y 0.000000 1.875600 0.000000 
#    z 0.015360 0.000000 1.885210 
# 
# From -- ./inp_files/1871.got.cif
#   From: 2010.05.17/outbox.cif.g08.bks.cpg/sg4_1_cif.got.tgz:1871.got - 2010.06.03 18:43:04.
