data_PCOD9116855
_publ_section_title
;
Structure prediction by ZEFSAII (Michael W. Deem and Ramdas Pophale) SiO2 
 PCOD9116855
Probable space group: P 21
;
_chemical_formula_sum "Si O2"
_cell_formula_units_Z 14
_cell_length_a 6.731519
_cell_length_b 7.713989
_cell_length_c 10.466708
_cell_angle_alpha 90.000000
_cell_angle_beta 87.119656
_cell_angle_gamma 90.000000
_cell_volume 542.816686
_symmetry_space_group_name_H-M "P 21"
_symmetry_group_IT_number 4
_symmetry_cell_setting 'monoclinic'
loop_
_space_group_symop_operation_xyz
x,y,z
-x,1/2+y,-z
loop_
_atom_site_type_symbol
_atom_site_label
_atom_site_fract_x
_atom_site_fract_y
_atom_site_fract_z
Si Si1 0.666943 0.058630 0.973008
Si Si2 0.282741 0.743875 0.537262
Si Si3 0.982684 0.762253 0.992524
Si Si4 0.140695 0.108448 0.427121
Si Si5 0.259082 0.992335 0.862264
Si Si6 0.361682 0.245455 0.641138
Si Si7 0.511196 0.609642 0.752316
O O1 0.822348 0.210041 0.925241
O O2 0.548100 0.123097 0.100374
O O3 0.495688 0.992902 0.884338
O O4 0.812661 0.906489 0.015556
O O5 0.432248 0.670559 0.424601
O O6 0.407960 0.751482 0.663968
O O7 0.091603 0.630135 0.571276
O O8 0.210976 0.929614 0.489875
O O9 0.108510 0.827419 0.864301
O O10 0.848184 0.591108 0.014186
O O11 0.224195 0.254990 0.520673
O O12 0.256791 0.118505 0.289699
O O13 0.247773 0.123156 0.744190
O O14 0.424073 0.425875 0.703615
#
# Coordination Sequence:
#
# PCOD9116855 Si02
#       7
#     2   2   2   2   2   2   2
#     4  11  23  44  65  95 133 171 215 270 321 382
#     4  10  22  41  65  96 124 164 210 260 321 381
#     4  10  24  40  64  94 126 170 224 258 314 388
#     4  10  22  41  65  96 124 164 210 260 321 381
#     4  11  23  44  65  95 133 171 215 270 321 382
#     4  10  22  42  64  88 129 166 209 264 315 382
#     4  10  22  42  64  88 129 166 209 264 315 382
#
# _framework density 25.791395999999999
#
# number of rings (size 3 to 8) (size 9 to 14) (size 15 to 20)
#    0.000    1.714    1.429    1.714    2.000    5.714 
#    5.143    0.000    0.000    0.000    0.000    0.000 
#    0.000    0.000    0.000    0.000    0.000    0.000 
#
# Total GULP energy -78135.868399 kJ/mol
# GULP energy per Si atom -5581.133457 kJ/mol
# Density = 2.573269 g / cm^3
# Si number density = 25.791396 Si / 1000 Ang^3
#
#
#
# Elastic Constant Matrix: (Units=GPa)
#
#
# Indices 1 2 3 4 5 6 
#
# 1 157.9225 20.8893 45.5591 0.0000 -30.6052 0.0000
# 2 20.8893 61.6549 10.2432 0.0000 -14.0042 0.0000
# 3 45.5591 10.2432 83.0118 0.0000 -11.7440 0.0000
# 4 0.0000 0.0000 0.0000 32.8441 0.0000 -13.0971
# 5 -30.6052 -14.0042 -11.7440 0.0000 30.4741 0.0000
# 6 0.0000 0.0000 0.0000 -13.0971 0.0000 52.6752
#
#
#
# Elastic Compliance Matrix: (Units=1/GPa)
#
#
# Indices 1 2 3 4 5 6 
#
# 1 0.008909 -0.000769 -0.003785 0.000000 0.007135 0.000000
# 2 -0.000769 0.018275 -0.000798 0.000000 0.007318 0.000000
# 3 -0.003785 -0.000798 0.014419 0.000000 0.001389 0.000000
# 4 0.000000 0.000000 0.000000 0.033798 0.000000 0.008403
# 5 0.007135 0.007318 0.001389 0.000000 0.043879 0.000000
# 6 0.000000 0.000000 0.000000 0.008403 0.000000 0.021074
#
#
# Mechanical properties :
#
#
# Convention : Reuss Voigt Hill
#
# Bulk Modulus (GPa) = 32.36358 50.66359 41.51359
# Shear Modulus (GPa) = 30.98758 38.25852 34.62305
#
# Velocity S-wave (km/s) = 3.46998 3.85565 3.66789
# Velocity P-wave (km/s) = 5.35068 6.28551 5.83684
#
# Compressibility (1/GPa) = 0.03089893
#
# Stress axis : x y z
#
# Youngs Moduli (GPa) = 112.25102 54.72064 69.35445
#
# Poissons Ratio (x) = 0.04207 0.26251
# Poissons Ratio (y) = 0.08631 0.05532
# Poissons Ratio (z) = 0.42487 0.04365
#
# Static dielectric constant tensor:
#      x y z
#    x 2.007300 0.000000 -0.016950 
#    y 0.000000 2.230050 0.000000 
#    z -0.016950 0.000000 2.014350 
# 
# From -- ./inp_files/3613.got.cif
#   From: 2010.05.17/outbox.cif.g08.bks.cpg/sg4_2_cif.got.tgz:3613.got - 2010.06.03 18:43:04.
