data_PCOD9116135
_publ_section_title
;
Structure prediction by ZEFSAII (Michael W. Deem and Ramdas Pophale) SiO2 
 PCOD9116135
Probable space group: P 21
;
_chemical_formula_sum "Si O2"
_cell_formula_units_Z 16
_cell_length_a 14.198185
_cell_length_b 7.675898
_cell_length_c 17.744071
_cell_angle_alpha 90.000000
_cell_angle_beta 158.549851
_cell_angle_gamma 90.000000
_cell_volume 707.180433
_symmetry_space_group_name_H-M "P 21"
_symmetry_group_IT_number 4
_symmetry_cell_setting 'monoclinic'
loop_
_space_group_symop_operation_xyz
x,y,z
-x,1/2+y,-z
loop_
_atom_site_type_symbol
_atom_site_label
_atom_site_fract_x
_atom_site_fract_y
_atom_site_fract_z
Si Si1 0.011856 0.134310 0.464652
Si Si2 0.380142 0.380892 0.657540
Si Si3 0.418665 0.764174 0.622698
Si Si4 0.098881 0.774451 0.893368
Si Si5 0.554460 0.792371 0.451244
Si Si6 0.729446 0.618975 0.721865
Si Si7 0.416749 0.850317 0.786875
Si Si8 0.103073 0.463160 0.777105
O O1 0.142415 0.307304 0.526950
O O2 0.783466 0.193704 0.348462
O O3 0.248431 0.024705 0.674290
O O4 0.902291 0.021078 0.313736
O O5 0.347858 0.566626 0.594476
O O6 0.424000 0.246558 0.620167
O O7 0.642161 0.378686 0.900669
O O8 0.624884 0.743910 0.709819
O O9 0.508026 0.849049 0.768161
O O10 0.163904 0.864262 0.406450
O O11 0.126552 0.633025 0.847770
O O12 0.836467 0.879913 0.679746
O O13 0.011158 0.670300 0.903341
O O14 0.558302 0.645700 0.518067
O O15 0.320981 0.923894 0.289051
O O16 0.654387 0.845554 0.020188
#
# Coordination Sequence:
#
# PCOD9116135 Si02
#       8
#     2   2   2   2   2   2   2   2
#     4  11  23  43  68  94 129 167 217 276 338 396
#     4  11  21  42  65  94 132 169 219 277 328 390
#     4  10  24  42  62  99 133 169 222 276 328 388
#     4  10  21  40  65  95 126 181 219 261 337 392
#     4   9  20  38  59  90 130 173 215 271 317 383
#     4   9  19  40  59  92 131 171 216 267 319 386
#     4  11  25  44  67  97 128 173 214 279 333 408
#     4  11  23  45  67  93 133 177 218 275 336 403
#
# _framework density 22.625060999999999
#
# number of rings (size 3 to 8) (size 9 to 14) (size 15 to 20)
#    0.750    1.000    2.500    1.500    0.000    5.000 
#   13.500    0.000    0.000    0.000    0.000    0.000 
#    0.000    0.000    0.000    0.000    0.000    0.000 
#
# Total GULP energy -89309.672173 kJ/mol
# GULP energy per Si atom -5581.854511 kJ/mol
# Density = 2.257357 g / cm^3
# Si number density = 22.625061 Si / 1000 Ang^3
#
#
#
# Elastic Constant Matrix: (Units=GPa)
#
#
# Indices 1 2 3 4 5 6 
#
# 1 79.7914 -6.1129 6.1509 0.0000 5.7467 0.0000
# 2 -6.1129 45.4473 5.3056 0.0000 0.0666 0.0000
# 3 6.1509 5.3056 87.8912 0.0000 -8.9615 0.0000
# 4 0.0000 0.0000 0.0000 23.7792 0.0000 2.4308
# 5 5.7467 0.0666 -8.9615 0.0000 13.0360 0.0000
# 6 0.0000 0.0000 0.0000 2.4308 0.0000 36.8406
#
#
#
# Elastic Compliance Matrix: (Units=1/GPa)
#
#
# Indices 1 2 3 4 5 6 
#
# 1 0.013336 0.002012 -0.001780 0.000000 -0.007113 0.000000
# 2 0.002012 0.022478 -0.001720 0.000000 -0.002184 0.000000
# 3 -0.001780 -0.001720 0.012568 0.000000 0.009433 0.000000
# 4 0.000000 0.000000 0.000000 0.042339 0.000000 -0.002794
# 5 -0.007113 -0.002184 0.009433 0.000000 0.086342 0.000000
# 6 0.000000 0.000000 0.000000 -0.002794 0.000000 0.027328
#
#
# Mechanical properties :
#
#
# Convention : Reuss Voigt Hill
#
# Bulk Modulus (GPa) = 22.02371 24.86856 23.44614
# Shear Modulus (GPa) = 22.47151 28.58360 25.52756
#
# Velocity S-wave (km/s) = 3.15495 3.55823 3.36264
# Velocity P-wave (km/s) = 4.79864 5.28174 5.04598
#
# Compressibility (1/GPa) = 0.04540560
#
# Stress axis : x y z
#
# Youngs Moduli (GPa) = 74.98321 44.48753 79.56740
#
# Poissons Ratio (x) = -0.08951 0.14163
# Poissons Ratio (y) = -0.15087 0.13689
# Poissons Ratio (z) = 0.13347 0.07654
#
# Static dielectric constant tensor:
#      x y z
#    x 1.866130 0.000000 -0.015560 
#    y 0.000000 1.910840 0.000000 
#    z -0.015560 0.000000 1.825370 
# 
# From -- ./inp_files/15272.got.cif
#   From: 2010.05.17/outbox.cif.g08.bks.cpg/sg4_8_cif.got.tgz:15272.got - 2010.06.03 18:43:04.
