data_PCOD9116595
_publ_section_title
;
Structure prediction by ZEFSAII (Michael W. Deem and Ramdas Pophale) SiO2 
 PCOD9116595
Probable space group: P 21
;
_chemical_formula_sum "Si O2"
_cell_formula_units_Z 12
_cell_length_a 12.496179
_cell_length_b 5.122658
_cell_length_c 8.627769
_cell_angle_alpha 90.000000
_cell_angle_beta 72.182341
_cell_angle_gamma 90.000000
_cell_volume 525.804239
_symmetry_space_group_name_H-M "P 21"
_symmetry_group_IT_number 4
_symmetry_cell_setting 'monoclinic'
loop_
_space_group_symop_operation_xyz
x,y,z
-x,1/2+y,-z
loop_
_atom_site_type_symbol
_atom_site_label
_atom_site_fract_x
_atom_site_fract_y
_atom_site_fract_z
Si Si1 0.038109 0.545980 0.174428
Si Si2 0.557297 0.523418 0.413549
Si Si3 0.810309 0.086567 0.162810
Si Si4 0.316726 0.083704 0.916453
Si Si5 0.195770 0.200164 0.591429
Si Si6 0.163280 0.048863 0.251649
O O1 0.086963 0.271592 0.207842
O O2 0.906958 0.570361 0.267719
O O3 0.103272 0.772909 0.242738
O O4 0.071646 0.584002 0.979928
O O5 0.528135 0.229578 0.473202
O O6 0.563920 0.564395 0.223657
O O7 0.678914 0.604171 0.426953
O O8 0.748280 0.344356 0.135780
O O9 0.738117 0.854122 0.114633
O O10 0.812310 0.999622 0.341215
O O11 0.284643 0.053729 0.110370
O O12 0.173257 0.132637 0.424344
#
# Coordination Sequence:
#
# PCOD9116595 Si02
#       6
#     2   2   2   2   2   2
#     4  10  22  38  59  92 132 161 191 241 312 382
#     4  11  24  41  60  84 113 155 211 263 300 346
#     4   9  20  35  58  88 119 157 195 236 296 372
#     4   9  19  40  60  82 120 155 192 252 311 354
#     4  11  23  39  64  91 121 163 210 252 303 370
#     4  10  22  39  61  93 127 159 193 246 316 386
#
# _framework density 22.822182000000002
#
# number of rings (size 3 to 8) (size 9 to 14) (size 15 to 20)
#    0.000    2.000    0.000    3.000    0.000   14.667 
#    0.000    1.667    0.000    0.000    0.000    0.000 
#    0.000    0.000    0.000    0.000    0.000    0.000 
#
# Total GULP energy -67030.749049 kJ/mol
# GULP energy per Si atom -5585.895754 kJ/mol
# Density = 2.277024 g / cm^3
# Si number density = 22.822182 Si / 1000 Ang^3
#
#
#
# Elastic Constant Matrix: (Units=GPa)
#
#
# Indices 1 2 3 4 5 6 
#
# 1 34.6602 -13.4579 23.7133 0.0000 -2.9936 0.0000
# 2 -13.4579 86.9833 11.7403 0.0000 12.0063 0.0000
# 3 23.7133 11.7403 154.1745 0.0000 -1.1190 0.0000
# 4 0.0000 0.0000 0.0000 36.4440 0.0000 -12.8440
# 5 -2.9936 12.0063 -1.1190 0.0000 34.1698 0.0000
# 6 0.0000 0.0000 0.0000 -12.8440 0.0000 29.9689
#
#
#
# Elastic Compliance Matrix: (Units=1/GPa)
#
#
# Indices 1 2 3 4 5 6 
#
# 1 0.035345 0.006163 -0.005900 0.000000 0.000738 0.000000
# 2 0.006163 0.013298 -0.001991 0.000000 -0.004198 0.000000
# 3 -0.005900 -0.001991 0.007548 0.000000 0.000430 0.000000
# 4 0.000000 0.000000 0.000000 0.032321 0.000000 0.013852
# 5 0.000738 -0.004198 0.000430 0.000000 0.030819 0.000000
# 6 0.000000 0.000000 0.000000 0.013852 0.000000 0.039305
#
#
# Mechanical properties :
#
#
# Convention : Reuss Voigt Hill
#
# Bulk Modulus (GPa) = 18.96269 35.53435 27.24852
# Shear Modulus (GPa) = 27.82849 37.03802 32.43326
#
# Velocity S-wave (km/s) = 3.49572 4.03289 3.77388
# Velocity P-wave (km/s) = 4.96189 6.10651 5.56372
#
# Compressibility (1/GPa) = 0.05273514
#
# Stress axis : x y z
#
# Youngs Moduli (GPa) = 28.29246 75.19829 132.47824
#
# Poissons Ratio (x) = -0.46345 0.78166
# Poissons Ratio (y) = -0.17437 0.26377
# Poissons Ratio (z) = 0.16693 0.14972
#
# Static dielectric constant tensor:
#      x y z
#    x 1.837000 0.000000 -0.043640 
#    y 0.000000 1.907650 0.000000 
#    z -0.043640 0.000000 1.957590 
# 
# From -- ./inp_files/7053.got.cif
#   From: 2010.05.17/outbox.cif.g08.bks.cpg/sg4_4_cif.got.tgz:7053.got - 2010.06.03 18:43:04.
