data_PCOD9116024
_publ_section_title
;
Structure prediction by ZEFSAII (Michael W. Deem and Ramdas Pophale) SiO2 
 PCOD9116024
Probable space group: P 21
;
_chemical_formula_sum "Si O2"
_cell_formula_units_Z 16
_cell_length_a 31.962322
_cell_length_b 4.996705
_cell_length_c 25.389768
_cell_angle_alpha 90.000000
_cell_angle_beta 169.842703
_cell_angle_gamma 90.000000
_cell_volume 715.087344
_symmetry_space_group_name_H-M "P 21"
_symmetry_group_IT_number 4
_symmetry_cell_setting 'monoclinic'
loop_
_space_group_symop_operation_xyz
x,y,z
-x,1/2+y,-z
loop_
_atom_site_type_symbol
_atom_site_label
_atom_site_fract_x
_atom_site_fract_y
_atom_site_fract_z
Si Si1 0.903093 0.541790 0.107750
Si Si2 0.507063 0.593415 0.706637
Si Si3 0.007307 0.424010 0.042660
Si Si4 0.880393 0.537778 0.575015
Si Si5 0.717403 0.091359 0.015516
Si Si6 0.655686 0.632186 0.692237
Si Si7 0.546705 0.182314 0.023215
Si Si8 0.991716 0.937736 0.455028
O O1 0.007609 0.247414 0.245256
O O2 0.670092 0.573742 0.856153
O O3 0.827560 0.609410 0.955329
O O4 0.093550 0.746897 0.367742
O O5 0.246702 0.496477 0.370001
O O6 0.525707 0.889903 0.752928
O O7 0.628163 0.392106 0.898138
O O8 0.003524 0.614986 0.986663
O O9 0.785791 0.517041 0.802529
O O10 0.050581 0.554210 0.734264
O O11 0.621148 0.612501 0.233890
O O12 0.786848 0.014377 0.160310
O O13 0.435479 0.431892 0.428812
O O14 0.794906 0.300956 0.312439
O O15 0.425287 0.415841 0.907388
O O16 0.921273 0.710758 0.409690
#
# Coordination Sequence:
#
# PCOD9116024 Si02
#       8
#     2   2   2   2   2   2   2   2
#     4  10  21  39  63  96 132 164 216 269 334 379
#     4  10  21  39  66  94 125 175 218 266 319 397
#     4  12  25  44  70 102 134 174 226 264 320 401
#     4  10  21  39  66  94 123 172 222 271 316 393
#     4  10  21  41  65  89 130 175 220 261 329 397
#     4  12  25  44  70 100 137 174 214 275 334 385
#     4  12  24  42  72  96 129 175 234 274 321 394
#     4  12  26  44  64  99 136 177 218 280 341 388
#
# _framework density 22.374887999999999
#
# number of rings (size 3 to 8) (size 9 to 14) (size 15 to 20)
#    0.000    1.000    1.250    6.000    3.500    2.000 
#    6.750    0.000    0.000    0.000    0.000    0.000 
#    0.000    0.000    0.000    0.000    0.000    0.000 
#
# Total GULP energy -89626.164005 kJ/mol
# GULP energy per Si atom -5601.635250 kJ/mol
# Density = 2.232396 g / cm^3
# Si number density = 22.374888 Si / 1000 Ang^3
#
#
#
# Elastic Constant Matrix: (Units=GPa)
#
#
# Indices 1 2 3 4 5 6 
#
# 1 42.8342 5.1739 12.1465 0.0000 -7.5389 0.0000
# 2 5.1739 79.7514 -13.3413 0.0000 2.3921 0.0000
# 3 12.1465 -13.3413 48.4274 0.0000 -9.3367 0.0000
# 4 0.0000 0.0000 0.0000 24.0286 0.0000 3.2448
# 5 -7.5389 2.3921 -9.3367 0.0000 23.5239 0.0000
# 6 0.0000 0.0000 0.0000 3.2448 0.0000 23.5278
#
#
#
# Elastic Compliance Matrix: (Units=1/GPa)
#
#
# Indices 1 2 3 4 5 6 
#
# 1 0.026596 -0.002964 -0.006265 0.000000 0.006338 0.000000
# 2 -0.002964 0.013475 0.004340 0.000000 -0.000597 0.000000
# 3 -0.006265 0.004340 0.024846 0.000000 0.007412 0.000000
# 4 0.000000 0.000000 0.000000 0.042407 0.000000 -0.005848
# 5 0.006338 -0.000597 0.007412 0.000000 0.047544 0.000000
# 6 0.000000 0.000000 0.000000 -0.005848 0.000000 0.043309
#
#
# Mechanical properties :
#
#
# Convention : Reuss Voigt Hill
#
# Bulk Modulus (GPa) = 18.13560 19.88569 19.01064
# Shear Modulus (GPa) = 22.09127 25.35166 23.72147
#
# Velocity S-wave (km/s) = 3.14558 3.36972 3.25958
# Velocity P-wave (km/s) = 4.61691 4.90375 4.76249
#
# Compressibility (1/GPa) = 0.05514016
#
# Stress axis : x y z
#
# Youngs Moduli (GPa) = 37.59977 74.21009 40.24836
#
# Poissons Ratio (x) = 0.21993 0.25217
# Poissons Ratio (y) = 0.11143 -0.17470
# Poissons Ratio (z) = 0.23557 -0.32211
#
# Static dielectric constant tensor:
#      x y z
#    x 1.822670 0.000000 0.038850 
#    y 0.000000 1.768570 0.000000 
#    z 0.038850 0.000000 1.787840 
# 
# From -- ./inp_files/16271.got.cif
#   From: 2010.05.17/outbox.cif.g08.bks.cpg/sg4_9_cif.got.tgz:16271.got - 2010.06.03 18:43:04.
