data_PCOD9116539
_publ_section_title
;
Structure prediction by ZEFSAII (Michael W. Deem and Ramdas Pophale) SiO2 
 PCOD9116539
Probable space group: P 21
;
_chemical_formula_sum "Si O2"
_cell_formula_units_Z 16
_cell_length_a 11.281285
_cell_length_b 9.453934
_cell_length_c 14.249443
_cell_angle_alpha 90.000000
_cell_angle_beta 28.490847
_cell_angle_gamma 90.000000
_cell_volume 724.943438
_symmetry_space_group_name_H-M "P 21"
_symmetry_group_IT_number 4
_symmetry_cell_setting 'monoclinic'
loop_
_space_group_symop_operation_xyz
x,y,z
-x,1/2+y,-z
loop_
_atom_site_type_symbol
_atom_site_label
_atom_site_fract_x
_atom_site_fract_y
_atom_site_fract_z
Si Si1 0.329339 0.092660 0.408229
Si Si2 0.502823 0.836533 0.855085
Si Si3 0.363797 0.273127 0.564134
Si Si4 0.739266 0.111800 0.596910
Si Si5 0.939246 0.266384 0.215023
Si Si6 0.665370 0.816135 0.208357
Si Si7 0.998678 0.475018 0.748287
Si Si8 0.029480 0.361973 0.364489
O O1 0.442877 0.211147 0.258191
O O2 0.284417 0.159927 0.541953
O O3 0.513703 0.961985 0.301631
O O4 0.078487 0.018910 0.542847
O O5 0.684860 0.822971 0.817589
O O6 0.607531 0.986291 0.743249
O O7 0.218127 0.861955 0.083555
O O8 0.655536 0.266364 0.380202
O O9 0.243779 0.278806 0.750518
O O10 0.271786 0.417081 0.581474
O O11 0.520187 0.188114 0.689842
O O12 0.875500 0.254102 0.538793
O O13 0.960824 0.037444 0.383208
O O14 0.967846 0.333896 0.298000
O O15 0.039511 0.107379 0.157451
O O16 0.107547 0.334411 0.019586
#
# Coordination Sequence:
#
# PCOD9116539 Si02
#       8
#     2   2   2   2   2   2   2   2
#     4  11  25  46  71 113 135 187 243 288 364 416
#     4  12  24  46  72 105 145 186 245 291 351 430
#     4  12  24  45  69 100 149 171 232 302 338 426
#     4  10  21  47  69  94 146 183 232 287 351 422
#     4  11  24  47  72  99 141 192 235 281 371 427
#     4  11  24  45  73 100 143 186 233 289 361 430
#     4  11  24  44  67 106 132 187 238 284 357 417
#     4  10  24  48  71 105 143 192 234 298 355 416
#
# _framework density 22.070689999999999
#
# number of rings (size 3 to 8) (size 9 to 14) (size 15 to 20)
#    0.000    1.000    6.250    1.500    1.750    1.000 
#   18.000    0.000    0.000    0.000    0.000    0.000 
#    0.000    0.000    0.000    0.000    0.000    0.000 
#
# Total GULP energy -89212.360451 kJ/mol
# GULP energy per Si atom -5575.772528 kJ/mol
# Density = 2.202046 g / cm^3
# Si number density = 22.070690 Si / 1000 Ang^3
#
#
#
# Elastic Constant Matrix: (Units=GPa)
#
#
# Indices 1 2 3 4 5 6 
#
# 1 75.0719 30.0475 22.7257 0.0000 -9.9945 0.0000
# 2 30.0475 89.3113 30.5406 0.0000 3.7665 0.0000
# 3 22.7257 30.5406 85.8906 0.0000 4.3171 0.0000
# 4 0.0000 0.0000 0.0000 30.3232 0.0000 -1.1004
# 5 -9.9945 3.7665 4.3171 0.0000 20.4971 0.0000
# 6 0.0000 0.0000 0.0000 -1.1004 0.0000 12.2636
#
#
#
# Elastic Compliance Matrix: (Units=1/GPa)
#
#
# Indices 1 2 3 4 5 6 
#
# 1 0.017836 -0.005289 -0.003360 0.000000 0.010377 0.000000
# 2 -0.005289 0.014355 -0.003479 0.000000 -0.004484 0.000000
# 3 -0.003360 -0.003479 0.013967 0.000000 -0.003941 0.000000
# 4 0.000000 0.000000 0.000000 0.033086 0.000000 0.002969
# 5 0.010377 -0.004484 -0.003941 0.000000 0.055501 0.000000
# 6 0.000000 0.000000 0.000000 0.002969 0.000000 0.081809
#
#
# Mechanical properties :
#
#
# Convention : Reuss Voigt Hill
#
# Bulk Modulus (GPa) = 45.66058 46.32238 45.99148
# Shear Modulus (GPa) = 20.15215 23.74743 21.94979
#
# Velocity S-wave (km/s) = 3.02499 3.28376 3.15703
# Velocity P-wave (km/s) = 5.73881 5.95073 5.84573
#
# Compressibility (1/GPa) = 0.02190073
#
# Stress axis : x y z
#
# Youngs Moduli (GPa) = 56.06551 69.66077 71.59701
#
# Poissons Ratio (x) = 0.36846 0.24057
# Poissons Ratio (y) = 0.29655 0.24912
# Poissons Ratio (z) = 0.18838 0.24238
#
# Static dielectric constant tensor:
#      x y z
#    x 1.916800 0.000000 0.007690 
#    y 0.000000 1.871030 0.000000 
#    z 0.007690 0.000000 1.815640 
# 
# From -- ./inp_files/13892.got.cif
#   From: 2010.05.17/outbox.cif.g08.bks.cpg/sg4_7_cif.got.tgz:13892.got - 2010.06.03 18:43:04.
