data_PCOD9116185
_publ_section_title
;
Structure prediction by ZEFSAII (Michael W. Deem and Ramdas Pophale) SiO2 
 PCOD9116185
Probable space group: P 21
;
_chemical_formula_sum "Si O2"
_cell_formula_units_Z 16
_cell_length_a 8.157799
_cell_length_b 13.384154
_cell_length_c 9.772291
_cell_angle_alpha 90.000000
_cell_angle_beta 43.628116
_cell_angle_gamma 90.000000
_cell_volume 736.196182
_symmetry_space_group_name_H-M "P 21"
_symmetry_group_IT_number 4
_symmetry_cell_setting 'monoclinic'
loop_
_space_group_symop_operation_xyz
x,y,z
-x,1/2+y,-z
loop_
_atom_site_type_symbol
_atom_site_label
_atom_site_fract_x
_atom_site_fract_y
_atom_site_fract_z
Si Si1 0.733524 0.199940 0.957129
Si Si2 0.390425 0.569502 0.203287
Si Si3 0.059075 0.956379 0.556292
Si Si4 0.746091 0.155710 0.264769
Si Si5 0.771804 0.627097 0.360178
Si Si6 0.061216 0.339731 0.094971
Si Si7 0.597001 0.297977 0.786813
Si Si8 0.883456 0.503038 0.017583
O O1 0.650634 0.097109 0.931944
O O2 0.604912 0.285854 0.947924
O O3 0.016070 0.206755 0.754970
O O4 0.691726 0.186744 0.140825
O O5 0.173398 0.499490 0.378543
O O6 0.363556 0.681895 0.281273
O O7 0.646720 0.522181 0.074013
O O8 0.972678 0.902829 0.747306
O O9 0.212806 0.877209 0.379830
O O10 0.208471 0.051320 0.522964
O O11 0.495525 0.163344 0.489832
O O12 0.943665 0.233290 0.194120
O O13 0.875710 0.048491 0.191680
O O14 0.838532 0.568816 0.181613
O O15 0.929059 0.393213 0.048336
O O16 0.337136 0.329045 0.896539
#
# Coordination Sequence:
#
# PCOD9116185 Si02
#       8
#     2   2   2   2   2   2   2   2
#     4   8  20  36  57  87 122 155 194 253 296 354
#     4   9  20  42  62  85 129 159 195 269 298 355
#     4  10  22  41  62  90 123 160 211 251 309 363
#     4  11  20  38  64  88 121 165 201 240 320 366
#     4   9  20  37  60  87 118 160 196 255 299 359
#     4  11  24  37  64  92 119 168 203 255 307 374
#     4  10  21  42  62  89 125 163 200 256 310 355
#     4  10  21  41  57  88 129 150 204 261 301 358
#
# _framework density 21.733339000000001
#
# number of rings (size 3 to 8) (size 9 to 14) (size 15 to 20)
#    0.750    1.500    1.250    1.500    1.750    3.000 
#    0.000    6.250    0.000    0.000    0.000    0.000 
#    0.000    0.000    0.000    0.000    0.000    0.000 
#
# Total GULP energy -89276.530589 kJ/mol
# GULP energy per Si atom -5579.783162 kJ/mol
# Density = 2.168387 g / cm^3
# Si number density = 21.733339 Si / 1000 Ang^3
#
#
#
# Elastic Constant Matrix: (Units=GPa)
#
#
# Indices 1 2 3 4 5 6 
#
# 1 56.9453 -9.0524 26.5166 0.0000 -15.7316 0.0000
# 2 -9.0524 34.0492 4.1382 0.0000 1.6133 0.0000
# 3 26.5166 4.1382 56.8636 0.0000 -21.6016 0.0000
# 4 0.0000 0.0000 0.0000 28.7653 0.0000 -10.7502
# 5 -15.7316 1.6133 -21.6016 0.0000 27.6551 0.0000
# 6 0.0000 0.0000 0.0000 -10.7502 0.0000 29.6112
#
#
#
# Elastic Compliance Matrix: (Units=1/GPa)
#
#
# Indices 1 2 3 4 5 6 
#
# 1 0.025068 0.007587 -0.009943 0.000000 0.006051 0.000000
# 2 0.007587 0.032393 -0.007072 0.000000 -0.003098 0.000000
# 3 -0.009943 -0.007072 0.029499 0.000000 0.017798 0.000000
# 4 0.000000 0.000000 0.000000 0.040221 0.000000 0.014602
# 5 0.006051 -0.003098 0.017798 0.000000 0.053684 0.000000
# 6 0.000000 0.000000 0.000000 0.014602 0.000000 0.039072
#
#
# Mechanical properties :
#
#
# Convention : Reuss Voigt Hill
#
# Bulk Modulus (GPa) = 14.68390 21.22920 17.95655
# Shear Modulus (GPa) = 19.12075 25.62335 22.37205
#
# Velocity S-wave (km/s) = 2.96934 3.43736 3.21189
# Velocity P-wave (km/s) = 4.30431 5.05403 4.69416
#
# Compressibility (1/GPa) = 0.06810180
#
# Stress axis : x y z
#
# Youngs Moduli (GPa) = 39.89083 30.87128 33.89994
#
# Poissons Ratio (x) = -0.23421 0.33708
# Poissons Ratio (y) = -0.30263 0.23974
# Poissons Ratio (z) = 0.39665 0.21832
#
# Static dielectric constant tensor:
#      x y z
#    x 1.830880 0.000000 0.008450 
#    y 0.000000 1.825160 0.000000 
#    z 0.008450 0.000000 1.760700 
# 
# From -- ./inp_files/11403.got.cif
#   From: 2010.05.17/outbox.cif.g08.bks.cpg/sg4_6_cif.got.tgz:11403.got - 2010.06.03 18:43:04.
