data_PCOD9116212
_publ_section_title
;
Structure prediction by ZEFSAII (Michael W. Deem and Ramdas Pophale) SiO2 
 PCOD9116212
Probable space group: P 21
;
_chemical_formula_sum "Si O2"
_cell_formula_units_Z 14
_cell_length_a 23.524440
_cell_length_b 4.941502
_cell_length_c 7.155103
_cell_angle_alpha 90.000000
_cell_angle_beta 43.781301
_cell_angle_gamma 90.000000
_cell_volume 575.495922
_symmetry_space_group_name_H-M "P 21"
_symmetry_group_IT_number 4
_symmetry_cell_setting 'monoclinic'
loop_
_space_group_symop_operation_xyz
x,y,z
-x,1/2+y,-z
loop_
_atom_site_type_symbol
_atom_site_label
_atom_site_fract_x
_atom_site_fract_y
_atom_site_fract_z
Si Si1 0.303348 0.169050 0.509512
Si Si2 0.201414 0.670600 0.785592
Si Si3 0.278384 0.143689 0.120848
Si Si4 0.825055 0.150126 0.595159
Si Si5 0.052935 0.829927 0.405495
Si Si6 0.452715 0.514376 0.074633
Si Si7 0.552253 0.862268 0.331234
O O1 0.230344 0.365570 0.750830
O O2 0.300154 0.147560 0.290215
O O3 0.278583 0.872036 0.634499
O O4 0.385352 0.342979 0.346718
O O5 0.177703 0.681503 0.621892
O O6 0.125544 0.762716 0.088885
O O7 0.202934 0.350900 0.282030
O O8 0.246130 0.846607 0.155410
O O9 0.359332 0.242760 0.820920
O O10 0.909958 0.245499 0.482429
O O11 0.976621 0.636258 0.538294
O O12 0.432829 0.506632 0.903007
O O13 0.467241 0.822922 0.093625
O O14 0.493383 0.599058 0.446346
#
# Coordination Sequence:
#
# PCOD9116212 Si02
#       7
#     2   2   2   2   2   2   2
#     4   9  19  38  62  82 117 162 203 248 292 361
#     4  10  21  41  64  88 116 161 206 240 304 368
#     4   9  19  38  62  82 117 162 203 248 292 361
#     4  10  21  41  64  88 116 161 206 240 304 368
#     4  12  26  42  62  94 128 150 192 260 312 368
#     4  11  22  39  58  88 127 164 209 263 317 366
#     4  11  22  39  58  88 127 164 209 263 317 366
#
# _framework density 24.326844999999999
#
# number of rings (size 3 to 8) (size 9 to 14) (size 15 to 20)
#    0.000    1.714    0.000    4.286    0.000    5.714 
#   15.429    0.000    0.000    0.000    0.000    0.000 
#    0.000    0.000    0.000    0.000    0.000    0.000 
#
# Total GULP energy -78345.421767 kJ/mol
# GULP energy per Si atom -5596.101555 kJ/mol
# Density = 2.427148 g / cm^3
# Si number density = 24.326845 Si / 1000 Ang^3
#
#
#
# Elastic Constant Matrix: (Units=GPa)
#
#
# Indices 1 2 3 4 5 6 
#
# 1 40.5683 -11.8369 -0.6988 0.0000 3.4122 0.0000
# 2 -11.8369 100.9664 -4.6267 0.0000 1.2554 0.0000
# 3 -0.6988 -4.6267 81.2861 0.0000 7.1144 0.0000
# 4 0.0000 0.0000 0.0000 28.7520 0.0000 -12.0788
# 5 3.4122 1.2554 7.1144 0.0000 34.5185 0.0000
# 6 0.0000 0.0000 0.0000 -12.0788 0.0000 20.1118
#
#
#
# Elastic Compliance Matrix: (Units=1/GPa)
#
#
# Indices 1 2 3 4 5 6 
#
# 1 0.025797 0.003089 0.000642 0.000000 -0.002795 0.000000
# 2 0.003089 0.010308 0.000685 0.000000 -0.000821 0.000000
# 3 0.000642 0.000685 0.012581 0.000000 -0.002681 0.000000
# 4 0.000000 0.000000 0.000000 0.046517 0.000000 0.027937
# 5 -0.002795 -0.000821 -0.002681 0.000000 0.029829 0.000000
# 6 0.000000 0.000000 0.000000 0.027937 0.000000 0.066501
#
#
# Mechanical properties :
#
#
# Convention : Reuss Voigt Hill
#
# Bulk Modulus (GPa) = 17.38582 20.94401 19.16491
# Shear Modulus (GPa) = 24.76795 32.67533 28.72164
#
# Velocity S-wave (km/s) = 3.19428 3.66892 3.43980
# Velocity P-wave (km/s) = 4.55707 5.15520 4.86533
#
# Compressibility (1/GPa) = 0.05751815
#
# Stress axis : x y z
#
# Youngs Moduli (GPa) = 38.76412 97.01222 79.48222
#
# Poissons Ratio (x) = -0.29962 -0.05104
# Poissons Ratio (y) = -0.11972 -0.05446
# Poissons Ratio (z) = -0.02489 -0.06647
#
# Static dielectric constant tensor:
#      x y z
#    x 1.983640 0.000000 -0.018490 
#    y 0.000000 1.850200 0.000000 
#    z -0.018490 0.000000 1.922400 
# 
# From -- ./inp_files/10107.got.cif
#   From: 2010.05.17/outbox.cif.g08.bks.cpg/sg4_6_cif.got.tgz:10107.got - 2010.06.03 18:43:04.
