data_PCOD9116427
_publ_section_title
;
Structure prediction by ZEFSAII (Michael W. Deem and Ramdas Pophale) SiO2 
 PCOD9116427
Probable space group: P 21
;
_chemical_formula_sum "Si O2"
_cell_formula_units_Z 16
_cell_length_a 10.985600
_cell_length_b 12.493601
_cell_length_c 7.822974
_cell_angle_alpha 90.000000
_cell_angle_beta 138.931435
_cell_angle_gamma 90.000000
_cell_volume 705.380351
_symmetry_space_group_name_H-M "P 21"
_symmetry_group_IT_number 4
_symmetry_cell_setting 'monoclinic'
loop_
_space_group_symop_operation_xyz
x,y,z
-x,1/2+y,-z
loop_
_atom_site_type_symbol
_atom_site_label
_atom_site_fract_x
_atom_site_fract_y
_atom_site_fract_z
Si Si1 0.597300 0.828270 0.826191
Si Si2 0.334651 0.493943 0.398412
Si Si3 0.817262 0.494255 0.199306
Si Si4 0.204766 0.825311 0.559888
Si Si5 0.776189 0.902749 0.371782
Si Si6 0.028321 0.028267 0.182839
Si Si7 0.322904 0.114867 0.257115
Si Si8 0.950782 0.683171 0.518991
O O1 0.590552 0.910050 0.662020
O O2 0.390562 0.793184 0.660601
O O3 0.710433 0.727275 0.871518
O O4 0.687656 0.883621 0.090327
O O5 0.344252 0.451712 0.602909
O O6 0.458283 0.598200 0.496845
O O7 0.121133 0.511609 0.122685
O O8 0.733890 0.393625 0.208272
O O9 0.793574 0.603296 0.281084
O O10 0.037888 0.473859 0.438337
O O11 0.743235 0.518300 0.935672
O O12 0.078212 0.730767 0.501572
O O13 0.090836 0.914059 0.328653
O O14 0.855271 0.785564 0.503330
O O15 0.207214 0.092134 0.303718
O O16 0.942794 0.108697 0.233256
#
# Coordination Sequence:
#
# PCOD9116427 Si02
#       8
#     2   2   2   2   2   2   2   2
#     4  12  25  46  72 108 148 183 243 302 354 438
#     4  12  26  47  71 107 141 192 238 293 372 420
#     4  10  21  43  71  99 140 184 238 291 357 424
#     4  10  23  44  71 103 143 189 234 300 359 429
#     4  11  23  44  73  99 140 192 232 297 360 423
#     4  11  24  49  73  99 151 185 239 303 356 435
#     4  12  25  46  71 106 142 186 239 301 360 431
#     4  10  21  43  70 101 131 195 235 283 364 420
#
# _framework density 22.682797000000001
#
# number of rings (size 3 to 8) (size 9 to 14) (size 15 to 20)
#    0.000    1.000    3.750    3.750    1.750    0.000 
#   13.500    0.000    0.000    0.000    0.000    0.000 
#    0.000    0.000    0.000    0.000    0.000    0.000 
#
# Total GULP energy -89352.396325 kJ/mol
# GULP energy per Si atom -5584.524770 kJ/mol
# Density = 2.263117 g / cm^3
# Si number density = 22.682797 Si / 1000 Ang^3
#
#
#
# Elastic Constant Matrix: (Units=GPa)
#
#
# Indices 1 2 3 4 5 6 
#
# 1 127.4558 32.8042 18.0877 0.0000 -0.5314 0.0000
# 2 32.8042 77.3429 2.6452 0.0000 -6.9185 0.0000
# 3 18.0877 2.6452 63.1758 0.0000 -8.1615 0.0000
# 4 0.0000 0.0000 0.0000 24.8744 0.0000 -9.1662
# 5 -0.5314 -6.9185 -8.1615 0.0000 36.0086 0.0000
# 6 0.0000 0.0000 0.0000 -9.1662 0.0000 38.0989
#
#
#
# Elastic Compliance Matrix: (Units=1/GPa)
#
#
# Indices 1 2 3 4 5 6 
#
# 1 0.009227 -0.003932 -0.002634 0.000000 -0.001216 0.000000
# 2 -0.003932 0.014835 0.000891 0.000000 0.002994 0.000000
# 3 -0.002634 0.000891 0.017062 0.000000 0.004000 0.000000
# 4 0.000000 0.000000 0.000000 0.044113 0.000000 0.010613
# 5 -0.001216 0.002994 0.004000 0.000000 0.029235 0.000000
# 6 0.000000 0.000000 0.000000 0.010613 0.000000 0.028801
#
#
# Mechanical properties :
#
#
# Convention : Reuss Voigt Hill
#
# Bulk Modulus (GPa) = 33.58632 41.67209 37.62921
# Shear Modulus (GPa) = 30.38653 34.09221 32.23937
#
# Velocity S-wave (km/s) = 3.66407 3.88106 3.77412
# Velocity P-wave (km/s) = 5.72185 6.20444 5.96802
#
# Compressibility (1/GPa) = 0.02977403
#
# Stress axis : x y z
#
# Youngs Moduli (GPa) = 108.38183 67.41016 58.60840
#
# Poissons Ratio (x) = 0.26506 0.15438
# Poissons Ratio (y) = 0.42617 -0.05225
# Poissons Ratio (z) = 0.28549 -0.06009
#
# Static dielectric constant tensor:
#      x y z
#    x 1.875700 0.000000 0.002610 
#    y 0.000000 1.835280 0.000000 
#    z 0.002610 0.000000 1.888110 
# 
# From -- ./inp_files/8405.got.cif
#   From: 2010.05.17/outbox.cif.g08.bks.cpg/sg4_5_cif.got.tgz:8405.got - 2010.06.03 18:43:04.
