data_PCOD9116888
_publ_section_title
;
Structure prediction by ZEFSAII (Michael W. Deem and Ramdas Pophale) SiO2 
 PCOD9116888
Probable space group: P 21
;
_chemical_formula_sum "Si O2"
_cell_formula_units_Z 16
_cell_length_a 5.673977
_cell_length_b 12.253329
_cell_length_c 11.280438
_cell_angle_alpha 90.000000
_cell_angle_beta 63.020576
_cell_angle_gamma 90.000000
_cell_volume 698.920766
_symmetry_space_group_name_H-M "P 21"
_symmetry_group_IT_number 4
_symmetry_cell_setting 'monoclinic'
loop_
_space_group_symop_operation_xyz
x,y,z
-x,1/2+y,-z
loop_
_atom_site_type_symbol
_atom_site_label
_atom_site_fract_x
_atom_site_fract_y
_atom_site_fract_z
Si Si1 0.275962 0.822290 0.543039
Si Si2 0.347881 0.590522 0.187447
Si Si3 0.875525 0.665740 0.948759
Si Si4 0.836613 0.082235 0.336057
Si Si5 0.239596 0.443692 0.428575
Si Si6 0.876952 0.274505 0.907310
Si Si7 0.580671 0.903086 0.258347
Si Si8 0.387377 0.398360 0.021090
O O1 0.246467 0.699169 0.595081
O O2 0.498605 0.881767 0.577713
O O3 0.394620 0.830345 0.383207
O O4 0.980713 0.874090 0.593698
O O5 0.329283 0.541946 0.322001
O O6 0.210591 0.704747 0.187084
O O7 0.644631 0.610641 0.075905
O O8 0.249989 0.494005 0.123119
O O9 0.948271 0.602356 0.814584
O O10 0.784618 0.788454 0.937644
O O11 0.103559 0.685903 0.991919
O O12 0.906732 0.000302 0.426269
O O13 0.605518 0.017803 0.320179
O O14 0.669269 0.360696 0.006899
O O15 0.141425 0.337590 0.812689
O O16 0.533240 0.924914 0.131787
#
# Coordination Sequence:
#
# PCOD9116888 Si02
#       8
#     2   2   2   2   2   2   2   2
#     4  11  28  48  73 105 151 189 253 299 371 439
#     4  11  24  41  72  99 145 187 244 302 380 424
#     4  10  23  42  67 105 133 192 242 301 369 440
#     4  11  25  47  75 102 146 197 242 306 372 443
#     4  11  29  48  72 110 146 195 243 308 364 448
#     4  10  23  40  69 102 140 183 246 306 365 445
#     4  10  24  43  70 104 139 192 241 302 373 443
#     4  10  22  41  68 101 144 183 241 310 364 446
#
# _framework density 22.892440000000001
#
# number of rings (size 3 to 8) (size 9 to 14) (size 15 to 20)
#    0.000    1.500    0.000    2.250   14.000    4.000 
#    2.250    0.000    0.000    0.000    0.000    0.000 
#    0.000    0.000    0.000    0.000    0.000    0.000 
#
# Total GULP energy -89327.539451 kJ/mol
# GULP energy per Si atom -5582.971216 kJ/mol
# Density = 2.284034 g / cm^3
# Si number density = 22.892440 Si / 1000 Ang^3
#
#
#
# Elastic Constant Matrix: (Units=GPa)
#
#
# Indices 1 2 3 4 5 6 
#
# 1 80.8272 37.8258 21.4980 0.0000 6.7122 0.0000
# 2 37.8258 102.1112 17.4616 0.0000 13.0195 0.0000
# 3 21.4980 17.4616 81.4668 0.0000 18.1756 0.0000
# 4 0.0000 0.0000 0.0000 36.3708 0.0000 -3.6807
# 5 6.7122 13.0195 18.1756 0.0000 23.9575 0.0000
# 6 0.0000 0.0000 0.0000 -3.6807 0.0000 16.9475
#
#
#
# Elastic Compliance Matrix: (Units=1/GPa)
#
#
# Indices 1 2 3 4 5 6 
#
# 1 0.015658 -0.005376 -0.003193 0.000000 0.000957 0.000000
# 2 -0.005376 0.012463 -0.000093 0.000000 -0.005196 0.000000
# 3 -0.003193 -0.000093 0.015560 0.000000 -0.010860 0.000000
# 4 0.000000 0.000000 0.000000 0.028112 0.000000 0.006106
# 5 0.000957 -0.005196 -0.010860 0.000000 0.052535 0.000000
# 6 0.000000 0.000000 0.000000 0.006106 0.000000 0.060332
#
#
# Mechanical properties :
#
#
# Convention : Reuss Voigt Hill
#
# Bulk Modulus (GPa) = 37.94218 46.44179 42.19199
# Shear Modulus (GPa) = 23.72238 27.96316 25.84277
#
# Velocity S-wave (km/s) = 3.22258 3.49879 3.36352
# Velocity P-wave (km/s) = 5.51877 6.05418 5.79266
#
# Compressibility (1/GPa) = 0.02635589
#
# Stress axis : x y z
#
# Youngs Moduli (GPa) = 63.86557 80.23564 64.26566
#
# Poissons Ratio (x) = 0.43137 0.20521
# Poissons Ratio (y) = 0.34336 0.00600
# Poissons Ratio (z) = 0.20393 0.00750
#
# Static dielectric constant tensor:
#      x y z
#    x 1.965890 0.000000 0.022200 
#    y 0.000000 1.877600 0.000000 
#    z 0.022200 0.000000 1.832520 
# 
# From -- ./inp_files/3029.got.cif
#   From: 2010.05.17/outbox.cif.g08.bks.cpg/sg4_2_cif.got.tgz:3029.got - 2010.06.03 18:43:04.
