data_PCOD9116773
_publ_section_title
;
Structure prediction by ZEFSAII (Michael W. Deem and Ramdas Pophale) SiO2 
 PCOD9116773
Probable space group: P 21
;
_chemical_formula_sum "Si O2"
_cell_formula_units_Z 16
_cell_length_a 13.046275
_cell_length_b 4.928006
_cell_length_c 18.253773
_cell_angle_alpha 90.000000
_cell_angle_beta 34.968521
_cell_angle_gamma 90.000000
_cell_volume 672.606002
_symmetry_space_group_name_H-M "P 21"
_symmetry_group_IT_number 4
_symmetry_cell_setting 'monoclinic'
loop_
_space_group_symop_operation_xyz
x,y,z
-x,1/2+y,-z
loop_
_atom_site_type_symbol
_atom_site_label
_atom_site_fract_x
_atom_site_fract_y
_atom_site_fract_z
Si Si1 0.406211 0.434830 0.367208
Si Si2 0.024672 0.030622 0.069752
Si Si3 0.282095 0.265353 0.813287
Si Si4 0.902172 0.690335 0.374411
Si Si5 0.577045 0.362185 0.988496
Si Si6 0.953546 0.999642 0.482852
Si Si7 0.953630 0.660998 0.787599
Si Si8 0.354900 0.654220 0.895089
O O1 0.554003 0.615769 0.320398
O O2 0.299554 0.206992 0.475568
O O3 0.242184 0.600969 0.427548
O O4 0.520098 0.314910 0.234530
O O5 0.044534 0.230053 0.127606
O O6 0.110062 0.095136 0.940331
O O7 0.814726 0.985932 0.179631
O O8 0.157883 0.786458 0.015061
O O9 0.344658 0.374124 0.856636
O O10 0.014563 0.830892 0.375424
O O11 0.982045 0.409645 0.300083
O O12 0.912917 0.910024 0.303637
O O13 0.761159 0.533774 0.880294
O O14 0.437064 0.609743 0.059701
O O15 0.564010 0.197468 0.072528
O O16 0.941979 0.762069 0.550620
#
# Coordination Sequence:
#
# PCOD9116773 Si02
#       8
#     2   2   2   2   2   2   2   2
#     4   9  25  39  70  99 139 187 236 306 351 422
#     4  10  23  39  73 109 134 186 241 302 382 441
#     4  11  21  43  72 107 142 180 242 318 372 433
#     4  10  24  43  69  99 142 193 235 296 355 430
#     4  11  26  43  67 103 149 193 246 297 371 437
#     4  10  22  40  67  97 136 185 250 290 343 420
#     4  11  24  44  72 100 147 194 238 297 363 451
#     4  10  23  41  70  98 145 182 238 308 361 432
#
# _framework density 23.788072
#
# number of rings (size 3 to 8) (size 9 to 14) (size 15 to 20)
#    0.750    1.000    1.250    1.500   12.250    3.000 
#    0.000    0.000    2.750    0.000    0.000    0.000 
#    0.000    0.000    0.000    0.000    0.000    0.000 
#
# Total GULP energy -89147.124519 kJ/mol
# GULP energy per Si atom -5571.695282 kJ/mol
# Density = 2.373393 g / cm^3
# Si number density = 23.788072 Si / 1000 Ang^3
#
#
#
# Elastic Constant Matrix: (Units=GPa)
#
#
# Indices 1 2 3 4 5 6 
#
# 1 75.8920 23.3374 34.8313 0.0000 -4.7819 0.0000
# 2 23.3374 89.9103 25.2237 0.0000 -2.2386 0.0000
# 3 34.8313 25.2237 89.4500 0.0000 -0.8204 0.0000
# 4 0.0000 0.0000 0.0000 37.4735 0.0000 1.0430
# 5 -4.7819 -2.2386 -0.8204 0.0000 26.6415 0.0000
# 6 0.0000 0.0000 0.0000 1.0430 0.0000 24.2252
#
#
#
# Elastic Compliance Matrix: (Units=1/GPa)
#
#
# Indices 1 2 3 4 5 6 
#
# 1 0.016812 -0.002681 -0.005767 0.000000 0.002615 0.000000
# 2 -0.002681 0.012527 -0.002484 0.000000 0.000495 0.000000
# 3 -0.005767 -0.002484 0.014118 0.000000 -0.000809 0.000000
# 4 0.000000 0.000000 0.000000 0.026718 0.000000 -0.001150
# 5 0.002615 0.000495 -0.000809 0.000000 0.038022 0.000000
# 6 0.000000 0.000000 0.000000 -0.001150 0.000000 0.041329
#
#
# Mechanical properties :
#
#
# Convention : Reuss Voigt Hill
#
# Bulk Modulus (GPa) = 46.30843 46.89300 46.60072
# Shear Modulus (GPa) = 27.99753 29.12535 28.56144
#
# Velocity S-wave (km/s) = 3.43440 3.50289 3.46882
# Velocity P-wave (km/s) = 5.93601 6.00966 5.97294
#
# Compressibility (1/GPa) = 0.02159434
#
# Stress axis : x y z
#
# Youngs Moduli (GPa) = 59.47969 79.82574 70.83165
#
# Poissons Ratio (x) = 0.21401 0.40846
# Poissons Ratio (y) = 0.15946 0.17595
# Poissons Ratio (z) = 0.34300 0.19829
#
# Static dielectric constant tensor:
#      x y z
#    x 2.005020 0.000000 -0.011290 
#    y 0.000000 2.028040 0.000000 
#    z -0.011290 0.000000 1.970640 
# 
# From -- ./inp_files/15733.got.cif
#   From: 2010.05.17/outbox.cif.g08.bks.cpg/sg4_8_cif.got.tgz:15733.got - 2010.06.03 18:43:04.
