data_PCOD9116964
_publ_section_title
;
Structure prediction by ZEFSAII (Michael W. Deem and Ramdas Pophale) SiO2 
 PCOD9116964
Probable space group: P 21
;
_chemical_formula_sum "Si O2"
_cell_formula_units_Z 14
_cell_length_a 9.775089
_cell_length_b 8.291992
_cell_length_c 8.011812
_cell_angle_alpha 90.000000
_cell_angle_beta 77.227169
_cell_angle_gamma 90.000000
_cell_volume 633.327314
_symmetry_space_group_name_H-M "P 21"
_symmetry_group_IT_number 4
_symmetry_cell_setting 'monoclinic'
loop_
_space_group_symop_operation_xyz
x,y,z
-x,1/2+y,-z
loop_
_atom_site_type_symbol
_atom_site_label
_atom_site_fract_x
_atom_site_fract_y
_atom_site_fract_z
Si Si1 0.105502 0.046160 0.075814
Si Si2 0.536465 0.166210 0.311352
Si Si3 0.171578 0.686632 0.944222
Si Si4 0.722227 0.476919 0.655912
Si Si5 0.855171 0.133249 0.693475
Si Si6 0.670890 0.936977 0.517567
Si Si7 0.177490 0.163851 0.689762
O O1 0.165990 0.122458 0.888106
O O2 0.112633 0.857113 0.027083
O O3 0.188562 0.070001 0.225376
O O4 0.947292 0.109608 0.139164
O O5 0.677089 0.206134 0.175085
O O6 0.438591 0.023627 0.264500
O O7 0.437424 0.320997 0.357788
O O8 0.589777 0.091995 0.471264
O O9 0.183447 0.581567 0.108104
O O10 0.769318 0.293291 0.665927
O O11 0.751521 0.536046 0.458299
O O12 0.019919 0.171323 0.657310
O O13 0.804008 0.992933 0.587651
O O14 0.734687 0.826842 0.354126
#
# Coordination Sequence:
#
# PCOD9116964 Si02
#       7
#     2   2   2   2   2   2   2
#     4  10  24  44  68 102 135 175 232 286 335 412
#     4  11  26  44  64 101 134 186 225 276 353 407
#     4  10  25  43  68 100 135 178 230 284 349 402
#     4  10  23  44  65  98 134 178 227 279 349 405
#     4  10  22  42  67 101 131 175 234 280 343 407
#     4  11  25  43  68  98 141 182 231 282 344 416
#     4  10  23  42  70 102 130 182 229 289 341 399
#
# _framework density 22.105473
#
# number of rings (size 3 to 8) (size 9 to 14) (size 15 to 20)
#    0.000    1.714    0.000    1.714   14.000    6.857 
#    5.143    0.000    0.000    0.000    0.000    0.000 
#    0.000    0.000    0.000    0.000    0.000    0.000 
#
# Total GULP energy -78197.698827 kJ/mol
# GULP energy per Si atom -5585.549916 kJ/mol
# Density = 2.205516 g / cm^3
# Si number density = 22.105473 Si / 1000 Ang^3
#
#
#
# Elastic Constant Matrix: (Units=GPa)
#
#
# Indices 1 2 3 4 5 6 
#
# 1 81.7970 8.8709 16.0381 0.0000 -23.4749 0.0000
# 2 8.8709 24.9079 -0.2690 0.0000 -6.1581 0.0000
# 3 16.0381 -0.2690 59.3384 0.0000 -2.8778 0.0000
# 4 0.0000 0.0000 0.0000 29.5164 0.0000 5.2820
# 5 -23.4749 -6.1581 -2.8778 0.0000 34.5610 0.0000
# 6 0.0000 0.0000 0.0000 5.2820 0.0000 26.5723
#
#
#
# Elastic Compliance Matrix: (Units=1/GPa)
#
#
# Indices 1 2 3 4 5 6 
#
# 1 0.016261 -0.003330 -0.003919 0.000000 0.010125 0.000000
# 2 -0.003330 0.042698 0.001358 0.000000 0.005459 0.000000
# 3 -0.003919 0.001358 0.017873 0.000000 -0.000932 0.000000
# 4 0.000000 0.000000 0.000000 0.035129 0.000000 -0.006983
# 5 0.010125 0.005459 -0.000932 0.000000 0.036707 0.000000
# 6 0.000000 0.000000 0.000000 -0.006983 0.000000 0.039021
#
#
# Mechanical properties :
#
#
# Convention : Reuss Voigt Hill
#
# Bulk Modulus (GPa) = 15.37278 23.92481 19.64880
# Shear Modulus (GPa) = 22.60868 27.55683 25.08276
#
# Velocity S-wave (km/s) = 3.20154 3.53456 3.37216
# Velocity P-wave (km/s) = 4.54267 5.24443 4.90611
#
# Compressibility (1/GPa) = 0.06505004
#
# Stress axis : x y z
#
# Youngs Moduli (GPa) = 61.49766 23.42013 55.95123
#
# Poissons Ratio (x) = 0.07800 0.21927
# Poissons Ratio (y) = 0.20480 -0.07600
# Poissons Ratio (z) = 0.24101 -0.03181
#
# Static dielectric constant tensor:
#      x y z
#    x 1.814860 0.000000 -0.001570 
#    y 0.000000 1.851180 0.000000 
#    z -0.001570 0.000000 1.832340 
# 
# From -- ./inp_files/5545.got.cif
#   From: 2010.05.17/outbox.cif.g08.bks.cpg/sg4_3_cif.got.tgz:5545.got - 2010.06.03 18:43:04.
