data_PCOD9116577
_publ_section_title
;
Structure prediction by ZEFSAII (Michael W. Deem and Ramdas Pophale) SiO2 
 PCOD9116577
Probable space group: P 21
;
_chemical_formula_sum "Si O2"
_cell_formula_units_Z 14
_cell_length_a 15.046417
_cell_length_b 7.969681
_cell_length_c 11.988920
_cell_angle_alpha 90.000000
_cell_angle_beta 27.914493
_cell_angle_gamma 90.000000
_cell_volume 673.042096
_symmetry_space_group_name_H-M "P 21"
_symmetry_group_IT_number 4
_symmetry_cell_setting 'monoclinic'
loop_
_space_group_symop_operation_xyz
x,y,z
-x,1/2+y,-z
loop_
_atom_site_type_symbol
_atom_site_label
_atom_site_fract_x
_atom_site_fract_y
_atom_site_fract_z
Si Si1 0.586100 0.387690 0.079109
Si Si2 0.658588 0.436709 0.742179
Si Si3 0.697647 0.501800 0.386832
Si Si4 0.841497 0.474082 0.985599
Si Si5 0.657886 0.998985 0.068745
Si Si6 0.795930 0.758692 0.444918
Si Si7 0.034887 0.816638 0.734550
O O1 0.636135 0.436018 0.898295
O O2 0.698306 0.497292 0.042779
O O3 0.361220 0.395073 0.348598
O O4 0.649652 0.195193 0.040308
O O5 0.455266 0.410664 0.907936
O O6 0.747864 0.607395 0.586687
O O7 0.809836 0.298627 0.535576
O O8 0.485678 0.473552 0.667739
O O9 0.744689 0.690203 0.377850
O O10 0.850850 0.401032 0.290744
O O11 0.727936 0.454999 0.226200
O O12 0.992031 0.326797 0.792807
O O13 0.960278 0.642645 0.861735
O O14 0.860540 0.926568 0.878748
#
# Coordination Sequence:
#
# PCOD9116577 Si02
#       7
#     2   2   2   2   2   2   2
#     4  10  22  38  61  86 112 155 197 237 293 346
#     4   9  21  41  60  82 116 155 195 240 289 344
#     4   9  21  41  59  82 118 157 199 243 285 341
#     4  12  23  34  59  92 118 154 196 237 295 352
#     4   9  21  41  61  82 116 155 193 244 293 339
#     4   9  22  42  59  83 120 155 195 246 288 339
#     4  10  22  37  59  87 116 153 195 241 293 345
#
# _framework density 20.801075999999998
#
# number of rings (size 3 to 8) (size 9 to 14) (size 15 to 20)
#    0.000    2.857    0.000    2.571    0.000   13.714 
#    0.000    0.000    0.000    0.000    0.000    0.000 
#    0.000    0.000    0.000    0.000    0.000    0.000 
#
# Total GULP energy -78059.023892 kJ/mol
# GULP energy per Si atom -5575.644564 kJ/mol
# Density = 2.075373 g / cm^3
# Si number density = 20.801076 Si / 1000 Ang^3
#
#
#
# Elastic Constant Matrix: (Units=GPa)
#
#
# Indices 1 2 3 4 5 6 
#
# 1 1019.3362 467.9587 818.2577 0.0000 284.0808 0.0000
# 2 467.9587 268.7256 391.4148 0.0000 131.9130 0.0000
# 3 818.2577 391.4148 702.3726 0.0000 227.2817 0.0000
# 4 0.0000 0.0000 0.0000 24.1807 0.0000 -1.4221
# 5 284.0808 131.9130 227.2817 0.0000 111.4170 0.0000
# 6 0.0000 0.0000 0.0000 -1.4221 0.0000 13.7279
#
#
#
# Elastic Compliance Matrix: (Units=1/GPa)
#
#
# Indices 1 2 3 4 5 6 
#
# 1 0.018346 -0.003416 -0.016597 0.000000 -0.008875 0.000000
# 2 -0.003416 0.020688 -0.007184 0.000000 -0.001130 0.000000
# 3 -0.016597 -0.007184 0.024468 0.000000 0.000910 0.000000
# 4 0.000000 0.000000 0.000000 0.041609 0.000000 0.004310
# 5 -0.008875 -0.001130 0.000910 0.000000 0.031086 0.000000
# 6 0.000000 0.000000 0.000000 0.004310 0.000000 0.073291
#
#
# Mechanical properties :
#
#
# Convention : Reuss Voigt Hill
#
# Bulk Modulus (GPa) = 109.79255 593.96631 351.87943
# Shear Modulus (GPa) = 18.73248 50.71865 34.72557
#
# Velocity S-wave (km/s) = 3.00418 4.94324 4.09028
# Velocity P-wave (km/s) = 8.05793 17.85348 13.85058
#
# Compressibility (1/GPa) = 0.00910809
#
# Stress axis : x y z
#
# Youngs Moduli (GPa) = 54.50860 48.33743 40.87020
#
# Poissons Ratio (x) = 0.16513 0.67832
# Poissons Ratio (y) = 0.18621 0.29360
# Poissons Ratio (z) = 0.90467 0.34724
#
# Static dielectric constant tensor:
#      x y z
#    x 1.711790 0.000000 -0.014900 
#    y 0.000000 1.846030 0.000000 
#    z -0.014900 0.000000 1.767760 
# 
# From -- ./inp_files/12581.got.cif
#   From: 2010.05.17/outbox.cif.g08.bks.cpg/sg4_7_cif.got.tgz:12581.got - 2010.06.03 18:43:04.
