data_PCOD9116978
_publ_section_title
;
Structure prediction by ZEFSAII (Michael W. Deem and Ramdas Pophale) SiO2 
 PCOD9116978
Probable space group: P 21
;
_chemical_formula_sum "Si O2"
_cell_formula_units_Z 14
_cell_length_a 13.313794
_cell_length_b 8.450853
_cell_length_c 5.484619
_cell_angle_alpha 90.000000
_cell_angle_beta 110.296078
_cell_angle_gamma 90.000000
_cell_volume 578.776983
_symmetry_space_group_name_H-M "P 21"
_symmetry_group_IT_number 4
_symmetry_cell_setting 'monoclinic'
loop_
_space_group_symop_operation_xyz
x,y,z
-x,1/2+y,-z
loop_
_atom_site_type_symbol
_atom_site_label
_atom_site_fract_x
_atom_site_fract_y
_atom_site_fract_z
Si Si1 0.326755 0.458480 0.723253
Si Si2 0.366167 0.706861 0.372040
Si Si3 0.956866 0.435180 0.233740
Si Si4 0.440539 0.864661 0.951246
Si Si5 0.748446 0.603789 0.283851
Si Si6 0.122525 0.636237 0.644959
Si Si7 0.838638 0.396040 0.732055
O O1 0.342636 0.530351 0.461104
O O2 0.273996 0.287271 0.713812
O O3 0.242887 0.576747 0.783047
O O4 0.442415 0.439872 0.939920
O O5 0.415872 0.784392 0.665867
O O6 0.253275 0.792280 0.216421
O O7 0.433900 0.751326 0.187678
O O8 0.853616 0.540498 0.230327
O O9 0.938286 0.245252 0.213871
O O10 0.055770 0.495040 0.469131
O O11 0.948007 0.460528 0.938757
O O12 0.352654 0.004479 0.899315
O O13 0.772702 0.543211 0.575656
O O14 0.129496 0.775851 0.451560
#
# Coordination Sequence:
#
# PCOD9116978 Si02
#       7
#     2   2   2   2   2   2   2
#     4  11  24  43  67 104 145 179 247 297 361 439
#     4  10  23  44  69 103 138 193 233 297 359 424
#     4  11  21  44  70  93 141 178 237 293 369 430
#     4  11  23  46  71  99 148 191 240 293 362 425
#     4  10  22  42  68 101 132 183 240 292 360 428
#     4  10  24  40  65 101 131 187 230 299 362 435
#     4   9  21  41  66  91 135 177 227 293 357 427
#
# _framework density 24.188935000000001
#
# number of rings (size 3 to 8) (size 9 to 14) (size 15 to 20)
#    0.000    1.714    1.429    2.571    0.000    6.857 
#    7.714    1.429    0.000    0.000    0.000    0.000 
#    0.000    0.000    0.000    0.000    0.000    0.000 
#
# Total GULP energy -78014.346620 kJ/mol
# GULP energy per Si atom -5572.453330 kJ/mol
# Density = 2.413388 g / cm^3
# Si number density = 24.188935 Si / 1000 Ang^3
#
#
#
# Elastic Constant Matrix: (Units=GPa)
#
#
# Indices 1 2 3 4 5 6 
#
# 1 35.9413 32.9555 11.6418 0.0000 6.7545 0.0000
# 2 32.9555 124.3490 49.8115 0.0000 -19.3810 0.0000
# 3 11.6418 49.8115 82.4582 0.0000 -0.3797 0.0000
# 4 0.0000 0.0000 0.0000 23.0448 0.0000 5.9868
# 5 6.7545 -19.3810 -0.3797 0.0000 32.8697 0.0000
# 6 0.0000 0.0000 0.0000 5.9868 0.0000 31.0819
#
#
#
# Elastic Compliance Matrix: (Units=1/GPa)
#
#
# Indices 1 2 3 4 5 6 
#
# 1 0.045174 -0.016249 0.003351 0.000000 -0.018825 0.000000
# 2 -0.016249 0.017878 -0.008442 0.000000 0.013783 0.000000
# 3 0.003351 -0.008442 0.016729 0.000000 -0.005473 0.000000
# 4 0.000000 0.000000 0.000000 0.045680 0.000000 -0.008798
# 5 -0.018825 0.013783 -0.005473 0.000000 0.042355 0.000000
# 6 0.000000 0.000000 0.000000 -0.008798 0.000000 0.033868
#
#
# Mechanical properties :
#
#
# Convention : Reuss Voigt Hill
#
# Bulk Modulus (GPa) = 26.95321 47.95177 37.45249
# Shear Modulus (GPa) = 19.47560 27.28860 23.38210
#
# Velocity S-wave (km/s) = 2.84059 3.36243 3.11246
# Velocity P-wave (km/s) = 4.68247 5.91113 5.33231
#
# Compressibility (1/GPa) = 0.03710134
#
# Stress axis : x y z
#
# Youngs Moduli (GPa) = 22.13643 55.93395 59.77659
#
# Poissons Ratio (x) = 0.90885 -0.20031
# Poissons Ratio (y) = 0.35969 0.50466
# Poissons Ratio (z) = -0.07418 0.47222
#
# Static dielectric constant tensor:
#      x y z
#    x 2.113990 0.000000 -0.213100 
#    y 0.000000 1.964520 0.000000 
#    z -0.213100 0.000000 2.184850 
# 
# From -- ./inp_files/3654.got.cif
#   From: 2010.05.17/outbox.cif.g08.bks.cpg/sg4_2_cif.got.tgz:3654.got - 2010.06.03 18:43:04.
