data_PCOD9116759
_publ_section_title
;
Structure prediction by ZEFSAII (Michael W. Deem and Ramdas Pophale) SiO2 
 PCOD9116759
Probable space group: P 21
;
_chemical_formula_sum "Si O2"
_cell_formula_units_Z 14
_cell_length_a 21.504082
_cell_length_b 5.088032
_cell_length_c 23.904043
_cell_angle_alpha 90.000000
_cell_angle_beta 168.775018
_cell_angle_gamma 90.000000
_cell_volume 509.123788
_symmetry_space_group_name_H-M "P 21"
_symmetry_group_IT_number 4
_symmetry_cell_setting 'monoclinic'
loop_
_space_group_symop_operation_xyz
x,y,z
-x,1/2+y,-z
loop_
_atom_site_type_symbol
_atom_site_label
_atom_site_fract_x
_atom_site_fract_y
_atom_site_fract_z
Si Si1 0.392009 0.687900 0.376516
Si Si2 0.296472 0.944079 0.448508
Si Si3 0.634703 0.282182 0.092397
Si Si4 0.130960 0.264006 0.841663
Si Si5 0.637006 0.631254 0.257664
Si Si6 0.130451 0.084453 0.009286
Si Si7 0.541738 0.905834 0.285201
O O1 0.613213 0.486797 0.607862
O O2 0.554925 0.667794 0.459740
O O3 0.057529 0.548147 0.098311
O O4 0.590036 0.785489 0.732041
O O5 0.064672 0.993286 0.296839
O O6 0.116726 0.737040 0.249093
O O7 0.982685 0.156530 0.412560
O O8 0.610208 0.563321 0.100401
O O9 0.529688 0.320237 0.935004
O O10 0.863669 0.067073 0.582290
O O11 0.402562 0.383195 0.041724
O O12 0.326974 0.104912 0.060186
O O13 0.605821 0.680645 0.296968
O O14 0.312286 0.852093 0.136121
#
# Coordination Sequence:
#
# PCOD9116759 Si02
#       7
#     2   2   2   2   2   2   2
#     4  10  22  40  66  92 134 188 242 298 368 432
#     4   9  20  39  61  94 134 182 238 300 360 427
#     4  12  30  52  78 114 152 194 246 300 368 460
#     4  10  22  41  68 103 146 186 247 308 369 439
#     4  12  26  44  80 108 146 198 244 302 380 442
#     4   9  20  39  61  94 134 182 238 300 360 427
#     4  10  22  41  68 103 146 186 247 308 369 439
#
# _framework density 27.498227
#
# number of rings (size 3 to 8) (size 9 to 14) (size 15 to 20)
#    0.000    1.714    0.000    2.571    8.000    4.571 
#    0.000    0.000    3.143    0.000    0.000    0.000 
#    0.000    0.000    0.000    0.000    0.000    0.000 
#
# Total GULP energy -78293.016723 kJ/mol
# GULP energy per Si atom -5592.358337 kJ/mol
# Density = 2.743564 g / cm^3
# Si number density = 27.498227 Si / 1000 Ang^3
#
#
#
# Elastic Constant Matrix: (Units=GPa)
#
#
# Indices 1 2 3 4 5 6 
#
# 1 102.6232 54.4956 20.7989 0.0000 -3.4333 0.0000
# 2 54.4956 133.7877 4.5299 0.0000 38.5294 0.0000
# 3 20.7989 4.5299 195.7939 0.0000 -35.7823 0.0000
# 4 0.0000 0.0000 0.0000 33.3729 0.0000 -6.1203
# 5 -3.4333 38.5294 -35.7823 0.0000 86.9421 0.0000
# 6 0.0000 0.0000 0.0000 -6.1203 0.0000 59.9566
#
#
#
# Elastic Compliance Matrix: (Units=1/GPa)
#
#
# Indices 1 2 3 4 5 6 
#
# 1 0.013319 -0.006267 -0.000720 0.000000 0.003007 0.000000
# 2 -0.006267 0.011688 -0.000645 0.000000 -0.005693 0.000000
# 3 -0.000720 -0.000645 0.005673 0.000000 0.002592 0.000000
# 4 0.000000 0.000000 0.000000 0.030536 0.000000 0.003117
# 5 0.003007 -0.005693 0.002592 0.000000 0.015210 0.000000
# 6 0.000000 0.000000 0.000000 0.003117 0.000000 0.016997
#
#
# Mechanical properties :
#
#
# Convention : Reuss Voigt Hill
#
# Bulk Modulus (GPa) = 64.86962 65.76151 65.31556
# Shear Modulus (GPa) = 43.92685 59.54634 51.73660
#
# Velocity S-wave (km/s) = 4.00114 4.65850 4.34228
# Velocity P-wave (km/s) = 6.70725 7.27339 6.99605
#
# Compressibility (1/GPa) = 0.01541554
#
# Stress axis : x y z
#
# Youngs Moduli (GPa) = 75.08251 85.55500 176.28676
#
# Poissons Ratio (x) = 0.53613 0.12699
# Poissons Ratio (y) = 0.47051 0.11373
# Poissons Ratio (z) = 0.05409 0.05519
#
# Static dielectric constant tensor:
#      x y z
#    x 2.347740 0.000000 0.074900 
#    y 0.000000 2.104480 0.000000 
#    z 0.074900 0.000000 2.143610 
# 
# From -- ./inp_files/16229.got.cif
#   From: 2010.05.17/outbox.cif.g08.bks.cpg/sg4_9_cif.got.tgz:16229.got - 2010.06.03 18:43:04.
