data_PCOD9116960
_publ_section_title
;
Structure prediction by ZEFSAII (Michael W. Deem and Ramdas Pophale) SiO2 
 PCOD9116960
Probable space group: P 21
;
_chemical_formula_sum "Si O2"
_cell_formula_units_Z 16
_cell_length_a 22.566950
_cell_length_b 5.480212
_cell_length_c 8.840727
_cell_angle_alpha 90.000000
_cell_angle_beta 40.122399
_cell_angle_gamma 90.000000
_cell_volume 704.577839
_symmetry_space_group_name_H-M "P 21"
_symmetry_group_IT_number 4
_symmetry_cell_setting 'monoclinic'
loop_
_space_group_symop_operation_xyz
x,y,z
-x,1/2+y,-z
loop_
_atom_site_type_symbol
_atom_site_label
_atom_site_fract_x
_atom_site_fract_y
_atom_site_fract_z
Si Si1 0.483658 0.772570 0.114244
Si Si2 0.799668 0.924621 0.496270
Si Si3 0.142311 0.017924 0.075801
Si Si4 0.288714 0.707180 0.599767
Si Si5 0.048647 0.117775 0.953393
Si Si6 0.345805 0.148072 0.033041
Si Si7 0.288480 0.386514 0.859695
Si Si8 0.197955 0.757300 0.252485
O O1 0.379327 0.835909 0.363721
O O2 0.477775 0.536612 0.014231
O O3 0.550770 0.656965 0.110645
O O4 0.774477 0.098513 0.407401
O O5 0.848302 0.078304 0.535459
O O6 0.857705 0.700821 0.315480
O O7 0.706024 0.842841 0.759127
O O8 0.066772 0.055523 0.094394
O O9 0.188068 0.276204 0.023346
O O10 0.223679 0.872278 0.830130
O O11 0.130362 0.891372 0.264001
O O12 0.325938 0.482673 0.629724
O O13 0.991041 0.369724 0.043089
O O14 0.270418 0.933091 0.195139
O O15 0.344389 0.203491 0.856039
O O16 0.267445 0.607531 0.011280
#
# Coordination Sequence:
#
# PCOD9116960 Si02
#       8
#     2   2   2   2   2   2   2   2
#     4  12  27  42  63 104 144 179 241 299 339 398
#     4  11  22  42  74  99 134 185 239 278 358 429
#     4  10  22  44  73  97 141 183 233 290 358 433
#     4  11  22  40  71 100 137 188 238 283 352 411
#     4  12  28  45  75 111 141 174 234 303 360 430
#     4  10  22  42  66  97 141 185 235 289 343 415
#     4   9  20  41  64  98 130 189 231 278 351 422
#     4   9  21  40  74  98 132 191 233 280 351 432
#
# _framework density 22.708632999999999
#
# number of rings (size 3 to 8) (size 9 to 14) (size 15 to 20)
#    0.000    1.500    2.500    1.500   10.500    0.000 
#    6.750    0.000    8.250    0.000    0.000    0.000 
#    0.000    0.000    0.000    0.000    0.000    0.000 
#
# Total GULP energy -89182.147977 kJ/mol
# GULP energy per Si atom -5573.884249 kJ/mol
# Density = 2.265695 g / cm^3
# Si number density = 22.708633 Si / 1000 Ang^3
#
#
#
# Elastic Constant Matrix: (Units=GPa)
#
#
# Indices 1 2 3 4 5 6 
#
# 1 91.7022 15.8394 23.1530 0.0000 -9.4749 0.0000
# 2 15.8394 65.8001 7.6985 0.0000 1.9153 0.0000
# 3 23.1530 7.6985 49.9444 0.0000 -0.5692 0.0000
# 4 0.0000 0.0000 0.0000 32.4905 0.0000 14.3559
# 5 -9.4749 1.9153 -0.5692 0.0000 29.0371 0.0000
# 6 0.0000 0.0000 0.0000 14.3559 0.0000 23.2942
#
#
#
# Elastic Compliance Matrix: (Units=1/GPa)
#
#
# Indices 1 2 3 4 5 6 
#
# 1 0.013252 -0.002653 -0.005684 0.000000 0.004388 0.000000
# 2 -0.002653 0.016041 -0.001265 0.000000 -0.001948 0.000000
# 3 -0.005684 -0.001265 0.022837 0.000000 -0.001324 0.000000
# 4 0.000000 0.000000 0.000000 0.042296 0.000000 -0.026066
# 5 0.004388 -0.001948 -0.001324 0.000000 0.035973 0.000000
# 6 0.000000 0.000000 0.000000 -0.026066 0.000000 0.058993
#
#
# Mechanical properties :
#
#
# Convention : Reuss Voigt Hill
#
# Bulk Modulus (GPa) = 30.37131 33.42539 31.89835
# Shear Modulus (GPa) = 22.77173 27.68142 25.22657
#
# Velocity S-wave (km/s) = 3.17010 3.49518 3.33660
# Velocity P-wave (km/s) = 5.17714 5.57132 5.37784
#
# Compressibility (1/GPa) = 0.03292581
#
# Stress axis : x y z
#
# Youngs Moduli (GPa) = 75.46302 62.34101 43.78815
#
# Poissons Ratio (x) = 0.16536 0.24890
# Poissons Ratio (y) = 0.20017 0.05540
# Poissons Ratio (z) = 0.42895 0.07887
#
# Static dielectric constant tensor:
#      x y z
#    x 1.896810 0.000000 0.009540 
#    y 0.000000 1.908310 0.000000 
#    z 0.009540 0.000000 1.834180 
# 
# From -- ./inp_files/8874.got.cif
#   From: 2010.05.17/outbox.cif.g08.bks.cpg/sg4_5_cif.got.tgz:8874.got - 2010.06.03 18:43:04.
