data_PCOD9116420
_publ_section_title
;
Structure prediction by ZEFSAII (Michael W. Deem and Ramdas Pophale) SiO2 
 PCOD9116420
Probable space group: P 21
;
_chemical_formula_sum "Si O2"
_cell_formula_units_Z 16
_cell_length_a 11.615099
_cell_length_b 9.575677
_cell_length_c 7.704652
_cell_angle_alpha 90.000000
_cell_angle_beta 45.734414
_cell_angle_gamma 90.000000
_cell_volume 613.658060
_symmetry_space_group_name_H-M "P 21"
_symmetry_group_IT_number 4
_symmetry_cell_setting 'monoclinic'
loop_
_space_group_symop_operation_xyz
x,y,z
-x,1/2+y,-z
loop_
_atom_site_type_symbol
_atom_site_label
_atom_site_fract_x
_atom_site_fract_y
_atom_site_fract_z
Si Si1 0.313332 0.790540 0.928929
Si Si2 0.621204 0.758127 0.030918
Si Si3 0.027477 0.904374 0.064927
Si Si4 0.861686 0.672276 0.478976
Si Si5 0.267926 0.880013 0.359020
Si Si6 0.242470 0.490672 0.879576
Si Si7 0.104614 0.609009 0.525330
Si Si8 0.581036 0.992951 0.669268
O O1 0.238617 0.856084 0.183212
O O2 0.210522 0.852955 0.877511
O O3 0.290874 0.624940 0.941882
O O4 0.495753 0.843129 0.742001
O O5 0.454394 0.840747 0.178155
O O6 0.560262 0.604018 0.146865
O O7 0.707843 0.846003 0.087021
O O8 0.741033 0.744947 0.743166
O O9 0.923440 0.776099 0.262941
O O10 0.941033 0.966665 0.987345
O O11 0.009027 0.028955 0.222776
O O12 0.768742 0.530965 0.528680
O O13 0.010810 0.622957 0.443721
O O14 0.153490 0.758868 0.551486
O O15 0.336356 0.517343 0.601840
O O16 0.276403 0.527965 0.344803
#
# Coordination Sequence:
#
# PCOD9116420 Si02
#       8
#     2   2   2   2   2   2   2   2
#     4  12  24  46  73 103 149 188 250 307 368 447
#     4  11  26  42  71 108 143 192 248 306 375 441
#     4  11  26  46  73 105 146 196 242 310 376 447
#     4  12  23  44  74 108 146 190 248 316 366 443
#     4  11  25  41  70 109 139 192 242 309 372 429
#     4  11  28  45  70 104 145 205 237 305 373 453
#     4  10  21  43  69 103 142 182 241 302 372 431
#     4  10  23  45  68  98 142 189 244 303 368 447
#
# _framework density 26.073153000000001
#
# number of rings (size 3 to 8) (size 9 to 14) (size 15 to 20)
#    0.000    1.000    3.750    0.750    7.000    5.000 
#    0.000    1.250    0.000    0.000    0.000    0.000 
#    0.000    0.000    0.000    0.000    0.000    0.000 
#
# Total GULP energy -89616.747798 kJ/mol
# GULP energy per Si atom -5601.046737 kJ/mol
# Density = 2.601381 g / cm^3
# Si number density = 26.073153 Si / 1000 Ang^3
#
#
#
# Elastic Constant Matrix: (Units=GPa)
#
#
# Indices 1 2 3 4 5 6 
#
# 1 113.7585 30.2226 21.2392 0.0000 -10.5008 0.0000
# 2 30.2226 124.0793 31.1624 0.0000 2.5395 0.0000
# 3 21.2392 31.1624 87.4734 0.0000 -12.0412 0.0000
# 4 0.0000 0.0000 0.0000 36.0408 0.0000 -7.3846
# 5 -10.5008 2.5395 -12.0412 0.0000 28.9203 0.0000
# 6 0.0000 0.0000 0.0000 -7.3846 0.0000 47.9465
#
#
#
# Elastic Compliance Matrix: (Units=1/GPa)
#
#
# Indices 1 2 3 4 5 6 
#
# 1 0.009893 -0.002183 -0.001171 0.000000 0.003297 0.000000
# 2 -0.002183 0.009469 -0.003253 0.000000 -0.002979 0.000000
# 3 -0.001171 -0.003253 0.013638 0.000000 0.005539 0.000000
# 4 0.000000 0.000000 0.000000 0.028650 0.000000 0.004413
# 5 0.003297 -0.002979 0.005539 0.000000 0.038342 0.000000
# 6 0.000000 0.000000 0.000000 0.004413 0.000000 0.021536
#
#
# Mechanical properties :
#
#
# Convention : Reuss Voigt Hill
#
# Bulk Modulus (GPa) = 50.54098 54.50662 52.52380
# Shear Modulus (GPa) = 35.37590 38.76067 37.06829
#
# Velocity S-wave (km/s) = 3.68746 3.85984 3.77464
# Velocity P-wave (km/s) = 6.12831 6.38868 6.25985
#
# Compressibility (1/GPa) = 0.01978592
#
# Stress axis : x y z
#
# Youngs Moduli (GPa) = 101.07701 105.60572 73.32603
#
# Poissons Ratio (x) = 0.23057 0.08584
# Poissons Ratio (y) = 0.22068 0.23855
# Poissons Ratio (z) = 0.11832 0.34357
#
# Static dielectric constant tensor:
#      x y z
#    x 2.084220 0.000000 0.002060 
#    y 0.000000 2.075220 0.000000 
#    z 0.002060 0.000000 2.064290 
# 
# From -- ./inp_files/7989.got.cif
#   From: 2010.05.17/outbox.cif.g08.bks.cpg/sg4_4_cif.got.tgz:7989.got - 2010.06.03 18:43:04.
