data_PCOD9116917
_publ_section_title
;
Structure prediction by ZEFSAII (Michael W. Deem and Ramdas Pophale) SiO2 
 PCOD9116917
Probable space group: P 21
;
_chemical_formula_sum "Si O2"
_cell_formula_units_Z 16
_cell_length_a 10.207251
_cell_length_b 8.005758
_cell_length_c 7.862487
_cell_angle_alpha 90.000000
_cell_angle_beta 118.359182
_cell_angle_gamma 90.000000
_cell_volume 565.389244
_symmetry_space_group_name_H-M "P 21"
_symmetry_group_IT_number 4
_symmetry_cell_setting 'monoclinic'
loop_
_space_group_symop_operation_xyz
x,y,z
-x,1/2+y,-z
loop_
_atom_site_type_symbol
_atom_site_label
_atom_site_fract_x
_atom_site_fract_y
_atom_site_fract_z
Si Si1 0.317558 0.268010 0.558944
Si Si2 0.447472 0.587364 0.450666
Si Si3 0.045140 0.809815 0.334710
Si Si4 0.332324 0.750462 0.719730
Si Si5 0.984586 0.685077 0.742709
Si Si6 0.591016 0.918574 0.033419
Si Si7 0.796036 0.672974 0.978239
Si Si8 0.755963 0.315851 0.884147
O O1 0.379788 0.414316 0.474160
O O2 0.138741 0.270841 0.452901
O O3 0.380438 0.301992 0.783695
O O4 0.383013 0.100766 0.511056
O O5 0.415596 0.702002 0.595260
O O6 0.576005 0.401341 0.140291
O O7 0.161334 0.771179 0.555901
O O8 0.917621 0.676595 0.206623
O O9 0.985427 0.998861 0.306580
O O10 0.143711 0.818700 0.223286
O O11 0.363857 0.596615 0.865590
O O12 0.135368 0.770886 0.894578
O O13 0.891532 0.685129 0.864538
O O14 0.638396 0.175772 0.758955
O O15 0.695838 0.833299 0.955769
O O16 0.703224 0.502763 0.896001
#
# Coordination Sequence:
#
# PCOD9116917 Si02
#       8
#     2   2   2   2   2   2   2   2
#     4  11  26  42  69 101 139 181 237 284 342 408
#     4  10  24  43  70 102 136 182 233 286 338 409
#     4   9  21  42  69 101 137 182 229 284 334 411
#     4  10  24  46  68  95 143 184 232 280 344 410
#     4  10  22  41  71 103 136 180 232 288 338 408
#     4  11  26  44  66 101 143 187 226 285 349 413
#     4  10  22  43  71  99 143 180 225 283 354 411
#     4   9  21  39  72 104 135 174 232 284 343 404
#
# _framework density 28.299088000000001
#
# number of rings (size 3 to 8) (size 9 to 14) (size 15 to 20)
#    0.000    2.000    0.000    0.750   21.000    1.000 
#    2.250    0.000    0.000    0.000    0.000    0.000 
#    0.000    0.000    0.000    0.000    0.000    0.000 
#
# Total GULP energy -89735.490548 kJ/mol
# GULP energy per Si atom -5608.468159 kJ/mol
# Density = 2.823468 g / cm^3
# Si number density = 28.299088 Si / 1000 Ang^3
#
#
#
# Elastic Constant Matrix: (Units=GPa)
#
#
# Indices 1 2 3 4 5 6 
#
# 1 85.4820 26.9392 28.6274 0.0000 22.6616 0.0000
# 2 26.9392 140.8743 54.6505 0.0000 14.7242 0.0000
# 3 28.6274 54.6505 217.5349 0.0000 23.6394 0.0000
# 4 0.0000 0.0000 0.0000 59.3248 0.0000 1.4164
# 5 22.6616 14.7242 23.6394 0.0000 68.2216 0.0000
# 6 0.0000 0.0000 0.0000 1.4164 0.0000 45.4434
#
#
#
# Elastic Compliance Matrix: (Units=1/GPa)
#
#
# Indices 1 2 3 4 5 6 
#
# 1 0.013594 -0.001849 -0.000911 0.000000 -0.003801 0.000000
# 2 -0.001849 0.008190 -0.001755 0.000000 -0.000545 0.000000
# 3 -0.000911 -0.001755 0.005283 0.000000 -0.001149 0.000000
# 4 0.000000 0.000000 0.000000 0.016869 0.000000 -0.000526
# 5 -0.003801 -0.000545 -0.001149 0.000000 0.016436 0.000000
# 6 0.000000 0.000000 0.000000 -0.000526 0.000000 0.022022
#
#
# Mechanical properties :
#
#
# Convention : Reuss Voigt Hill
#
# Bulk Modulus (GPa) = 55.44430 73.81393 64.62912
# Shear Modulus (GPa) = 51.31587 56.84290 54.07938
#
# Velocity S-wave (km/s) = 4.26295 4.48666 4.37623
# Velocity P-wave (km/s) = 6.62308 7.27875 6.95864
#
# Compressibility (1/GPa) = 0.01803612
#
# Stress axis : x y z
#
# Youngs Moduli (GPa) = 73.56290 122.10214 189.29861
#
# Poissons Ratio (x) = 0.22573 0.17254
# Poissons Ratio (y) = 0.13599 0.33221
# Poissons Ratio (z) = 0.06705 0.21428
#
# Static dielectric constant tensor:
#      x y z
#    x 2.237620 0.000000 -0.022780 
#    y 0.000000 2.152830 0.000000 
#    z -0.022780 0.000000 2.207480 
# 
# From -- ./inp_files/7723.got.cif
#   From: 2010.05.17/outbox.cif.g08.bks.cpg/sg4_4_cif.got.tgz:7723.got - 2010.06.03 18:43:04.
