data_PCOD9116305
_publ_section_title
;
Structure prediction by ZEFSAII (Michael W. Deem and Ramdas Pophale) SiO2 
 PCOD9116305
Probable space group: P 21
;
_chemical_formula_sum "Si O2"
_cell_formula_units_Z 14
_cell_length_a 6.576967
_cell_length_b 5.508655
_cell_length_c 17.715990
_cell_angle_alpha 90.000000
_cell_angle_beta 72.130144
_cell_angle_gamma 90.000000
_cell_volume 610.888959
_symmetry_space_group_name_H-M "P 21"
_symmetry_group_IT_number 4
_symmetry_cell_setting 'monoclinic'
loop_
_space_group_symop_operation_xyz
x,y,z
-x,1/2+y,-z
loop_
_atom_site_type_symbol
_atom_site_label
_atom_site_fract_x
_atom_site_fract_y
_atom_site_fract_z
Si Si1 0.550715 0.057040 0.661933
Si Si2 0.453494 0.473565 0.740987
Si Si3 0.946158 0.798763 0.547477
Si Si4 0.150974 0.835958 0.683555
Si Si5 0.833734 0.861200 0.939502
Si Si6 0.309257 0.343648 0.198313
Si Si7 0.893234 0.856561 0.101067
O O1 0.604192 0.338922 0.663291
O O2 0.708833 0.890009 0.597726
O O3 0.309737 0.063187 0.658623
O O4 0.574616 0.995401 0.749112
O O5 0.314962 0.661650 0.707821
O O6 0.612302 0.579999 0.785651
O O7 0.266944 0.349893 0.811100
O O8 0.958625 0.547721 0.500133
O O9 0.071046 0.753505 0.611641
O O10 0.941429 0.878401 0.757045
O O11 0.656200 0.878799 0.894103
O O12 0.966966 0.607922 0.911211
O O13 0.770925 0.860322 0.034442
O O14 0.970890 0.108666 0.914868
#
# Coordination Sequence:
#
# PCOD9116305 Si02
#       7
#     2   2   2   2   2   2   2
#     4  10  25  42  70 102 132 181 232 275 342 416
#     4  11  23  40  71 104 135 183 240 283 337 415
#     4  11  28  48  74 105 142 175 224 282 346 419
#     4  10  23  44  72  96 138 181 224 282 339 407
#     4  10  21  42  64  95 137 189 231 290 352 393
#     4  10  22  40  64 100 133 180 231 287 333 407
#     4  10  22  40  67  96 137 185 236 287 347 403
#
# _framework density 22.917425000000001
#
# number of rings (size 3 to 8) (size 9 to 14) (size 15 to 20)
#    0.000    1.714    1.429    0.857   12.000    2.286 
#    2.571    0.000    0.000    0.000    0.000    0.000 
#    0.000    0.000    0.000    0.000    0.000    0.000 
#
# Total GULP energy -77980.731946 kJ/mol
# GULP energy per Si atom -5570.052282 kJ/mol
# Density = 2.286526 g / cm^3
# Si number density = 22.917425 Si / 1000 Ang^3
#
#
#
# Elastic Constant Matrix: (Units=GPa)
#
#
# Indices 1 2 3 4 5 6 
#
# 1 73.7445 1.9039 10.7580 0.0000 8.1715 0.0000
# 2 1.9039 84.9517 18.4865 0.0000 -16.7837 0.0000
# 3 10.7580 18.4865 74.1610 0.0000 12.1135 0.0000
# 4 0.0000 0.0000 0.0000 38.1793 0.0000 -3.7547
# 5 8.1715 -16.7837 12.1135 0.0000 24.0238 0.0000
# 6 0.0000 0.0000 0.0000 -3.7547 0.0000 28.3254
#
#
#
# Elastic Compliance Matrix: (Units=1/GPa)
#
#
# Indices 1 2 3 4 5 6 
#
# 1 0.014302 -0.001140 -0.000944 0.000000 -0.005185 0.000000
# 2 -0.001140 0.016077 -0.006255 0.000000 0.014774 0.000000
# 3 -0.000944 -0.006255 0.017264 0.000000 -0.012754 0.000000
# 4 0.000000 0.000000 0.000000 0.026538 0.000000 0.003518
# 5 -0.005185 0.014774 -0.012754 0.000000 0.060141 0.000000
# 6 0.000000 0.000000 0.000000 0.003518 0.000000 0.035770
#
#
# Mechanical properties :
#
#
# Convention : Reuss Voigt Hill
#
# Bulk Modulus (GPa) = 32.29428 32.79489 32.54459
# Shear Modulus (GPa) = 25.36895 31.55295 28.46095
#
# Velocity S-wave (km/s) = 3.33073 3.71457 3.52787
# Velocity P-wave (km/s) = 5.37716 5.72175 5.55213
#
# Compressibility (1/GPa) = 0.03096524
#
# Stress axis : x y z
#
# Youngs Moduli (GPa) = 69.92050 62.20082 57.92522
#
# Poissons Ratio (x) = 0.07088 0.05467
# Poissons Ratio (y) = 0.07968 0.36235
# Poissons Ratio (z) = 0.06599 0.38909
#
# Static dielectric constant tensor:
#      x y z
#    x 1.836420 0.000000 -0.024950 
#    y 0.000000 2.203800 0.000000 
#    z -0.024950 0.000000 1.861660 
# 
# From -- ./inp_files/3873.got.cif
#   From: 2010.05.17/outbox.cif.g08.bks.cpg/sg4_2_cif.got.tgz:3873.got - 2010.06.03 18:43:04.
