data_PCOD9116388
_publ_section_title
;
Structure prediction by ZEFSAII (Michael W. Deem and Ramdas Pophale) SiO2 
 PCOD9116388
Probable space group: P 21
;
_chemical_formula_sum "Si O2"
_cell_formula_units_Z 16
_cell_length_a 10.968044
_cell_length_b 10.034579
_cell_length_c 10.125995
_cell_angle_alpha 90.000000
_cell_angle_beta 142.709123
_cell_angle_gamma 90.000000
_cell_volume 675.211097
_symmetry_space_group_name_H-M "P 21"
_symmetry_group_IT_number 4
_symmetry_cell_setting 'monoclinic'
loop_
_space_group_symop_operation_xyz
x,y,z
-x,1/2+y,-z
loop_
_atom_site_type_symbol
_atom_site_label
_atom_site_fract_x
_atom_site_fract_y
_atom_site_fract_z
Si Si1 0.969384 0.966580 0.903532
Si Si2 0.835801 0.433384 0.337742
Si Si3 0.698313 0.951094 0.214815
Si Si4 0.659618 0.549097 0.961633
Si Si5 0.397511 0.582436 0.305203
Si Si6 0.493012 0.333854 0.207657
Si Si7 0.800590 0.189986 0.126395
Si Si8 0.151128 0.162273 0.265514
O O1 0.916845 0.808354 0.851068
O O2 0.762372 0.052635 0.716356
O O3 0.144732 0.005774 0.952769
O O4 0.062731 0.030354 0.117415
O O5 0.720600 0.377847 0.366300
O O6 0.783462 0.331010 0.176382
O O7 0.072608 0.429387 0.552387
O O8 0.741264 0.563420 0.185271
O O9 0.541592 0.957700 0.199152
O O10 0.700649 0.094801 0.146475
O O11 0.623635 0.861685 0.030194
O O12 0.570088 0.683577 0.819288
O O13 0.427224 0.437516 0.262778
O O14 0.610322 0.645710 0.524754
O O15 0.300270 0.670099 0.103182
O O16 0.037328 0.158509 0.308736
#
# Coordination Sequence:
#
# PCOD9116388 Si02
#       8
#     2   2   2   2   2   2   2   2
#     4  11  25  46  69 106 134 179 243 291 339 422
#     4  11  22  39  64  98 132 177 220 277 347 412
#     4  10  23  39  65 100 137 180 216 279 351 411
#     4  11  23  41  65  99 137 172 230 293 336 412
#     4  10  24  44  71  97 135 186 221 283 357 402
#     4  10  22  42  66  99 137 173 226 285 338 418
#     4  10  21  43  64  99 135 169 230 275 338 422
#     4  11  24  46  74  98 139 182 230 293 354 413
#
# _framework density 23.696293000000001
#
# number of rings (size 3 to 8) (size 9 to 14) (size 15 to 20)
#    0.000    1.500    2.500    1.500    1.750    5.000 
#    0.000    2.500    0.000    0.000    0.000    0.000 
#    0.000    0.000    0.000    0.000    0.000    0.000 
#
# Total GULP energy -89245.307487 kJ/mol
# GULP energy per Si atom -5577.831718 kJ/mol
# Density = 2.364236 g / cm^3
# Si number density = 23.696293 Si / 1000 Ang^3
#
#
#
# Elastic Constant Matrix: (Units=GPa)
#
#
# Indices 1 2 3 4 5 6 
#
# 1 124.7668 31.9507 32.6173 0.0000 44.0875 0.0000
# 2 31.9507 94.1255 48.5766 0.0000 13.5646 0.0000
# 3 32.6173 48.5766 135.8437 0.0000 47.7114 0.0000
# 4 0.0000 0.0000 0.0000 1.8454 0.0000 23.5291
# 5 44.0875 13.5646 47.7114 0.0000 45.0967 0.0000
# 6 0.0000 0.0000 0.0000 23.5291 0.0000 25.9178
#
#
#
# Elastic Compliance Matrix: (Units=1/GPa)
#
#
# Indices 1 2 3 4 5 6 
#
# 1 0.013963 -0.004448 0.004078 0.000000 -0.016627 0.000000
# 2 -0.004448 0.014519 -0.006552 0.000000 0.006913 0.000000
# 3 0.004078 -0.006552 0.015011 0.000000 -0.017897 0.000000
# 4 0.000000 0.000000 0.000000 -0.051242 0.000000 0.046520
# 5 -0.016627 0.006913 -0.017897 0.000000 0.055285 0.000000
# 6 0.000000 0.000000 0.000000 0.046520 0.000000 -0.003649
#
#
# Mechanical properties :
#
#
# Convention : Reuss Voigt Hill
#
# Bulk Modulus (GPa) = 33.72820 64.55835 49.14327
# Shear Modulus (GPa) = 73.94767 30.67807 52.31287
#
# Velocity S-wave (km/s) = 5.59233 3.60201 4.70365
# Velocity P-wave (km/s) = 7.48086 6.67851 7.09104
#
# Compressibility (1/GPa) = 0.02964878
#
# Stress axis : x y z
#
# Youngs Moduli (GPa) = 71.61613 68.87480 66.61715
#
# Poissons Ratio (x) = 0.30636 -0.27164
# Poissons Ratio (y) = 0.31856 0.43647
# Poissons Ratio (z) = -0.29203 0.45127
#
# Static dielectric constant tensor:
#      x y z
#    x 1.955910 0.000000 0.016060 
#    y 0.000000 2.126570 0.000000 
#    z 0.016060 0.000000 1.936650 
# 
# From -- ./inp_files/12280.got.cif
#   From: 2010.05.17/outbox.cif.g08.bks.cpg/sg4_7_cif.got.tgz:12280.got - 2010.06.03 18:43:04.
