data_PCOD9116522
_publ_section_title
;
Structure prediction by ZEFSAII (Michael W. Deem and Ramdas Pophale) SiO2 
 PCOD9116522
Probable space group: P 21
;
_chemical_formula_sum "Si O2"
_cell_formula_units_Z 14
_cell_length_a 13.910871
_cell_length_b 7.432126
_cell_length_c 13.679981
_cell_angle_alpha 90.000000
_cell_angle_beta 154.920644
_cell_angle_gamma 90.000000
_cell_volume 599.499398
_symmetry_space_group_name_H-M "P 21"
_symmetry_group_IT_number 4
_symmetry_cell_setting 'monoclinic'
loop_
_space_group_symop_operation_xyz
x,y,z
-x,1/2+y,-z
loop_
_atom_site_type_symbol
_atom_site_label
_atom_site_fract_x
_atom_site_fract_y
_atom_site_fract_z
Si Si1 0.539022 0.224100 0.451134
Si Si2 0.952797 0.035169 0.766668
Si Si3 0.290647 0.668187 0.752872
Si Si4 0.205797 0.414161 0.006707
Si Si5 0.899167 0.819725 0.532428
Si Si6 0.533812 0.535355 0.160584
Si Si7 0.142193 0.991251 0.154357
O O1 0.430309 0.363833 0.275552
O O2 0.328269 0.145844 0.315855
O O3 0.718221 0.314689 0.687788
O O4 0.683517 0.075488 0.525930
O O5 0.081880 0.225399 0.865482
O O6 0.031074 0.974942 0.946050
O O7 0.002155 0.894262 0.727691
O O8 0.215283 0.494574 0.623070
O O9 0.082585 0.741138 0.626296
O O10 0.628975 0.333671 0.239349
O O11 0.488641 0.610673 0.010272
O O12 0.294314 0.520246 0.995261
O O13 0.038021 0.515357 0.925648
O O14 0.709757 0.667467 0.374471
#
# Coordination Sequence:
#
# PCOD9116522 Si02
#       7
#     2   2   2   2   2   2   2
#     4  10  21  46  70 100 154 196 232 301 362 428
#     4  10  24  45  75 108 150 192 248 301 365 449
#     4  12  27  48  76 112 148 190 244 311 374 450
#     4  10  24  45  75 108 150 192 248 301 365 449
#     4  12  27  49  78 110 148 193 244 311 378 442
#     4  12  27  49  78 110 148 193 244 311 378 442
#     4  10  22  46  72 106 148 196 234 304 358 440
#
# _framework density 23.352817999999999
#
# number of rings (size 3 to 8) (size 9 to 14) (size 15 to 20)
#    0.000    1.143    2.857    1.714    4.000    4.571 
#   33.429    0.000    0.000    0.000    0.000    0.000 
#    0.000    0.000    0.000    0.000    0.000    0.000 
#
# Total GULP energy -78444.728301 kJ/mol
# GULP energy per Si atom -5603.194879 kJ/mol
# Density = 2.329967 g / cm^3
# Si number density = 23.352818 Si / 1000 Ang^3
#
#
#
# Elastic Constant Matrix: (Units=GPa)
#
#
# Indices 1 2 3 4 5 6 
#
# 1 121.7951 30.1513 19.4191 0.0000 16.2149 0.0000
# 2 30.1513 72.6755 5.7660 0.0000 4.9689 0.0000
# 3 19.4191 5.7660 59.2741 0.0000 10.1794 0.0000
# 4 0.0000 0.0000 0.0000 42.7635 0.0000 -0.4185
# 5 16.2149 4.9689 10.1794 0.0000 26.4530 0.0000
# 6 0.0000 0.0000 0.0000 -0.4185 0.0000 34.4373
#
#
#
# Elastic Compliance Matrix: (Units=1/GPa)
#
#
# Indices 1 2 3 4 5 6 
#
# 1 0.010088 -0.003696 -0.002145 0.000000 -0.004664 0.000000
# 2 -0.003696 0.015346 -0.000188 0.000000 -0.000544 0.000000
# 3 -0.002145 -0.000188 0.018588 0.000000 -0.005803 0.000000
# 4 0.000000 0.000000 0.000000 0.023387 0.000000 0.000284
# 5 -0.004664 -0.000544 -0.005803 0.000000 0.042997 0.000000
# 6 0.000000 0.000000 0.000000 0.000284 0.000000 0.029042
#
#
# Mechanical properties :
#
#
# Convention : Reuss Voigt Hill
#
# Bulk Modulus (GPa) = 31.28544 40.49084 35.88814
# Shear Modulus (GPa) = 30.83344 33.95798 32.39571
#
# Velocity S-wave (km/s) = 3.63758 3.81744 3.72859
# Velocity P-wave (km/s) = 5.57392 6.06686 5.82561
#
# Compressibility (1/GPa) = 0.03196375
#
# Stress axis : x y z
#
# Youngs Moduli (GPa) = 99.12289 65.16564 53.79737
#
# Poissons Ratio (x) = 0.24088 0.11537
# Poissons Ratio (y) = 0.36640 0.01013
# Poissons Ratio (z) = 0.21257 0.01227
#
# Static dielectric constant tensor:
#      x y z
#    x 1.872550 0.000000 -0.010680 
#    y 0.000000 1.904230 0.000000 
#    z -0.010680 0.000000 1.876860 
# 
# From -- ./inp_files/12065.got.cif
#   From: 2010.05.17/outbox.cif.g08.bks.cpg/sg4_7_cif.got.tgz:12065.got - 2010.06.03 18:43:04.
