data_PCOD9116619
_publ_section_title
;
Structure prediction by ZEFSAII (Michael W. Deem and Ramdas Pophale) SiO2 
 PCOD9116619
Probable space group: P 21
;
_chemical_formula_sum "Si O2"
_cell_formula_units_Z 16
_cell_length_a 9.865266
_cell_length_b 8.543959
_cell_length_c 9.428932
_cell_angle_alpha 90.000000
_cell_angle_beta 118.439983
_cell_angle_gamma 90.000000
_cell_volume 698.836625
_symmetry_space_group_name_H-M "P 21"
_symmetry_group_IT_number 4
_symmetry_cell_setting 'monoclinic'
loop_
_space_group_symop_operation_xyz
x,y,z
-x,1/2+y,-z
loop_
_atom_site_type_symbol
_atom_site_label
_atom_site_fract_x
_atom_site_fract_y
_atom_site_fract_z
Si Si1 0.329477 0.985780 0.050433
Si Si2 0.508165 0.204902 0.991216
Si Si3 0.324776 0.183677 0.646517
Si Si4 0.021290 0.374000 0.826242
Si Si5 0.252432 0.070125 0.312176
Si Si6 0.987794 0.581200 0.361181
Si Si7 0.236708 0.530480 0.702894
Si Si8 0.991542 0.843504 0.860028
O O1 0.348377 0.157031 0.988178
O O2 0.353855 0.024241 0.227268
O O3 0.450462 0.883825 0.020129
O O4 0.176486 0.877511 0.965210
O O5 0.636522 0.139584 0.161517
O O6 0.475410 0.141954 0.815200
O O7 0.338626 0.140493 0.489420
O O8 0.172572 0.094035 0.632344
O O9 0.295844 0.369141 0.659497
O O10 0.028050 0.194826 0.781445
O O11 0.130653 0.471572 0.778867
O O12 0.845331 0.417203 0.700755
O O13 0.058083 0.405850 0.009001
O O14 0.111078 0.186763 0.198718
O O15 0.125302 0.619192 0.537575
O O16 0.032193 0.419934 0.306406
#
# Coordination Sequence:
#
# PCOD9116619 Si02
#       8
#     2   2   2   2   2   2   2   2
#     4  11  26  44  70 106 145 199 237 291 373 439
#     4  12  25  46  70  99 149 194 242 289 363 457
#     4  11  23  43  70 104 142 187 239 304 360 432
#     4  10  22  38  65 108 139 176 233 303 359 421
#     4  11  23  43  68 104 147 179 238 309 355 425
#     4  11  22  40  71 104 137 182 244 296 357 424
#     4  11  23  42  71 105 139 192 242 293 369 426
#     4  11  22  42  71 102 140 177 241 305 358 410
#
# _framework density 22.895195000000001
#
# number of rings (size 3 to 8) (size 9 to 14) (size 15 to 20)
#    0.000    1.000    5.000    2.250    1.750    2.000 
#    0.000    6.250    0.000    0.000    0.000    0.000 
#    0.000    0.000    0.000    0.000    0.000    0.000 
#
# Total GULP energy -89118.785757 kJ/mol
# GULP energy per Si atom -5569.924110 kJ/mol
# Density = 2.284308 g / cm^3
# Si number density = 22.895195 Si / 1000 Ang^3
#
#
#
# Elastic Constant Matrix: (Units=GPa)
#
#
# Indices 1 2 3 4 5 6 
#
# 1 45.8169 33.3885 25.3489 0.0000 -3.8462 0.0000
# 2 33.3885 53.6848 27.5352 0.0000 -13.8471 0.0000
# 3 25.3489 27.5352 169.3970 0.0000 10.7673 0.0000
# 4 0.0000 0.0000 0.0000 32.9805 0.0000 -3.4067
# 5 -3.8462 -13.8471 10.7673 0.0000 34.1750 0.0000
# 6 0.0000 0.0000 0.0000 -3.4067 0.0000 26.0267
#
#
#
# Elastic Compliance Matrix: (Units=1/GPa)
#
#
# Indices 1 2 3 4 5 6 
#
# 1 0.041486 -0.026434 -0.001558 0.000000 -0.005550 0.000000
# 2 -0.026434 0.040684 -0.003588 0.000000 0.014640 0.000000
# 3 -0.001558 -0.003588 0.006963 0.000000 -0.003823 0.000000
# 4 0.000000 0.000000 0.000000 0.030737 0.000000 0.004023
# 5 -0.005550 0.014640 -0.003823 0.000000 0.035773 0.000000
# 6 0.000000 0.000000 0.000000 0.004023 0.000000 0.038949
#
#
# Mechanical properties :
#
#
# Convention : Reuss Voigt Hill
#
# Bulk Modulus (GPa) = 38.50345 49.04932 43.77638
# Shear Modulus (GPa) = 18.76825 30.81151 24.78988
#
# Velocity S-wave (km/s) = 2.86623 3.67244 3.29409
# Velocity P-wave (km/s) = 5.27328 6.28111 5.79913
#
# Compressibility (1/GPa) = 0.02597170
#
# Stress axis : x y z
#
# Youngs Moduli (GPa) = 24.10480 24.57985 143.62217
#
# Poissons Ratio (x) = 0.64974 0.22383
# Poissons Ratio (y) = 0.63718 0.51532
# Poissons Ratio (z) = 0.03757 0.08819
#
# Static dielectric constant tensor:
#      x y z
#    x 1.877240 0.000000 0.043640 
#    y 0.000000 2.001300 0.000000 
#    z 0.043640 0.000000 1.864070 
# 
# From -- ./inp_files/7790.got.cif
#   From: 2010.05.17/outbox.cif.g08.bks.cpg/sg4_4_cif.got.tgz:7790.got - 2010.06.03 18:43:04.
