data_PCOD9116193
_publ_section_title
;
Structure prediction by ZEFSAII (Michael W. Deem and Ramdas Pophale) SiO2 
 PCOD9116193
Probable space group: P 21
;
_chemical_formula_sum "Si O2"
_cell_formula_units_Z 14
_cell_length_a 25.953496
_cell_length_b 5.143367
_cell_length_c 15.578987
_cell_angle_alpha 90.000000
_cell_angle_beta 161.990746
_cell_angle_gamma 90.000000
_cell_volume 642.955302
_symmetry_space_group_name_H-M "P 21"
_symmetry_group_IT_number 4
_symmetry_cell_setting 'monoclinic'
loop_
_space_group_symop_operation_xyz
x,y,z
-x,1/2+y,-z
loop_
_atom_site_type_symbol
_atom_site_label
_atom_site_fract_x
_atom_site_fract_y
_atom_site_fract_z
Si Si1 0.022915 0.613430 0.895209
Si Si2 0.457713 0.893097 0.318464
Si Si3 0.209173 0.410148 0.340975
Si Si4 0.747473 0.243008 0.439842
Si Si5 0.401576 0.837702 0.037983
Si Si6 0.676254 0.391328 0.708009
Si Si7 0.369577 0.351518 0.875934
O O1 0.916711 0.745219 0.802289
O O2 0.893417 0.431259 0.639083
O O3 0.148981 0.433636 0.149189
O O4 0.137722 0.820188 0.027755
O O5 0.365497 0.877916 0.081069
O O6 0.589414 0.657202 0.539818
O O7 0.337596 0.881229 0.210780
O O8 0.557560 0.163046 0.483376
O O9 0.216743 0.684225 0.403531
O O10 0.397362 0.313954 0.645053
O O11 0.736944 0.968905 0.372119
O O12 0.561203 0.359862 0.144285
O O13 0.339014 0.570530 0.899296
O O14 0.352184 0.076440 0.896970
#
# Coordination Sequence:
#
# PCOD9116193 Si02
#       7
#     2   2   2   2   2   2   2
#     4  12  23  36  59  96 133 174 202 262 329 393
#     4  10  21  41  60  93 126 171 207 267 312 387
#     4  11  23  34  57  90 134 167 198 256 324 391
#     4  11  24  40  56  88 135 173 216 258 311 386
#     4  11  22  39  63  88 126 165 221 263 306 372
#     4  10  23  37  63  91 134 164 209 254 331 389
#     4  11  24  39  60  88 122 178 219 256 303 372
#
# _framework density 21.774453000000001
#
# number of rings (size 3 to 8) (size 9 to 14) (size 15 to 20)
#    0.000    1.143    4.286    2.571    8.000    0.000 
#    0.000    0.000    0.000    0.000    3.714    0.000 
#    0.000    0.000    0.000    0.000    0.000    0.000 
#
# Total GULP energy -78232.061836 kJ/mol
# GULP energy per Si atom -5588.004417 kJ/mol
# Density = 2.172489 g / cm^3
# Si number density = 21.774453 Si / 1000 Ang^3
#
#
#
# Elastic Constant Matrix: (Units=GPa)
#
#
# Indices 1 2 3 4 5 6 
#
# 1 117.4916 32.3428 27.6215 0.0000 -18.5327 0.0000
# 2 32.3428 109.1712 24.2495 0.0000 -4.1645 0.0000
# 3 27.6215 24.2495 62.7096 0.0000 -12.5971 0.0000
# 4 0.0000 0.0000 0.0000 25.2304 0.0000 0.8364
# 5 -18.5327 -4.1645 -12.5971 0.0000 35.2393 0.0000
# 6 0.0000 0.0000 0.0000 0.8364 0.0000 28.5635
#
#
#
# Elastic Compliance Matrix: (Units=1/GPa)
#
#
# Indices 1 2 3 4 5 6 
#
# 1 0.010488 -0.002306 -0.002881 0.000000 0.004213 0.000000
# 2 -0.002306 0.010529 -0.003285 0.000000 -0.001143 0.000000
# 3 -0.002881 -0.003285 0.019504 0.000000 0.005069 0.000000
# 4 0.000000 0.000000 0.000000 0.039673 0.000000 -0.001162
# 5 0.004213 -0.001143 0.005069 0.000000 0.032270 0.000000
# 6 0.000000 0.000000 0.000000 -0.001162 0.000000 0.035044
#
#
# Mechanical properties :
#
#
# Convention : Reuss Voigt Hill
#
# Bulk Modulus (GPa) = 42.41718 50.86666 46.64192
# Shear Modulus (GPa) = 29.01682 31.48387 30.25035
#
# Velocity S-wave (km/s) = 3.65445 3.80664 3.73132
# Velocity P-wave (km/s) = 6.10976 6.53698 6.32698
#
# Compressibility (1/GPa) = 0.02357535
#
# Stress axis : x y z
#
# Youngs Moduli (GPa) = 95.34581 94.97236 51.27069
#
# Poissons Ratio (x) = 0.21905 0.14773
# Poissons Ratio (y) = 0.21991 0.16844
# Poissons Ratio (z) = 0.27473 0.31202
#
# Static dielectric constant tensor:
#      x y z
#    x 1.809210 0.000000 -0.033300 
#    y 0.000000 1.862590 0.000000 
#    z -0.033300 0.000000 1.850290 
# 
# From -- ./inp_files/14522.got.cif
#   From: 2010.05.17/outbox.cif.g08.bks.cpg/sg4_8_cif.got.tgz:14522.got - 2010.06.03 18:43:04.
