data_PCOD9116047
_publ_section_title
;
Structure prediction by ZEFSAII (Michael W. Deem and Ramdas Pophale) SiO2 
 PCOD9116047
Probable space group: P 21
;
_chemical_formula_sum "Si O2"
_cell_formula_units_Z 14
_cell_length_a 5.513114
_cell_length_b 7.863597
_cell_length_c 13.512429
_cell_angle_alpha 90.000000
_cell_angle_beta 68.019187
_cell_angle_gamma 90.000000
_cell_volume 543.220609
_symmetry_space_group_name_H-M "P 21"
_symmetry_group_IT_number 4
_symmetry_cell_setting 'monoclinic'
loop_
_space_group_symop_operation_xyz
x,y,z
-x,1/2+y,-z
loop_
_atom_site_type_symbol
_atom_site_label
_atom_site_fract_x
_atom_site_fract_y
_atom_site_fract_z
Si Si1 0.081404 0.531200 0.322934
Si Si2 0.547627 0.656083 0.357054
Si Si3 0.328324 0.009823 0.461508
Si Si4 0.333381 0.850713 0.939494
Si Si5 0.107956 0.349236 0.128401
Si Si6 0.048661 0.954975 0.159144
Si Si7 0.528482 0.558843 0.760845
O O1 0.865767 0.658160 0.306111
O O2 0.963222 0.509214 0.450706
O O3 0.382445 0.580343 0.291499
O O4 0.052156 0.372240 0.253791
O O5 0.408684 0.830685 0.405341
O O6 0.511728 0.545948 0.463416
O O7 0.391721 0.131657 0.359208
O O8 0.608098 0.930064 0.932977
O O9 0.441566 0.699546 0.853611
O O10 0.118275 0.935064 0.901203
O O11 0.172351 0.822456 0.064209
O O12 0.101420 0.147667 0.106001
O O13 0.222454 0.962360 0.231637
O O14 0.736212 0.949436 0.211898
#
# Coordination Sequence:
#
# PCOD9116047 Si02
#       7
#     2   2   2   2   2   2   2
#     4  10  24  40  68 102 139 174 227 269 339 406
#     4  10  25  40  66  97 146 177 222 275 325 398
#     4  10  26  42  72 101 144 176 232 269 341 409
#     4  10  21  40  65  95 124 171 227 277 334 389
#     4  10  21  39  66  93 129 173 214 274 342 392
#     4  10  22  40  64  94 125 172 229 275 333 391
#     4  10  23  39  67  96 129 171 215 277 344 393
#
# _framework density 25.772217999999999
#
# number of rings (size 3 to 8) (size 9 to 14) (size 15 to 20)
#    0.857    1.143    0.000    1.714    8.000    2.286 
#    0.000   17.143    0.000    0.000    0.000    0.000 
#    0.000    0.000    0.000    0.000    0.000    0.000 
#
# Total GULP energy -78090.934652 kJ/mol
# GULP energy per Si atom -5577.923904 kJ/mol
# Density = 2.571356 g / cm^3
# Si number density = 25.772218 Si / 1000 Ang^3
#
#
#
# Elastic Constant Matrix: (Units=GPa)
#
#
# Indices 1 2 3 4 5 6 
#
# 1 246.7965 13.6294 29.7638 0.0000 1.0055 0.0000
# 2 13.6294 58.4154 3.4952 0.0000 6.1561 0.0000
# 3 29.7638 3.4952 62.3595 0.0000 -7.1582 0.0000
# 4 0.0000 0.0000 0.0000 36.3469 0.0000 5.7589
# 5 1.0055 6.1561 -7.1582 0.0000 45.7059 0.0000
# 6 0.0000 0.0000 0.0000 5.7589 0.0000 26.1347
#
#
#
# Elastic Compliance Matrix: (Units=1/GPa)
#
#
# Indices 1 2 3 4 5 6 
#
# 1 0.004349 -0.000859 -0.002063 0.000000 -0.000303 0.000000
# 2 -0.000859 0.017634 -0.000864 0.000000 -0.002491 0.000000
# 3 -0.002063 -0.000864 0.017400 0.000000 0.002887 0.000000
# 4 0.000000 0.000000 0.000000 0.028508 0.000000 -0.006282
# 5 -0.000303 -0.002491 0.002887 0.000000 0.022673 0.000000
# 6 0.000000 0.000000 0.000000 -0.006282 0.000000 0.039647
#
#
# Mechanical properties :
#
#
# Convention : Reuss Voigt Hill
#
# Bulk Modulus (GPa) = 31.43564 51.26090 41.34827
# Shear Modulus (GPa) = 33.69546 43.01637 38.35592
#
# Velocity S-wave (km/s) = 3.61977 4.08989 3.86199
# Velocity P-wave (km/s) = 5.44924 6.49893 5.99710
#
# Compressibility (1/GPa) = 0.03181103
#
# Stress axis : x y z
#
# Youngs Moduli (GPa) = 229.91882 56.70999 57.47028
#
# Poissons Ratio (x) = 0.04874 0.11853
# Poissons Ratio (y) = 0.19761 0.04966
# Poissons Ratio (z) = 0.47421 0.04900
#
# Static dielectric constant tensor:
#      x y z
#    x 2.109010 0.000000 0.036260 
#    y 0.000000 2.112900 0.000000 
#    z 0.036260 0.000000 2.068160 
# 
# From -- ./inp_files/10395.got.cif
#   From: 2010.05.17/outbox.cif.g08.bks.cpg/sg4_6_cif.got.tgz:10395.got - 2010.06.03 18:43:04.
