data_PCOD9116770
_publ_section_title
;
Structure prediction by ZEFSAII (Michael W. Deem and Ramdas Pophale) SiO2 
 PCOD9116770
Probable space group: P 21
;
_chemical_formula_sum "Si O2"
_cell_formula_units_Z 10
_cell_length_a 6.785595
_cell_length_b 7.713857
_cell_length_c 8.613724
_cell_angle_alpha 90.000000
_cell_angle_beta 104.149733
_cell_angle_gamma 90.000000
_cell_volume 437.189816
_symmetry_space_group_name_H-M "P 21"
_symmetry_group_IT_number 4
_symmetry_cell_setting 'monoclinic'
loop_
_space_group_symop_operation_xyz
x,y,z
-x,1/2+y,-z
loop_
_atom_site_type_symbol
_atom_site_label
_atom_site_fract_x
_atom_site_fract_y
_atom_site_fract_z
Si Si1 0.350674 0.799110 0.194857
Si Si2 0.490542 0.454021 0.320766
Si Si3 0.311257 0.325555 0.979789
Si Si4 0.736852 0.626136 0.602998
Si Si5 0.964755 0.162766 0.093703
O O1 0.335335 0.618539 0.287277
O O2 0.568236 0.788567 0.152415
O O3 0.325950 0.968751 0.293294
O O4 0.188065 0.790308 0.024514
O O5 0.696898 0.534709 0.430229
O O6 0.406999 0.294270 0.407154
O O7 0.474068 0.378974 0.143993
O O8 0.162698 0.487261 0.926873
O O9 0.166623 0.179754 0.024999
O O10 0.951587 0.689655 0.715321
#
# Coordination Sequence:
#
# PCOD9116770 Si02
#       5
#     2   2   2   2   2
#     4  11  23  43  66  97 136 175 241 265 329 404
#     4  10  23  38  67  96 133 184 210 279 340 385
#     4  10  23  40  68  97 127 177 224 280 323 398
#     4  11  21  43  66  96 139 180 219 272 345 390
#     4  10  22  40  67  92 131 176 222 278 321 391
#
# _framework density 22.873358
#
# number of rings (size 3 to 8) (size 9 to 14) (size 15 to 20)
#    0.000    1.600    4.000    0.000   11.200    0.000 
#    0.000    2.000    8.800    0.000    0.000    0.000 
#    0.000    0.000    0.000    0.000    0.000    0.000 
#
# Total GULP energy -55700.269844 kJ/mol
# GULP energy per Si atom -5570.026984 kJ/mol
# Density = 2.282130 g / cm^3
# Si number density = 22.873358 Si / 1000 Ang^3
#
#
#
# Elastic Constant Matrix: (Units=GPa)
#
#
# Indices 1 2 3 4 5 6 
#
# 1 58.0801 18.7106 34.4276 0.0000 6.6307 0.0000
# 2 18.7106 133.3647 33.9742 0.0000 3.7556 0.0000
# 3 34.4276 33.9742 121.0061 0.0000 38.9853 0.0000
# 4 0.0000 0.0000 0.0000 42.7850 0.0000 8.4272
# 5 6.6307 3.7556 38.9853 0.0000 28.8569 0.0000
# 6 0.0000 0.0000 0.0000 8.4272 0.0000 16.8439
#
#
#
# Elastic Compliance Matrix: (Units=1/GPa)
#
#
# Indices 1 2 3 4 5 6 
#
# 1 0.021437 -0.001257 -0.007458 0.000000 0.005313 0.000000
# 2 -0.001257 0.008362 -0.003068 0.000000 0.003345 0.000000
# 3 -0.007458 -0.003068 0.018710 0.000000 -0.023164 0.000000
# 4 0.000000 0.000000 0.000000 0.025928 0.000000 -0.012972
# 5 0.005313 0.003345 -0.023164 0.000000 0.064292 0.000000
# 6 0.000000 0.000000 0.000000 -0.012972 0.000000 0.065859
#
#
# Mechanical properties :
#
#
# Convention : Reuss Voigt Hill
#
# Bulk Modulus (GPa) = 40.09112 54.07507 47.08309
# Shear Modulus (GPa) = 21.14452 32.71973 26.93213
#
# Velocity S-wave (km/s) = 3.04372 3.78626 3.43511
# Velocity P-wave (km/s) = 5.46972 6.54269 6.03012
#
# Compressibility (1/GPa) = 0.02494318
#
# Stress axis : x y z
#
# Youngs Moduli (GPa) = 46.64887 119.58966 53.44669
#
# Poissons Ratio (x) = 0.15036 0.39860
# Poissons Ratio (y) = 0.05865 0.16396
# Poissons Ratio (z) = 0.34790 0.36687
#
# Static dielectric constant tensor:
#      x y z
#    x 1.847080 0.000000 0.048130 
#    y 0.000000 1.881080 0.000000 
#    z 0.048130 0.000000 1.945020 
# 
# From -- ./inp_files/962.got.cif
#   From: 2010.05.17/outbox.cif.g08.bks.cpg/sg4_1_cif.got.tgz:962.got - 2010.06.03 18:43:04.
