data_PCOD9116949
_publ_section_title
;
Structure prediction by ZEFSAII (Michael W. Deem and Ramdas Pophale) SiO2 
 PCOD9116949
Probable space group: P 21
;
_chemical_formula_sum "Si O2"
_cell_formula_units_Z 16
_cell_length_a 9.892519
_cell_length_b 7.318613
_cell_length_c 22.521178
_cell_angle_alpha 90.000000
_cell_angle_beta 27.998656
_cell_angle_gamma 90.000000
_cell_volume 765.450145
_symmetry_space_group_name_H-M "P 21"
_symmetry_group_IT_number 4
_symmetry_cell_setting 'monoclinic'
loop_
_space_group_symop_operation_xyz
x,y,z
-x,1/2+y,-z
loop_
_atom_site_type_symbol
_atom_site_label
_atom_site_fract_x
_atom_site_fract_y
_atom_site_fract_z
Si Si1 0.093491 0.987070 0.766491
Si Si2 0.645866 0.994921 0.738174
Si Si3 0.145863 0.755510 0.238165
Si Si4 0.593465 0.763340 0.266495
Si Si5 0.758861 0.895952 0.005707
Si Si6 0.570563 0.976051 0.494404
Si Si7 0.070558 0.774372 0.994406
Si Si8 0.741130 0.354472 0.494296
O O1 0.334192 0.892345 0.631982
O O2 0.250026 0.125183 0.749998
O O3 0.909727 0.120037 0.795293
O O4 0.908638 0.868299 0.883714
O O5 0.357119 0.885114 0.866557
O O6 0.919718 0.863343 0.625001
O O7 0.749986 0.125200 0.750016
O O8 0.590327 0.130419 0.704700
O O9 0.419709 0.887095 0.125000
O O10 0.857126 0.865312 0.366556
O O11 0.408649 0.882109 0.383711
O O12 0.834188 0.858074 0.131985
O O13 0.836039 0.087847 0.008572
O O14 0.889389 0.755160 0.003460
O O15 0.389401 0.995267 0.503455
O O16 0.663953 0.162577 0.491431
#
# Coordination Sequence:
#
# PCOD9116949 Si02
#       8
#     2   2   2   2   2   2   2   2
#     4  10  22  42  66  91 137 168 218 270 330 388
#     4  12  23  43  69  97 132 175 225 275 326 396
#     4  12  23  43  69  97 132 175 225 275 326 396
#     4  10  22  42  66  91 137 168 218 270 330 388
#     4  11  23  43  69 100 135 176 223 272 337 393
#     4  11  21  44  67  95 137 175 213 280 332 385
#     4  11  21  44  67  95 137 175 213 280 332 385
#     4  11  23  43  69 100 135 176 223 272 337 393
#
# _framework density 20.902732
#
# number of rings (size 3 to 8) (size 9 to 14) (size 15 to 20)
#    0.000    1.000    7.500    0.750    0.000    4.000 
#    4.500    2.500    0.000    0.000    0.000    0.000 
#    0.000    0.000    0.000    0.000    0.000    0.000 
#
# Total GULP energy -89192.735444 kJ/mol
# GULP energy per Si atom -5574.545965 kJ/mol
# Density = 2.085516 g / cm^3
# Si number density = 20.902732 Si / 1000 Ang^3
#
#
#
# Elastic Constant Matrix: (Units=GPa)
#
#
# Indices 1 2 3 4 5 6 
#
# 1 160.7600 12.4152 64.9175 0.0000 3.9889 0.0000
# 2 12.4152 28.6696 24.2260 0.0000 2.5101 0.0000
# 3 64.9175 24.2260 205.1942 0.0000 2.4328 0.0000
# 4 0.0000 0.0000 0.0000 29.7420 0.0000 -0.7131
# 5 3.9889 2.5101 2.4328 0.0000 46.3876 0.0000
# 6 0.0000 0.0000 0.0000 -0.7131 0.0000 39.8387
#
#
#
# Elastic Compliance Matrix: (Units=1/GPa)
#
#
# Indices 1 2 3 4 5 6 
#
# 1 0.007185 -0.001285 -0.002116 0.000000 -0.000437 0.000000
# 2 -0.001285 0.039136 -0.004193 0.000000 -0.001787 0.000000
# 3 -0.002116 -0.004193 0.006037 0.000000 0.000092 0.000000
# 4 0.000000 0.000000 0.000000 0.033637 0.000000 0.000602
# 5 -0.000437 -0.001787 0.000092 0.000000 0.021687 0.000000
# 6 0.000000 0.000000 0.000000 0.000602 0.000000 0.025112
#
#
# Mechanical properties :
#
#
# Convention : Reuss Voigt Hill
#
# Bulk Modulus (GPa) = 26.90345 66.41572 46.65959
# Shear Modulus (GPa) = 31.17752 42.73135 36.95444
#
# Velocity S-wave (km/s) = 3.86625 4.52629 4.20923
# Velocity P-wave (km/s) = 5.72968 7.69150 6.78190
#
# Compressibility (1/GPa) = 0.03716995
#
# Stress axis : x y z
#
# Youngs Moduli (GPa) = 139.17646 25.55190 165.64812
#
# Poissons Ratio (x) = 0.03283 0.35056
# Poissons Ratio (y) = 0.17883 0.69454
# Poissons Ratio (z) = 0.29454 0.10714
#
# Static dielectric constant tensor:
#      x y z
#    x 1.701500 0.000000 0.004870 
#    y 0.000000 1.800810 0.000000 
#    z 0.004870 0.000000 1.828370 
# 
# From -- ./inp_files/15617.got.cif
#   From: 2010.05.17/outbox.cif.g08.bks.cpg/sg4_8_cif.got.tgz:15617.got - 2010.06.03 18:43:04.
