data_PCOD9116237
_publ_section_title
;
Structure prediction by ZEFSAII (Michael W. Deem and Ramdas Pophale) SiO2 
 PCOD9116237
Probable space group: P 21
;
_chemical_formula_sum "Si O2"
_cell_formula_units_Z 16
_cell_length_a 9.062416
_cell_length_b 12.015249
_cell_length_c 6.534247
_cell_angle_alpha 90.000000
_cell_angle_beta 109.894753
_cell_angle_gamma 90.000000
_cell_volume 669.033191
_symmetry_space_group_name_H-M "P 21"
_symmetry_group_IT_number 4
_symmetry_cell_setting 'monoclinic'
loop_
_space_group_symop_operation_xyz
x,y,z
-x,1/2+y,-z
loop_
_atom_site_type_symbol
_atom_site_label
_atom_site_fract_x
_atom_site_fract_y
_atom_site_fract_z
Si Si1 0.243727 0.876950 0.205553
Si Si2 0.622870 0.766064 0.935085
Si Si3 0.700727 0.198815 0.077432
Si Si4 0.173379 0.526300 0.201040
Si Si5 0.741884 0.614568 0.634362
Si Si6 0.078108 0.368628 0.801088
Si Si7 0.494534 0.448405 0.395239
Si Si8 0.050203 0.593445 0.536221
O O1 0.259253 0.819389 0.995999
O O2 0.406437 0.867666 0.408545
O O3 0.215612 0.009694 0.196569
O O4 0.098496 0.824716 0.262397
O O5 0.682872 0.711483 0.752114
O O6 0.772584 0.788885 0.148752
O O7 0.543641 0.883741 0.831456
O O8 0.482914 0.693863 0.961632
O O9 0.757817 0.113989 0.928825
O O10 0.803999 0.167440 0.321245
O O11 0.107627 0.424819 0.038056
O O12 0.325603 0.485085 0.399251
O O13 0.048194 0.578027 0.293868
O O14 0.605033 0.557062 0.435134
O O15 0.894572 0.638971 0.572725
O O16 0.075036 0.468739 0.638535
#
# Coordination Sequence:
#
# PCOD9116237 Si02
#       8
#     2   2   2   2   2   2   2   2
#     4   9  21  39  61  88 132 159 213 256 315 373
#     4  11  22  40  66  93 130 165 214 265 313 377
#     4  11  24  36  65  95 128 164 210 261 321 372
#     4  10  22  41  66  92 127 166 212 258 319 374
#     4   9  21  39  64  90 126 166 211 257 316 375
#     4   9  21  42  63  92 125 170 211 259 312 378
#     4   9  22  38  65  91 126 164 206 265 311 376
#     4  10  21  41  66  91 130 168 207 263 313 379
#
# _framework density 23.915106999999999
#
# number of rings (size 3 to 8) (size 9 to 14) (size 15 to 20)
#    0.750    1.500    0.000    1.500    5.250    3.000 
#    0.000    8.750    0.000    0.000    0.000    0.000 
#    0.000    0.000    0.000    0.000    0.000    0.000 
#
# Total GULP energy -89378.078654 kJ/mol
# GULP energy per Si atom -5586.129916 kJ/mol
# Density = 2.386068 g / cm^3
# Si number density = 23.915107 Si / 1000 Ang^3
#
#
#
# Elastic Constant Matrix: (Units=GPa)
#
#
# Indices 1 2 3 4 5 6 
#
# 1 108.1831 24.2325 30.4963 0.0000 -11.0311 0.0000
# 2 24.2325 60.1979 27.3258 0.0000 1.8438 0.0000
# 3 30.4963 27.3258 67.1252 0.0000 -8.8156 0.0000
# 4 0.0000 0.0000 0.0000 40.7305 0.0000 11.0910
# 5 -11.0311 1.8438 -8.8156 0.0000 37.0295 0.0000
# 6 0.0000 0.0000 0.0000 11.0910 0.0000 34.9605
#
#
#
# Elastic Compliance Matrix: (Units=1/GPa)
#
#
# Indices 1 2 3 4 5 6 
#
# 1 0.011172 -0.002983 -0.003515 0.000000 0.002640 0.000000
# 2 -0.002983 0.021521 -0.007911 0.000000 -0.003843 0.000000
# 3 -0.003515 -0.007911 0.020262 0.000000 0.004171 0.000000
# 4 0.000000 0.000000 0.000000 0.026873 0.000000 -0.008525
# 5 0.002640 -0.003843 0.004171 0.000000 0.028976 0.000000
# 6 0.000000 0.000000 0.000000 -0.008525 0.000000 0.031308
#
#
# Mechanical properties :
#
#
# Convention : Reuss Voigt Hill
#
# Bulk Modulus (GPa) = 41.42610 44.40170 42.91390
# Shear Modulus (GPa) = 28.25258 32.77420 30.51339
#
# Velocity S-wave (km/s) = 3.44083 3.70596 3.57586
# Velocity P-wave (km/s) = 5.75722 6.07609 5.91880
#
# Compressibility (1/GPa) = 0.02413937
#
# Stress axis : x y z
#
# Youngs Moduli (GPa) = 89.51272 46.46597 49.35248
#
# Poissons Ratio (x) = 0.13859 0.17346
# Poissons Ratio (y) = 0.26697 0.39041
# Poissons Ratio (z) = 0.31461 0.36758
#
# Static dielectric constant tensor:
#      x y z
#    x 1.940650 0.000000 0.025360 
#    y 0.000000 1.983700 0.000000 
#    z 0.025360 0.000000 1.899700 
# 
# From -- ./inp_files/1756.got.cif
#   From: 2010.05.17/outbox.cif.g08.bks.cpg/sg4_1_cif.got.tgz:1756.got - 2010.06.03 18:43:04.
