data_PCOD9116912
_publ_section_title
;
Structure prediction by ZEFSAII (Michael W. Deem and Ramdas Pophale) SiO2 
 PCOD9116912
Probable space group: P 21
;
_chemical_formula_sum "Si O2"
_cell_formula_units_Z 16
_cell_length_a 16.639836
_cell_length_b 6.078394
_cell_length_c 6.529681
_cell_angle_alpha 90.000000
_cell_angle_beta 88.574538
_cell_angle_gamma 90.000000
_cell_volume 660.230273
_symmetry_space_group_name_H-M "P 21"
_symmetry_group_IT_number 4
_symmetry_cell_setting 'monoclinic'
loop_
_space_group_symop_operation_xyz
x,y,z
-x,1/2+y,-z
loop_
_atom_site_type_symbol
_atom_site_label
_atom_site_fract_x
_atom_site_fract_y
_atom_site_fract_z
Si Si1 0.324572 0.678540 0.710343
Si Si2 0.388845 0.348388 0.378711
Si Si3 0.547683 0.554943 0.278159
Si Si4 0.878164 0.863508 0.576393
Si Si5 0.321559 0.297280 0.981937
Si Si6 0.007189 0.546224 0.746678
Si Si7 0.892066 0.195973 0.899581
Si Si8 0.192394 0.009982 0.748514
O O1 0.341180 0.491835 0.544497
O O2 0.309467 0.550685 0.922640
O O3 0.250666 0.827156 0.648208
O O4 0.401974 0.830957 0.730858
O O5 0.454285 0.502842 0.261945
O O6 0.437287 0.165186 0.501423
O O7 0.328149 0.250787 0.219690
O O8 0.592504 0.714408 0.116205
O O9 0.952333 0.748244 0.686969
O O10 0.841019 0.667890 0.432245
O O11 0.841822 0.023464 0.758996
O O12 0.917339 0.021557 0.406021
O O13 0.251525 0.164938 0.876684
O O14 0.947182 0.340315 0.745982
O O15 0.045989 0.558697 0.966718
O O16 0.856268 0.372038 0.071144
#
# Coordination Sequence:
#
# PCOD9116912 Si02
#       8
#     2   2   2   2   2   2   2   2
#     4  10  24  49  66 102 150 183 249 308 359 475
#     4  11  22  44  76 101 140 192 238 318 384 437
#     4  10  22  41  70 107 137 177 247 307 380 451
#     4  12  26  47  80 108 153 197 247 323 384 448
#     4  10  26  46  68 104 148 187 252 306 372 467
#     4  12  24  48  72 116 142 185 256 321 373 449
#     4  12  26  47  80 109 154 194 255 319 387 459
#     4  11  28  52  68 111 156 207 254 298 393 484
#
# _framework density 24.233967
#
# number of rings (size 3 to 8) (size 9 to 14) (size 15 to 20)
#    0.000    1.000    3.750    1.500    3.500    2.000 
#   18.000    0.000    0.000    0.000    0.000    0.000 
#    0.000    0.000    0.000    0.000    0.000    0.000 
#
# Total GULP energy -89370.961634 kJ/mol
# GULP energy per Si atom -5585.685102 kJ/mol
# Density = 2.417881 g / cm^3
# Si number density = 24.233967 Si / 1000 Ang^3
#
#
#
# Elastic Constant Matrix: (Units=GPa)
#
#
# Indices 1 2 3 4 5 6 
#
# 1 70.8733 29.8071 33.7501 0.0000 3.3857 0.0000
# 2 29.8071 94.1122 45.1463 0.0000 4.7377 0.0000
# 3 33.7501 45.1463 108.0416 0.0000 16.3726 0.0000
# 4 0.0000 0.0000 0.0000 36.6717 0.0000 13.2766
# 5 3.3857 4.7377 16.3726 0.0000 34.2466 0.0000
# 6 0.0000 0.0000 0.0000 13.2766 0.0000 36.3689
#
#
#
# Elastic Compliance Matrix: (Units=1/GPa)
#
#
# Indices 1 2 3 4 5 6 
#
# 1 0.017544 -0.003641 -0.004067 0.000000 0.000714 0.000000
# 2 -0.003641 0.014070 -0.004853 0.000000 0.000734 0.000000
# 3 -0.004067 -0.004853 0.013359 0.000000 -0.005313 0.000000
# 4 0.000000 0.000000 0.000000 0.031422 0.000000 -0.011471
# 5 0.000714 0.000734 -0.005313 0.000000 0.031568 0.000000
# 6 0.000000 0.000000 0.000000 -0.011471 0.000000 0.031683
#
#
# Mechanical properties :
#
#
# Convention : Reuss Voigt Hill
#
# Bulk Modulus (GPa) = 50.37694 54.49269 52.43482
# Shear Modulus (GPa) = 29.17402 32.41236 30.79319
#
# Velocity S-wave (km/s) = 3.47342 3.66112 3.56850
# Velocity P-wave (km/s) = 6.07610 6.35662 6.21794
#
# Compressibility (1/GPa) = 0.01985035
#
# Stress axis : x y z
#
# Youngs Moduli (GPa) = 57.00040 71.07326 74.85524
#
# Poissons Ratio (x) = 0.25881 0.30442
# Poissons Ratio (y) = 0.20757 0.36327
# Poissons Ratio (z) = 0.23181 0.34491
#
# Static dielectric constant tensor:
#      x y z
#    x 1.933860 0.000000 -0.043590 
#    y 0.000000 1.974210 0.000000 
#    z -0.043590 0.000000 1.955720 
# 
# From -- ./inp_files/3972.got.cif
#   From: 2010.05.17/outbox.cif.g08.bks.cpg/sg4_2_cif.got.tgz:3972.got - 2010.06.03 18:43:04.
