data_PCOD9116396
_publ_section_title
;
Structure prediction by ZEFSAII (Michael W. Deem and Ramdas Pophale) SiO2 
 PCOD9116396
Probable space group: P 21
;
_chemical_formula_sum "Si O2"
_cell_formula_units_Z 14
_cell_length_a 11.922595
_cell_length_b 9.855519
_cell_length_c 7.673034
_cell_angle_alpha 90.000000
_cell_angle_beta 144.055302
_cell_angle_gamma 90.000000
_cell_volume 529.247187
_symmetry_space_group_name_H-M "P 21"
_symmetry_group_IT_number 4
_symmetry_cell_setting 'monoclinic'
loop_
_space_group_symop_operation_xyz
x,y,z
-x,1/2+y,-z
loop_
_atom_site_type_symbol
_atom_site_label
_atom_site_fract_x
_atom_site_fract_y
_atom_site_fract_z
Si Si1 0.625909 0.605180 0.908727
Si Si2 0.928482 0.795628 0.722082
Si Si3 0.286372 0.715311 0.278101
Si Si4 0.961315 0.244511 0.514470
Si Si5 0.332247 0.513538 0.792001
Si Si6 0.348114 0.182449 0.403869
Si Si7 0.189891 0.438676 0.988608
O O1 0.442313 0.702957 0.629380
O O2 0.537353 0.522856 0.956734
O O3 0.653274 0.559474 0.738578
O O4 0.832300 0.666392 0.211696
O O5 0.052216 0.767837 0.706499
O O6 0.784541 0.675530 0.597211
O O7 0.791265 0.914993 0.487678
O O8 0.103588 0.808918 0.077657
O O9 0.434808 0.729327 0.302532
O O10 0.195263 0.567437 0.120982
O O11 0.995221 0.386390 0.654573
O O12 0.790265 0.151812 0.360922
O O13 0.321652 0.464041 0.980574
O O14 0.256995 0.312973 0.190910
#
# Coordination Sequence:
#
# PCOD9116396 Si02
#       7
#     2   2   2   2   2   2   2
#     4   9  23  39  64  92 131 168 218 270 320 391
#     4  11  23  41  69  97 133 175 222 271 331 397
#     4  10  22  42  67  97 129 180 212 277 331 392
#     4  10  23  43  64 100 130 180 214 275 332 396
#     4  11  23  42  69  94 139 171 221 275 331 398
#     4   9  23  42  64  96 132 167 224 272 326 391
#     4  10  21  43  65  96 136 161 227 274 317 403
#
# _framework density 26.452666000000001
#
# number of rings (size 3 to 8) (size 9 to 14) (size 15 to 20)
#    0.857    1.143    1.429    0.857    6.000    2.286 
#    0.000   11.429    0.000    0.000    0.000    0.000 
#    0.000    0.000    0.000    0.000    0.000    0.000 
#
# Total GULP energy -77955.510060 kJ/mol
# GULP energy per Si atom -5568.250719 kJ/mol
# Density = 2.639246 g / cm^3
# Si number density = 26.452666 Si / 1000 Ang^3
#
#
#
# Elastic Constant Matrix: (Units=GPa)
#
#
# Indices 1 2 3 4 5 6 
#
# 1 119.8119 23.8433 4.8281 0.0000 6.0838 0.0000
# 2 23.8433 51.0492 8.4687 0.0000 7.3525 0.0000
# 3 4.8281 8.4687 70.6357 0.0000 1.2610 0.0000
# 4 0.0000 0.0000 0.0000 33.3970 0.0000 -1.8650
# 5 6.0838 7.3525 1.2610 0.0000 30.2270 0.0000
# 6 0.0000 0.0000 0.0000 -1.8650 0.0000 35.7345
#
#
#
# Elastic Compliance Matrix: (Units=1/GPa)
#
#
# Indices 1 2 3 4 5 6 
#
# 1 0.009223 -0.004168 -0.000116 0.000000 -0.000838 0.000000
# 2 -0.004168 0.022580 -0.002341 0.000000 -0.004556 0.000000
# 3 -0.000116 -0.002341 0.014446 0.000000 -0.000010 0.000000
# 4 0.000000 0.000000 0.000000 0.030030 0.000000 0.001567
# 5 -0.000838 -0.004556 -0.000010 0.000000 0.034360 0.000000
# 6 0.000000 0.000000 0.000000 0.001567 0.000000 0.028066
#
#
# Mechanical properties :
#
#
# Convention : Reuss Voigt Hill
#
# Bulk Modulus (GPa) = 30.30320 35.08635 32.69478
# Shear Modulus (GPa) = 30.68334 33.49546 32.08940
#
# Velocity S-wave (km/s) = 3.40947 3.56229 3.48672
# Velocity P-wave (km/s) = 5.19421 5.49659 5.34754
#
# Compressibility (1/GPa) = 0.03299981
#
# Stress axis : x y z
#
# Youngs Moduli (GPa) = 108.42393 44.28669 69.22377
#
# Poissons Ratio (x) = 0.18458 0.00801
# Poissons Ratio (y) = 0.45190 0.16205
# Poissons Ratio (z) = 0.01255 0.10367
#
# Static dielectric constant tensor:
#      x y z
#    x 2.215490 0.000000 -0.049840 
#    y 0.000000 2.186450 0.000000 
#    z -0.049840 0.000000 2.168570 
# 
# From -- ./inp_files/8388.got.cif
#   From: 2010.05.17/outbox.cif.g08.bks.cpg/sg4_5_cif.got.tgz:8388.got - 2010.06.03 18:43:04.
