data_PCOD9116366
_publ_section_title
;
Structure prediction by ZEFSAII (Michael W. Deem and Ramdas Pophale) SiO2 
 PCOD9116366
Probable space group: P 21
;
_chemical_formula_sum "Si O2"
_cell_formula_units_Z 16
_cell_length_a 11.649586
_cell_length_b 5.582723
_cell_length_c 13.455962
_cell_angle_alpha 90.000000
_cell_angle_beta 63.478727
_cell_angle_gamma 90.000000
_cell_volume 783.036624
_symmetry_space_group_name_H-M "P 21"
_symmetry_group_IT_number 4
_symmetry_cell_setting 'monoclinic'
loop_
_space_group_symop_operation_xyz
x,y,z
-x,1/2+y,-z
loop_
_atom_site_type_symbol
_atom_site_label
_atom_site_fract_x
_atom_site_fract_y
_atom_site_fract_z
Si Si1 0.956776 0.525900 0.178634
Si Si2 0.378561 0.932156 0.157121
Si Si3 0.366609 0.650747 0.968581
Si Si4 0.118868 0.887051 0.008223
Si Si5 0.196962 0.261993 0.133947
Si Si6 0.564831 0.167384 0.682245
Si Si7 0.557092 0.676816 0.579851
Si Si8 0.339125 0.008408 0.668096
O O1 0.945777 0.412548 0.072521
O O2 0.812560 0.521879 0.272762
O O3 0.062463 0.393751 0.204753
O O4 0.019758 0.780245 0.126986
O O5 0.399610 0.858232 0.034406
O O6 0.377800 0.708856 0.231388
O O7 0.250142 0.088316 0.198925
O O8 0.505667 0.079206 0.137786
O O9 0.308788 0.444955 0.061608
O O10 0.244903 0.721493 0.949361
O O11 0.172186 0.121040 0.040714
O O12 0.588985 0.423101 0.618691
O O13 0.410068 0.125937 0.736435
O O14 0.611332 0.920987 0.611012
O O15 0.605523 0.649195 0.448675
O O16 0.404936 0.744734 0.637215
#
# Coordination Sequence:
#
# PCOD9116366 Si02
#       8
#     2   2   2   2   2   2   2   2
#     4  11  22  38  61  92 129 185 204 258 328 409
#     4  11  22  36  60  90 123 178 216 271 326 387
#     4  10  22  35  56  84 126 166 218 268 315 375
#     4  10  22  37  54  89 131 166 219 253 302 407
#     4  10  22  39  53  84 132 167 218 268 310 393
#     4  10  23  36  65  94 131 162 210 277 335 387
#     4  10  21  43  59 105 130 154 216 286 333 398
#     4  10  22  38  66  94 138 162 213 275 353 382
#
# _framework density 20.433271999999999
#
# number of rings (size 3 to 8) (size 9 to 14) (size 15 to 20)
#    0.750    1.000    3.750    0.000    5.250    1.000 
#    0.000    0.000    0.000    0.000    9.750    0.000 
#    0.000    0.000    0.000    0.000    0.000    0.000 
#
# Total GULP energy -89126.942665 kJ/mol
# GULP energy per Si atom -5570.433917 kJ/mol
# Density = 2.038677 g / cm^3
# Si number density = 20.433272 Si / 1000 Ang^3
#
#
#
# Elastic Constant Matrix: (Units=GPa)
#
#
# Indices 1 2 3 4 5 6 
#
# 1 97.8841 23.5977 23.4540 0.0000 -13.5266 0.0000
# 2 23.5977 76.1124 11.2015 0.0000 -1.1886 0.0000
# 3 23.4540 11.2015 41.5562 0.0000 -10.8041 0.0000
# 4 0.0000 0.0000 0.0000 22.6938 0.0000 10.8343
# 5 -13.5266 -1.1886 -10.8041 0.0000 29.0995 0.0000
# 6 0.0000 0.0000 0.0000 10.8343 0.0000 36.0147
#
#
#
# Elastic Compliance Matrix: (Units=1/GPa)
#
#
# Indices 1 2 3 4 5 6 
#
# 1 0.012784 -0.003111 -0.005384 0.000000 0.003816 0.000000
# 2 -0.003111 0.014460 -0.002617 0.000000 -0.001827 0.000000
# 3 -0.005384 -0.002617 0.030028 0.000000 0.008539 0.000000
# 4 0.000000 0.000000 0.000000 0.051455 0.000000 -0.015479
# 5 0.003816 -0.001827 0.008539 0.000000 0.039235 0.000000
# 6 0.000000 0.000000 0.000000 -0.015479 0.000000 0.032423
#
#
# Mechanical properties :
#
#
# Convention : Reuss Voigt Hill
#
# Bulk Modulus (GPa) = 28.53311 36.89544 32.71428
# Shear Modulus (GPa) = 23.33278 28.04822 25.69050
#
# Velocity S-wave (km/s) = 3.38287 3.70898 3.54967
# Velocity P-wave (km/s) = 5.40858 6.03637 5.73108
#
# Compressibility (1/GPa) = 0.03504700
#
# Stress axis : x y z
#
# Youngs Moduli (GPa) = 78.22440 69.15781 33.30226
#
# Poissons Ratio (x) = 0.21518 0.17930
# Poissons Ratio (y) = 0.24339 0.08714
# Poissons Ratio (z) = 0.42117 0.18096
#
# Static dielectric constant tensor:
#      x y z
#    x 1.745480 0.000000 0.019750 
#    y 0.000000 1.838790 0.000000 
#    z 0.019750 0.000000 1.719850 
# 
# From -- ./inp_files/13778.got.cif
#   From: 2010.05.17/outbox.cif.g08.bks.cpg/sg4_7_cif.got.tgz:13778.got - 2010.06.03 18:43:04.
