data_PCOD9116870
_publ_section_title
;
Structure prediction by ZEFSAII (Michael W. Deem and Ramdas Pophale) SiO2 
 PCOD9116870
Probable space group: P 21
;
_chemical_formula_sum "Si O2"
_cell_formula_units_Z 14
_cell_length_a 13.037639
_cell_length_b 8.240899
_cell_length_c 9.669711
_cell_angle_alpha 90.000000
_cell_angle_beta 34.606351
_cell_angle_gamma 90.000000
_cell_volume 590.045711
_symmetry_space_group_name_H-M "P 21"
_symmetry_group_IT_number 4
_symmetry_cell_setting 'monoclinic'
loop_
_space_group_symop_operation_xyz
x,y,z
-x,1/2+y,-z
loop_
_atom_site_type_symbol
_atom_site_label
_atom_site_fract_x
_atom_site_fract_y
_atom_site_fract_z
Si Si1 0.631783 0.170090 0.540298
Si Si2 0.809116 0.011947 0.854226
Si Si3 0.453720 0.714979 0.686838
Si Si4 0.265571 0.047976 0.007258
Si Si5 0.012749 0.825383 0.421181
Si Si6 0.838990 0.828292 0.314082
Si Si7 0.995325 0.302036 0.159582
O O1 0.574161 0.198802 0.445903
O O2 0.446711 0.152035 0.829946
O O3 0.784054 0.290069 0.426799
O O4 0.746504 0.004550 0.410946
O O5 0.871940 0.163272 0.691115
O O6 0.931025 0.964176 0.850859
O O7 0.628651 0.070102 0.129484
O O8 0.852927 0.861297 0.705200
O O9 0.665650 0.716756 0.482012
O O10 0.349961 0.883428 0.842682
O O11 0.123271 0.154158 0.074563
O O12 0.155563 0.973758 0.257634
O O13 0.931030 0.812357 0.359080
O O14 0.976628 0.807602 0.035527
#
# Coordination Sequence:
#
# PCOD9116870 Si02
#       7
#     2   2   2   2   2   2   2
#     4  11  22  39  68 109 137 174 234 291 355 413
#     4  11  25  46  70  97 138 193 233 291 354 422
#     4  10  22  42  67 103 142 176 232 294 349 412
#     4  10  22  41  66  98 142 175 226 291 343 419
#     4  11  24  46  71  96 140 192 235 283 358 416
#     4  11  23  40  70 107 142 180 233 293 352 425
#     4  12  22  40  72 104 137 182 227 291 365 413
#
# _framework density 23.726976000000001
#
# number of rings (size 3 to 8) (size 9 to 14) (size 15 to 20)
#    0.000    1.143    4.286    2.571    0.000    0.000 
#    2.571    7.143    3.143    0.000    0.000    0.000 
#    0.000    0.000    0.000    0.000    0.000    0.000 
#
# Total GULP energy -78230.443247 kJ/mol
# GULP energy per Si atom -5587.888803 kJ/mol
# Density = 2.367297 g / cm^3
# Si number density = 23.726976 Si / 1000 Ang^3
#
#
#
# Elastic Constant Matrix: (Units=GPa)
#
#
# Indices 1 2 3 4 5 6 
#
# 1 44.3938 -3.5312 25.1394 0.0000 -14.1985 0.0000
# 2 -3.5312 38.1491 24.7048 0.0000 -2.8502 0.0000
# 3 25.1394 24.7048 115.6754 0.0000 -19.7138 0.0000
# 4 0.0000 0.0000 0.0000 39.1004 0.0000 2.3753
# 5 -14.1985 -2.8502 -19.7138 0.0000 46.4251 0.0000
# 6 0.0000 0.0000 0.0000 2.3753 0.0000 20.5721
#
#
#
# Elastic Compliance Matrix: (Units=1/GPa)
#
#
# Indices 1 2 3 4 5 6 
#
# 1 0.029068 0.007603 -0.006842 0.000000 0.006452 0.000000
# 2 0.007603 0.032449 -0.008459 0.000000 0.000726 0.000000
# 3 -0.006842 -0.008459 0.012390 0.000000 0.002649 0.000000
# 4 0.000000 0.000000 0.000000 0.025756 0.000000 -0.002974
# 5 0.006452 0.000726 0.002649 0.000000 0.024683 0.000000
# 6 0.000000 0.000000 0.000000 -0.002974 0.000000 0.048953
#
#
# Mechanical properties :
#
#
# Convention : Reuss Voigt Hill
#
# Bulk Modulus (GPa) = 17.09046 32.31603 24.70325
# Shear Modulus (GPa) = 24.01576 31.34653 27.68114
#
# Velocity S-wave (km/s) = 3.18492 3.63868 3.41934
# Velocity P-wave (km/s) = 4.55451 5.59490 5.10129
#
# Compressibility (1/GPa) = 0.05851216
#
# Stress axis : x y z
#
# Youngs Moduli (GPa) = 34.40198 30.81786 80.71151
#
# Poissons Ratio (x) = -0.23431 0.55219
# Poissons Ratio (y) = -0.26156 0.68272
# Poissons Ratio (z) = 0.23536 0.26068
#
# Static dielectric constant tensor:
#      x y z
#    x 1.852470 0.000000 -0.012830 
#    y 0.000000 2.038940 0.000000 
#    z -0.012830 0.000000 1.915230 
# 
# From -- ./inp_files/7482.got.cif
#   From: 2010.05.17/outbox.cif.g08.bks.cpg/sg4_4_cif.got.tgz:7482.got - 2010.06.03 18:43:04.
