data_PCOD9116378
_publ_section_title
;
Structure prediction by ZEFSAII (Michael W. Deem and Ramdas Pophale) SiO2 
 PCOD9116378
Probable space group: P 21
;
_chemical_formula_sum "Si O2"
_cell_formula_units_Z 16
_cell_length_a 9.618728
_cell_length_b 8.303261
_cell_length_c 12.358893
_cell_angle_alpha 90.000000
_cell_angle_beta 126.751933
_cell_angle_gamma 90.000000
_cell_volume 790.869948
_symmetry_space_group_name_H-M "P 21"
_symmetry_group_IT_number 4
_symmetry_cell_setting 'monoclinic'
loop_
_space_group_symop_operation_xyz
x,y,z
-x,1/2+y,-z
loop_
_atom_site_type_symbol
_atom_site_label
_atom_site_fract_x
_atom_site_fract_y
_atom_site_fract_z
Si Si1 0.377182 0.460180 0.595192
Si Si2 0.074245 0.304325 0.798800
Si Si3 0.228016 0.979416 0.953402
Si Si4 0.211745 0.978334 0.199752
Si Si5 0.839652 0.273672 0.277634
Si Si6 0.629662 0.987681 0.163362
Si Si7 0.212871 0.819117 0.506954
Si Si8 0.203062 0.156294 0.403491
O O1 0.584783 0.440593 0.690291
O O2 0.325660 0.423591 0.695831
O O3 0.321488 0.648983 0.548406
O O4 0.294023 0.322297 0.481087
O O5 0.224953 0.434160 0.852699
O O6 0.925409 0.354456 0.813534
O O7 0.966145 0.280512 0.638438
O O8 0.178092 0.151072 0.884259
O O9 0.137891 0.863466 0.824951
O O10 0.178754 0.981902 0.056602
O O11 0.433947 0.947416 0.044256
O O12 0.188974 0.134046 0.267160
O O13 0.824102 0.361704 0.385103
O O14 0.010230 0.162498 0.364602
O O15 0.659213 0.177724 0.186649
O O16 0.283233 0.985386 0.484359
#
# Coordination Sequence:
#
# PCOD9116378 Si02
#       8
#     2   2   2   2   2   2   2   2
#     4  10  23  42  69  96 137 170 211 279 337 382
#     4  11  22  41  67  91 131 168 218 275 322 392
#     4  11  25  40  67  92 131 181 213 274 337 390
#     4  10  25  43  63  96 137 173 223 268 318 416
#     4  11  22  40  67  96 128 170 219 276 340 387
#     4  10  21  43  63  96 132 162 224 275 324 399
#     4  10  23  41  67 106 127 163 227 278 330 398
#     4  11  23  40  69  95 133 173 217 275 328 396
#
# _framework density 20.230886000000002
#
# number of rings (size 3 to 8) (size 9 to 14) (size 15 to 20)
#    0.000    1.500    2.500    2.250   10.500    0.000 
#    0.000    0.000    2.750    0.000    0.000    0.000 
#    0.000    0.000    0.000    0.000    0.000    0.000 
#
# Total GULP energy -89091.540343 kJ/mol
# GULP energy per Si atom -5568.221271 kJ/mol
# Density = 2.018484 g / cm^3
# Si number density = 20.230886 Si / 1000 Ang^3
#
#
#
# Elastic Constant Matrix: (Units=GPa)
#
#
# Indices 1 2 3 4 5 6 
#
# 1 60.6791 0.6492 15.8826 0.0000 -13.1393 0.0000
# 2 0.6492 72.4565 34.8918 0.0000 -14.5643 0.0000
# 3 15.8826 34.8918 90.4919 0.0000 -26.7625 0.0000
# 4 0.0000 0.0000 0.0000 25.2525 0.0000 -3.9730
# 5 -13.1393 -14.5643 -26.7625 0.0000 32.7545 0.0000
# 6 0.0000 0.0000 0.0000 -3.9730 0.0000 24.2424
#
#
#
# Elastic Compliance Matrix: (Units=1/GPa)
#
#
# Indices 1 2 3 4 5 6 
#
# 1 0.018450 0.002190 -0.002117 0.000000 0.006645 0.000000
# 2 0.002190 0.017419 -0.006000 0.000000 0.003721 0.000000
# 3 -0.002117 -0.006000 0.016741 0.000000 0.010161 0.000000
# 4 0.000000 0.000000 0.000000 0.040648 0.000000 0.006662
# 5 0.006645 0.003721 0.010161 0.000000 0.043153 0.000000
# 6 0.000000 0.000000 0.000000 0.006662 0.000000 0.042342
#
#
# Mechanical properties :
#
#
# Convention : Reuss Voigt Hill
#
# Bulk Modulus (GPa) = 24.53718 36.27496 30.40607
# Shear Modulus (GPa) = 24.48665 27.93014 26.20840
#
# Velocity S-wave (km/s) = 3.48280 3.71963 3.60316
# Velocity P-wave (km/s) = 5.32241 6.03465 5.68969
#
# Compressibility (1/GPa) = 0.04075447
#
# Stress axis : x y z
#
# Youngs Moduli (GPa) = 54.20123 57.40768 59.73354
#
# Poissons Ratio (x) = -0.12572 0.12648
# Poissons Ratio (y) = -0.11870 0.35842
# Poissons Ratio (z) = 0.11477 0.34446
#
# Static dielectric constant tensor:
#      x y z
#    x 1.705360 0.000000 -0.016770 
#    y 0.000000 1.843970 0.000000 
#    z -0.016770 0.000000 1.729360 
# 
# From -- ./inp_files/10900.got.cif
#   From: 2010.05.17/outbox.cif.g08.bks.cpg/sg4_6_cif.got.tgz:10900.got - 2010.06.03 18:43:04.
