data_PCOD9116641
_publ_section_title
;
Structure prediction by ZEFSAII (Michael W. Deem and Ramdas Pophale) SiO2 
 PCOD9116641
Probable space group: P 21
;
_chemical_formula_sum "Si O2"
_cell_formula_units_Z 16
_cell_length_a 9.789356
_cell_length_b 4.867473
_cell_length_c 17.308850
_cell_angle_alpha 90.000000
_cell_angle_beta 130.744850
_cell_angle_gamma 90.000000
_cell_volume 624.855236
_symmetry_space_group_name_H-M "P 21"
_symmetry_group_IT_number 4
_symmetry_cell_setting 'monoclinic'
loop_
_space_group_symop_operation_xyz
x,y,z
-x,1/2+y,-z
loop_
_atom_site_type_symbol
_atom_site_label
_atom_site_fract_x
_atom_site_fract_y
_atom_site_fract_z
Si Si1 0.140950 0.516320 0.044138
Si Si2 0.846477 0.490937 0.716698
Si Si3 0.224711 0.296399 0.619291
Si Si4 0.020310 0.799159 0.602655
Si Si5 0.943887 0.483274 0.211852
Si Si6 0.583968 0.387039 0.492375
Si Si7 0.618786 0.153543 0.021776
Si Si8 0.587715 0.124242 0.722684
O O1 0.270250 0.573655 0.016356
O O2 0.284911 0.486449 0.166772
O O3 0.001106 0.261753 0.988107
O O4 0.774505 0.475412 0.601428
O O5 0.892973 0.795143 0.760804
O O6 0.700585 0.343001 0.715021
O O7 0.021855 0.299596 0.791104
O O8 0.105745 0.498338 0.627119
O O9 0.167053 0.356459 0.509958
O O10 0.159061 0.986865 0.605917
O O11 0.434669 0.299004 0.710868
O O12 0.030039 0.925408 0.689327
O O13 0.763022 0.339266 0.120339
O O14 0.449435 0.577115 0.493649
O O15 0.523039 0.443118 0.382071
O O16 0.453838 0.380165 0.960515
#
# Coordination Sequence:
#
# PCOD9116641 Si02
#       8
#     2   2   2   2   2   2   2   2
#     4  12  28  51  76 110 155 197 258 328 388 440
#     4  11  23  41  66 106 137 183 227 286 359 449
#     4  10  23  40  62  97 131 174 220 282 337 427
#     4  10  23  41  62  92 135 173 225 273 347 412
#     4  12  24  43  72  91 141 182 233 287 369 411
#     4  10  22  39  62 103 145 181 228 279 344 448
#     4  12  28  49  76 109 147 195 268 320 375 457
#     4  11  25  42  74 100 145 185 239 287 373 426
#
# _framework density 25.605931999999999
#
# number of rings (size 3 to 8) (size 9 to 14) (size 15 to 20)
#    0.000    1.000    0.000    6.000    3.500   10.000 
#    0.000    0.000    0.000    0.000    0.000    0.000 
#    0.000    0.000    0.000    0.000    0.000    0.000 
#
# Total GULP energy -89482.712868 kJ/mol
# GULP energy per Si atom -5592.669554 kJ/mol
# Density = 2.554765 g / cm^3
# Si number density = 25.605932 Si / 1000 Ang^3
#
#
#
# Elastic Constant Matrix: (Units=GPa)
#
#
# Indices 1 2 3 4 5 6 
#
# 1 116.2506 30.9623 34.9832 0.0000 5.8307 0.0000
# 2 30.9623 95.8920 32.4518 0.0000 8.3365 0.0000
# 3 34.9832 32.4518 103.1833 0.0000 9.6017 0.0000
# 4 0.0000 0.0000 0.0000 34.9865 0.0000 9.1570
# 5 5.8307 8.3365 9.6017 0.0000 35.1766 0.0000
# 6 0.0000 0.0000 0.0000 9.1570 0.0000 21.2661
#
#
#
# Elastic Compliance Matrix: (Units=1/GPa)
#
#
# Indices 1 2 3 4 5 6 
#
# 1 0.010031 -0.002312 -0.002637 0.000000 -0.000395 0.000000
# 2 -0.002312 0.012317 -0.002928 0.000000 -0.001736 0.000000
# 3 -0.002637 -0.002928 0.011698 0.000000 -0.002062 0.000000
# 4 0.000000 0.000000 0.000000 0.032213 0.000000 -0.013870
# 5 -0.000395 -0.001736 -0.002062 0.000000 0.029468 0.000000
# 6 0.000000 0.000000 0.000000 -0.013870 0.000000 0.052996
#
#
# Mechanical properties :
#
#
# Convention : Reuss Voigt Hill
#
# Bulk Modulus (GPa) = 54.66982 56.90228 55.78605
# Shear Modulus (GPa) = 29.31259 32.74774 31.03017
#
# Velocity S-wave (km/s) = 3.38710 3.58007 3.48492
# Velocity P-wave (km/s) = 6.05751 6.27373 6.16657
#
# Compressibility (1/GPa) = 0.01829163
#
# Stress axis : x y z
#
# Youngs Moduli (GPa) = 99.68776 81.18911 85.48181
#
# Poissons Ratio (x) = 0.18773 0.22542
# Poissons Ratio (y) = 0.23050 0.25031
# Poissons Ratio (z) = 0.26288 0.23774
#
# Static dielectric constant tensor:
#      x y z
#    x 2.099400 0.000000 0.027300 
#    y 0.000000 2.014770 0.000000 
#    z 0.027300 0.000000 2.046720 
# 
# From -- ./inp_files/14851.got.cif
#   From: 2010.05.17/outbox.cif.g08.bks.cpg/sg4_8_cif.got.tgz:14851.got - 2010.06.03 18:43:04.
