data_PCOD9116827
_publ_section_title
;
Structure prediction by ZEFSAII (Michael W. Deem and Ramdas Pophale) SiO2 
 PCOD9116827
Probable space group: P 21
;
_chemical_formula_sum "Si O2"
_cell_formula_units_Z 16
_cell_length_a 6.765808
_cell_length_b 14.096662
_cell_length_c 7.709621
_cell_angle_alpha 90.000000
_cell_angle_beta 97.614983
_cell_angle_gamma 90.000000
_cell_volume 728.822747
_symmetry_space_group_name_H-M "P 21"
_symmetry_group_IT_number 4
_symmetry_cell_setting 'monoclinic'
loop_
_space_group_symop_operation_xyz
x,y,z
-x,1/2+y,-z
loop_
_atom_site_type_symbol
_atom_site_label
_atom_site_fract_x
_atom_site_fract_y
_atom_site_fract_z
Si Si1 0.330309 0.986830 0.592090
Si Si2 0.483295 0.485645 0.757955
Si Si3 0.779094 0.289747 0.239803
Si Si4 0.944159 0.943006 0.372970
Si Si5 0.554818 0.679842 0.251599
Si Si6 0.828211 0.770263 0.576146
Si Si7 0.224888 0.822037 0.146214
Si Si8 0.378281 0.186232 0.121658
O O1 0.302129 0.886268 0.683000
O O2 0.109970 0.008984 0.484651
O O3 0.469052 0.980657 0.440632
O O4 0.423856 0.067077 0.724050
O O5 0.243801 0.488661 0.748212
O O6 0.582662 0.391628 0.847782
O O7 0.610413 0.574130 0.843217
O O8 0.601709 0.219101 0.185383
O O9 0.940136 0.242409 0.384589
O O10 0.861910 0.312189 0.056799
O O11 0.849219 0.878177 0.514112
O O12 0.071771 0.872778 0.260556
O O13 0.679616 0.721751 0.424975
O O14 0.332043 0.724544 0.222039
O O15 0.662131 0.705939 0.083550
O O16 0.748298 0.744320 0.755703
#
# Coordination Sequence:
#
# PCOD9116827 Si02
#       8
#     2   2   2   2   2   2   2   2
#     4  10  22  41  63  96 133 170 224 270 330 396
#     4  11  21  40  66  95 130 176 215 278 330 389
#     4  10  24  41  65  97 132 174 223 271 327 395
#     4  10  23  40  70  96 131 178 223 271 333 392
#     4  11  23  44  66  97 133 176 213 281 329 391
#     4  11  23  41  66  94 129 172 215 272 326 387
#     4  10  23  42  65  99 133 172 225 272 329 396
#     4  11  25  41  67  96 131 172 222 269 334 392
#
# _framework density 21.953213000000002
#
# number of rings (size 3 to 8) (size 9 to 14) (size 15 to 20)
#    0.000    1.500    2.500    1.500    7.000    0.000 
#    0.000    2.500    0.000    0.000    0.000    0.000 
#    0.000    0.000    0.000    0.000    0.000    0.000 
#
# Total GULP energy -89280.010191 kJ/mol
# GULP energy per Si atom -5580.000637 kJ/mol
# Density = 2.190325 g / cm^3
# Si number density = 21.953213 Si / 1000 Ang^3
#
#
#
# Elastic Constant Matrix: (Units=GPa)
#
#
# Indices 1 2 3 4 5 6 
#
# 1 57.4360 15.8699 18.0768 0.0000 -8.5794 0.0000
# 2 15.8699 35.0905 9.7743 0.0000 -11.5151 0.0000
# 3 18.0768 9.7743 89.5544 0.0000 -15.1153 0.0000
# 4 0.0000 0.0000 0.0000 29.8476 0.0000 6.0906
# 5 -8.5794 -11.5151 -15.1153 0.0000 27.4078 0.0000
# 6 0.0000 0.0000 0.0000 6.0906 0.0000 12.7598
#
#
#
# Elastic Compliance Matrix: (Units=1/GPa)
#
#
# Indices 1 2 3 4 5 6 
#
# 1 0.020830 -0.008096 -0.003081 0.000000 0.001419 0.000000
# 2 -0.008096 0.036360 -0.000202 0.000000 0.012630 0.000000
# 3 -0.003081 -0.000202 0.012827 0.000000 0.006025 0.000000
# 4 0.000000 0.000000 0.000000 0.037119 0.000000 -0.017718
# 5 0.001419 0.012630 0.006025 0.000000 0.045559 0.000000
# 6 0.000000 0.000000 0.000000 -0.017718 0.000000 0.086828
#
#
# Mechanical properties :
#
#
# Convention : Reuss Voigt Hill
#
# Bulk Modulus (GPa) = 21.16076 29.94699 25.55388
# Shear Modulus (GPa) = 17.98329 23.22705 20.60517
#
# Velocity S-wave (km/s) = 2.86521 3.25626 3.06697
# Velocity P-wave (km/s) = 4.53937 5.27338 4.92008
#
# Compressibility (1/GPa) = 0.04725728
#
# Stress axis : x y z
#
# Youngs Moduli (GPa) = 48.00880 27.50242 77.95864
#
# Poissons Ratio (x) = 0.22267 0.24021
# Poissons Ratio (y) = 0.38869 0.01578
# Poissons Ratio (z) = 0.14793 0.00557
#
# Static dielectric constant tensor:
#      x y z
#    x 1.846930 0.000000 0.000220 
#    y 0.000000 1.834600 0.000000 
#    z 0.000220 0.000000 1.830250 
# 
# From -- ./inp_files/4764.got.cif
#   From: 2010.05.17/outbox.cif.g08.bks.cpg/sg4_3_cif.got.tgz:4764.got - 2010.06.03 18:43:04.
