data_PCOD9116408
_publ_section_title
;
Structure prediction by ZEFSAII (Michael W. Deem and Ramdas Pophale) SiO2 
 PCOD9116408
Probable space group: P 21
;
_chemical_formula_sum "Si O2"
_cell_formula_units_Z 16
_cell_length_a 5.477091
_cell_length_b 20.892601
_cell_length_c 5.877608
_cell_angle_alpha 90.000000
_cell_angle_beta 77.022175
_cell_angle_gamma 90.000000
_cell_volume 655.399021
_symmetry_space_group_name_H-M "P 21"
_symmetry_group_IT_number 4
_symmetry_cell_setting 'monoclinic'
loop_
_space_group_symop_operation_xyz
x,y,z
-x,1/2+y,-z
loop_
_atom_site_type_symbol
_atom_site_label
_atom_site_fract_x
_atom_site_fract_y
_atom_site_fract_z
Si Si1 0.434009 0.014880 0.675359
Si Si2 0.733672 0.935426 0.898236
Si Si3 0.749721 0.824192 0.585984
Si Si4 0.215063 0.112717 0.411377
Si Si5 0.058104 0.990850 0.179275
Si Si6 0.969840 0.222968 0.744729
Si Si7 0.633795 0.398232 0.658715
Si Si8 0.403840 0.213492 0.037920
O O1 0.389716 0.082921 0.572590
O O2 0.694237 0.990368 0.719083
O O3 0.381384 0.962089 0.495155
O O4 0.255882 0.003349 0.931069
O O5 0.864384 0.878405 0.731170
O O6 0.516466 0.895450 0.070287
O O7 0.809208 0.979013 0.094221
O O8 0.966311 0.789214 0.396735
O O9 0.521303 0.849650 0.472853
O O10 0.635988 0.769024 0.768909
O O11 0.033204 0.164741 0.561198
O O12 0.071055 0.053250 0.329532
O O13 0.374278 0.147353 0.182665
O O14 0.102499 0.921038 0.281831
O O15 0.175159 0.217762 0.904940
O O16 0.681183 0.219935 0.877179
#
# Coordination Sequence:
#
# PCOD9116408 Si02
#       8
#     2   2   2   2   2   2   2   2
#     4   9  20  42  62 102 142 180 231 287 363 433
#     4  10  21  43  67 108 145 184 241 292 366 449
#     4  10  23  46  74 107 142 196 239 308 370 437
#     4  10  23  46  74 107 142 196 239 308 370 437
#     4  10  21  43  67 108 145 184 241 292 366 449
#     4  11  26  53  74 105 145 193 253 307 375 431
#     4   9  20  42  62 102 142 180 231 287 363 433
#     4  11  26  53  74 109 143 191 259 309 365 439
#
# _framework density 24.412607999999999
#
# number of rings (size 3 to 8) (size 9 to 14) (size 15 to 20)
#    0.000    2.000    0.000    1.500    0.000    8.000 
#   58.500    0.000    0.000    0.000    0.000    0.000 
#    0.000    0.000    0.000    0.000    0.000    0.000 
#
# Total GULP energy -89187.462135 kJ/mol
# GULP energy per Si atom -5574.216383 kJ/mol
# Density = 2.435704 g / cm^3
# Si number density = 24.412608 Si / 1000 Ang^3
#
#
#
# Elastic Constant Matrix: (Units=GPa)
#
#
# Indices 1 2 3 4 5 6 
#
# 1 45.2084 7.6125 10.0380 0.0000 -5.0290 0.0000
# 2 7.6125 114.6963 38.0317 0.0000 -4.2961 0.0000
# 3 10.0380 38.0317 97.8355 0.0000 -15.0428 0.0000
# 4 0.0000 0.0000 0.0000 64.4683 0.0000 10.9715
# 5 -5.0290 -4.2961 -15.0428 0.0000 48.6520 0.0000
# 6 0.0000 0.0000 0.0000 10.9715 0.0000 23.9979
#
#
#
# Elastic Compliance Matrix: (Units=1/GPa)
#
#
# Indices 1 2 3 4 5 6 
#
# 1 0.022847 -0.000876 -0.001735 0.000000 0.001748 0.000000
# 2 -0.000876 0.010048 -0.003878 0.000000 -0.000402 0.000000
# 3 -0.001735 -0.003878 0.012417 0.000000 0.003317 0.000000
# 4 0.000000 0.000000 0.000000 0.016820 0.000000 -0.007690
# 5 0.001748 -0.000402 0.003317 0.000000 0.021725 0.000000
# 6 0.000000 0.000000 0.000000 -0.007690 0.000000 0.045186
#
#
# Mechanical properties :
#
#
# Convention : Reuss Voigt Hill
#
# Bulk Modulus (GPa) = 30.92684 41.01163 35.96923
# Shear Modulus (GPa) = 32.72309 40.89418 36.80864
#
# Velocity S-wave (km/s) = 3.66514 4.09727 3.88722
# Velocity P-wave (km/s) = 5.53235 6.26253 5.90873
#
# Compressibility (1/GPa) = 0.03233438
#
# Stress axis : x y z
#
# Youngs Moduli (GPa) = 43.76962 99.52681 80.53647
#
# Poissons Ratio (x) = 0.08715 0.13973
# Poissons Ratio (y) = 0.03832 0.31230
# Poissons Ratio (z) = 0.07594 0.38595
#
# Static dielectric constant tensor:
#      x y z
#    x 2.186480 0.000000 -0.025260 
#    y 0.000000 1.948990 0.000000 
#    z -0.025260 0.000000 1.986820 
# 
# From -- ./inp_files/790.got.cif
#   From: 2010.05.17/outbox.cif.g08.bks.cpg/sg4_1_cif.got.tgz:790.got - 2010.06.03 18:43:04.
