data_PCOD9116235
_publ_section_title
;
Structure prediction by ZEFSAII (Michael W. Deem and Ramdas Pophale) SiO2 
 PCOD9116235
Probable space group: P 21
;
_chemical_formula_sum "Si O2"
_cell_formula_units_Z 16
_cell_length_a 6.955767
_cell_length_b 13.000712
_cell_length_c 14.055494
_cell_angle_alpha 90.000000
_cell_angle_beta 40.758741
_cell_angle_gamma 90.000000
_cell_volume 829.828847
_symmetry_space_group_name_H-M "P 21"
_symmetry_group_IT_number 4
_symmetry_cell_setting 'monoclinic'
loop_
_space_group_symop_operation_xyz
x,y,z
-x,1/2+y,-z
loop_
_atom_site_type_symbol
_atom_site_label
_atom_site_fract_x
_atom_site_fract_y
_atom_site_fract_z
Si Si1 0.294179 0.262830 0.205388
Si Si2 0.295207 0.272774 0.771463
Si Si3 0.469385 0.491531 0.140867
Si Si4 0.391853 0.719942 0.520351
Si Si5 0.251917 0.618060 0.053198
Si Si6 0.716996 0.100462 0.613730
Si Si7 0.603678 0.651526 0.641848
Si Si8 0.845047 0.993916 0.099867
O O1 0.400378 0.375312 0.138055
O O2 0.407289 0.233883 0.268669
O O3 0.942615 0.255150 0.339794
O O4 0.444963 0.177963 0.082149
O O5 0.428146 0.295983 0.616649
O O6 0.552992 0.201350 0.719803
O O7 0.224115 0.374313 0.856244
O O8 0.011386 0.199987 0.862632
O O9 0.277117 0.566648 0.146706
O O10 0.388867 0.507727 0.281899
O O11 0.815460 0.512801 0.000722
O O12 0.382639 0.615332 0.458638
O O13 0.537178 0.701032 0.565938
O O14 0.207232 0.531467 0.988703
O O15 0.066160 0.107810 0.483453
O O16 0.369691 0.563504 0.755507
#
# Coordination Sequence:
#
# PCOD9116235 Si02
#       8
#     2   2   2   2   2   2   2   2
#     4  10  23  40  60  92 122 157 210 257 308 373
#     4  10  21  43  60  89 130 157 211 254 314 362
#     4  12  23  39  65  91 122 168 210 253 318 370
#     4   9  20  42  58  89 121 161 200 257 310 364
#     4  11  23  42  63  90 126 164 207 262 312 370
#     4   9  22  38  61  89 124 160 202 259 300 371
#     4  10  21  41  66  86 126 162 202 261 310 361
#     4  11  23  41  63  92 121 167 208 259 308 379
#
# _framework density 19.281085000000001
#
# number of rings (size 3 to 8) (size 9 to 14) (size 15 to 20)
#    0.750    1.000    2.500    1.500    1.750    2.000 
#    4.500    0.000    0.000    0.000    0.000    0.000 
#    0.000    0.000    0.000    0.000    0.000    0.000 
#
# Total GULP energy -89202.538307 kJ/mol
# GULP energy per Si atom -5575.158644 kJ/mol
# Density = 1.923720 g / cm^3
# Si number density = 19.281085 Si / 1000 Ang^3
#
#
#
# Elastic Constant Matrix: (Units=GPa)
#
#
# Indices 1 2 3 4 5 6 
#
# 1 17.5434 3.4414 13.5542 0.0000 0.2145 0.0000
# 2 3.4414 56.7677 12.2821 0.0000 -6.5064 0.0000
# 3 13.5542 12.2821 72.2204 0.0000 -22.0440 0.0000
# 4 0.0000 0.0000 0.0000 22.0210 0.0000 -4.3124
# 5 0.2145 -6.5064 -22.0440 0.0000 28.0331 0.0000
# 6 0.0000 0.0000 0.0000 -4.3124 0.0000 12.6461
#
#
#
# Elastic Compliance Matrix: (Units=1/GPa)
#
#
# Indices 1 2 3 4 5 6 
#
# 1 0.071137 -0.002226 -0.017495 0.000000 -0.014819 0.000000
# 2 -0.002226 0.018478 -0.001856 0.000000 0.002846 0.000000
# 3 -0.017495 -0.001856 0.022836 0.000000 0.017660 0.000000
# 4 0.000000 0.000000 0.000000 0.048661 0.000000 0.016593
# 5 -0.014819 0.002846 0.017660 0.000000 0.050334 0.000000
# 6 0.000000 0.000000 0.000000 0.016593 0.000000 0.084734
#
#
# Mechanical properties :
#
#
# Convention : Reuss Voigt Hill
#
# Bulk Modulus (GPa) = 14.43066 22.78744 18.60905
# Shear Modulus (GPa) = 13.79567 20.35696 17.07632
#
# Velocity S-wave (km/s) = 2.67779 3.25283 2.97922
# Velocity P-wave (km/s) = 4.13054 5.09432 4.63753
#
# Compressibility (1/GPa) = 0.06929692
#
# Stress axis : x y z
#
# Youngs Moduli (GPa) = 14.05747 54.11731 43.79013
#
# Poissons Ratio (x) = 0.12045 0.76613
# Poissons Ratio (y) = 0.03129 0.08127
# Poissons Ratio (z) = 0.24594 0.10044
#
# Static dielectric constant tensor:
#      x y z
#    x 1.659310 0.000000 0.008620 
#    y 0.000000 1.667160 0.000000 
#    z 0.008620 0.000000 1.694480 
# 
# From -- ./inp_files/10390.got.cif
#   From: 2010.05.17/outbox.cif.g08.bks.cpg/sg4_6_cif.got.tgz:10390.got - 2010.06.03 18:43:04.
