data_PCOD9116320
_publ_section_title
;
Structure prediction by ZEFSAII (Michael W. Deem and Ramdas Pophale) SiO2 
 PCOD9116320
Probable space group: P 21
;
_chemical_formula_sum "Si O2"
_cell_formula_units_Z 14
_cell_length_a 12.760996
_cell_length_b 6.669706
_cell_length_c 14.762900
_cell_angle_alpha 90.000000
_cell_angle_beta 29.077510
_cell_angle_gamma 90.000000
_cell_volume 610.650038
_symmetry_space_group_name_H-M "P 21"
_symmetry_group_IT_number 4
_symmetry_cell_setting 'monoclinic'
loop_
_space_group_symop_operation_xyz
x,y,z
-x,1/2+y,-z
loop_
_atom_site_type_symbol
_atom_site_label
_atom_site_fract_x
_atom_site_fract_y
_atom_site_fract_z
Si Si1 0.578422 0.394340 0.063081
Si Si2 0.479669 0.698522 0.405338
Si Si3 0.846944 0.865949 0.681054
Si Si4 0.314911 0.770017 0.342401
Si Si5 0.119870 0.834831 0.315497
Si Si6 0.270045 0.826322 0.868177
Si Si7 0.808299 0.014583 0.230155
O O1 0.401911 0.309185 0.125625
O O2 0.474028 0.598153 0.182428
O O3 0.624813 0.261419 0.116289
O O4 0.795507 0.421718 0.841468
O O5 0.412271 0.820540 0.366075
O O6 0.579130 0.488037 0.296298
O O7 0.279160 0.644226 0.620241
O O8 0.652957 0.824003 0.331356
O O9 0.053539 0.743715 0.560771
O O10 0.864380 0.092563 0.704028
O O11 0.891026 0.863132 0.538050
O O12 0.274502 0.903104 0.282965
O O13 0.212064 0.649073 0.844347
O O14 0.050749 0.942330 0.058714
#
# Coordination Sequence:
#
# PCOD9116320 Si02
#       7
#     2   2   2   2   2   2   2
#     4  10  21  42  66  95 133 175 211 268 335 378
#     4  11  23  46  70  98 129 181 214 282 337 387
#     4   9  20  42  60  93 134 163 213 261 308 404
#     4   8  21  43  63  93 134 170 212 263 326 392
#     4   9  20  39  64  93 131 169 209 264 314 392
#     4  11  25  44  69 100 133 170 225 282 326 398
#     4  12  24  46  70  96 132 172 230 274 336 387
#
# _framework density 22.926387999999999
#
# number of rings (size 3 to 8) (size 9 to 14) (size 15 to 20)
#    0.857    1.143    2.857    0.000    0.000    6.857 
#   18.000    0.000    0.000    0.000    0.000    0.000 
#    0.000    0.000    0.000    0.000    0.000    0.000 
#
# Total GULP energy -77941.803831 kJ/mol
# GULP energy per Si atom -5567.271702 kJ/mol
# Density = 2.287421 g / cm^3
# Si number density = 22.926388 Si / 1000 Ang^3
#
#
#
# Elastic Constant Matrix: (Units=GPa)
#
#
# Indices 1 2 3 4 5 6 
#
# 1 69.3874 -12.7577 19.9357 0.0000 10.4271 0.0000
# 2 -12.7577 33.3717 11.5316 0.0000 3.7156 0.0000
# 3 19.9357 11.5316 126.9138 0.0000 7.7929 0.0000
# 4 0.0000 0.0000 0.0000 33.4079 0.0000 -2.8126
# 5 10.4271 3.7156 7.7929 0.0000 27.8819 0.0000
# 6 0.0000 0.0000 0.0000 -2.8126 0.0000 16.6137
#
#
#
# Elastic Compliance Matrix: (Units=1/GPa)
#
#
# Indices 1 2 3 4 5 6 
#
# 1 0.017992 0.008761 -0.003192 0.000000 -0.007004 0.000000
# 2 0.008761 0.035522 -0.004184 0.000000 -0.006841 0.000000
# 3 -0.003192 -0.004184 0.008805 0.000000 -0.000709 0.000000
# 4 0.000000 0.000000 0.000000 0.030366 0.000000 0.005141
# 5 -0.007004 -0.006841 -0.000709 0.000000 0.039595 0.000000
# 6 0.000000 0.000000 0.000000 0.005141 0.000000 0.061061
#
#
# Mechanical properties :
#
#
# Convention : Reuss Voigt Hill
#
# Bulk Modulus (GPa) = 15.36349 29.67692 22.52021
# Shear Modulus (GPa) = 23.55522 29.64492 26.60007
#
# Velocity S-wave (km/s) = 3.20883 3.59980 3.40992
# Velocity P-wave (km/s) = 4.52157 5.50006 5.03464
#
# Compressibility (1/GPa) = 0.06508937
#
# Stress axis : x y z
#
# Youngs Moduli (GPa) = 55.57918 28.15143 113.57808
#
# Poissons Ratio (x) = -0.24664 0.36257
# Poissons Ratio (y) = -0.48694 0.47519
# Poissons Ratio (z) = 0.17742 0.11778
#
# Static dielectric constant tensor:
#      x y z
#    x 1.836930 0.000000 -0.013790 
#    y 0.000000 1.920010 0.000000 
#    z -0.013790 0.000000 1.831900 
# 
# From -- ./inp_files/11940.got.cif
#   From: 2010.05.17/outbox.cif.g08.bks.cpg/sg4_6_cif.got.tgz:11940.got - 2010.06.03 18:43:04.
