data_PCOD9116450
_publ_section_title
;
Structure prediction by ZEFSAII (Michael W. Deem and Ramdas Pophale) SiO2 
 PCOD9116450
Probable space group: P 21
;
_chemical_formula_sum "Si O2"
_cell_formula_units_Z 14
_cell_length_a 5.479271
_cell_length_b 13.495720
_cell_length_c 7.431201
_cell_angle_alpha 90.000000
_cell_angle_beta 94.010799
_cell_angle_gamma 90.000000
_cell_volume 548.167024
_symmetry_space_group_name_H-M "P 21"
_symmetry_group_IT_number 4
_symmetry_cell_setting 'monoclinic'
loop_
_space_group_symop_operation_xyz
x,y,z
-x,1/2+y,-z
loop_
_atom_site_type_symbol
_atom_site_label
_atom_site_fract_x
_atom_site_fract_y
_atom_site_fract_z
Si Si1 0.893543 0.774890 0.999988
Si Si2 0.415522 0.171914 0.505606
Si Si3 0.882984 0.455871 0.146503
Si Si4 0.737996 0.119626 0.856791
Si Si5 0.149698 0.346044 0.624114
Si Si6 0.625659 0.377689 0.457059
Si Si7 0.613771 0.577801 0.858028
O O1 0.783968 0.832209 0.164168
O O2 0.140472 0.724513 0.088378
O O3 0.734601 0.683290 0.924377
O O4 0.959086 0.856110 0.856179
O O5 0.531206 0.136771 0.698189
O O6 0.172735 0.234560 0.541434
O O7 0.588482 0.258630 0.432205
O O8 0.390204 0.088319 0.355444
O O9 0.665213 0.432428 0.271556
O O10 0.055497 0.546690 0.209971
O O11 0.774415 0.489625 0.949410
O O12 0.635712 0.076040 0.039548
O O13 0.373411 0.403712 0.543479
O O14 0.883578 0.388588 0.573014
#
# Coordination Sequence:
#
# PCOD9116450 Si02
#       7
#     2   2   2   2   2   2   2
#     4  11  22  48  73 103 152 194 256 311 385 449
#     4  10  22  44  78 101 147 195 253 300 389 435
#     4  11  27  44  71 109 153 195 256 317 381 455
#     4  11  24  47  72 106 151 198 253 315 378 456
#     4  10  21  43  79 105 135 203 248 306 375 453
#     4  10  22  44  74 105 140 196 249 302 375 444
#     4  11  24  46  71 107 146 201 247 319 379 456
#
# _framework density 25.539663000000001
#
# number of rings (size 3 to 8) (size 9 to 14) (size 15 to 20)
#    0.857    0.571    2.857    1.714    2.000    2.286 
#    5.143    1.429    0.000    0.000    0.000    0.000 
#    0.000    0.000    0.000    0.000    0.000    0.000 
#
# Total GULP energy -78389.948538 kJ/mol
# GULP energy per Si atom -5599.282038 kJ/mol
# Density = 2.548153 g / cm^3
# Si number density = 25.539663 Si / 1000 Ang^3
#
#
#
# Elastic Constant Matrix: (Units=GPa)
#
#
# Indices 1 2 3 4 5 6 
#
# 1 98.4129 19.3652 14.0673 0.0000 -2.0979 0.0000
# 2 19.3652 106.6608 5.0515 0.0000 -2.4881 0.0000
# 3 14.0673 5.0515 80.4013 0.0000 3.1707 0.0000
# 4 0.0000 0.0000 0.0000 37.2117 0.0000 -7.6415
# 5 -2.0979 -2.4881 3.1707 0.0000 28.8469 0.0000
# 6 0.0000 0.0000 0.0000 -7.6415 0.0000 42.4880
#
#
#
# Elastic Compliance Matrix: (Units=1/GPa)
#
#
# Indices 1 2 3 4 5 6 
#
# 1 0.010802 -0.001857 -0.001806 0.000000 0.000824 0.000000
# 2 -0.001857 0.009745 -0.000317 0.000000 0.000740 0.000000
# 3 -0.001806 -0.000317 0.012835 0.000000 -0.001569 0.000000
# 4 0.000000 0.000000 0.000000 0.027904 0.000000 0.005018
# 5 0.000824 0.000740 -0.001569 0.000000 0.034962 0.000000
# 6 0.000000 0.000000 0.000000 0.005018 0.000000 0.024439
#
#
# Mechanical properties :
#
#
# Convention : Reuss Voigt Hill
#
# Bulk Modulus (GPa) = 39.33214 40.27145 39.80179
# Shear Modulus (GPa) = 36.46445 38.17538 37.31992
#
# Velocity S-wave (km/s) = 3.78267 3.87039 3.82678
# Velocity P-wave (km/s) = 5.87469 5.98128 5.92822
#
# Compressibility (1/GPa) = 0.02542450
#
# Stress axis : x y z
#
# Youngs Moduli (GPa) = 92.57306 102.61841 77.90979
#
# Poissons Ratio (x) = 0.19051 0.14069
# Poissons Ratio (y) = 0.17186 0.02467
# Poissons Ratio (z) = 0.16717 0.03249
#
# Static dielectric constant tensor:
#      x y z
#    x 1.989460 0.000000 -0.017900 
#    y 0.000000 1.988930 0.000000 
#    z -0.017900 0.000000 2.021940 
# 
# From -- ./inp_files/4597.got.cif
#   From: 2010.05.17/outbox.cif.g08.bks.cpg/sg4_3_cif.got.tgz:4597.got - 2010.06.03 18:43:04.
