data_PCOD9116981
_publ_section_title
;
Structure prediction by ZEFSAII (Michael W. Deem and Ramdas Pophale) SiO2 
 PCOD9116981
Probable space group: P 21
;
_chemical_formula_sum "Si O2"
_cell_formula_units_Z 12
_cell_length_a 11.843525
_cell_length_b 10.209547
_cell_length_c 9.186731
_cell_angle_alpha 90.000000
_cell_angle_beta 24.439003
_cell_angle_gamma 90.000000
_cell_volume 459.578228
_symmetry_space_group_name_H-M "P 21"
_symmetry_group_IT_number 4
_symmetry_cell_setting 'monoclinic'
loop_
_space_group_symop_operation_xyz
x,y,z
-x,1/2+y,-z
loop_
_atom_site_type_symbol
_atom_site_label
_atom_site_fract_x
_atom_site_fract_y
_atom_site_fract_z
Si Si1 0.442168 0.549290 0.018711
Si Si2 0.034645 0.215850 0.930463
Si Si3 0.592406 0.049570 0.273827
Si Si4 0.979807 0.648970 0.731886
Si Si5 0.733196 0.317554 0.806086
Si Si6 0.723422 0.412745 0.135991
O O1 0.353552 0.518865 0.958189
O O2 0.675202 0.453398 0.796326
O O3 0.194409 0.538460 0.424224
O O4 0.491761 0.705594 0.968016
O O5 0.835596 0.122081 0.070663
O O6 0.942219 0.215774 0.207600
O O7 0.985843 0.358307 0.916623
O O8 0.327979 0.146370 0.579492
O O9 0.506720 0.921832 0.469166
O O10 0.999098 0.751720 0.578989
O O11 0.723082 0.560862 0.072470
O O12 0.717930 0.330674 0.995663
#
# Coordination Sequence:
#
# PCOD9116981 Si02
#       6
#     2   2   2   2   2   2
#     4  10  22  43  69 107 143 192 242 301 373 436
#     4  11  23  45  69 104 142 190 244 300 368 433
#     4  11  25  42  73 102 142 191 240 306 362 441
#     4   9  23  41  68 105 141 191 243 302 366 442
#     4  10  22  42  68 102 148 187 248 299 370 435
#     4  11  23  43  71 102 148 193 249 302 371 443
#
# _framework density 26.110897000000001
#
# number of rings (size 3 to 8) (size 9 to 14) (size 15 to 20)
#    1.000    0.667    1.667    2.000    2.333    5.333 
#    0.000    1.667    0.000    0.000    0.000    0.000 
#    0.000    0.000    0.000    0.000    0.000    0.000 
#
# Total GULP energy -67021.362683 kJ/mol
# GULP energy per Si atom -5585.113557 kJ/mol
# Density = 2.605147 g / cm^3
# Si number density = 26.110897 Si / 1000 Ang^3
#
#
#
# Elastic Constant Matrix: (Units=GPa)
#
#
# Indices 1 2 3 4 5 6 
#
# 1 153.7487 46.6396 67.3255 0.0000 34.5228 0.0000
# 2 46.6396 93.9407 29.6767 0.0000 11.6187 0.0000
# 3 67.3255 29.6767 89.3571 0.0000 27.8061 0.0000
# 4 0.0000 0.0000 0.0000 57.4582 0.0000 12.6692
# 5 34.5228 11.6187 27.8061 0.0000 55.7538 0.0000
# 6 0.0000 0.0000 0.0000 12.6692 0.0000 52.0533
#
#
#
# Elastic Compliance Matrix: (Units=1/GPa)
#
#
# Indices 1 2 3 4 5 6 
#
# 1 0.010813 -0.003038 -0.006216 0.000000 -0.002962 0.000000
# 2 -0.003038 0.012764 -0.002021 0.000000 0.000230 0.000000
# 3 -0.006216 -0.002021 0.018012 0.000000 -0.004713 0.000000
# 4 0.000000 0.000000 0.000000 0.018391 0.000000 -0.004476
# 5 -0.002962 0.000230 -0.004713 0.000000 0.022073 0.000000
# 6 0.000000 0.000000 0.000000 -0.004476 0.000000 0.020301
#
#
# Mechanical properties :
#
#
# Convention : Reuss Voigt Hill
#
# Bulk Modulus (GPa) = 52.52735 69.37002 60.94869
# Shear Modulus (GPa) = 38.09516 45.94670 42.02093
#
# Velocity S-wave (km/s) = 3.82380 4.19940 4.01599
# Velocity P-wave (km/s) = 6.29730 7.08085 6.70054
#
# Compressibility (1/GPa) = 0.01903770
#
# Stress axis : x y z
#
# Youngs Moduli (GPa) = 92.48237 78.34780 55.51725
#
# Poissons Ratio (x) = 0.23804 0.34510
# Poissons Ratio (y) = 0.28099 0.11221
# Poissons Ratio (z) = 0.57488 0.15836
#
# Static dielectric constant tensor:
#      x y z
#    x 1.977320 0.000000 0.010500 
#    y 0.000000 2.161410 0.000000 
#    z 0.010500 0.000000 2.176510 
# 
# From -- ./inp_files/2680.got.cif
#   From: 2010.05.17/outbox.cif.g08.bks.cpg/sg4_2_cif.got.tgz:2680.got - 2010.06.03 18:43:04.
