data_PCOD9116258
_publ_section_title
;
Structure prediction by ZEFSAII (Michael W. Deem and Ramdas Pophale) SiO2 
 PCOD9116258
Probable space group: P 21
;
_chemical_formula_sum "Si O2"
_cell_formula_units_Z 14
_cell_length_a 6.190526
_cell_length_b 9.483742
_cell_length_c 11.707383
_cell_angle_alpha 90.000000
_cell_angle_beta 56.223850
_cell_angle_gamma 90.000000
_cell_volume 571.322046
_symmetry_space_group_name_H-M "P 21"
_symmetry_group_IT_number 4
_symmetry_cell_setting 'monoclinic'
loop_
_space_group_symop_operation_xyz
x,y,z
-x,1/2+y,-z
loop_
_atom_site_type_symbol
_atom_site_label
_atom_site_fract_x
_atom_site_fract_y
_atom_site_fract_z
Si Si1 0.716742 0.927020 0.851914
Si Si2 0.771470 0.127396 0.620606
Si Si3 0.670978 0.553898 0.625257
Si Si4 0.191400 0.746490 0.781451
Si Si5 0.521289 0.948023 0.537009
Si Si6 0.086196 0.878078 0.282302
Si Si7 0.783052 0.225551 0.966595
O O1 0.936817 0.807433 0.797545
O O2 0.742579 0.999761 0.720105
O O3 0.744246 0.065739 0.928279
O O4 0.462137 0.833543 0.951652
O O5 0.734109 0.263462 0.707524
O O6 0.067451 0.136180 0.488000
O O7 0.573042 0.103405 0.575066
O O8 0.378944 0.613611 0.703175
O O9 0.652881 0.443706 0.524752
O O10 0.743331 0.514137 0.734462
O O11 0.390951 0.864812 0.678160
O O12 0.113664 0.724711 0.935591
O O13 0.810672 0.897127 0.423913
O O14 0.038528 0.814133 0.172931
#
# Coordination Sequence:
#
# PCOD9116258 Si02
#       7
#     2   2   2   2   2   2   2
#     4  11  25  46  73 102 144 193 236 294 353 427
#     4  10  21  41  67  98 137 182 230 289 357 408
#     4  11  24  40  68 106 138 181 237 297 354 419
#     4  12  25  44  74 104 140 185 241 294 354 424
#     4  11  23  40  71 102 140 178 233 297 351 417
#     4  10  24  43  67 100 142 186 232 288 354 425
#     4  11  26  48  72 102 149 191 239 287 359 432
#
# _framework density 24.504569
#
# number of rings (size 3 to 8) (size 9 to 14) (size 15 to 20)
#    0.000    1.143    4.286    0.857    2.000    6.857 
#    0.000    0.000    0.000    0.000    0.000    0.000 
#    0.000    0.000    0.000    0.000    0.000    0.000 
#
# Total GULP energy -77966.749476 kJ/mol
# GULP energy per Si atom -5569.053534 kJ/mol
# Density = 2.444880 g / cm^3
# Si number density = 24.504569 Si / 1000 Ang^3
#
#
#
# Elastic Constant Matrix: (Units=GPa)
#
#
# Indices 1 2 3 4 5 6 
#
# 1 23.6860 6.9618 -3.0110 0.0000 7.3713 0.0000
# 2 6.9618 67.3720 2.0647 0.0000 0.5450 0.0000
# 3 -3.0110 2.0647 62.3730 0.0000 12.3216 0.0000
# 4 0.0000 0.0000 0.0000 -12.1137 0.0000 -11.1995
# 5 7.3713 0.5450 12.3216 0.0000 41.6903 0.0000
# 6 0.0000 0.0000 0.0000 -11.1995 0.0000 18.9800
#
#
#
# Elastic Compliance Matrix: (Units=1/GPa)
#
#
# Indices 1 2 3 4 5 6 
#
# 1 0.047194 -0.004932 0.004330 0.000000 -0.009560 0.000000
# 2 -0.004932 0.015374 -0.000934 0.000000 0.000947 0.000000
# 3 0.004330 -0.000934 0.017440 0.000000 -0.005908 0.000000
# 4 0.000000 0.000000 0.000000 -0.053413 0.000000 -0.031517
# 5 -0.009560 0.000947 -0.005908 0.000000 0.027410 0.000000
# 6 0.000000 0.000000 0.000000 -0.031517 0.000000 0.034090
#
#
# Mechanical properties :
#
#
# Convention : Reuss Voigt Hill
#
# Bulk Modulus (GPa) = 12.99799 18.38466 15.69132
# Shear Modulus (GPa) = 42.80372 19.53903 31.17137
#
# Velocity S-wave (km/s) = 4.18397 2.82682 3.57047
# Velocity P-wave (km/s) = 5.35318 4.26303 4.83890
#
# Compressibility (1/GPa) = 0.07693499
#
# Stress axis : x y z
#
# Youngs Moduli (GPa) = 21.18902 65.04659 57.34084
#
# Poissons Ratio (x) = 0.32082 -0.24829
# Poissons Ratio (y) = 0.10451 0.05356
# Poissons Ratio (z) = -0.09175 0.06076
#
# Static dielectric constant tensor:
#      x y z
#    x 2.003570 0.000000 0.013550 
#    y 0.000000 2.099970 0.000000 
#    z 0.013550 0.000000 1.987110 
# 
# From -- ./inp_files/4551.got.cif
#   From: 2010.05.17/outbox.cif.g08.bks.cpg/sg4_3_cif.got.tgz:4551.got - 2010.06.03 18:43:04.
