data_PCOD9116356
_publ_section_title
;
Structure prediction by ZEFSAII (Michael W. Deem and Ramdas Pophale) SiO2 
 PCOD9116356
Probable space group: P 21
;
_chemical_formula_sum "Si O2"
_cell_formula_units_Z 12
_cell_length_a 5.397268
_cell_length_b 7.223687
_cell_length_c 16.030498
_cell_angle_alpha 90.000000
_cell_angle_beta 129.723780
_cell_angle_gamma 90.000000
_cell_volume 480.708874
_symmetry_space_group_name_H-M "P 21"
_symmetry_group_IT_number 4
_symmetry_cell_setting 'monoclinic'
loop_
_space_group_symop_operation_xyz
x,y,z
-x,1/2+y,-z
loop_
_atom_site_type_symbol
_atom_site_label
_atom_site_fract_x
_atom_site_fract_y
_atom_site_fract_z
Si Si1 0.191983 0.261820 0.429044
Si Si2 0.766245 0.470110 0.886367
Si Si3 0.190813 0.986323 0.288805
Si Si4 0.822862 0.115571 0.502854
Si Si5 0.557452 0.813898 0.940634
Si Si6 0.690542 0.685733 0.157307
O O1 0.052714 0.125189 0.328994
O O2 0.577270 0.263937 0.491062
O O3 0.061116 0.470399 0.403266
O O4 0.089392 0.180577 0.496348
O O5 0.844775 0.555389 0.813277
O O6 0.563941 0.279939 0.833999
O O7 0.570959 0.620667 0.896061
O O8 0.099861 0.416471 0.001586
O O9 0.566786 0.998252 0.391930
O O10 0.022297 0.787620 0.251033
O O11 0.305339 0.966702 0.855474
O O12 0.564710 0.765221 0.040262
#
# Coordination Sequence:
#
# PCOD9116356 Si02
#       6
#     2   2   2   2   2   2
#     4  10  21  42  71  97 129 173 213 270 337 397
#     4  11  21  40  61  94 130 173 225 274 327 388
#     4   9  24  40  64  90 138 168 216 278 328 389
#     4  10  21  42  71  97 129 173 213 270 337 397
#     4  11  22  36  68  86 128 180 222 270 330 387
#     4  11  21  40  61  94 130 173 225 274 327 388
#
# _framework density 24.963134
#
# number of rings (size 3 to 8) (size 9 to 14) (size 15 to 20)
#    1.000    0.667    3.333    2.000    0.000    0.000 
#    0.000    6.667    0.000    0.000    0.000    0.000 
#    0.000    0.000    0.000    0.000    0.000    0.000 
#
# Total GULP energy -67020.078475 kJ/mol
# GULP energy per Si atom -5585.006540 kJ/mol
# Density = 2.490632 g / cm^3
# Si number density = 24.963134 Si / 1000 Ang^3
#
#
#
# Elastic Constant Matrix: (Units=GPa)
#
#
# Indices 1 2 3 4 5 6 
#
# 1 90.1937 16.6194 12.2481 0.0000 -31.1240 0.0000
# 2 16.6194 96.6758 9.4203 0.0000 -21.3346 0.0000
# 3 12.2481 9.4203 56.5952 0.0000 -7.2559 0.0000
# 4 0.0000 0.0000 0.0000 33.0027 0.0000 -3.4024
# 5 -31.1240 -21.3346 -7.2559 0.0000 44.6186 0.0000
# 6 0.0000 0.0000 0.0000 -3.4024 0.0000 35.5013
#
#
#
# Elastic Compliance Matrix: (Units=1/GPa)
#
#
# Indices 1 2 3 4 5 6 
#
# 1 0.014806 -0.000167 -0.001902 0.000000 0.009939 0.000000
# 2 -0.000167 0.011652 -0.001230 0.000000 0.005255 0.000000
# 3 -0.001902 -0.001230 0.018424 0.000000 0.001081 0.000000
# 4 0.000000 0.000000 0.000000 0.030603 0.000000 0.002933
# 5 0.009939 0.005255 0.001081 0.000000 0.032034 0.000000
# 6 0.000000 0.000000 0.000000 0.002933 0.000000 0.028449
#
#
# Mechanical properties :
#
#
# Convention : Reuss Voigt Hill
#
# Bulk Modulus (GPa) = 26.11962 35.56004 30.83983
# Shear Modulus (GPa) = 32.19011 36.30299 34.24655
#
# Velocity S-wave (km/s) = 3.59487 3.81762 3.70791
# Velocity P-wave (km/s) = 5.26467 5.80588 5.54188
#
# Compressibility (1/GPa) = 0.03828540
#
# Stress axis : x y z
#
# Youngs Moduli (GPa) = 67.54004 85.82169 54.27610
#
# Poissons Ratio (x) = 0.01429 0.10325
# Poissons Ratio (y) = 0.01125 0.06674
# Poissons Ratio (z) = 0.12848 0.10553
#
# Static dielectric constant tensor:
#      x y z
#    x 1.988940 0.000000 0.009460 
#    y 0.000000 1.992110 0.000000 
#    z 0.009460 0.000000 2.009380 
# 
# From -- ./inp_files/14652.got.cif
#   From: 2010.05.17/outbox.cif.g08.bks.cpg/sg4_8_cif.got.tgz:14652.got - 2010.06.03 18:43:04.
