data_PCOD9116624
_publ_section_title
;
Structure prediction by ZEFSAII (Michael W. Deem and Ramdas Pophale) SiO2 
 PCOD9116624
Probable space group: P 21
;
_chemical_formula_sum "Si O2"
_cell_formula_units_Z 16
_cell_length_a 10.822674
_cell_length_b 7.819341
_cell_length_c 9.258813
_cell_angle_alpha 90.000000
_cell_angle_beta 123.381409
_cell_angle_gamma 90.000000
_cell_volume 654.274912
_symmetry_space_group_name_H-M "P 21"
_symmetry_group_IT_number 4
_symmetry_cell_setting 'monoclinic'
loop_
_space_group_symop_operation_xyz
x,y,z
-x,1/2+y,-z
loop_
_atom_site_type_symbol
_atom_site_label
_atom_site_fract_x
_atom_site_fract_y
_atom_site_fract_z
Si Si1 0.152162 0.196680 0.644325
Si Si2 0.314523 0.396766 0.528997
Si Si3 0.477720 0.058394 0.546712
Si Si4 0.974022 0.011569 0.276417
Si Si5 0.226192 0.899515 0.240764
Si Si6 0.088900 0.531341 0.185366
Si Si7 0.254253 0.064070 0.978603
Si Si8 0.713677 0.943229 0.926858
O O1 0.279655 0.322830 0.663759
O O2 0.050694 0.317856 0.680471
O O3 0.234328 0.050918 0.792867
O O4 0.048962 0.119428 0.452486
O O5 0.385070 0.232297 0.494693
O O6 0.417786 0.543070 0.527264
O O7 0.152964 0.459582 0.375225
O O8 0.351094 0.917544 0.443236
O O9 0.577799 0.027076 0.753182
O O10 0.092303 0.012427 0.222090
O O11 0.809699 0.051534 0.106057
O O12 0.159153 0.712271 0.188688
O O13 0.311922 0.945005 0.145539
O O14 0.161409 0.406232 0.114818
O O15 0.916268 0.544172 0.082377
O O16 0.322302 0.253700 0.039522
#
# Coordination Sequence:
#
# PCOD9116624 Si02
#       8
#     2   2   2   2   2   2   2   2
#     4  11  24  43  69 107 151 186 240 313 380 430
#     4  11  24  43  68  98 148 189 238 298 363 434
#     4  11  23  42  68 102 137 196 239 301 350 446
#     4  11  23  43  70 104 144 191 242 309 369 439
#     4  12  22  40  72 105 137 189 250 291 362 439
#     4  11  20  37  67 104 138 177 239 303 346 421
#     4  11  22  42  68 107 140 183 237 307 363 427
#     4  10  22  38  66  99 141 181 241 296 355 424
#
# _framework density 24.454552
#
# number of rings (size 3 to 8) (size 9 to 14) (size 15 to 20)
#    0.000    1.000    5.000    3.750    0.000    2.000 
#    0.000    2.500    5.500    0.000    0.000    0.000 
#    0.000    0.000    0.000    0.000    0.000    0.000 
#
# Total GULP energy -89139.740562 kJ/mol
# GULP energy per Si atom -5571.233785 kJ/mol
# Density = 2.439889 g / cm^3
# Si number density = 24.454552 Si / 1000 Ang^3
#
#
#
# Elastic Constant Matrix: (Units=GPa)
#
#
# Indices 1 2 3 4 5 6 
#
# 1 40.1807 -1.1307 14.6434 0.0000 -6.3872 0.0000
# 2 -1.1307 55.2068 22.4524 0.0000 0.6353 0.0000
# 3 14.6434 22.4524 150.6621 0.0000 10.0870 0.0000
# 4 0.0000 0.0000 0.0000 46.2212 0.0000 -6.5663
# 5 -6.3872 0.6353 10.0870 0.0000 52.7294 0.0000
# 6 0.0000 0.0000 0.0000 -6.5663 0.0000 34.5744
#
#
#
# Elastic Compliance Matrix: (Units=1/GPa)
#
#
# Indices 1 2 3 4 5 6 
#
# 1 0.026676 0.001768 -0.003111 0.000000 0.003805 0.000000
# 2 0.001768 0.019405 -0.003102 0.000000 0.000574 0.000000
# 3 -0.003111 -0.003102 0.007521 0.000000 -0.001778 0.000000
# 4 0.000000 0.000000 0.000000 0.022235 0.000000 0.004223
# 5 0.003805 0.000574 -0.001778 0.000000 0.019759 0.000000
# 6 0.000000 0.000000 0.000000 0.004223 0.000000 0.029725
#
#
# Mechanical properties :
#
#
# Convention : Reuss Voigt Hill
#
# Bulk Modulus (GPa) = 22.36563 35.33110 28.84836
# Shear Modulus (GPa) = 33.53113 40.71062 37.12087
#
# Velocity S-wave (km/s) = 3.70694 4.08456 3.90032
# Velocity P-wave (km/s) = 5.24285 6.06002 5.66619
#
# Compressibility (1/GPa) = 0.04471147
#
# Stress axis : x y z
#
# Youngs Moduli (GPa) = 37.48701 51.53342 132.95991
#
# Poissons Ratio (x) = -0.09110 0.41363
# Poissons Ratio (y) = -0.06627 0.41245
# Poissons Ratio (z) = 0.11662 0.15986
#
# Static dielectric constant tensor:
#      x y z
#    x 1.963960 0.000000 -0.006340 
#    y 0.000000 2.019290 0.000000 
#    z -0.006340 0.000000 2.143850 
# 
# From -- ./inp_files/7678.got.cif
#   From: 2010.05.17/outbox.cif.g08.bks.cpg/sg4_4_cif.got.tgz:7678.got - 2010.06.03 18:43:04.
