data_PCOD9116999
_publ_section_title
;
Structure prediction by ZEFSAII (Michael W. Deem and Ramdas Pophale) SiO2 
 PCOD9116999
Probable space group: P 21
;
_chemical_formula_sum "Si O2"
_cell_formula_units_Z 16
_cell_length_a 8.025875
_cell_length_b 7.583636
_cell_length_c 14.189810
_cell_angle_alpha 90.000000
_cell_angle_beta 66.042398
_cell_angle_gamma 90.000000
_cell_volume 789.259022
_symmetry_space_group_name_H-M "P 21"
_symmetry_group_IT_number 4
_symmetry_cell_setting 'monoclinic'
loop_
_space_group_symop_operation_xyz
x,y,z
-x,1/2+y,-z
loop_
_atom_site_type_symbol
_atom_site_label
_atom_site_fract_x
_atom_site_fract_y
_atom_site_fract_z
Si Si1 0.084529 0.036520 0.367732
Si Si2 0.875814 0.946982 0.604655
Si Si3 0.587857 0.364171 0.816918
Si Si4 0.139726 0.793040 0.086321
Si Si5 0.927564 0.110560 0.209509
Si Si6 0.363243 0.694610 0.859426
Si Si7 0.080318 0.012786 0.748324
Si Si8 0.472784 0.041326 0.732302
O O1 0.142823 0.238988 0.370166
O O2 0.945794 0.038139 0.311150
O O3 0.256325 0.924738 0.292734
O O4 0.991004 0.968845 0.483400
O O5 0.674564 0.029486 0.641885
O O6 0.986950 0.031176 0.667343
O O7 0.686889 0.280875 0.884109
O O8 0.490528 0.543512 0.871246
O O9 0.463120 0.220043 0.794956
O O10 0.994802 0.657569 0.162678
O O11 0.203358 0.744947 0.967968
O O12 0.058815 0.989040 0.116708
O O13 0.727208 0.107574 0.212207
O O14 0.975720 0.317551 0.202997
O O15 0.459578 0.873790 0.805626
O O16 0.300465 0.024639 0.701753
#
# Coordination Sequence:
#
# PCOD9116999 Si02
#       8
#     2   2   2   2   2   2   2   2
#     4  10  22  42  69  94 131 174 212 269 341 385
#     4  11  21  43  69  96 132 170 215 274 330 394
#     4  11  23  42  63  95 136 170 216 276 322 392
#     4  11  24  39  68  92 131 184 212 269 333 380
#     4   9  23  43  63  92 133 166 221 270 318 389
#     4  11  25  41  63  99 132 173 225 269 323 391
#     4  10  23  43  66  97 133 171 221 268 323 393
#     4  11  23  43  67  95 134 170 218 273 322 390
#
# _framework density 20.272179999999999
#
# number of rings (size 3 to 8) (size 9 to 14) (size 15 to 20)
#    0.000    1.500    2.500    1.500    7.000    1.000 
#    2.250    0.000    0.000    0.000    0.000    0.000 
#    0.000    0.000    0.000    0.000    0.000    0.000 
#
# Total GULP energy -89365.504213 kJ/mol
# GULP energy per Si atom -5585.344013 kJ/mol
# Density = 2.022604 g / cm^3
# Si number density = 20.272180 Si / 1000 Ang^3
#
#
#
# Elastic Constant Matrix: (Units=GPa)
#
#
# Indices 1 2 3 4 5 6 
#
# 1 77.6450 31.4548 13.6392 0.0000 -0.1688 0.0000
# 2 31.4548 76.2637 13.0403 0.0000 4.1890 0.0000
# 3 13.6392 13.0403 40.5839 0.0000 1.9880 0.0000
# 4 0.0000 0.0000 0.0000 25.8420 0.0000 -3.2676
# 5 -0.1688 4.1890 1.9880 0.0000 8.4332 0.0000
# 6 0.0000 0.0000 0.0000 -3.2676 0.0000 35.6208
#
#
#
# Elastic Compliance Matrix: (Units=1/GPa)
#
#
# Indices 1 2 3 4 5 6 
#
# 1 0.016047 -0.006238 -0.003598 0.000000 0.004268 0.000000
# 2 -0.006238 0.016597 -0.002860 0.000000 -0.007695 0.000000
# 3 -0.003598 -0.002860 0.027014 0.000000 -0.005020 0.000000
# 4 0.000000 0.000000 0.000000 0.039151 0.000000 0.003591
# 5 0.004268 -0.007695 -0.005020 0.000000 0.123669 0.000000
# 6 0.000000 0.000000 0.000000 0.003591 0.000000 0.028403
#
#
# Mechanical properties :
#
#
# Convention : Reuss Voigt Hill
#
# Bulk Modulus (GPa) = 29.18188 34.52902 31.85545
# Shear Modulus (GPa) = 17.37952 23.06975 20.22464
#
# Velocity S-wave (km/s) = 2.93116 3.37709 3.16199
# Velocity P-wave (km/s) = 5.08742 5.68119 5.39249
#
# Compressibility (1/GPa) = 0.03426784
#
# Stress axis : x y z
#
# Youngs Moduli (GPa) = 62.31512 60.25237 37.01766
#
# Poissons Ratio (x) = 0.37585 0.13318
# Poissons Ratio (y) = 0.38872 0.10585
# Poissons Ratio (z) = 0.22420 0.17229
#
# Static dielectric constant tensor:
#      x y z
#    x 1.736300 0.000000 0.010930 
#    y 0.000000 1.738170 0.000000 
#    z 0.010930 0.000000 1.671780 
# 
# From -- ./inp_files/10860.got.cif
#   From: 2010.05.17/outbox.cif.g08.bks.cpg/sg4_6_cif.got.tgz:10860.got - 2010.06.03 18:43:04.
