data_PCOD9116341
_publ_section_title
;
Structure prediction by ZEFSAII (Michael W. Deem and Ramdas Pophale) SiO2 
 PCOD9116341
Probable space group: P 21
;
_chemical_formula_sum "Si O2"
_cell_formula_units_Z 16
_cell_length_a 7.490183
_cell_length_b 11.138571
_cell_length_c 9.018803
_cell_angle_alpha 90.000000
_cell_angle_beta 70.212418
_cell_angle_gamma 90.000000
_cell_volume 708.009809
_symmetry_space_group_name_H-M "P 21"
_symmetry_group_IT_number 4
_symmetry_cell_setting 'monoclinic'
loop_
_space_group_symop_operation_xyz
x,y,z
-x,1/2+y,-z
loop_
_atom_site_type_symbol
_atom_site_label
_atom_site_fract_x
_atom_site_fract_y
_atom_site_fract_z
Si Si1 0.290612 0.458250 0.285238
Si Si2 0.673987 0.120213 0.985429
Si Si3 0.890538 0.505719 0.549652
Si Si4 0.724145 0.691993 0.801756
Si Si5 0.308567 0.037150 0.697156
Si Si6 0.158221 0.852155 0.964888
Si Si7 0.641341 0.346569 0.806851
Si Si8 0.764217 0.785186 0.122370
O O1 0.270440 0.500880 0.117601
O O2 0.313988 0.314631 0.274947
O O3 0.097465 0.490697 0.423735
O O4 0.222016 0.232776 0.048391
O O5 0.524812 0.011705 0.684621
O O6 0.652897 0.206598 0.845973
O O7 0.472929 0.119306 0.124493
O O8 0.874541 0.610777 0.675350
O O9 0.742082 0.533829 0.460362
O O10 0.805135 0.388156 0.652577
O O11 0.194091 0.707152 0.950880
O O12 0.245109 0.167547 0.773244
O O13 0.190040 0.930098 0.810990
O O14 0.312052 0.898885 0.042212
O O15 0.950599 0.864203 0.092702
O O16 0.429253 0.360433 0.807678
#
# Coordination Sequence:
#
# PCOD9116341 Si02
#       8
#     2   2   2   2   2   2   2   2
#     4  12  24  47  69  97 141 181 223 289 340 406
#     4   9  21  43  73  90 131 176 226 282 328 388
#     4  12  29  41  65 105 145 178 222 278 355 402
#     4  11  24  44  71  96 137 180 229 278 341 400
#     4  12  23  43  65  99 138 177 222 286 338 411
#     4  10  21  42  69 100 122 177 232 287 330 405
#     4   9  22  44  67  93 137 175 223 281 338 396
#     4  11  22  42  71  96 127 180 235 273 336 402
#
# _framework density 22.598559000000002
#
# number of rings (size 3 to 8) (size 9 to 14) (size 15 to 20)
#    0.750    0.500    3.750    2.250    5.250    2.000 
#    2.250    0.000    0.000    0.000    0.000    0.000 
#    0.000    0.000    0.000    0.000    0.000    0.000 
#
# Total GULP energy -89333.739106 kJ/mol
# GULP energy per Si atom -5583.358694 kJ/mol
# Density = 2.254712 g / cm^3
# Si number density = 22.598559 Si / 1000 Ang^3
#
#
#
# Elastic Constant Matrix: (Units=GPa)
#
#
# Indices 1 2 3 4 5 6 
#
# 1 74.8961 12.7718 13.5103 0.0000 -20.3410 0.0000
# 2 12.7718 80.4578 30.8690 0.0000 -16.5584 0.0000
# 3 13.5103 30.8690 94.4345 0.0000 -21.5770 0.0000
# 4 0.0000 0.0000 0.0000 25.8268 0.0000 -8.6365
# 5 -20.3410 -16.5584 -21.5770 0.0000 40.3641 0.0000
# 6 0.0000 0.0000 0.0000 -8.6365 0.0000 19.3023
#
#
#
# Elastic Compliance Matrix: (Units=1/GPa)
#
#
# Indices 1 2 3 4 5 6 
#
# 1 0.015538 -0.000854 -0.000267 0.000000 0.007337 0.000000
# 2 -0.000854 0.014792 -0.003902 0.000000 0.003552 0.000000
# 3 -0.000267 -0.003902 0.013107 0.000000 0.005271 0.000000
# 4 0.000000 0.000000 0.000000 0.045532 0.000000 0.020373
# 5 0.007337 0.003552 0.005271 0.000000 0.032747 0.000000
# 6 0.000000 0.000000 0.000000 0.020373 0.000000 0.060923
#
#
# Mechanical properties :
#
#
# Convention : Reuss Voigt Hill
#
# Bulk Modulus (GPa) = 29.94706 40.45452 35.20079
# Shear Modulus (GPa) = 24.53180 29.94110 27.23645
#
# Velocity S-wave (km/s) = 3.29834 3.64388 3.47541
# Velocity P-wave (km/s) = 5.27123 5.97027 5.63161
#
# Compressibility (1/GPa) = 0.03339226
#
# Stress axis : x y z
#
# Youngs Moduli (GPa) = 64.35676 67.60232 76.29277
#
# Poissons Ratio (x) = 0.05773 0.02040
# Poissons Ratio (y) = 0.05496 0.29766
# Poissons Ratio (z) = 0.01721 0.26375
#
# Static dielectric constant tensor:
#      x y z
#    x 1.888660 0.000000 -0.004750 
#    y 0.000000 1.914660 0.000000 
#    z -0.004750 0.000000 1.794750 
# 
# From -- ./inp_files/6242.got.cif
#   From: 2010.05.17/outbox.cif.g08.bks.cpg/sg4_4_cif.got.tgz:6242.got - 2010.06.03 18:43:04.
