data_PCOD9116087
_publ_section_title
;
Structure prediction by ZEFSAII (Michael W. Deem and Ramdas Pophale) SiO2 
 PCOD9116087
Probable space group: P 21
;
_chemical_formula_sum "Si O2"
_cell_formula_units_Z 14
_cell_length_a 12.855844
_cell_length_b 8.352115
_cell_length_c 13.402627
_cell_angle_alpha 90.000000
_cell_angle_beta 156.562875
_cell_angle_gamma 90.000000
_cell_volume 572.385939
_symmetry_space_group_name_H-M "P 21"
_symmetry_group_IT_number 4
_symmetry_cell_setting 'monoclinic'
loop_
_space_group_symop_operation_xyz
x,y,z
-x,1/2+y,-z
loop_
_atom_site_type_symbol
_atom_site_label
_atom_site_fract_x
_atom_site_fract_y
_atom_site_fract_z
Si Si1 0.324219 0.103180 0.335242
Si Si2 0.238786 0.983716 0.747969
Si Si3 0.460770 0.383871 0.331069
Si Si4 0.017669 0.446484 0.818023
Si Si5 0.465639 0.434706 0.678179
Si Si6 0.913048 0.275557 0.194710
Si Si7 0.314248 0.654342 0.735004
O O1 0.339070 0.282449 0.313124
O O2 0.053147 0.038466 0.140018
O O3 0.502584 0.059160 0.587744
O O4 0.413421 0.012725 0.314001
O O5 0.164201 0.865995 0.773321
O O6 0.308379 0.848505 0.727300
O O7 0.981274 0.090728 0.502535
O O8 0.478658 0.093173 0.998081
O O9 0.764672 0.337467 0.579711
O O10 0.283872 0.362629 0.079544
O O11 0.051541 0.584937 0.767772
O O12 0.401990 0.562722 0.710709
O O13 0.193683 0.348258 0.413058
O O14 0.681156 0.315874 0.914315
#
# Coordination Sequence:
#
# PCOD9116087 Si02
#       7
#     2   2   2   2   2   2   2
#     4  10  24  37  57  81 115 151 189 241 282 335
#     4  10  21  40  66  90 124 153 203 239 309 350
#     4  10  24  35  56  79 114 147 193 236 283 335
#     4  10  23  35  57  80 113 144 199 224 281 331
#     4  10  22  36  64  82 119 150 199 226 298 339
#     4  10  21  40  60  86 112 162 189 233 281 368
#     4  10  21  41  62  96 115 163 192 251 296 370
#
# _framework density 24.459022999999998
#
# number of rings (size 3 to 8) (size 9 to 14) (size 15 to 20)
#    0.857    1.143    0.000    2.571    8.000    0.000 
#    5.143    0.000    0.000    0.000    0.000    0.000 
#    0.000    0.000    0.000    0.000    0.000    0.000 
#
# Total GULP energy -78189.591060 kJ/mol
# GULP energy per Si atom -5584.970790 kJ/mol
# Density = 2.440335 g / cm^3
# Si number density = 24.459023 Si / 1000 Ang^3
#
#
#
# Elastic Constant Matrix: (Units=GPa)
#
#
# Indices 1 2 3 4 5 6 
#
# 1 81.2650 -3.0457 25.1866 0.0000 8.0822 0.0000
# 2 -3.0457 54.0624 16.5434 0.0000 4.8654 0.0000
# 3 25.1866 16.5434 147.4394 0.0000 17.0126 0.0000
# 4 0.0000 0.0000 0.0000 32.9800 0.0000 -0.0879
# 5 8.0822 4.8654 17.0126 0.0000 23.2738 0.0000
# 6 0.0000 0.0000 0.0000 -0.0879 0.0000 43.8237
#
#
#
# Elastic Compliance Matrix: (Units=1/GPa)
#
#
# Indices 1 2 3 4 5 6 
#
# 1 0.013357 0.001699 -0.002071 0.000000 -0.003480 0.000000
# 2 0.001699 0.019523 -0.002121 0.000000 -0.003121 0.000000
# 3 -0.002071 -0.002121 0.007907 0.000000 -0.004617 0.000000
# 4 0.000000 0.000000 0.000000 0.030322 0.000000 0.000061
# 5 -0.003480 -0.003121 -0.004617 0.000000 0.048203 0.000000
# 6 0.000000 0.000000 0.000000 0.000061 0.000000 0.022819
#
#
# Mechanical properties :
#
#
# Convention : Reuss Voigt Hill
#
# Bulk Modulus (GPa) = 27.93116 40.01504 33.97310
# Shear Modulus (GPa) = 31.43694 36.28765 33.86230
#
# Velocity S-wave (km/s) = 3.58898 3.85594 3.72486
# Velocity P-wave (km/s) = 5.34965 6.01830 5.69380
#
# Compressibility (1/GPa) = 0.03580230
#
# Stress axis : x y z
#
# Youngs Moduli (GPa) = 74.86688 51.22237 126.47110
#
# Poissons Ratio (x) = -0.08705 0.26191
# Poissons Ratio (y) = -0.12723 0.26821
# Poissons Ratio (z) = 0.15504 0.10863
#
# Static dielectric constant tensor:
#      x y z
#    x 1.954340 0.000000 -0.001270 
#    y 0.000000 1.963470 0.000000 
#    z -0.001270 0.000000 1.959790 
# 
# From -- ./inp_files/3394.got.cif
#   From: 2010.05.17/outbox.cif.g08.bks.cpg/sg4_2_cif.got.tgz:3394.got - 2010.06.03 18:43:04.
