data_PCOD9116711
_publ_section_title
;
Structure prediction by ZEFSAII (Michael W. Deem and Ramdas Pophale) SiO2 
 PCOD9116711
Probable space group: P 21
;
_chemical_formula_sum "Si O2"
_cell_formula_units_Z 12
_cell_length_a 12.779123
_cell_length_b 7.576595
_cell_length_c 8.926423
_cell_angle_alpha 90.000000
_cell_angle_beta 29.710233
_cell_angle_gamma 90.000000
_cell_volume 428.347242
_symmetry_space_group_name_H-M "P 21"
_symmetry_group_IT_number 4
_symmetry_cell_setting 'monoclinic'
loop_
_space_group_symop_operation_xyz
x,y,z
-x,1/2+y,-z
loop_
_atom_site_type_symbol
_atom_site_label
_atom_site_fract_x
_atom_site_fract_y
_atom_site_fract_z
Si Si1 0.999149 0.777530 0.766236
Si Si2 0.681509 0.180619 0.866073
Si Si3 0.499620 0.539523 0.638788
Si Si4 0.280242 0.371876 0.370832
Si Si5 0.980434 0.642594 0.110486
Si Si6 0.556504 0.632937 0.234203
O O1 0.173037 0.800903 0.419730
O O2 0.076302 0.689588 0.828605
O O3 0.811304 0.657136 0.931866
O O4 0.935035 0.970741 0.907787
O O5 0.769205 0.989207 0.710794
O O6 0.435715 0.214534 0.129195
O O7 0.655270 0.170080 0.076989
O O8 0.737474 0.602192 0.371064
O O9 0.476545 0.557618 0.491926
O O10 0.497028 0.341154 0.703002
O O11 0.071279 0.307111 0.715611
O O12 0.441199 0.501234 0.262535
#
# Coordination Sequence:
#
# PCOD9116711 Si02
#       6
#     2   2   2   2   2   2
#     4  11  23  38  63  98 131 166 216 277 325 373
#     4  11  22  39  64  94 126 169 220 269 321 386
#     4  10  22  40  63  89 127 178 218 258 323 401
#     4  11  22  42  66  91 128 178 220 259 320 400
#     4  10  22  41  63  92 129 173 216 259 323 398
#     4  11  23  42  65  94 131 172 218 268 324 386
#
# _framework density 28.014657
#
# number of rings (size 3 to 8) (size 9 to 14) (size 15 to 20)
#    0.000    1.333    0.000    8.000    0.000    2.667 
#    0.000    3.333    0.000    0.000    0.000    0.000 
#    0.000    0.000    0.000    0.000    0.000    0.000 
#
# Total GULP energy -67088.608320 kJ/mol
# GULP energy per Si atom -5590.717360 kJ/mol
# Density = 2.795089 g / cm^3
# Si number density = 28.014657 Si / 1000 Ang^3
#
#
#
# Elastic Constant Matrix: (Units=GPa)
#
#
# Indices 1 2 3 4 5 6 
#
# 1 57.7808 19.6034 48.1018 0.0000 -2.1027 0.0000
# 2 19.6034 122.7411 36.0990 0.0000 3.1830 0.0000
# 3 48.1018 36.0990 173.8573 0.0000 9.6733 0.0000
# 4 0.0000 0.0000 0.0000 54.1757 0.0000 3.1693
# 5 -2.1027 3.1830 9.6733 0.0000 35.8468 0.0000
# 6 0.0000 0.0000 0.0000 3.1693 0.0000 58.6560
#
#
#
# Elastic Compliance Matrix: (Units=1/GPa)
#
#
# Indices 1 2 3 4 5 6 
#
# 1 0.023258 -0.001973 -0.006204 0.000000 0.003214 0.000000
# 2 -0.001973 0.008847 -0.001260 0.000000 -0.000561 0.000000
# 3 -0.006204 -0.001260 0.007862 0.000000 -0.002374 0.000000
# 4 0.000000 0.000000 0.000000 0.018517 0.000000 -0.001001
# 5 0.003214 -0.000561 -0.002374 0.000000 0.028775 0.000000
# 6 0.000000 0.000000 0.000000 -0.001001 0.000000 0.017103
#
#
# Mechanical properties :
#
#
# Convention : Reuss Voigt Hill
#
# Bulk Modulus (GPa) = 47.40874 62.44308 54.92591
# Shear Modulus (GPa) = 38.38253 46.44069 42.41161
#
# Velocity S-wave (km/s) = 3.70548 4.07594 3.89512
# Velocity P-wave (km/s) = 5.93861 6.67000 6.31490
#
# Compressibility (1/GPa) = 0.02109316
#
# Stress axis : x y z
#
# Youngs Moduli (GPa) = 42.99614 113.02646 127.19465
#
# Poissons Ratio (x) = 0.22304 0.78911
# Poissons Ratio (y) = 0.08484 0.16025
# Poissons Ratio (z) = 0.26675 0.14240
#
# Static dielectric constant tensor:
#      x y z
#    x 2.272660 0.000000 -0.033290 
#    y 0.000000 2.281630 0.000000 
#    z -0.033290 0.000000 2.179860 
# 
# From -- ./inp_files/9104.got.cif
#   From: 2010.05.17/outbox.cif.g08.bks.cpg/sg4_5_cif.got.tgz:9104.got - 2010.06.03 18:43:04.
