data_PCOD9116257
_publ_section_title
;
Structure prediction by ZEFSAII (Michael W. Deem and Ramdas Pophale) SiO2 
 PCOD9116257
Probable space group: P 21
;
_chemical_formula_sum "Si O2"
_cell_formula_units_Z 16
_cell_length_a 15.027592
_cell_length_b 11.108173
_cell_length_c 5.036249
_cell_angle_alpha 90.000000
_cell_angle_beta 50.290209
_cell_angle_gamma 90.000000
_cell_volume 646.739714
_symmetry_space_group_name_H-M "P 21"
_symmetry_group_IT_number 4
_symmetry_cell_setting 'monoclinic'
loop_
_space_group_symop_operation_xyz
x,y,z
-x,1/2+y,-z
loop_
_atom_site_type_symbol
_atom_site_label
_atom_site_fract_x
_atom_site_fract_y
_atom_site_fract_z
Si Si1 0.532371 0.040500 0.446002
Si Si2 0.667731 0.109235 0.689592
Si Si3 0.896728 0.968740 0.358658
Si Si4 0.882082 0.573359 0.354802
Si Si5 0.012840 0.773662 0.396385
Si Si6 0.406728 0.285139 0.825163
Si Si7 0.254939 0.278068 0.621153
Si Si8 0.829269 0.310036 0.424723
O O1 0.636580 0.055555 0.462310
O O2 0.449443 0.147258 0.712533
O O3 0.511948 0.896939 0.431449
O O4 0.566914 0.086939 0.088964
O O5 0.706100 0.247830 0.613291
O O6 0.781001 0.045423 0.594935
O O7 0.853407 0.860105 0.252507
O O8 0.943425 0.900000 0.528351
O O9 0.002092 0.037514 0.023803
O O10 0.791130 0.645264 0.349821
O O11 0.822586 0.447279 0.534559
O O12 0.927187 0.663082 0.497735
O O13 0.090141 0.752001 0.503169
O O14 0.100972 0.792514 0.981958
O O15 0.298706 0.294742 0.832340
O O16 0.359051 0.304800 0.213408
#
# Coordination Sequence:
#
# PCOD9116257 Si02
#       8
#     2   2   2   2   2   2   2   2
#     4  12  27  47  76 100 135 179 242 301 361 417
#     4  12  24  43  69 103 133 181 225 291 354 417
#     4  10  21  41  67  97 140 174 234 261 337 419
#     4  10  24  41  65 102 142 185 226 282 332 420
#     4  10  23  37  59  92 130 188 216 277 319 407
#     4  12  26  50  73 106 134 185 238 302 361 419
#     4  11  25  45  73 100 140 187 230 282 355 422
#     4  11  24  38  60  94 138 175 231 276 339 399
#
# _framework density 24.739473
#
# number of rings (size 3 to 8) (size 9 to 14) (size 15 to 20)
#    0.000    1.000    3.750    1.500    1.750   11.000 
#    0.000    0.000    0.000    0.000    0.000    0.000 
#    0.000    0.000    0.000    0.000    0.000    0.000 
#
# Total GULP energy -89485.285278 kJ/mol
# GULP energy per Si atom -5592.830330 kJ/mol
# Density = 2.468317 g / cm^3
# Si number density = 24.739473 Si / 1000 Ang^3
#
#
#
# Elastic Constant Matrix: (Units=GPa)
#
#
# Indices 1 2 3 4 5 6 
#
# 1 57.5095 12.0241 7.7088 0.0000 19.3859 0.0000
# 2 12.0241 126.4752 4.6182 0.0000 -7.5085 0.0000
# 3 7.7088 4.6182 65.1020 0.0000 15.9353 0.0000
# 4 0.0000 0.0000 0.0000 40.0245 0.0000 -18.3970
# 5 19.3859 -7.5085 15.9353 0.0000 28.4279 0.0000
# 6 0.0000 0.0000 0.0000 -18.3970 0.0000 43.8310
#
#
#
# Elastic Compliance Matrix: (Units=1/GPa)
#
#
# Indices 1 2 3 4 5 6 
#
# 1 0.024048 -0.003446 0.001894 0.000000 -0.018370 0.000000
# 2 -0.003446 0.008617 -0.001548 0.000000 0.005494 0.000000
# 3 0.001894 -0.001548 0.018153 0.000000 -0.011876 0.000000
# 4 0.000000 0.000000 0.000000 0.030957 0.000000 0.012994
# 5 -0.018370 0.005494 -0.011876 0.000000 0.055812 0.000000
# 6 0.000000 0.000000 0.000000 0.012994 0.000000 0.028269
#
#
# Mechanical properties :
#
#
# Convention : Reuss Voigt Hill
#
# Bulk Modulus (GPa) = 22.41306 33.08765 27.75036
# Shear Modulus (GPa) = 26.74825 37.43906 32.09365
#
# Velocity S-wave (km/s) = 3.29172 3.89438 3.60566
# Velocity P-wave (km/s) = 4.85042 5.79871 5.34563
#
# Compressibility (1/GPa) = 0.04461684
#
# Stress axis : x y z
#
# Youngs Moduli (GPa) = 41.58426 116.05029 55.08740
#
# Poissons Ratio (x) = 0.39990 -0.10431
# Poissons Ratio (y) = 0.14330 0.08527
# Poissons Ratio (z) = -0.07874 0.17963
#
# Static dielectric constant tensor:
#      x y z
#    x 1.922380 0.000000 -0.036170 
#    y 0.000000 2.104660 0.000000 
#    z -0.036170 0.000000 1.955280 
# 
# From -- ./inp_files/3001.got.cif
#   From: 2010.05.17/outbox.cif.g08.bks.cpg/sg4_2_cif.got.tgz:3001.got - 2010.06.03 18:43:04.
