data_PCOD9116555
_publ_section_title
;
Structure prediction by ZEFSAII (Michael W. Deem and Ramdas Pophale) SiO2 
 PCOD9116555
Probable space group: P 21
;
_chemical_formula_sum "Si O2"
_cell_formula_units_Z 12
_cell_length_a 8.799906
_cell_length_b 4.946603
_cell_length_c 10.578604
_cell_angle_alpha 90.000000
_cell_angle_beta 110.045176
_cell_angle_gamma 90.000000
_cell_volume 432.588012
_symmetry_space_group_name_H-M "P 21"
_symmetry_group_IT_number 4
_symmetry_cell_setting 'monoclinic'
loop_
_space_group_symop_operation_xyz
x,y,z
-x,1/2+y,-z
loop_
_atom_site_type_symbol
_atom_site_label
_atom_site_fract_x
_atom_site_fract_y
_atom_site_fract_z
Si Si1 0.538575 0.363110 0.809538
Si Si2 0.016410 0.583759 0.836371
Si Si3 0.811341 0.578790 0.039249
Si Si4 0.642840 0.375693 0.325867
Si Si5 0.738421 0.290168 0.621980
Si Si6 0.902854 0.985654 0.478044
O O1 0.649143 0.247125 0.727348
O O2 0.493930 0.661409 0.749863
O O3 0.201253 0.675877 0.645826
O O4 0.392264 0.146136 0.764109
O O5 0.900636 0.459434 0.697775
O O6 0.167167 0.382889 0.906712
O O7 0.902494 0.579262 0.929075
O O8 0.920173 0.385659 0.156497
O O9 0.642163 0.426818 0.964033
O O10 0.640524 0.425346 0.477533
O O11 0.795290 0.011978 0.573383
O O12 0.941733 0.680305 0.456770
#
# Coordination Sequence:
#
# PCOD9116555 Si02
#       6
#     2   2   2   2   2   2
#     4  11  19  35  50  87 108 144 158 211 269 325
#     4   9  17  32  44  77  98 145 165 209 245 303
#     4   9  18  28  50  68 113 132 173 195 251 317
#     4  10  22  32  56  76 113 136 170 211 269 321
#     4   9  22  32  58  76 115 132 177 213 266 311
#     4  10  22  37  52  76 103 139 181 215 256 303
#
# _framework density 27.740017999999999
#
# number of rings (size 3 to 8) (size 9 to 14) (size 15 to 20)
#    1.000    1.333    0.000    3.000    0.000    8.000 
#    0.000    0.000    0.000    0.000    0.000   23.333 
#    0.000    0.000    0.000    0.000    0.000    0.000 
#
# Total GULP energy -67096.896198 kJ/mol
# GULP energy per Si atom -5591.408016 kJ/mol
# Density = 2.767688 g / cm^3
# Si number density = 27.740018 Si / 1000 Ang^3
#
#
#
# Elastic Constant Matrix: (Units=GPa)
#
#
# Indices 1 2 3 4 5 6 
#
# 1 53.3165 0.1890 1.7759 0.0000 -10.5765 0.0000
# 2 0.1890 175.4889 33.6830 0.0000 10.9516 0.0000
# 3 1.7759 33.6830 126.3258 0.0000 11.0702 0.0000
# 4 0.0000 0.0000 0.0000 47.0817 0.0000 8.8370
# 5 -10.5765 10.9516 11.0702 0.0000 47.8431 0.0000
# 6 0.0000 0.0000 0.0000 8.8370 0.0000 31.8193
#
#
#
# Elastic Compliance Matrix: (Units=1/GPa)
#
#
# Indices 1 2 3 4 5 6 
#
# 1 0.019677 -0.000184 -0.000625 0.000000 0.004537 0.000000
# 2 -0.000184 0.006057 -0.001518 0.000000 -0.001076 0.000000
# 3 -0.000625 -0.001518 0.008483 0.000000 -0.001754 0.000000
# 4 0.000000 0.000000 0.000000 0.022408 0.000000 -0.006223
# 5 0.004537 -0.001076 -0.001754 0.000000 0.022557 0.000000
# 6 0.000000 0.000000 0.000000 -0.006223 0.000000 0.033156
#
#
# Mechanical properties :
#
#
# Convention : Reuss Voigt Hill
#
# Bulk Modulus (GPa) = 33.82645 47.38077 40.60361
# Shear Modulus (GPa) = 39.41751 46.64772 43.03262
#
# Velocity S-wave (km/s) = 3.77365 4.10518 3.94291
# Velocity P-wave (km/s) = 5.58640 6.29185 5.94959
#
# Compressibility (1/GPa) = 0.02956267
#
# Stress axis : x y z
#
# Youngs Moduli (GPa) = 50.81984 165.09532 117.87874
#
# Poissons Ratio (x) = 0.03043 0.07368
# Poissons Ratio (y) = 0.00937 0.17896
# Poissons Ratio (z) = 0.03176 0.25064
#
# Static dielectric constant tensor:
#      x y z
#    x 2.286340 0.000000 0.058540 
#    y 0.000000 2.020590 0.000000 
#    z 0.058540 0.000000 2.193520 
# 
# From -- ./inp_files/13857.got.cif
#   From: 2010.05.17/outbox.cif.g08.bks.cpg/sg4_7_cif.got.tgz:13857.got - 2010.06.03 18:43:04.
