data_PCOD9116309
_publ_section_title
;
Structure prediction by ZEFSAII (Michael W. Deem and Ramdas Pophale) SiO2 
 PCOD9116309
Probable space group: P 21
;
_chemical_formula_sum "Si O2"
_cell_formula_units_Z 14
_cell_length_a 10.500030
_cell_length_b 7.940861
_cell_length_c 11.418783
_cell_angle_alpha 90.000000
_cell_angle_beta 142.420363
_cell_angle_gamma 90.000000
_cell_volume 580.644915
_symmetry_space_group_name_H-M "P 21"
_symmetry_group_IT_number 4
_symmetry_cell_setting 'monoclinic'
loop_
_space_group_symop_operation_xyz
x,y,z
-x,1/2+y,-z
loop_
_atom_site_type_symbol
_atom_site_label
_atom_site_fract_x
_atom_site_fract_y
_atom_site_fract_z
Si Si1 0.858424 0.920540 0.316533
Si Si2 0.916391 0.543233 0.320679
Si Si3 0.119837 0.077301 0.317746
Si Si4 0.530257 0.009686 0.899199
Si Si5 0.431094 0.465395 0.326981
Si Si6 0.794269 0.329501 0.015988
Si Si7 0.280620 0.790588 0.295171
O O1 0.953023 0.740778 0.353746
O O2 0.886968 0.953322 0.474399
O O3 0.987626 0.061601 0.339729
O O4 0.636182 0.934380 0.092364
O O5 0.714440 0.507166 0.255242
O O6 0.851240 0.475797 0.147072
O O7 0.361756 0.087127 0.527550
O O8 0.009805 0.221321 0.162796
O O9 0.109215 0.899201 0.240260
O O10 0.595905 0.913642 0.827343
O O11 0.626725 0.195488 0.946661
O O12 0.259424 0.591468 0.255140
O O13 0.514980 0.323742 0.474981
O O14 0.713201 0.374736 0.828533
#
# Coordination Sequence:
#
# PCOD9116309 Si02
#       7
#     2   2   2   2   2   2   2
#     4  11  23  39  64  91 122 164 204 254 310 361
#     4  12  23  40  62  94 126 160 208 252 305 372
#     4   9  20  42  57  86 127 155 202 255 299 355
#     4  10  21  42  65  84 126 164 200 262 301 357
#     4   9  19  40  62  85 122 155 204 249 309 354
#     4  10  22  40  62  90 122 163 207 248 310 363
#     4   9  20  39  60  88 117 165 199 254 306 362
#
# _framework density 24.11112
#
# number of rings (size 3 to 8) (size 9 to 14) (size 15 to 20)
#    0.857    1.143    1.429    2.571    0.000    2.286 
#   10.286    0.000    0.000    0.000    0.000    0.000 
#    0.000    0.000    0.000    0.000    0.000    0.000 
#
# Total GULP energy -78083.687941 kJ/mol
# GULP energy per Si atom -5577.406282 kJ/mol
# Density = 2.405624 g / cm^3
# Si number density = 24.111120 Si / 1000 Ang^3
#
#
#
# Elastic Constant Matrix: (Units=GPa)
#
#
# Indices 1 2 3 4 5 6 
#
# 1 42.7398 -4.2902 21.9309 0.0000 -13.0227 0.0000
# 2 -4.2902 31.9060 12.5742 0.0000 -13.7867 0.0000
# 3 21.9309 12.5742 137.3073 0.0000 -26.4183 0.0000
# 4 0.0000 0.0000 0.0000 29.2922 0.0000 -3.4505
# 5 -13.0227 -13.7867 -26.4183 0.0000 36.7738 0.0000
# 6 0.0000 0.0000 0.0000 -3.4505 0.0000 28.9619
#
#
#
# Elastic Compliance Matrix: (Units=1/GPa)
#
#
# Indices 1 2 3 4 5 6 
#
# 1 0.029905 0.010600 -0.003417 0.000000 0.012109 0.000000
# 2 0.010600 0.041243 -0.002057 0.000000 0.017738 0.000000
# 3 -0.003417 -0.002057 0.008861 0.000000 0.004384 0.000000
# 4 0.000000 0.000000 0.000000 0.034625 0.000000 0.004125
# 5 0.012109 0.017738 0.004384 0.000000 0.041281 0.000000
# 6 0.000000 0.000000 0.000000 0.004125 0.000000 0.035020
#
#
# Mechanical properties :
#
#
# Convention : Reuss Voigt Hill
#
# Bulk Modulus (GPa) = 11.07912 30.26478 20.67195
# Shear Modulus (GPa) = 23.72271 31.12146 27.42208
#
# Velocity S-wave (km/s) = 3.14011 3.59660 3.37608
# Velocity P-wave (km/s) = 4.21331 5.46139 4.87744
#
# Compressibility (1/GPa) = 0.09025987
#
# Stress axis : x y z
#
# Youngs Moduli (GPa) = 33.43965 24.24661 112.85861
#
# Poissons Ratio (x) = -0.25702 0.38567
# Poissons Ratio (y) = -0.35447 0.23216
# Poissons Ratio (z) = 0.11427 0.04988
#
# Static dielectric constant tensor:
#      x y z
#    x 1.936220 0.000000 0.020670 
#    y 0.000000 1.905550 0.000000 
#    z 0.020670 0.000000 1.986050 
# 
# From -- ./inp_files/12032.got.cif
#   From: 2010.05.17/outbox.cif.g08.bks.cpg/sg4_7_cif.got.tgz:12032.got - 2010.06.03 18:43:04.
