data_PCOD9116164
_publ_section_title
;
Structure prediction by ZEFSAII (Michael W. Deem and Ramdas Pophale) SiO2 
 PCOD9116164
Probable space group: P 21
;
_chemical_formula_sum "Si O2"
_cell_formula_units_Z 16
_cell_length_a 5.395779
_cell_length_b 13.982365
_cell_length_c 11.403211
_cell_angle_alpha 90.000000
_cell_angle_beta 61.491618
_cell_angle_gamma 90.000000
_cell_volume 756.007235
_symmetry_space_group_name_H-M "P 21"
_symmetry_group_IT_number 4
_symmetry_cell_setting 'monoclinic'
loop_
_space_group_symop_operation_xyz
x,y,z
-x,1/2+y,-z
loop_
_atom_site_type_symbol
_atom_site_label
_atom_site_fract_x
_atom_site_fract_y
_atom_site_fract_z
Si Si1 0.485180 0.239600 0.281837
Si Si2 0.190300 0.716247 0.223495
Si Si3 0.921713 0.841231 0.797576
Si Si4 0.312368 0.571014 0.369929
Si Si5 0.669395 0.097194 0.036432
Si Si6 0.595702 0.390356 0.946821
Si Si7 0.808171 0.486084 0.119319
Si Si8 0.728701 0.616571 0.454783
O O1 0.250571 0.311350 0.279194
O O2 0.550977 0.163009 0.165320
O O3 0.356153 0.186624 0.422394
O O4 0.786918 0.284236 0.250937
O O5 0.318173 0.679777 0.317482
O O6 0.233341 0.826325 0.182829
O O7 0.874027 0.677011 0.315862
O O8 0.324399 0.655925 0.086288
O O9 0.686966 0.832289 0.953561
O O10 0.025137 0.949016 0.803165
O O11 0.503619 0.514572 0.234616
O O12 0.459104 0.565033 0.461696
O O13 0.981754 0.548613 0.442292
O O14 0.498996 0.996981 0.068680
O O15 0.997212 0.067603 0.980313
O O16 0.767988 0.405850 0.028815
#
# Coordination Sequence:
#
# PCOD9116164 Si02
#       8
#     2   2   2   2   2   2   2   2
#     4  12  25  43  66  99 131 180 215 270 333 397
#     4  10  21  40  68  90 135 174 218 269 338 386
#     4  11  24  39  67  94 134 166 218 273 325 389
#     4  10  21  40  68  89 126 175 215 260 321 396
#     4  11  23  38  69  97 134 166 223 277 335 385
#     4  11  22  41  63 106 129 168 216 286 329 396
#     4  11  21  40  67 102 128 167 226 276 328 395
#     4  10  23  41  66  91 131 178 219 255 325 404
#
# _framework density 21.163820000000001
#
# number of rings (size 3 to 8) (size 9 to 14) (size 15 to 20)
#    0.750    0.500    5.000    0.750    5.250    2.000 
#    0.000    2.500    0.000    0.000    0.000    0.000 
#    0.000    0.000    0.000    0.000    0.000    0.000 
#
# Total GULP energy -89145.800680 kJ/mol
# GULP energy per Si atom -5571.612542 kJ/mol
# Density = 2.111565 g / cm^3
# Si number density = 21.163820 Si / 1000 Ang^3
#
#
#
# Elastic Constant Matrix: (Units=GPa)
#
#
# Indices 1 2 3 4 5 6 
#
# 1 144.6152 17.0220 3.2804 0.0000 1.9260 0.0000
# 2 17.0220 56.6943 15.5462 0.0000 -2.9486 0.0000
# 3 3.2804 15.5462 42.0457 0.0000 4.2090 0.0000
# 4 0.0000 0.0000 0.0000 19.3160 0.0000 4.7019
# 5 1.9260 -2.9486 4.2090 0.0000 20.1160 0.0000
# 6 0.0000 0.0000 0.0000 4.7019 0.0000 35.7453
#
#
#
# Elastic Compliance Matrix: (Units=1/GPa)
#
#
# Indices 1 2 3 4 5 6 
#
# 1 0.007195 -0.002331 0.000412 0.000000 -0.001117 0.000000
# 2 -0.002331 0.020789 -0.008000 0.000000 0.004944 0.000000
# 3 0.000412 -0.008000 0.027405 0.000000 -0.006946 0.000000
# 4 0.000000 0.000000 0.000000 0.053483 0.000000 -0.007035
# 5 -0.001117 0.004944 -0.006946 0.000000 0.051997 0.000000
# 6 0.000000 0.000000 0.000000 -0.007035 0.000000 0.028901
#
#
# Mechanical properties :
#
#
# Convention : Reuss Voigt Hill
#
# Bulk Modulus (GPa) = 28.12832 35.00584 31.56708
# Shear Modulus (GPa) = 22.57770 28.86924 25.72347
#
# Velocity S-wave (km/s) = 3.26974 3.69736 3.49011
# Velocity P-wave (km/s) = 5.25115 5.89946 5.58472
#
# Compressibility (1/GPa) = 0.03555136
#
# Stress axis : x y z
#
# Youngs Moduli (GPa) = 138.98859 48.10185 36.49009
#
# Poissons Ratio (x) = 0.11214 -0.01505
# Poissons Ratio (y) = 0.32404 0.29191
# Poissons Ratio (z) = -0.05733 0.38480
#
# Static dielectric constant tensor:
#      x y z
#    x 1.863320 0.000000 -0.010270 
#    y 0.000000 1.805250 0.000000 
#    z -0.010270 0.000000 1.730520 
# 
# From -- ./inp_files/10565.got.cif
#   From: 2010.05.17/outbox.cif.g08.bks.cpg/sg4_6_cif.got.tgz:10565.got - 2010.06.03 18:43:04.
