data_PCOD9116604
_publ_section_title
;
Structure prediction by ZEFSAII (Michael W. Deem and Ramdas Pophale) SiO2 
 PCOD9116604
Probable space group: P 21
;
_chemical_formula_sum "Si O2"
_cell_formula_units_Z 12
_cell_length_a 8.964677
_cell_length_b 7.556627
_cell_length_c 13.092915
_cell_angle_alpha 90.000000
_cell_angle_beta 148.473488
_cell_angle_gamma 90.000000
_cell_volume 463.779817
_symmetry_space_group_name_H-M "P 21"
_symmetry_group_IT_number 4
_symmetry_cell_setting 'monoclinic'
loop_
_space_group_symop_operation_xyz
x,y,z
-x,1/2+y,-z
loop_
_atom_site_type_symbol
_atom_site_label
_atom_site_fract_x
_atom_site_fract_y
_atom_site_fract_z
Si Si1 0.522611 0.542140 0.083062
Si Si2 0.597283 0.390288 0.547271
Si Si3 0.550051 0.642853 0.697926
Si Si4 0.002153 0.133429 0.336036
Si Si5 0.954657 0.786418 0.440019
Si Si6 0.183001 0.186836 0.936077
O O1 0.702028 0.648891 0.270601
O O2 0.394923 0.356044 0.044570
O O3 0.235589 0.649791 0.888075
O O4 0.711882 0.553245 0.090236
O O5 0.516491 0.468932 0.609314
O O6 0.375856 0.295572 0.342234
O O7 0.715509 0.556437 0.550004
O O8 0.867956 0.259487 0.725852
O O9 0.765889 0.624135 0.918387
O O10 0.249378 0.709510 0.567836
O O11 0.022496 0.295237 0.425013
O O12 0.898066 0.967942 0.347487
#
# Coordination Sequence:
#
# PCOD9116604 Si02
#       6
#     2   2   2   2   2   2
#     4  11  19  40  65  94 131 157 215 274 313 375
#     4  10  24  45  61  93 134 171 214 260 317 391
#     4  11  23  44  65  91 135 171 215 258 322 388
#     4  10  22  38  62  95 122 167 213 261 322 370
#     4  11  21  38  65  91 127 163 214 266 312 379
#     4  11  23  43  66  98 131 169 217 265 326 381
#
# _framework density 25.874348000000001
#
# number of rings (size 3 to 8) (size 9 to 14) (size 15 to 20)
#    0.000    1.333    6.667    2.000    0.000    2.667 
#    3.000    3.333    0.000    0.000    0.000    0.000 
#    0.000    0.000    0.000    0.000    0.000    0.000 
#
# Total GULP energy -67185.055683 kJ/mol
# GULP energy per Si atom -5598.754640 kJ/mol
# Density = 2.581546 g / cm^3
# Si number density = 25.874348 Si / 1000 Ang^3
#
#
#
# Elastic Constant Matrix: (Units=GPa)
#
#
# Indices 1 2 3 4 5 6 
#
# 1 83.0052 29.6021 24.0192 0.0000 -22.0567 0.0000
# 2 29.6021 75.1615 6.7634 0.0000 -1.7309 0.0000
# 3 24.0192 6.7634 128.2076 0.0000 -27.8964 0.0000
# 4 0.0000 0.0000 0.0000 40.9127 0.0000 -13.2424
# 5 -22.0567 -1.7309 -27.8964 0.0000 42.1403 0.0000
# 6 0.0000 0.0000 0.0000 -13.2424 0.0000 59.6069
#
#
#
# Elastic Compliance Matrix: (Units=1/GPa)
#
#
# Indices 1 2 3 4 5 6 
#
# 1 0.016664 -0.006285 -0.001108 0.000000 0.007730 0.000000
# 2 -0.006285 0.015739 -0.000266 0.000000 -0.002820 0.000000
# 3 -0.001108 -0.000266 0.009221 0.000000 0.005513 0.000000
# 4 0.000000 0.000000 0.000000 0.026336 0.000000 0.005851
# 5 0.007730 -0.002820 0.005513 0.000000 0.031310 0.000000
# 6 0.000000 0.000000 0.000000 0.005851 0.000000 0.018076
#
#
# Mechanical properties :
#
#
# Convention : Reuss Voigt Hill
#
# Bulk Modulus (GPa) = 38.01652 45.23821 41.62737
# Shear Modulus (GPa) = 35.35203 43.59794 39.47498
#
# Velocity S-wave (km/s) = 3.70035 4.10931 3.91018
# Velocity P-wave (km/s) = 5.74295 6.32748 6.04229
#
# Compressibility (1/GPa) = 0.02630435
#
# Stress axis : x y z
#
# Youngs Moduli (GPa) = 60.01046 63.53588 108.44630
#
# Poissons Ratio (x) = 0.39934 0.12020
# Poissons Ratio (y) = 0.37718 0.02888
# Poissons Ratio (z) = 0.06651 0.01692
#
# Static dielectric constant tensor:
#      x y z
#    x 2.039050 0.000000 -0.000680 
#    y 0.000000 2.103830 0.000000 
#    z -0.000680 0.000000 2.007610 
# 
# From -- ./inp_files/7455.got.cif
#   From: 2010.05.17/outbox.cif.g08.bks.cpg/sg4_4_cif.got.tgz:7455.got - 2010.06.03 18:43:04.
