data_PCOD9116163
_publ_section_title
;
Structure prediction by ZEFSAII (Michael W. Deem and Ramdas Pophale) SiO2 
 PCOD9116163
Probable space group: P 21
;
_chemical_formula_sum "Si O2"
_cell_formula_units_Z 16
_cell_length_a 24.161622
_cell_length_b 5.200216
_cell_length_c 30.199145
_cell_angle_alpha 90.000000
_cell_angle_beta 10.903507
_cell_angle_gamma 90.000000
_cell_volume 717.730163
_symmetry_space_group_name_H-M "P 21"
_symmetry_group_IT_number 4
_symmetry_cell_setting 'monoclinic'
loop_
_space_group_symop_operation_xyz
x,y,z
-x,1/2+y,-z
loop_
_atom_site_type_symbol
_atom_site_label
_atom_site_fract_x
_atom_site_fract_y
_atom_site_fract_z
Si Si1 0.675626 0.692830 0.519616
Si Si2 0.093763 0.303840 0.401103
Si Si3 0.655984 0.215885 0.004788
Si Si4 0.545081 0.211902 0.782882
Si Si5 0.704216 0.909314 0.109203
Si Si6 0.213005 0.178735 0.665849
Si Si7 0.777923 0.049492 0.277995
Si Si8 0.092835 0.886563 0.953749
O O1 0.517620 0.523014 0.680805
O O2 0.720035 0.579804 0.435267
O O3 0.434108 0.911826 0.698327
O O4 0.005866 0.758396 0.273195
O O5 0.436715 0.243194 0.135275
O O6 0.039973 0.598265 0.458228
O O7 0.894626 0.247133 0.515067
O O8 0.558623 0.442624 0.114879
O O9 0.597013 0.941866 0.075358
O O10 0.456620 0.237752 0.801323
O O11 0.970773 0.761236 0.923228
O O12 0.885398 0.111799 0.937073
O O13 0.465608 0.088286 0.501115
O O14 0.239292 0.482442 0.656500
O O15 0.920320 0.833638 0.134561
O O16 0.039698 0.638579 0.964932
#
# Coordination Sequence:
#
# PCOD9116163 Si02
#       8
#     2   2   2   2   2   2   2   2
#     4  12  26  42  68  97 138 175 222 285 341 400
#     4   8  16  34  65 100 129 168 218 269 328 399
#     4  10  21  40  68 103 133 177 224 274 338 408
#     4  10  21  41  70  97 137 176 224 275 336 405
#     4  12  26  45  63 100 135 176 230 280 341 402
#     4  12  25  43  64  93 126 179 229 282 334 399
#     4  12  26  42  68  89 135 178 238 284 344 406
#     4  12  27  45  66  95 129 173 227 281 342 399
#
# _framework density 22.292501999999999
#
# number of rings (size 3 to 8) (size 9 to 14) (size 15 to 20)
#    0.000    1.000    5.000    1.500    1.750    3.000 
#    0.000    0.000    0.000   10.500    0.000    0.000 
#    0.000    0.000    0.000    0.000    0.000    0.000 
#
# Total GULP energy -89244.531431 kJ/mol
# GULP energy per Si atom -5577.783214 kJ/mol
# Density = 2.224176 g / cm^3
# Si number density = 22.292502 Si / 1000 Ang^3
#
#
#
# Elastic Constant Matrix: (Units=GPa)
#
#
# Indices 1 2 3 4 5 6 
#
# 1 90.9378 18.6956 68.5943 0.0000 -3.2643 0.0000
# 2 18.6956 73.8751 17.6600 0.0000 -0.0803 0.0000
# 3 68.5943 17.6600 176.8165 0.0000 -28.3004 0.0000
# 4 0.0000 0.0000 0.0000 27.4770 0.0000 0.3970
# 5 -3.2643 -0.0803 -28.3004 0.0000 47.8526 0.0000
# 6 0.0000 0.0000 0.0000 0.3970 0.0000 26.3980
#
#
#
# Elastic Compliance Matrix: (Units=1/GPa)
#
#
# Indices 1 2 3 4 5 6 
#
# 1 0.016350 -0.002581 -0.006525 0.000000 -0.002748 0.000000
# 2 -0.002581 0.014308 -0.000499 0.000000 -0.000447 0.000000
# 3 -0.006525 -0.000499 0.009019 0.000000 0.004888 0.000000
# 4 0.000000 0.000000 0.000000 0.036402 0.000000 -0.000547
# 5 -0.002748 -0.000447 0.004888 0.000000 0.023600 0.000000
# 6 0.000000 0.000000 0.000000 -0.000547 0.000000 0.037890
#
#
# Mechanical properties :
#
#
# Convention : Reuss Voigt Hill
#
# Bulk Modulus (GPa) = 48.85892 61.28101 55.06997
# Shear Modulus (GPa) = 30.56177 36.12413 33.34295
#
# Velocity S-wave (km/s) = 3.70664 4.02986 3.87163
# Velocity P-wave (km/s) = 6.34695 7.01443 6.68902
#
# Compressibility (1/GPa) = 0.02046709
#
# Stress axis : x y z
#
# Youngs Moduli (GPa) = 61.16099 69.88887 110.87553
#
# Poissons Ratio (x) = 0.18038 0.72346
# Poissons Ratio (y) = 0.15785 0.05538
# Poissons Ratio (z) = 0.39907 0.03491
#
# Static dielectric constant tensor:
#      x y z
#    x 1.901320 0.000000 0.000800 
#    y 0.000000 1.977820 0.000000 
#    z 0.000800 0.000000 1.866960 
# 
# From -- ./inp_files/16559.got.cif
#   From: 2010.05.17/outbox.cif.g08.bks.cpg/sg4_9_cif.got.tgz:16559.got - 2010.06.03 18:43:04.
