data_PCOD9116640
_publ_section_title
;
Structure prediction by ZEFSAII (Michael W. Deem and Ramdas Pophale) SiO2 
 PCOD9116640
Probable space group: P 21
;
_chemical_formula_sum "Si O2"
_cell_formula_units_Z 16
_cell_length_a 6.739856
_cell_length_b 6.652669
_cell_length_c 16.335346
_cell_angle_alpha 90.000000
_cell_angle_beta 91.298924
_cell_angle_gamma 90.000000
_cell_volume 732.256539
_symmetry_space_group_name_H-M "P 21"
_symmetry_group_IT_number 4
_symmetry_cell_setting 'monoclinic'
loop_
_space_group_symop_operation_xyz
x,y,z
-x,1/2+y,-z
loop_
_atom_site_type_symbol
_atom_site_label
_atom_site_fract_x
_atom_site_fract_y
_atom_site_fract_z
Si Si1 0.742266 0.123510 0.332569
Si Si2 0.761915 0.536316 0.945552
Si Si3 0.413523 0.832640 0.378591
Si Si4 0.279301 0.003375 0.548520
Si Si5 0.922704 0.141051 0.921870
Si Si6 0.011219 0.238067 0.646992
Si Si7 0.476008 0.409856 0.087481
Si Si8 0.195623 0.966558 0.787964
O O1 0.715605 0.295399 0.400963
O O2 0.799480 0.246156 0.251832
O O3 0.543780 0.987874 0.327080
O O4 0.912378 0.965220 0.357119
O O5 0.612876 0.688123 0.900370
O O6 0.872175 0.367655 0.893838
O O7 0.932743 0.652045 0.998352
O O8 0.629968 0.424865 0.013958
O O9 0.327512 0.953984 0.455812
O O10 0.556646 0.658312 0.414726
O O11 0.220754 0.735039 0.335788
O O12 0.070918 0.115944 0.565393
O O13 0.033583 0.007288 0.855847
O O14 0.713859 0.039652 0.937287
O O15 0.139199 0.124030 0.717227
O O16 0.591531 0.494315 0.167139
#
# Coordination Sequence:
#
# PCOD9116640 Si02
#       8
#     2   2   2   2   2   2   2   2
#     4  10  23  45  63  94 135 169 222 267 322 401
#     4  11  22  40  65 103 129 165 220 275 325 379
#     4  11  22  39  68  96 131 174 214 285 326 383
#     4  10  22  39  62 100 129 164 223 271 336 380
#     4  11  23  40  68  97 134 168 218 271 329 387
#     4  10  25  42  65  94 134 171 222 271 319 400
#     4  11  23  41  69  95 135 170 211 277 327 382
#     4  10  26  44  60  99 135 181 214 259 330 406
#
# _framework density 21.850263999999999
#
# number of rings (size 3 to 8) (size 9 to 14) (size 15 to 20)
#    0.000    1.500    3.750    0.000    1.750    9.000 
#    0.000    0.000    0.000    0.000    0.000    0.000 
#    0.000    0.000    0.000    0.000    0.000    0.000 
#
# Total GULP energy -89369.055034 kJ/mol
# GULP energy per Si atom -5585.565940 kJ/mol
# Density = 2.180053 g / cm^3
# Si number density = 21.850264 Si / 1000 Ang^3
#
#
#
# Elastic Constant Matrix: (Units=GPa)
#
#
# Indices 1 2 3 4 5 6 
#
# 1 116.1599 41.2245 21.2118 0.0000 11.8391 0.0000
# 2 41.2245 109.2641 20.1518 0.0000 8.6837 0.0000
# 3 21.2118 20.1518 52.7201 0.0000 6.2386 0.0000
# 4 0.0000 0.0000 0.0000 21.7552 0.0000 -9.3909
# 5 11.8391 8.6837 6.2386 0.0000 16.0186 0.0000
# 6 0.0000 0.0000 0.0000 -9.3909 0.0000 32.3010
#
#
#
# Elastic Compliance Matrix: (Units=1/GPa)
#
#
# Indices 1 2 3 4 5 6 
#
# 1 0.010721 -0.003171 -0.002482 0.000000 -0.005238 0.000000
# 2 -0.003171 0.011043 -0.002635 0.000000 -0.002616 0.000000
# 3 -0.002482 -0.002635 0.021583 0.000000 -0.005143 0.000000
# 4 0.000000 0.000000 0.000000 0.052563 0.000000 0.015282
# 5 -0.005238 -0.002616 -0.005143 0.000000 0.069720 0.000000
# 6 0.000000 0.000000 0.000000 0.015282 0.000000 0.035402
#
#
# Mechanical properties :
#
#
# Convention : Reuss Voigt Hill
#
# Bulk Modulus (GPa) = 37.35533 49.25780 43.30657
# Shear Modulus (GPa) = 22.07208 27.05201 24.56205
#
# Velocity S-wave (km/s) = 3.18174 3.52243 3.35641
# Velocity P-wave (km/s) = 5.53454 6.25585 5.90621
#
# Compressibility (1/GPa) = 0.02676994
#
# Stress axis : x y z
#
# Youngs Moduli (GPa) = 93.27239 90.55901 46.33370
#
# Poissons Ratio (x) = 0.28717 0.11499
# Poissons Ratio (y) = 0.29577 0.12211
# Poissons Ratio (z) = 0.23147 0.23867
#
# Static dielectric constant tensor:
#      x y z
#    x 1.802860 0.000000 -0.009720 
#    y 0.000000 1.815050 0.000000 
#    z -0.009720 0.000000 1.824520 
# 
# From -- ./inp_files/4009.got.cif
#   From: 2010.05.17/outbox.cif.g08.bks.cpg/sg4_3_cif.got.tgz:4009.got - 2010.06.03 18:43:04.
