data_PCOD9116224
_publ_section_title
;
Structure prediction by ZEFSAII (Michael W. Deem and Ramdas Pophale) SiO2 
 PCOD9116224
Probable space group: P 21
;
_chemical_formula_sum "Si O2"
_cell_formula_units_Z 14
_cell_length_a 5.413743
_cell_length_b 8.973277
_cell_length_c 10.948130
_cell_angle_alpha 90.000000
_cell_angle_beta 92.689393
_cell_angle_gamma 90.000000
_cell_volume 531.263587
_symmetry_space_group_name_H-M "P 21"
_symmetry_group_IT_number 4
_symmetry_cell_setting 'monoclinic'
loop_
_space_group_symop_operation_xyz
x,y,z
-x,1/2+y,-z
loop_
_atom_site_type_symbol
_atom_site_label
_atom_site_fract_x
_atom_site_fract_y
_atom_site_fract_z
Si Si1 0.976706 0.664310 0.485635
Si Si2 0.005909 0.970508 0.281210
Si Si3 0.489489 0.759945 0.599724
Si Si4 0.250000 0.014212 0.750000
Si Si5 0.476704 0.164310 0.985635
Si Si6 0.010513 0.759944 0.900276
Si Si7 0.505911 0.470508 0.781210
O O1 0.745727 0.761590 0.532251
O O2 0.907455 0.605060 0.351954
O O3 0.978807 0.526590 0.581101
O O4 0.248374 0.733105 0.510214
O O5 0.000349 0.118707 0.193643
O O6 0.749999 0.892447 0.250000
O O7 0.249999 0.884867 0.250000
O O8 0.432399 0.905832 0.677176
O O9 0.500351 0.618708 0.693643
O O10 0.067602 0.905831 0.822823
O O11 0.407454 0.105059 0.851954
O O12 0.748372 0.233105 0.010214
O O13 0.478804 0.026589 0.081100
O O14 0.245725 0.261590 0.032251
#
# Coordination Sequence:
#
# PCOD9116224 Si02
#       7
#     2   2   2   2   2   2   2
#     4  10  22  37  64 101 127 168 232 267 320 417
#     4   8  14  32  57  79 125 157 193 276 301 354
#     4  10  21  41  65  94 136 168 222 282 317 401
#     4  12  24  42  80  90 132 202 200 270 382 358
#     4  10  22  37  64 101 127 168 232 267 320 417
#     4  10  21  41  65  94 136 168 222 282 317 401
#     4   8  14  32  57  79 125 157 193 276 301 354
#
# _framework density 26.352267999999999
#
# number of rings (size 3 to 8) (size 9 to 14) (size 15 to 20)
#    0.000    2.286    4.286    0.000    0.000    5.714 
#    0.000    0.000   28.286    0.000    0.000    0.000 
#    0.000    0.000    0.000    0.000    0.000    0.000 
#
# Total GULP energy -78501.784193 kJ/mol
# GULP energy per Si atom -5607.270299 kJ/mol
# Density = 2.629229 g / cm^3
# Si number density = 26.352268 Si / 1000 Ang^3
#
#
#
# Elastic Constant Matrix: (Units=GPa)
#
#
# Indices 1 2 3 4 5 6 
#
# 1 244.5876 47.1412 78.6849 0.0000 32.0224 0.0000
# 2 47.1412 84.1067 79.4433 0.0000 7.1706 0.0000
# 3 78.6849 79.4433 209.9753 0.0000 41.8904 0.0000
# 4 0.0000 0.0000 0.0000 26.7108 0.0000 -20.3377
# 5 32.0224 7.1706 41.8904 0.0000 29.1039 0.0000
# 6 0.0000 0.0000 0.0000 -20.3377 0.0000 -0.4830
#
#
#
# Elastic Compliance Matrix: (Units=1/GPa)
#
#
# Indices 1 2 3 4 5 6 
#
# 1 0.005245 -0.002518 0.000020 0.000000 -0.005181 0.000000
# 2 -0.002518 0.021042 -0.009169 0.000000 0.010783 0.000000
# 3 0.000020 -0.009169 0.010911 0.000000 -0.013467 0.000000
# 4 0.000000 0.000000 0.000000 0.001132 0.000000 -0.047683
# 5 -0.005181 0.010783 -0.013467 0.000000 0.056787 0.000000
# 6 0.000000 0.000000 0.000000 -0.047683 0.000000 -0.062625
#
#
# Mechanical properties :
#
#
# Convention : Reuss Voigt Hill
#
# Bulk Modulus (GPa) = 72.12000 105.46758 88.79379
# Shear Modulus (GPa) = 82.71695 33.29303 58.00499
#
# Velocity S-wave (km/s) = 5.60866 3.55827 4.69672
# Velocity P-wave (km/s) = 8.32886 7.54922 7.94860
#
# Compressibility (1/GPa) = 0.01386578
#
# Stress axis : x y z
#
# Youngs Moduli (GPa) = 190.64145 47.52393 91.65372
#
# Poissons Ratio (x) = 0.11965 -0.00187
# Poissons Ratio (y) = 0.47997 0.84037
# Poissons Ratio (z) = -0.00389 0.43574
#
# Static dielectric constant tensor:
#      x y z
#    x 2.095760 0.000000 -0.004470 
#    y 0.000000 2.065390 0.000000 
#    z -0.004470 0.000000 2.011320 
# 
# From -- ./inp_files/4640.got.cif
#   From: 2010.05.17/outbox.cif.g08.bks.cpg/sg4_3_cif.got.tgz:4640.got - 2010.06.03 18:43:04.
