data_PCOD9116332
_publ_section_title
;
Structure prediction by ZEFSAII (Michael W. Deem and Ramdas Pophale) SiO2 
 PCOD9116332
Probable space group: P 21
;
_chemical_formula_sum "Si O2"
_cell_formula_units_Z 16
_cell_length_a 6.185847
_cell_length_b 18.290599
_cell_length_c 6.449511
_cell_angle_alpha 90.000000
_cell_angle_beta 68.733823
_cell_angle_gamma 90.000000
_cell_volume 680.026388
_symmetry_space_group_name_H-M "P 21"
_symmetry_group_IT_number 4
_symmetry_cell_setting 'monoclinic'
loop_
_space_group_symop_operation_xyz
x,y,z
-x,1/2+y,-z
loop_
_atom_site_type_symbol
_atom_site_label
_atom_site_fract_x
_atom_site_fract_y
_atom_site_fract_z
Si Si1 0.902134 0.253850 0.629161
Si Si2 0.402052 0.673873 0.577423
Si Si3 0.574448 0.917183 0.589828
Si Si4 0.887208 0.612137 0.325902
Si Si5 0.644581 0.773232 0.809667
Si Si6 0.090446 0.970134 0.902270
Si Si7 0.825850 0.838825 0.135939
Si Si8 0.061416 0.538189 0.642324
O O1 0.697403 0.237909 0.538513
O O2 0.935635 0.178385 0.738459
O O3 0.120013 0.261050 0.399510
O O4 0.961658 0.313064 0.786948
O O5 0.629595 0.641808 0.382602
O O6 0.474413 0.712826 0.768673
O O7 0.225022 0.605648 0.662831
O O8 0.564682 0.853728 0.765533
O O9 0.637250 0.876580 0.352011
O O10 0.326888 0.954970 0.699228
O O11 0.770763 0.980088 0.533134
O O12 0.989362 0.547511 0.156060
O O13 0.883196 0.578727 0.556665
O O14 0.710540 0.777662 0.028625
O O15 0.086243 0.989786 0.146581
O O16 0.928855 0.899730 0.945655
#
# Coordination Sequence:
#
# PCOD9116332 Si02
#       8
#     2   2   2   2   2   2   2   2
#     4   9  22  43  68  98 142 182 230 290 342 410
#     4  10  21  44  73  98 144 186 223 292 345 409
#     4  10  22  44  66 101 145 180 228 290 347 413
#     4  10  21  42  68 100 138 179 233 286 344 413
#     4  10  22  42  68 103 138 182 237 282 347 413
#     4  11  23  42  72 103 134 186 229 285 351 412
#     4  10  23  45  71 102 139 184 232 287 343 413
#     4  10  22  44  68  99 138 181 232 286 347 413
#
# _framework density 23.528494999999999
#
# number of rings (size 3 to 8) (size 9 to 14) (size 15 to 20)
#    0.000    2.000    1.250    0.750    1.750    4.000 
#    9.000    5.000    0.000    0.000    0.000    0.000 
#    0.000    0.000    0.000    0.000    0.000    0.000 
#
# Total GULP energy -89232.004009 kJ/mol
# GULP energy per Si atom -5577.000251 kJ/mol
# Density = 2.347494 g / cm^3
# Si number density = 23.528495 Si / 1000 Ang^3
#
#
#
# Elastic Constant Matrix: (Units=GPa)
#
#
# Indices 1 2 3 4 5 6 
#
# 1 59.4794 23.9324 37.9081 0.0000 5.3860 0.0000
# 2 23.9324 110.5949 31.1177 0.0000 1.6887 0.0000
# 3 37.9081 31.1177 69.7082 0.0000 -3.4582 0.0000
# 4 0.0000 0.0000 0.0000 41.4687 0.0000 10.8132
# 5 5.3860 1.6887 -3.4582 0.0000 13.8741 0.0000
# 6 0.0000 0.0000 0.0000 10.8132 0.0000 37.3069
#
#
#
# Elastic Compliance Matrix: (Units=1/GPa)
#
#
# Indices 1 2 3 4 5 6 
#
# 1 0.028803 -0.001590 -0.015693 0.000000 -0.014899 0.000000
# 2 -0.001590 0.010511 -0.003909 0.000000 -0.001636 0.000000
# 3 -0.015693 -0.003909 0.025262 0.000000 0.012865 0.000000
# 4 0.000000 0.000000 0.000000 0.026086 0.000000 -0.007561
# 5 -0.014899 -0.001636 0.012865 0.000000 0.081266 0.000000
# 6 0.000000 0.000000 0.000000 -0.007561 0.000000 0.028996
#
#
# Mechanical properties :
#
#
# Convention : Reuss Voigt Hill
#
# Bulk Modulus (GPa) = 45.05806 47.29988 46.17897
# Shear Modulus (GPa) = 19.94374 28.31823 24.13098
#
# Velocity S-wave (km/s) = 2.91459 3.47302 3.20598
# Velocity P-wave (km/s) = 5.52435 6.01908 5.77701
#
# Compressibility (1/GPa) = 0.02219359
#
# Stress axis : x y z
#
# Youngs Moduli (GPa) = 34.71871 95.14034 39.58451
#
# Poissons Ratio (x) = 0.15127 0.62119
# Poissons Ratio (y) = 0.05520 0.15472
# Poissons Ratio (z) = 0.54483 0.37186
#
# Static dielectric constant tensor:
#      x y z
#    x 1.953680 0.000000 0.048160 
#    y 0.000000 1.943620 0.000000 
#    z 0.048160 0.000000 1.940880 
# 
# From -- ./inp_files/609.got.cif
#   From: 2010.05.17/outbox.cif.g08.bks.cpg/sg4_1_cif.got.tgz:609.got - 2010.06.03 18:43:04.
