data_PCOD9116883
_publ_section_title
;
Structure prediction by ZEFSAII (Michael W. Deem and Ramdas Pophale) SiO2 
 PCOD9116883
Probable space group: P 21
;
_chemical_formula_sum "Si O2"
_cell_formula_units_Z 16
_cell_length_a 17.152573
_cell_length_b 5.443793
_cell_length_c 29.929023
_cell_angle_alpha 90.000000
_cell_angle_beta 164.236404
_cell_angle_gamma 90.000000
_cell_volume 759.212287
_symmetry_space_group_name_H-M "P 21"
_symmetry_group_IT_number 4
_symmetry_cell_setting 'monoclinic'
loop_
_space_group_symop_operation_xyz
x,y,z
-x,1/2+y,-z
loop_
_atom_site_type_symbol
_atom_site_label
_atom_site_fract_x
_atom_site_fract_y
_atom_site_fract_z
Si Si1 0.342231 0.149430 0.850784
Si Si2 0.867522 0.231564 0.911691
Si Si3 0.772732 0.574675 0.309866
Si Si4 0.264619 0.247439 0.057490
Si Si5 0.145149 0.357157 0.831680
Si Si6 0.327097 0.180317 0.399216
Si Si7 0.335071 0.414209 0.668990
Si Si8 0.873868 0.453942 0.105372
O O1 0.155797 0.242018 0.788917
O O2 0.168600 0.098531 0.710102
O O3 0.587891 0.337957 0.969207
O O4 0.533327 0.930125 0.976452
O O5 0.550215 0.253477 0.757166
O O6 0.037638 0.446371 0.032798
O O7 0.964018 0.314077 0.915123
O O8 0.458690 0.450241 0.140499
O O9 0.741371 0.809900 0.324316
O O10 0.039469 0.438564 0.479702
O O11 0.477394 0.153446 0.214486
O O12 0.195658 0.047683 0.982002
O O13 0.932578 0.589396 0.712272
O O14 0.048400 0.176652 0.818127
O O15 0.486256 0.430556 0.502638
O O16 0.140633 0.265776 0.253417
#
# Coordination Sequence:
#
# PCOD9116883 Si02
#       8
#     2   2   2   2   2   2   2   2
#     4  11  23  38  68 108 137 179 241 289 362 424
#     4  10  22  41  67  95 133 179 231 284 347 411
#     4  12  22  39  67 103 143 182 238 292 365 420
#     4  11  22  40  68 101 137 183 241 284 346 439
#     4  11  22  40  70 101 143 184 229 300 355 422
#     4  11  24  46  70  97 140 191 235 287 362 424
#     4  11  23  40  65  99 142 182 228 298 359 409
#     4  11  22  40  71 104 135 184 237 288 348 435
#
# _framework density 21.074473999999999
#
# number of rings (size 3 to 8) (size 9 to 14) (size 15 to 20)
#    0.000    1.000    7.500    0.000    0.000    0.000 
#    0.000    2.500    8.250    0.000    0.000    0.000 
#    0.000    0.000    0.000    0.000    0.000    0.000 
#
# Total GULP energy -89124.278178 kJ/mol
# GULP energy per Si atom -5570.267386 kJ/mol
# Density = 2.102651 g / cm^3
# Si number density = 21.074474 Si / 1000 Ang^3
#
#
#
# Elastic Constant Matrix: (Units=GPa)
#
#
# Indices 1 2 3 4 5 6 
#
# 1 113.4269 14.0296 38.1556 -0.0001 -16.0718 -0.0001
# 2 14.0296 65.7467 26.1431 -0.0006 -12.3022 -0.0001
# 3 38.1556 26.1431 63.7869 -0.0027 -17.9140 -0.0036
# 4 -0.0001 -0.0006 -0.0027 2.7010 -0.0037 12.3394
# 5 -16.0718 -12.3022 -17.9140 -0.0037 24.4273 0.0003
# 6 -0.0001 -0.0001 -0.0036 12.3394 0.0003 28.9115
#
#
#
# Elastic Compliance Matrix: (Units=1/GPa)
#
#
# Indices 1 2 3 4 5 6 
#
# 1 0.011241 0.000623 -0.006063 -0.000003 0.003263 0.000000
# 2 0.000623 0.018634 -0.006623 -0.000009 0.004937 0.000003
# 3 -0.006063 -0.006623 0.025139 -0.000026 0.011111 0.000014
# 4 -0.000003 -0.000009 -0.000026 -0.389791 -0.000088 0.166363
# 5 0.003263 0.004937 0.011111 -0.000088 0.053720 0.000038
# 6 0.000000 0.000003 0.000014 0.166363 0.000038 -0.036415
#
#
# Mechanical properties :
#
#
# Convention : Reuss Voigt Hill
#
# Bulk Modulus (GPa) = 32.37541 44.40192 38.38866
# Shear Modulus (GPa) = -17.66480 22.18344 2.25932
#
# Velocity S-wave (km/s) = -2.89832 3.24793 1.03653
# Velocity P-wave (km/s) = 2.04826 5.93129 4.43709
#
# Compressibility (1/GPa) = 0.03088764
#
# Stress axis : x y z
#
# Youngs Moduli (GPa) = 88.95923 53.66400 39.77907
#
# Poissons Ratio (x) = -0.03342 0.24117
# Poissons Ratio (y) = -0.05539 0.26347
# Poissons Ratio (z) = 0.53935 0.35543
#
# Static dielectric constant tensor:
#      x y z
#    x 1.805380 0.000000 0.080780 
#    y 0.000000 1.882980 0.000000 
#    z 0.080780 0.000000 1.872380 
# 
# From -- ./inp_files/14583.got.cif
#   From: 2010.05.17/outbox.cif.g08.bks.cpg/sg4_8_cif.got.tgz:14583.got - 2010.06.03 18:43:04.
