data_PCOD9116156
_publ_section_title
;
Structure prediction by ZEFSAII (Michael W. Deem and Ramdas Pophale) SiO2 
 PCOD9116156
Probable space group: P 21
;
_chemical_formula_sum "Si O2"
_cell_formula_units_Z 12
_cell_length_a 8.940043
_cell_length_b 8.097346
_cell_length_c 7.191093
_cell_angle_alpha 90.000000
_cell_angle_beta 115.721690
_cell_angle_gamma 90.000000
_cell_volume 468.986091
_symmetry_space_group_name_H-M "P 21"
_symmetry_group_IT_number 4
_symmetry_cell_setting 'monoclinic'
loop_
_space_group_symop_operation_xyz
x,y,z
-x,1/2+y,-z
loop_
_atom_site_type_symbol
_atom_site_label
_atom_site_fract_x
_atom_site_fract_y
_atom_site_fract_z
Si Si1 0.126422 0.508900 0.842411
Si Si2 0.208802 0.869294 0.798611
Si Si3 0.142749 0.476870 0.406951
Si Si4 0.209946 0.835471 0.345186
Si Si5 0.470565 0.415963 0.185830
Si Si6 0.542024 0.747942 0.462271
O O1 0.159047 0.703017 0.877952
O O2 0.138263 0.490715 0.626370
O O3 0.949731 0.435867 0.809077
O O4 0.282296 0.421066 0.018088
O O5 0.203474 0.861014 0.567129
O O6 0.050136 0.978389 0.756448
O O7 0.402559 0.908971 0.918420
O O8 0.205448 0.637383 0.334438
O O9 0.273584 0.326910 0.452792
O O10 0.383966 0.869924 0.335307
O O11 0.520521 0.583959 0.327386
O O12 0.482886 0.254870 0.326352
#
# Coordination Sequence:
#
# PCOD9116156 Si02
#       6
#     2   2   2   2   2   2
#     4  10  23  42  66  97 131 168 232 275 319 396
#     4   9  22  38  66  96 127 173 218 270 337 385
#     4  10  21  40  67  94 128 180 215 271 336 394
#     4   9  20  41  63  92 132 174 218 265 337 396
#     4  11  25  44  65  99 135 181 222 276 333 397
#     4  11  23  43  65  94 137 182 219 267 344 396
#
# _framework density 25.587111
#
# number of rings (size 3 to 8) (size 9 to 14) (size 15 to 20)
#    0.000    2.000    1.667    0.000   14.000    0.000 
#    3.000    1.667    0.000    0.000    0.000    0.000 
#    0.000    0.000    0.000    0.000    0.000    0.000 
#
# Total GULP energy -66869.009643 kJ/mol
# GULP energy per Si atom -5572.417470 kJ/mol
# Density = 2.552887 g / cm^3
# Si number density = 25.587111 Si / 1000 Ang^3
#
#
#
# Elastic Constant Matrix: (Units=GPa)
#
#
# Indices 1 2 3 4 5 6 
#
# 1 89.0386 34.4667 17.6108 0.0000 7.4690 0.0000
# 2 34.4667 63.3462 16.3507 0.0000 5.4383 0.0000
# 3 17.6108 16.3507 83.0255 0.0000 -10.2536 0.0000
# 4 0.0000 0.0000 0.0000 13.1467 0.0000 11.9139
# 5 7.4690 5.4383 -10.2536 0.0000 42.4670 0.0000
# 6 0.0000 0.0000 0.0000 11.9139 0.0000 45.8614
#
#
#
# Elastic Compliance Matrix: (Units=1/GPa)
#
#
# Indices 1 2 3 4 5 6 
#
# 1 0.014601 -0.007267 -0.001926 0.000000 -0.002102 0.000000
# 2 -0.007267 0.020630 -0.002773 0.000000 -0.002033 0.000000
# 3 -0.001926 -0.002773 0.013487 0.000000 0.003950 0.000000
# 4 0.000000 0.000000 0.000000 0.099485 0.000000 -0.025844
# 5 -0.002102 -0.002033 0.003950 0.000000 0.025132 0.000000
# 6 0.000000 0.000000 0.000000 -0.025844 0.000000 0.028519
#
#
# Mechanical properties :
#
#
# Convention : Reuss Voigt Hill
#
# Bulk Modulus (GPa) = 40.34190 41.36297 40.85243
# Shear Modulus (GPa) = 21.36321 31.42717 26.39519
#
# Velocity S-wave (km/s) = 2.89263 3.50843 3.21531
# Velocity P-wave (km/s) = 5.19203 5.71076 5.45756
#
# Compressibility (1/GPa) = 0.02478812
#
# Stress axis : x y z
#
# Youngs Moduli (GPa) = 68.48668 48.47196 74.14660
#
# Poissons Ratio (x) = 0.35225 0.14278
# Poissons Ratio (y) = 0.49770 0.20558
# Poissons Ratio (z) = 0.13188 0.13439
#
# Static dielectric constant tensor:
#      x y z
#    x 2.090620 0.000000 0.122080 
#    y 0.000000 2.048080 0.000000 
#    z 0.122080 0.000000 2.224800 
# 
# From -- ./inp_files/5277.got.cif
#   From: 2010.05.17/outbox.cif.g08.bks.cpg/sg4_3_cif.got.tgz:5277.got - 2010.06.03 18:43:04.
