data_PCOD9116173
_publ_section_title
;
Structure prediction by ZEFSAII (Michael W. Deem and Ramdas Pophale) SiO2 
 PCOD9116173
Probable space group: P 21
;
_chemical_formula_sum "Si O2"
_cell_formula_units_Z 16
_cell_length_a 9.099358
_cell_length_b 5.005311
_cell_length_c 15.631368
_cell_angle_alpha 90.000000
_cell_angle_beta 62.319353
_cell_angle_gamma 90.000000
_cell_volume 630.452225
_symmetry_space_group_name_H-M "P 21"
_symmetry_group_IT_number 4
_symmetry_cell_setting 'monoclinic'
loop_
_space_group_symop_operation_xyz
x,y,z
-x,1/2+y,-z
loop_
_atom_site_type_symbol
_atom_site_label
_atom_site_fract_x
_atom_site_fract_y
_atom_site_fract_z
Si Si1 0.503365 0.667340 0.945059
Si Si2 0.648923 0.639633 0.198563
Si Si3 0.286247 0.508064 0.244601
Si Si4 0.391245 0.839603 0.624838
Si Si5 0.059075 0.515981 0.841838
Si Si6 0.177703 0.788720 0.970893
Si Si7 0.280172 0.343854 0.549589
Si Si8 0.065356 0.030172 0.310452
O O1 0.638626 0.830514 0.854297
O O2 0.339199 0.602521 0.935176
O O3 0.557540 0.387669 0.969601
O O4 0.451246 0.645889 0.240357
O O5 0.666909 0.405243 0.264646
O O6 0.764467 0.868278 0.205146
O O7 0.730966 0.553356 0.087327
O O8 0.168082 0.761025 0.263396
O O9 0.175340 0.272350 0.318041
O O10 0.356243 0.548959 0.598225
O O11 0.590746 0.874067 0.563005
O O12 0.300526 0.050853 0.585758
O O13 0.061753 0.711814 0.922809
O O14 0.007406 0.619410 0.763077
O O15 0.922610 0.306445 0.914797
O O16 0.091734 0.438230 0.590047
#
# Coordination Sequence:
#
# PCOD9116173 Si02
#       8
#     2   2   2   2   2   2   2   2
#     4  11  24  43  63  87 129 178 221 267 328 392
#     4  11  25  43  64  94 133 176 215 277 332 400
#     4  11  27  42  64  93 137 175 220 265 336 406
#     4  10  21  41  69 104 125 172 212 275 336 385
#     4  12  24  40  68  93 130 169 226 280 327 383
#     4  11  25  38  64  94 127 166 225 275 321 383
#     4  10  21  40  70 100 135 158 223 275 325 396
#     4  12  25  45  66  99 130 178 216 276 331 393
#
# _framework density 25.378612
#
# number of rings (size 3 to 8) (size 9 to 14) (size 15 to 20)
#    0.000    1.000    2.500    3.750    8.750    1.000 
#    0.000    1.250    0.000    0.000    0.000    0.000 
#    0.000    0.000    0.000    0.000    0.000    0.000 
#
# Total GULP energy -89425.580863 kJ/mol
# GULP energy per Si atom -5589.098804 kJ/mol
# Density = 2.532085 g / cm^3
# Si number density = 25.378612 Si / 1000 Ang^3
#
#
#
# Elastic Constant Matrix: (Units=GPa)
#
#
# Indices 1 2 3 4 5 6 
#
# 1 103.7148 32.2608 14.3083 0.0000 -36.6790 0.0000
# 2 32.2608 98.1155 17.0253 0.0000 -12.8701 0.0000
# 3 14.3083 17.0253 83.2674 0.0000 -27.5008 0.0000
# 4 0.0000 0.0000 0.0000 20.9095 0.0000 -2.7687
# 5 -36.6790 -12.8701 -27.5008 0.0000 38.5102 0.0000
# 6 0.0000 0.0000 0.0000 -2.7687 0.0000 39.1250
#
#
#
# Elastic Compliance Matrix: (Units=1/GPa)
#
#
# Indices 1 2 3 4 5 6 
#
# 1 0.016234 -0.003753 0.003494 0.000000 0.016704 0.000000
# 2 -0.003753 0.011638 -0.002134 0.000000 -0.001209 0.000000
# 3 0.003494 -0.002134 0.016632 0.000000 0.014492 0.000000
# 4 0.000000 0.000000 0.000000 0.048278 0.000000 0.003416
# 5 0.016704 -0.001209 0.014492 0.000000 0.051821 0.000000
# 6 0.000000 0.000000 0.000000 0.003416 0.000000 0.025801
#
#
# Mechanical properties :
#
#
# Convention : Reuss Voigt Hill
#
# Bulk Modulus (GPa) = 25.17731 45.80960 35.49345
# Shear Modulus (GPa) = 26.53524 34.47584 30.50554
#
# Velocity S-wave (km/s) = 3.23704 3.68973 3.47077
# Velocity P-wave (km/s) = 4.89014 6.02012 5.48431
#
# Compressibility (1/GPa) = 0.03971831
#
# Stress axis : x y z
#
# Youngs Moduli (GPa) = 61.59735 85.92677 60.12636
#
# Poissons Ratio (x) = 0.32251 -0.21011
# Poissons Ratio (y) = 0.23119 0.12831
# Poissons Ratio (z) = -0.21525 0.18337
#
# Static dielectric constant tensor:
#      x y z
#    x 2.090570 0.000000 -0.008930 
#    y 0.000000 2.023300 0.000000 
#    z -0.008930 0.000000 2.032750 
# 
# From -- ./inp_files/8803.got.cif
#   From: 2010.05.17/outbox.cif.g08.bks.cpg/sg4_5_cif.got.tgz:8803.got - 2010.06.03 18:43:04.
