data_PCOD9116737
_publ_section_title
;
Structure prediction by ZEFSAII (Michael W. Deem and Ramdas Pophale) SiO2 
 PCOD9116737
Probable space group: P 21
;
_chemical_formula_sum "Si O2"
_cell_formula_units_Z 12
_cell_length_a 8.892130
_cell_length_b 5.114109
_cell_length_c 13.521720
_cell_angle_alpha 90.000000
_cell_angle_beta 127.694671
_cell_angle_gamma 90.000000
_cell_volume 486.561940
_symmetry_space_group_name_H-M "P 21"
_symmetry_group_IT_number 4
_symmetry_cell_setting 'monoclinic'
loop_
_space_group_symop_operation_xyz
x,y,z
-x,1/2+y,-z
loop_
_atom_site_type_symbol
_atom_site_label
_atom_site_fract_x
_atom_site_fract_y
_atom_site_fract_z
Si Si1 0.170526 0.979270 0.259327
Si Si2 0.756313 0.046705 0.363485
Si Si3 0.083659 0.979927 0.856261
Si Si4 0.807218 0.542848 0.512226
Si Si5 0.450706 0.955433 0.914137
Si Si6 0.621809 0.339891 0.854292
O O1 0.259638 0.985392 0.404091
O O2 0.308826 0.888024 0.228273
O O3 0.001047 0.767095 0.186786
O O4 0.082015 0.265667 0.206823
O O5 0.755026 0.824192 0.448023
O O6 0.580588 0.987797 0.221353
O O7 0.962568 0.022477 0.396434
O O8 0.737037 0.323932 0.408330
O O9 0.223121 0.926687 0.818771
O O10 0.211819 0.936165 0.005651
O O11 0.570636 0.044039 0.867380
O O12 0.473044 0.214686 0.992256
#
# Coordination Sequence:
#
# PCOD9116737 Si02
#       6
#     2   2   2   2   2   2
#     4  12  25  42  66  94 138 175 215 271 337 400
#     4  10  23  42  67  90 124 166 225 274 318 395
#     4  11  24  43  64  95 137 178 212 263 336 404
#     4  10  23  44  64  91 123 172 217 271 335 384
#     4  10  22  40  64  94 131 173 224 269 318 395
#     4  11  25  41  67 102 131 170 221 278 332 392
#
# _framework density 24.662845000000001
#
# number of rings (size 3 to 8) (size 9 to 14) (size 15 to 20)
#    0.000    1.333    0.000    5.000    0.000   14.667 
#    0.000    0.000    0.000    0.000    0.000    0.000 
#    0.000    0.000    0.000    0.000    0.000    0.000 
#
# Total GULP energy -67235.321676 kJ/mol
# GULP energy per Si atom -5602.943473 kJ/mol
# Density = 2.460671 g / cm^3
# Si number density = 24.662845 Si / 1000 Ang^3
#
#
#
# Elastic Constant Matrix: (Units=GPa)
#
#
# Indices 1 2 3 4 5 6 
#
# 1 95.9016 2.7357 8.7277 0.0000 -32.7144 0.0000
# 2 2.7357 88.6908 19.4810 0.0000 -10.4463 0.0000
# 3 8.7277 19.4810 110.0237 0.0000 -12.2598 0.0000
# 4 0.0000 0.0000 0.0000 46.5848 0.0000 2.1399
# 5 -32.7144 -10.4463 -12.2598 0.0000 40.9055 0.0000
# 6 0.0000 0.0000 0.0000 2.1399 0.0000 27.8919
#
#
#
# Elastic Compliance Matrix: (Units=1/GPa)
#
#
# Indices 1 2 3 4 5 6 
#
# 1 0.014415 0.000941 0.000001 0.000000 0.011769 0.000000
# 2 0.000941 0.012036 -0.001841 0.000000 0.003275 0.000000
# 3 0.000001 -0.001841 0.009686 0.000000 0.002434 0.000000
# 4 0.000000 0.000000 0.000000 0.021542 0.000000 -0.001653
# 5 0.011769 0.003275 0.002434 0.000000 0.035425 0.000000
# 6 0.000000 0.000000 0.000000 -0.001653 0.000000 0.035979
#
#
# Mechanical properties :
#
#
# Convention : Reuss Voigt Hill
#
# Bulk Modulus (GPa) = 29.11984 39.61164 34.36574
# Shear Modulus (GPa) = 35.13022 40.65457 37.89239
#
# Velocity S-wave (km/s) = 3.77824 4.06447 3.92397
# Velocity P-wave (km/s) = 5.55574 6.17436 5.87320
#
# Compressibility (1/GPa) = 0.03434085
#
# Stress axis : x y z
#
# Youngs Moduli (GPa) = 69.37101 83.08292 103.24169
#
# Poissons Ratio (x) = -0.07821 -0.00013
# Poissons Ratio (y) = -0.06530 0.19006
# Poissons Ratio (z) = -0.00009 0.15295
#
# Static dielectric constant tensor:
#      x y z
#    x 2.021670 0.000000 -0.032560 
#    y 0.000000 1.983900 0.000000 
#    z -0.032560 0.000000 1.946240 
# 
# From -- ./inp_files/13609.got.cif
#   From: 2010.05.17/outbox.cif.g08.bks.cpg/sg4_7_cif.got.tgz:13609.got - 2010.06.03 18:43:04.
