data_PCOD9116804
_publ_section_title
;
Structure prediction by ZEFSAII (Michael W. Deem and Ramdas Pophale) SiO2 
 PCOD9116804
Probable space group: P 21
;
_chemical_formula_sum "Si O2"
_cell_formula_units_Z 14
_cell_length_a 8.428398
_cell_length_b 7.955234
_cell_length_c 9.628516
_cell_angle_alpha 90.000000
_cell_angle_beta 125.679678
_cell_angle_gamma 90.000000
_cell_volume 524.407263
_symmetry_space_group_name_H-M "P 21"
_symmetry_group_IT_number 4
_symmetry_cell_setting 'monoclinic'
loop_
_space_group_symop_operation_xyz
x,y,z
-x,1/2+y,-z
loop_
_atom_site_type_symbol
_atom_site_label
_atom_site_fract_x
_atom_site_fract_y
_atom_site_fract_z
Si Si1 0.191894 0.897640 0.631452
Si Si2 0.630905 0.775493 0.847732
Si Si3 0.365791 0.223258 0.828496
Si Si4 0.553044 0.963561 0.383074
Si Si5 0.172510 0.724251 0.897106
Si Si6 0.011513 0.930982 0.028593
Si Si7 0.773766 0.258136 0.628898
O O1 0.421109 0.857109 0.729201
O O2 0.125550 0.764647 0.713490
O O3 0.120967 0.862730 0.440653
O O4 0.210763 0.083704 0.700468
O O5 0.602131 0.598631 0.756417
O O6 0.678132 0.770756 0.035721
O O7 0.797040 0.885174 0.864859
O O8 0.366017 0.364687 0.709261
O O9 0.599409 0.172971 0.962964
O O10 0.431287 0.842084 0.422465
O O11 0.718026 0.075364 0.542075
O O12 0.028182 0.589541 0.892857
O O13 0.144079 0.902653 0.961198
O O14 0.092817 0.780483 0.168778
#
# Coordination Sequence:
#
# PCOD9116804 Si02
#       7
#     2   2   2   2   2   2   2
#     4  10  23  45  70 100 139 197 247 290 367 452
#     4  10  22  40  73 103 140 188 249 306 354 433
#     4  11  21  43  75 103 133 195 254 298 346 455
#     4  11  23  43  72 107 144 199 247 294 371 453
#     4  11  25  44  73 106 147 192 248 308 367 438
#     4  12  25  44  69 109 150 184 245 317 373 421
#     4  11  25  43  70 104 153 189 242 305 374 442
#
# _framework density 26.696808000000001
#
# number of rings (size 3 to 8) (size 9 to 14) (size 15 to 20)
#    0.000    1.143    2.857    3.429    6.000    0.000 
#    2.571    1.429    0.000    0.000    0.000    0.000 
#    0.000    0.000    0.000    0.000    0.000    0.000 
#
# Total GULP energy -78342.948997 kJ/mol
# GULP energy per Si atom -5595.924928 kJ/mol
# Density = 2.663605 g / cm^3
# Si number density = 26.696808 Si / 1000 Ang^3
#
#
#
# Elastic Constant Matrix: (Units=GPa)
#
#
# Indices 1 2 3 4 5 6 
#
# 1 72.1002 9.8451 14.1461 0.0000 -2.4095 0.0000
# 2 9.8451 83.2688 28.6157 0.0000 -7.8098 0.0000
# 3 14.1461 28.6157 127.2734 0.0000 -46.1940 0.0000
# 4 0.0000 0.0000 0.0000 53.8384 0.0000 1.1172
# 5 -2.4095 -7.8098 -46.1940 0.0000 32.4885 0.0000
# 6 0.0000 0.0000 0.0000 1.1172 0.0000 49.3563
#
#
#
# Elastic Compliance Matrix: (Units=1/GPa)
#
#
# Indices 1 2 3 4 5 6 
#
# 1 0.014378 -0.001170 -0.002170 0.000000 -0.002300 0.000000
# 2 -0.001170 0.013182 -0.003544 0.000000 -0.001957 0.000000
# 3 -0.002170 -0.003544 0.017621 0.000000 0.024042 0.000000
# 4 0.000000 0.000000 0.000000 0.018583 0.000000 -0.000421
# 5 -0.002300 -0.001957 0.024042 0.000000 0.064323 0.000000
# 6 0.000000 0.000000 0.000000 -0.000421 0.000000 0.020270
#
#
# Mechanical properties :
#
#
# Convention : Reuss Voigt Hill
#
# Bulk Modulus (GPa) = 31.83368 43.09514 37.46441
# Shear Modulus (GPa) = 28.96924 42.47236 35.72080
#
# Velocity S-wave (km/s) = 3.29769 3.99296 3.66186
# Velocity P-wave (km/s) = 5.14293 6.11847 5.65179
#
# Compressibility (1/GPa) = 0.03141327
#
# Stress axis : x y z
#
# Youngs Moduli (GPa) = 69.54968 75.86087 56.74997
#
# Poissons Ratio (x) = 0.08876 0.12314
# Poissons Ratio (y) = 0.08137 0.20113
# Poissons Ratio (z) = 0.15092 0.26886
#
# Static dielectric constant tensor:
#      x y z
#    x 2.097810 0.000000 0.022870 
#    y 0.000000 2.230340 0.000000 
#    z 0.022870 0.000000 2.041910 
# 
# From -- ./inp_files/5292.got.cif
#   From: 2010.05.17/outbox.cif.g08.bks.cpg/sg4_3_cif.got.tgz:5292.got - 2010.06.03 18:43:04.
