data_PCOD9116294
_publ_section_title
;
Structure prediction by ZEFSAII (Michael W. Deem and Ramdas Pophale) SiO2 
 PCOD9116294
Probable space group: P 21
;
_chemical_formula_sum "Si O2"
_cell_formula_units_Z 16
_cell_length_a 9.503139
_cell_length_b 13.588407
_cell_length_c 13.970188
_cell_angle_alpha 90.000000
_cell_angle_beta 150.529623
_cell_angle_gamma 90.000000
_cell_volume 887.522951
_symmetry_space_group_name_H-M "P 21"
_symmetry_group_IT_number 4
_symmetry_cell_setting 'monoclinic'
loop_
_space_group_symop_operation_xyz
x,y,z
-x,1/2+y,-z
loop_
_atom_site_type_symbol
_atom_site_label
_atom_site_fract_x
_atom_site_fract_y
_atom_site_fract_z
Si Si1 0.559074 0.757390 0.405951
Si Si2 0.437962 0.063995 0.083185
Si Si3 0.844275 0.250218 0.341829
Si Si4 0.256475 0.883402 0.071892
Si Si5 0.494172 0.368075 0.979253
Si Si6 0.215760 0.620203 0.336444
Si Si7 0.644507 0.906479 0.626014
Si Si8 0.854950 0.300216 0.570368
O O1 0.345946 0.822520 0.215888
O O2 0.381639 0.667995 0.345256
O O3 0.664430 0.822816 0.557401
O O4 0.835826 0.732624 0.507130
O O5 0.122622 0.108171 0.882432
O O6 0.666257 0.149106 0.229579
O O7 0.415279 0.989188 0.159818
O O8 0.499332 0.986542 0.032919
O O9 0.852370 0.289291 0.454868
O O10 0.683428 0.328608 0.178131
O O11 0.367171 0.831737 0.039327
O O12 0.921013 0.900668 0.858318
O O13 0.172634 0.328347 0.793409
O O14 0.341930 0.510901 0.419748
O O15 0.240941 0.696684 0.438704
O O16 0.362623 0.882746 0.519710
#
# Coordination Sequence:
#
# PCOD9116294 Si02
#       8
#     2   2   2   2   2   2   2   2
#     4  11  22  38  65  88 121 164 201 252 307 365
#     4   9  21  38  61  87 125 158 194 257 307 355
#     4  12  21  39  65  91 117 163 206 250 310 360
#     4   9  20  40  58  84 117 161 196 244 302 358
#     4  10  21  42  59  89 127 155 202 258 303 356
#     4  10  22  41  60  91 126 159 204 252 300 374
#     4  10  23  42  59  85 129 160 200 250 310 359
#     4  11  24  38  65  95 120 162 207 257 299 367
#
# _framework density 18.027704
#
# number of rings (size 3 to 8) (size 9 to 14) (size 15 to 20)
#    0.750    1.000    3.750    0.000    5.250    0.000 
#    2.250    1.250    0.000    0.000    0.000    0.000 
#    0.000    0.000    0.000    0.000    0.000    0.000 
#
# Total GULP energy -89160.034493 kJ/mol
# GULP energy per Si atom -5572.502156 kJ/mol
# Density = 1.798667 g / cm^3
# Si number density = 18.027704 Si / 1000 Ang^3
#
#
#
# Elastic Constant Matrix: (Units=GPa)
#
#
# Indices 1 2 3 4 5 6 
#
# 1 87.1955 16.9802 25.8345 0.0000 15.8664 0.0000
# 2 16.9802 59.1734 20.5756 0.0000 21.0008 0.0000
# 3 25.8345 20.5756 63.5758 0.0000 7.8485 0.0000
# 4 0.0000 0.0000 0.0000 23.9204 0.0000 9.1511
# 5 15.8664 21.0008 7.8485 0.0000 20.2862 0.0000
# 6 0.0000 0.0000 0.0000 9.1511 0.0000 25.8094
#
#
#
# Elastic Compliance Matrix: (Units=1/GPa)
#
#
# Indices 1 2 3 4 5 6 
#
# 1 0.014700 0.001474 -0.005086 0.000000 -0.011055 0.000000
# 2 0.001474 0.028824 -0.006407 0.000000 -0.028513 0.000000
# 3 -0.005086 -0.006407 0.019490 0.000000 0.003070 0.000000
# 4 0.000000 0.000000 0.000000 0.048366 0.000000 -0.017149
# 5 -0.011055 -0.028513 0.003070 0.000000 0.086270 0.000000
# 6 0.000000 0.000000 0.000000 -0.017149 0.000000 0.044826
#
#
# Mechanical properties :
#
#
# Convention : Reuss Voigt Hill
#
# Bulk Modulus (GPa) = 23.26906 37.41392 30.34149
# Shear Modulus (GPa) = 18.06095 23.77349 20.91722
#
# Velocity S-wave (km/s) = 3.16863 3.63536 3.40999
# Velocity P-wave (km/s) = 5.13053 6.19836 5.68955
#
# Compressibility (1/GPa) = 0.04297553
#
# Stress axis : x y z
#
# Youngs Moduli (GPa) = 68.02762 34.69345 51.30708
#
# Poissons Ratio (x) = -0.05112 0.26093
# Poissons Ratio (y) = -0.10025 0.32875
# Poissons Ratio (z) = 0.34596 0.22230
#
# Static dielectric constant tensor:
#      x y z
#    x 1.616340 0.000000 0.008600 
#    y 0.000000 1.626550 0.000000 
#    z 0.008600 0.000000 1.596400 
# 
# From -- ./inp_files/11409.got.cif
#   From: 2010.05.17/outbox.cif.g08.bks.cpg/sg4_6_cif.got.tgz:11409.got - 2010.06.03 18:43:04.
