data_PCOD9116338
_publ_section_title
;
Structure prediction by ZEFSAII (Michael W. Deem and Ramdas Pophale) SiO2 
 PCOD9116338
Probable space group: P 21
;
_chemical_formula_sum "Si O2"
_cell_formula_units_Z 16
_cell_length_a 8.564137
_cell_length_b 12.681819
_cell_length_c 8.419688
_cell_angle_alpha 90.000000
_cell_angle_beta 130.027486
_cell_angle_gamma 90.000000
_cell_volume 700.229202
_symmetry_space_group_name_H-M "P 21"
_symmetry_group_IT_number 4
_symmetry_cell_setting 'monoclinic'
loop_
_space_group_symop_operation_xyz
x,y,z
-x,1/2+y,-z
loop_
_atom_site_type_symbol
_atom_site_label
_atom_site_fract_x
_atom_site_fract_y
_atom_site_fract_z
Si Si1 0.586933 0.453460 0.688734
Si Si2 0.002719 0.190837 0.534525
Si Si3 0.364027 0.243392 0.557933
Si Si4 0.301691 0.297785 0.153266
Si Si5 0.336678 0.098464 0.971916
Si Si6 0.611525 0.031999 0.722601
Si Si7 0.941785 0.366051 0.724294
Si Si8 0.224981 0.551404 0.866100
O O1 0.517815 0.338044 0.699321
O O2 0.681327 0.522082 0.889382
O O3 0.396384 0.510255 0.472896
O O4 0.755454 0.434435 0.663740
O O5 0.170235 0.254379 0.542883
O O6 0.883362 0.270974 0.570572
O O7 0.868936 0.133810 0.316394
O O8 0.136381 0.112117 0.732906
O O9 0.319280 0.254519 0.341988
O O10 0.453205 0.126863 0.639612
O O11 0.378461 0.214811 0.073143
O O12 0.409581 0.412236 0.223879
O O13 0.065433 0.317537 0.953600
O O14 0.533885 0.055510 0.008828
O O15 0.798318 0.070119 0.958384
O O16 0.109080 0.442615 0.755109
#
# Coordination Sequence:
#
# PCOD9116338 Si02
#       8
#     2   2   2   2   2   2   2   2
#     4  11  24  43  74 100 137 185 231 283 346 413
#     4  11  25  45  67 104 139 176 234 285 346 413
#     4  11  21  43  68 102 134 180 230 284 344 412
#     4   9  22  41  67  94 142 173 231 290 331 418
#     4  11  23  46  68 101 137 184 226 284 348 412
#     4  10  21  42  68  98 132 180 222 275 351 399
#     4  10  24  46  64 103 138 184 230 288 341 408
#     4  11  24  44  70 100 137 182 226 285 347 405
#
# _framework density 22.849661000000001
#
# number of rings (size 3 to 8) (size 9 to 14) (size 15 to 20)
#    0.000    1.500    2.500    1.500    3.500    1.000 
#   18.000    0.000    0.000    0.000    0.000    0.000 
#    0.000    0.000    0.000    0.000    0.000    0.000 
#
# Total GULP energy -89289.507093 kJ/mol
# GULP energy per Si atom -5580.594193 kJ/mol
# Density = 2.279765 g / cm^3
# Si number density = 22.849661 Si / 1000 Ang^3
#
#
#
# Elastic Constant Matrix: (Units=GPa)
#
#
# Indices 1 2 3 4 5 6 
#
# 1 30.9368 21.4960 40.4066 0.0000 -11.8297 0.0000
# 2 21.4960 86.4331 56.6708 0.0000 -12.3947 0.0000
# 3 40.4066 56.6708 124.0292 0.0000 -15.3533 0.0000
# 4 0.0000 0.0000 0.0000 29.5032 0.0000 -4.3154
# 5 -11.8297 -12.3947 -15.3533 0.0000 19.7971 0.0000
# 6 0.0000 0.0000 0.0000 -4.3154 0.0000 28.2153
#
#
#
# Elastic Compliance Matrix: (Units=1/GPa)
#
#
# Indices 1 2 3 4 5 6 
#
# 1 0.065999 -0.001099 -0.017923 0.000000 0.024849 0.000000
# 2 -0.001099 0.016990 -0.006825 0.000000 0.004688 0.000000
# 3 -0.017923 -0.006825 0.016776 0.000000 -0.001973 0.000000
# 4 0.000000 0.000000 0.000000 0.034670 0.000000 0.005303
# 5 0.024849 0.004688 -0.001973 0.000000 0.066766 0.000000
# 6 0.000000 0.000000 0.000000 0.005303 0.000000 0.036253
#
#
# Mechanical properties :
#
#
# Convention : Reuss Voigt Hill
#
# Bulk Modulus (GPa) = 20.80256 53.17177 36.98716
# Shear Modulus (GPa) = 16.38427 23.69151 20.03789
#
# Velocity S-wave (km/s) = 2.68068 3.22350 2.96454
# Velocity P-wave (km/s) = 4.32496 6.09716 5.28586
#
# Compressibility (1/GPa) = 0.04807101
#
# Stress axis : x y z
#
# Youngs Moduli (GPa) = 15.15175 58.85882 59.60985
#
# Poissons Ratio (x) = 0.06469 1.06840
# Poissons Ratio (y) = 0.01665 0.40681
# Poissons Ratio (z) = 0.27157 0.40169
#
# Static dielectric constant tensor:
#      x y z
#    x 1.856310 0.000000 -0.013800 
#    y 0.000000 1.870420 0.000000 
#    z -0.013800 0.000000 1.915570 
# 
# From -- ./inp_files/6464.got.cif
#   From: 2010.05.17/outbox.cif.g08.bks.cpg/sg4_4_cif.got.tgz:6464.got - 2010.06.03 18:43:04.
