data_PCOD9116328
_publ_section_title
;
Structure prediction by ZEFSAII (Michael W. Deem and Ramdas Pophale) SiO2 
 PCOD9116328
Probable space group: P 21
;
_chemical_formula_sum "Si O2"
_cell_formula_units_Z 14
_cell_length_a 22.908558
_cell_length_b 5.379024
_cell_length_c 16.586377
_cell_angle_alpha 90.000000
_cell_angle_beta 161.687042
_cell_angle_gamma 90.000000
_cell_volume 642.197866
_symmetry_space_group_name_H-M "P 21"
_symmetry_group_IT_number 4
_symmetry_cell_setting 'monoclinic'
loop_
_space_group_symop_operation_xyz
x,y,z
-x,1/2+y,-z
loop_
_atom_site_type_symbol
_atom_site_label
_atom_site_fract_x
_atom_site_fract_y
_atom_site_fract_z
Si Si1 0.597771 0.135450 0.156750
Si Si2 0.319418 0.371707 0.294054
Si Si3 0.022762 0.110419 0.223433
Si Si4 0.425998 0.174836 0.262859
Si Si5 0.985337 0.576515 0.031797
Si Si6 0.993915 0.605904 0.290009
Si Si7 0.326817 0.792150 0.562621
O O1 0.597059 0.200529 0.251600
O O2 0.811985 0.109302 0.407101
O O3 0.502614 0.373460 0.990341
O O4 0.407374 0.336600 0.320967
O O5 0.457080 0.445746 0.546081
O O6 0.202922 0.127832 0.165978
O O7 0.158561 0.577869 0.070001
O O8 0.013508 0.358720 0.261911
O O9 0.216180 0.050806 0.432013
O O10 0.005804 0.869194 0.259090
O O11 0.533298 0.296974 0.328857
O O12 0.219826 0.102292 0.961781
O O13 0.163732 0.603765 0.322275
O O14 0.996261 0.321631 0.999304
#
# Coordination Sequence:
#
# PCOD9116328 Si02
#       7
#     2   2   2   2   2   2   2
#     4  11  24  47  75  97 125 177 243 302 361 417
#     4  10  22  36  63  94 147 194 225 264 337 419
#     4   9  20  40  63  92 135 184 229 269 326 408
#     4  11  22  41  62 107 145 190 227 287 356 421
#     4  11  24  42  66  97 139 188 237 269 323 416
#     4  10  21  42  67  95 131 173 219 292 359 410
#     4  10  23  42  68 104 138 180 242 293 340 419
#
# _framework density 21.800135000000001
#
# number of rings (size 3 to 8) (size 9 to 14) (size 15 to 20)
#    0.000    1.714    1.429    3.429    2.000   10.286 
#    0.000    1.429    0.000    0.000    0.000    0.000 
#    0.000    0.000    0.000    0.000    0.000    0.000 
#
# Total GULP energy -78171.201501 kJ/mol
# GULP energy per Si atom -5583.657250 kJ/mol
# Density = 2.175052 g / cm^3
# Si number density = 21.800135 Si / 1000 Ang^3
#
#
#
# Elastic Constant Matrix: (Units=GPa)
#
#
# Indices 1 2 3 4 5 6 
#
# 1 116.6084 20.6887 27.8945 0.0000 29.3493 0.0000
# 2 20.6887 125.9667 29.3963 0.0000 5.8865 0.0000
# 3 27.8945 29.3963 148.4695 0.0000 22.6423 0.0000
# 4 0.0000 0.0000 0.0000 32.4908 0.0000 -6.6736
# 5 29.3493 5.8865 22.6423 0.0000 41.8966 0.0000
# 6 0.0000 0.0000 0.0000 -6.6736 0.0000 35.8170
#
#
#
# Elastic Compliance Matrix: (Units=1/GPa)
#
#
# Indices 1 2 3 4 5 6 
#
# 1 0.010719 -0.001272 -0.000702 0.000000 -0.006951 0.000000
# 2 -0.001272 0.008478 -0.001519 0.000000 0.000521 0.000000
# 3 -0.000702 -0.001519 0.007695 0.000000 -0.003453 0.000000
# 4 0.000000 0.000000 0.000000 0.032003 0.000000 0.005963
# 5 -0.006951 0.000521 -0.003453 0.000000 0.030530 0.000000
# 6 0.000000 0.000000 0.000000 0.005963 0.000000 0.029031
#
#
# Mechanical properties :
#
#
# Convention : Reuss Voigt Hill
#
# Bulk Modulus (GPa) = 50.23780 60.77817 55.50799
# Shear Modulus (GPa) = 37.85715 42.91191 40.38453
#
# Velocity S-wave (km/s) = 4.17172 4.44151 4.30873
# Velocity P-wave (km/s) = 6.80434 7.36498 7.09020
#
# Compressibility (1/GPa) = 0.01990533
#
# Stress axis : x y z
#
# Youngs Moduli (GPa) = 93.29515 117.95745 129.95984
#
# Poissons Ratio (x) = 0.15002 0.09123
# Poissons Ratio (y) = 0.11865 0.19741
# Poissons Ratio (z) = 0.06550 0.17918
#
# Static dielectric constant tensor:
#      x y z
#    x 1.863460 0.000000 0.022080 
#    y 0.000000 1.843740 0.000000 
#    z 0.022080 0.000000 1.864430 
# 
# From -- ./inp_files/14446.got.cif
#   From: 2010.05.17/outbox.cif.g08.bks.cpg/sg4_8_cif.got.tgz:14446.got - 2010.06.03 18:43:04.
