data_PCOD9116454
_publ_section_title
;
Structure prediction by ZEFSAII (Michael W. Deem and Ramdas Pophale) SiO2 
 PCOD9116454
Probable space group: P 21
;
_chemical_formula_sum "Si O2"
_cell_formula_units_Z 16
_cell_length_a 11.314037
_cell_length_b 10.652500
_cell_length_c 8.778897
_cell_angle_alpha 90.000000
_cell_angle_beta 41.399187
_cell_angle_gamma 90.000000
_cell_volume 699.694429
_symmetry_space_group_name_H-M "P 21"
_symmetry_group_IT_number 4
_symmetry_cell_setting 'monoclinic'
loop_
_space_group_symop_operation_xyz
x,y,z
-x,1/2+y,-z
loop_
_atom_site_type_symbol
_atom_site_label
_atom_site_fract_x
_atom_site_fract_y
_atom_site_fract_z
Si Si1 0.047768 0.941460 0.489622
Si Si2 0.683278 0.421319 0.036952
Si Si3 0.340146 0.394332 0.179333
Si Si4 0.179101 0.679170 0.942545
Si Si5 0.802815 0.672705 0.470542
Si Si6 0.323671 0.000372 0.642773
Si Si7 0.958900 0.304587 0.198554
Si Si8 0.664313 0.902042 0.163510
O O1 0.052557 0.825623 0.607362
O O2 0.840970 0.974900 0.661005
O O3 0.150095 0.054926 0.469090
O O4 0.147866 0.918134 0.236689
O O5 0.510313 0.445921 0.102277
O O6 0.691641 0.287470 0.116727
O O7 0.686256 0.522219 0.168897
O O8 0.275642 0.277947 0.344486
O O9 0.392902 0.367549 0.953390
O O10 0.138870 0.694330 0.799947
O O11 0.250910 0.542462 0.914183
O O12 0.987777 0.704741 0.207186
O O13 0.669593 0.621978 0.469751
O O14 0.143252 0.926371 0.771281
O O15 0.492400 0.913214 0.436132
O O16 0.168164 0.314646 0.956551
#
# Coordination Sequence:
#
# PCOD9116454 Si02
#       8
#     2   2   2   2   2   2   2   2
#     4  10  21  44  63  94 134 168 217 269 323 390
#     4  11  24  39  66 101 130 170 218 264 330 390
#     4  11  22  40  68  95 126 180 211 267 329 386
#     4  11  21  41  68  92 130 174 214 272 326 383
#     4  11  21  43  67  91 134 173 215 272 324 384
#     4  10  22  41  62  94 132 169 212 272 319 387
#     4   9  21  40  65  93 125 171 213 267 323 377
#     4  11  22  44  67  94 133 173 220 267 328 387
#
# _framework density 22.867125000000001
#
# number of rings (size 3 to 8) (size 9 to 14) (size 15 to 20)
#    0.000    1.500    5.000    2.250    1.750    0.000 
#    4.500    2.500    0.000    0.000    0.000    0.000 
#    0.000    0.000    0.000    0.000    0.000    0.000 
#
# Total GULP energy -89366.469928 kJ/mol
# GULP energy per Si atom -5585.404370 kJ/mol
# Density = 2.281508 g / cm^3
# Si number density = 22.867125 Si / 1000 Ang^3
#
#
#
# Elastic Constant Matrix: (Units=GPa)
#
#
# Indices 1 2 3 4 5 6 
#
# 1 113.8721 -2.6001 44.1182 0.0000 -1.1304 0.0000
# 2 -2.6001 30.6611 5.4427 0.0000 5.7326 0.0000
# 3 44.1182 5.4427 133.7905 0.0000 8.3632 0.0000
# 4 0.0000 0.0000 0.0000 23.7529 0.0000 9.2048
# 5 -1.1304 5.7326 8.3632 0.0000 27.4114 0.0000
# 6 0.0000 0.0000 0.0000 9.2048 0.0000 27.1689
#
#
#
# Elastic Compliance Matrix: (Units=1/GPa)
#
#
# Indices 1 2 3 4 5 6 
#
# 1 0.010171 0.001252 -0.003481 0.000000 0.001220 0.000000
# 2 0.001252 0.034216 -0.001387 0.000000 -0.006681 0.000000
# 3 -0.003481 -0.001387 0.008838 0.000000 -0.002550 0.000000
# 4 0.000000 0.000000 0.000000 0.048463 0.000000 -0.016419
# 5 0.001220 -0.006681 -0.002550 0.000000 0.038707 0.000000
# 6 0.000000 0.000000 0.000000 -0.016419 0.000000 0.042370
#
#
# Mechanical properties :
#
#
# Convention : Reuss Voigt Hill
#
# Bulk Modulus (GPa) = 21.74228 41.36060 31.55144
# Shear Modulus (GPa) = 24.35129 31.09084 27.72107
#
# Velocity S-wave (km/s) = 3.26683 3.69132 3.48554
# Velocity P-wave (km/s) = 4.87425 6.02448 5.47963
#
# Compressibility (1/GPa) = 0.04599335
#
# Stress axis : x y z
#
# Youngs Moduli (GPa) = 98.31648 29.22599 113.14577
#
# Poissons Ratio (x) = -0.03660 0.39388
# Poissons Ratio (y) = -0.12314 0.15697
# Poissons Ratio (z) = 0.34226 0.04055
#
# Static dielectric constant tensor:
#      x y z
#    x 1.879090 0.000000 0.026160 
#    y 0.000000 1.892280 0.000000 
#    z 0.026160 0.000000 1.869980 
# 
# From -- ./inp_files/8393.got.cif
#   From: 2010.05.17/outbox.cif.g08.bks.cpg/sg4_5_cif.got.tgz:8393.got - 2010.06.03 18:43:04.
