data_PCOD9116862
_publ_section_title
;
Structure prediction by ZEFSAII (Michael W. Deem and Ramdas Pophale) SiO2 
 PCOD9116862
Probable space group: P 21
;
_chemical_formula_sum "Si O2"
_cell_formula_units_Z 12
_cell_length_a 21.938397
_cell_length_b 4.971335
_cell_length_c 14.939189
_cell_angle_alpha 90.000000
_cell_angle_beta 16.169907
_cell_angle_gamma 90.000000
_cell_volume 453.742440
_symmetry_space_group_name_H-M "P 21"
_symmetry_group_IT_number 4
_symmetry_cell_setting 'monoclinic'
loop_
_space_group_symop_operation_xyz
x,y,z
-x,1/2+y,-z
loop_
_atom_site_type_symbol
_atom_site_label
_atom_site_fract_x
_atom_site_fract_y
_atom_site_fract_z
Si Si1 0.204749 0.800610 0.419191
Si Si2 0.437152 0.927820 0.532860
Si Si3 0.504105 0.431272 0.748302
Si Si4 0.928226 0.025926 0.557781
Si Si5 0.321872 0.299027 0.348415
Si Si6 0.869202 0.143027 0.158676
O O1 0.040349 0.664639 0.581604
O O2 0.232888 0.596914 0.461492
O O3 0.174363 0.100783 0.494996
O O4 0.435689 0.800381 0.038867
O O5 0.429124 0.190656 0.606179
O O6 0.540530 0.018204 0.291249
O O7 0.207364 0.785615 0.826129
O O8 0.648268 0.641846 0.601275
O O9 0.641956 0.164509 0.533089
O O10 0.299767 0.374460 0.100120
O O11 0.909550 0.285484 0.648868
O O12 0.967743 0.849205 0.021141
#
# Coordination Sequence:
#
# PCOD9116862 Si02
#       6
#     2   2   2   2   2   2
#     4   9  18  32  55  80 118 150 198 251 289 365
#     4  10  22  41  66  93 133 172 217 277 337 393
#     4   9  24  40  68  87 132 168 214 266 340 374
#     4  11  23  40  60  91 131 172 211 252 314 403
#     4   9  17  34  55  84 109 155 196 247 313 357
#     4  10  22  41  66  93 123 165 220 271 327 386
#
# _framework density 26.446719000000002
#
# number of rings (size 3 to 8) (size 9 to 14) (size 15 to 20)
#    1.000    1.333    0.000    2.000    0.000    9.333 
#    0.000   10.000    0.000    0.000    0.000    0.000 
#    0.000    0.000    0.000    0.000    0.000    0.000 
#
# Total GULP energy -67033.421536 kJ/mol
# GULP energy per Si atom -5586.118461 kJ/mol
# Density = 2.638653 g / cm^3
# Si number density = 26.446719 Si / 1000 Ang^3
#
#
#
# Elastic Constant Matrix: (Units=GPa)
#
#
# Indices 1 2 3 4 5 6 
#
# 1 125.2971 17.1389 5.7587 0.0000 5.2538 0.0000
# 2 17.1389 129.9000 4.7421 0.0000 -1.5385 0.0000
# 3 5.7587 4.7421 37.5990 0.0000 12.9287 0.0000
# 4 0.0000 0.0000 0.0000 22.4403 0.0000 1.0011
# 5 5.2538 -1.5385 12.9287 0.0000 26.6956 0.0000
# 6 0.0000 0.0000 0.0000 1.0011 0.0000 42.0061
#
#
#
# Elastic Compliance Matrix: (Units=1/GPa)
#
#
# Indices 1 2 3 4 5 6 
#
# 1 0.008215 -0.001076 -0.000654 0.000000 -0.001362 0.000000
# 2 -0.001076 0.007902 -0.001273 0.000000 0.001284 0.000000
# 3 -0.000654 -0.001273 0.032201 0.000000 -0.015539 0.000000
# 4 0.000000 0.000000 0.000000 0.044610 0.000000 -0.001063
# 5 -0.001362 0.001284 -0.015539 0.000000 0.045327 0.000000
# 6 0.000000 0.000000 0.000000 -0.001063 0.000000 0.023831
#
#
# Mechanical properties :
#
#
# Convention : Reuss Voigt Hill
#
# Bulk Modulus (GPa) = 23.63471 38.67503 31.15487
# Shear Modulus (GPa) = 27.44278 35.90550 31.67414
#
# Velocity S-wave (km/s) = 3.22477 3.68863 3.46447
# Velocity P-wave (km/s) = 4.77720 5.72685 5.27345
#
# Compressibility (1/GPa) = 0.04231066
#
# Stress axis : x y z
#
# Youngs Moduli (GPa) = 121.72242 126.55177 31.05536
#
# Poissons Ratio (x) = 0.13619 0.02032
# Poissons Ratio (y) = 0.13100 0.03954
# Poissons Ratio (z) = 0.07963 0.16113
#
# Static dielectric constant tensor:
#      x y z
#    x 2.198980 0.000000 -0.024790 
#    y 0.000000 1.964750 0.000000 
#    z -0.024790 0.000000 2.219160 
# 
# From -- ./inp_files/13613.got.cif
#   From: 2010.05.17/outbox.cif.g08.bks.cpg/sg4_7_cif.got.tgz:13613.got - 2010.06.03 18:43:04.
