data_PCOD9116659
_publ_section_title
;
Structure prediction by ZEFSAII (Michael W. Deem and Ramdas Pophale) SiO2 
 PCOD9116659
Probable space group: P 21
;
_chemical_formula_sum "Si O2"
_cell_formula_units_Z 16
_cell_length_a 21.873979
_cell_length_b 4.957489
_cell_length_c 10.428400
_cell_angle_alpha 90.000000
_cell_angle_beta 40.004407
_cell_angle_gamma 90.000000
_cell_volume 726.966728
_symmetry_space_group_name_H-M "P 21"
_symmetry_group_IT_number 4
_symmetry_cell_setting 'monoclinic'
loop_
_space_group_symop_operation_xyz
x,y,z
-x,1/2+y,-z
loop_
_atom_site_type_symbol
_atom_site_label
_atom_site_fract_x
_atom_site_fract_y
_atom_site_fract_z
Si Si1 0.799518 0.117110 0.148417
Si Si2 0.541265 0.321768 0.586436
Si Si3 0.515683 0.656294 0.054349
Si Si4 0.288955 0.455352 0.191607
Si Si5 0.003809 0.975700 0.904186
Si Si6 0.292222 0.132250 0.580272
Si Si7 0.653556 0.045903 0.177153
Si Si8 0.208291 0.975780 0.446857
O O1 0.769861 0.420890 0.234062
O O2 0.750683 0.001132 0.098588
O O3 0.747876 0.929587 0.336353
O O4 0.911188 0.071387 0.975815
O O5 0.538264 0.147659 0.722497
O O6 0.599948 0.583196 0.543349
O O7 0.598771 0.232547 0.368254
O O8 0.432220 0.339587 0.715874
O O9 0.532474 0.360186 0.970602
O O10 0.612108 0.820249 0.925503
O O11 0.221385 0.192207 0.311141
O O12 0.242600 0.680157 0.354410
O O13 0.310946 0.606669 0.022496
O O14 0.100226 0.973835 0.669124
O O15 0.014486 0.184481 0.004620
O O16 0.273006 0.062784 0.464196
#
# Coordination Sequence:
#
# PCOD9116659 Si02
#       8
#     2   2   2   2   2   2   2   2
#     4  11  22  40  63  94 125 160 206 276 311 381
#     4  10  22  39  65  92 126 180 212 265 301 379
#     4  11  23  41  62  94 131 165 217 267 322 373
#     4  11  25  41  61  91 133 176 208 263 318 382
#     4  12  22  42  67 100 126 157 213 273 338 389
#     4  11  21  36  64  96 127 157 211 263 328 368
#     4  10  24  42  63  92 132 173 229 250 309 378
#     4  12  23  41  65  95 130 166 210 269 337 382
#
# _framework density 22.009259
#
# number of rings (size 3 to 8) (size 9 to 14) (size 15 to 20)
#    0.000    1.000    2.500    4.500    0.000    9.000 
#    0.000    1.250    0.000    0.000    0.000    0.000 
#    0.000    0.000    0.000    0.000    0.000    0.000 
#
# Total GULP energy -89310.550561 kJ/mol
# GULP energy per Si atom -5581.909410 kJ/mol
# Density = 2.195917 g / cm^3
# Si number density = 22.009259 Si / 1000 Ang^3
#
#
#
# Elastic Constant Matrix: (Units=GPa)
#
#
# Indices 1 2 3 4 5 6 
#
# 1 106.5940 0.1767 34.4818 0.0000 -4.2115 0.0000
# 2 0.1767 75.8655 22.8592 0.0000 8.6439 0.0000
# 3 34.4818 22.8592 126.1646 0.0000 -2.6711 0.0000
# 4 0.0000 0.0000 0.0000 36.3048 0.0000 -1.2721
# 5 -4.2115 8.6439 -2.6711 0.0000 26.7776 0.0000
# 6 0.0000 0.0000 0.0000 -1.2721 0.0000 15.0984
#
#
#
# Elastic Compliance Matrix: (Units=1/GPa)
#
#
# Indices 1 2 3 4 5 6 
#
# 1 0.010377 0.000738 -0.002947 0.000000 0.001100 0.000000
# 2 0.000738 0.014629 -0.002956 0.000000 -0.004901 0.000000
# 3 -0.002947 -0.002956 0.009297 0.000000 0.001418 0.000000
# 4 0.000000 0.000000 0.000000 0.027626 0.000000 0.002328
# 5 0.001100 -0.004901 0.001418 0.000000 0.039241 0.000000
# 6 0.000000 0.000000 0.000000 0.002328 0.000000 0.066428
#
#
# Mechanical properties :
#
#
# Convention : Reuss Voigt Hill
#
# Bulk Modulus (GPa) = 41.71192 47.07330 44.39261
# Shear Modulus (GPa) = 26.89364 32.37660 29.63512
#
# Velocity S-wave (km/s) = 3.49940 3.83958 3.67343
# Velocity P-wave (km/s) = 5.94313 6.41022 6.18109
#
# Compressibility (1/GPa) = 0.02397396
#
# Stress axis : x y z
#
# Youngs Moduli (GPa) = 96.36888 68.35934 107.56059
#
# Poissons Ratio (x) = -0.05047 0.31693
# Poissons Ratio (y) = -0.07115 0.31795
# Poissons Ratio (z) = 0.28396 0.20207
#
# Static dielectric constant tensor:
#      x y z
#    x 1.885020 0.000000 0.014020 
#    y 0.000000 1.834140 0.000000 
#    z 0.014020 0.000000 1.823280 
# 
# From -- ./inp_files/9496.got.cif
#   From: 2010.05.17/outbox.cif.g08.bks.cpg/sg4_5_cif.got.tgz:9496.got - 2010.06.03 18:43:04.
