data_PCOD9116771
_publ_section_title
;
Structure prediction by ZEFSAII (Michael W. Deem and Ramdas Pophale) SiO2 
 PCOD9116771
Probable space group: P 21
;
_chemical_formula_sum "Si O2"
_cell_formula_units_Z 14
_cell_length_a 5.362421
_cell_length_b 11.012850
_cell_length_c 9.661865
_cell_angle_alpha 90.000000
_cell_angle_beta 106.968424
_cell_angle_gamma 90.000000
_cell_volume 545.746569
_symmetry_space_group_name_H-M "P 21"
_symmetry_group_IT_number 4
_symmetry_cell_setting 'monoclinic'
loop_
_space_group_symop_operation_xyz
x,y,z
-x,1/2+y,-z
loop_
_atom_site_type_symbol
_atom_site_label
_atom_site_fract_x
_atom_site_fract_y
_atom_site_fract_z
Si Si1 0.575314 0.003090 0.035670
Si Si2 0.192253 0.302982 0.589910
Si Si3 0.642857 0.325860 0.484934
Si Si4 0.106602 0.153775 0.845635
Si Si5 0.775009 0.927781 0.785995
Si Si6 0.983358 0.685107 0.848813
Si Si7 0.424481 0.992589 0.293527
O O1 0.371235 0.081496 0.916926
O O2 0.718420 0.927522 0.941379
O O3 0.779366 0.094358 0.143021
O O4 0.422802 0.939266 0.136412
O O5 0.434126 0.247597 0.540490
O O6 0.167408 0.251765 0.739972
O O7 0.291656 0.444430 0.606636
O O8 0.913506 0.270935 0.479595
O O9 0.481170 0.391773 0.339858
O O10 0.740841 0.422417 0.617604
O O11 0.017853 0.192216 0.984075
O O12 0.891704 0.056408 0.762037
O O13 0.984817 0.821520 0.795994
O O14 0.712401 0.621705 0.754255
#
# Coordination Sequence:
#
# PCOD9116771 Si02
#       7
#     2   2   2   2   2   2   2
#     4  10  22  40  67  95 138 182 235 293 354 417
#     4  10  23  45  70  98 137 185 233 281 362 420
#     4  10  25  44  69 102 138 185 232 292 355 424
#     4  10  24  41  67 102 135 196 230 305 349 441
#     4  11  25  42  66 101 145 182 243 298 357 434
#     4  10  22  41  66 102 138 185 236 297 359 418
#     4   9  21  41  67  98 133 183 225 290 346 422
#
# _framework density 25.652932
#
# number of rings (size 3 to 8) (size 9 to 14) (size 15 to 20)
#    0.857    1.143    0.000    1.714    6.000    9.143 
#    2.571    0.000    0.000    0.000    0.000    0.000 
#    0.000    0.000    0.000    0.000    0.000    0.000 
#
# Total GULP energy -78092.221502 kJ/mol
# GULP energy per Si atom -5578.015822 kJ/mol
# Density = 2.559454 g / cm^3
# Si number density = 25.652932 Si / 1000 Ang^3
#
#
#
# Elastic Constant Matrix: (Units=GPa)
#
#
# Indices 1 2 3 4 5 6 
#
# 1 75.4689 1.5068 8.5154 0.0000 28.9515 0.0000
# 2 1.5068 49.8673 20.2551 0.0000 12.7896 0.0000
# 3 8.5154 20.2551 74.4330 0.0000 6.5926 0.0000
# 4 0.0000 0.0000 0.0000 33.6846 0.0000 5.5053
# 5 28.9515 12.7896 6.5926 0.0000 52.0253 0.0000
# 6 0.0000 0.0000 0.0000 5.5053 0.0000 15.2510
#
#
#
# Elastic Compliance Matrix: (Units=1/GPa)
#
#
# Indices 1 2 3 4 5 6 
#
# 1 0.017264 0.002810 -0.001848 0.000000 -0.010064 0.000000
# 2 0.002810 0.024264 -0.006329 0.000000 -0.006727 0.000000
# 3 -0.001848 -0.006329 0.015311 0.000000 0.000644 0.000000
# 4 0.000000 0.000000 0.000000 0.031548 0.000000 -0.011388
# 5 -0.010064 -0.006727 0.000644 0.000000 0.026394 0.000000
# 6 0.000000 0.000000 0.000000 -0.011388 0.000000 0.069680
#
#
# Mechanical properties :
#
#
# Convention : Reuss Voigt Hill
#
# Bulk Modulus (GPa) = 21.68935 28.92486 25.30711
# Shear Modulus (GPa) = 23.74579 31.49165 27.61872
#
# Velocity S-wave (km/s) = 3.04576 3.50752 3.28476
# Velocity P-wave (km/s) = 4.56532 5.26341 4.92675
#
# Compressibility (1/GPa) = 0.04610557
#
# Stress axis : x y z
#
# Youngs Moduli (GPa) = 57.92552 41.21318 65.31045
#
# Poissons Ratio (x) = -0.11582 0.12072
# Poissons Ratio (y) = -0.16278 0.41332
# Poissons Ratio (z) = 0.10707 0.26082
#
# Static dielectric constant tensor:
#      x y z
#    x 2.094350 0.000000 -0.004130 
#    y 0.000000 2.041540 0.000000 
#    z -0.004130 0.000000 2.008920 
# 
# From -- ./inp_files/10542.got.cif
#   From: 2010.05.17/outbox.cif.g08.bks.cpg/sg4_6_cif.got.tgz:10542.got - 2010.06.03 18:43:04.
