data_PCOD9116242
_publ_section_title
;
Structure prediction by ZEFSAII (Michael W. Deem and Ramdas Pophale) SiO2 
 PCOD9116242
Probable space group: P 21
;
_chemical_formula_sum "Si O2"
_cell_formula_units_Z 16
_cell_length_a 11.178589
_cell_length_b 8.750650
_cell_length_c 14.861530
_cell_angle_alpha 90.000000
_cell_angle_beta 150.125808
_cell_angle_gamma 90.000000
_cell_volume 724.110647
_symmetry_space_group_name_H-M "P 21"
_symmetry_group_IT_number 4
_symmetry_cell_setting 'monoclinic'
loop_
_space_group_symop_operation_xyz
x,y,z
-x,1/2+y,-z
loop_
_atom_site_type_symbol
_atom_site_label
_atom_site_fract_x
_atom_site_fract_y
_atom_site_fract_z
Si Si1 0.703298 0.785550 0.793666
Si Si2 0.965199 0.481803 0.552683
Si Si3 0.183561 0.977657 0.747584
Si Si4 0.856775 0.303179 0.811027
Si Si5 0.327447 0.647464 0.908485
Si Si6 0.903098 0.627486 0.771175
Si Si7 0.194117 0.695701 0.426769
Si Si8 0.542524 0.613119 0.371039
O O1 0.850755 0.774842 0.796792
O O2 0.469971 0.679059 0.635363
O O3 0.602302 0.956370 0.737953
O O4 0.885752 0.741443 0.990355
O O5 0.929961 0.450700 0.425007
O O6 0.908752 0.331683 0.576270
O O7 0.758275 0.608491 0.440367
O O8 0.214602 0.548221 0.752609
O O9 0.969663 0.048231 0.667279
O O10 0.294075 0.821850 0.857387
O O11 0.404710 0.097079 0.892904
O O12 0.885160 0.484517 0.825970
O O13 0.805117 0.249600 0.675892
O O14 0.649873 0.246416 0.743194
O O15 0.150500 0.622085 0.878110
O O16 0.690002 0.609033 0.560389
#
# Coordination Sequence:
#
# PCOD9116242 Si02
#       8
#     2   2   2   2   2   2   2   2
#     4  11  24  39  69  98 132 177 222 272 340 414
#     4  10  23  46  71  97 133 183 229 280 343 402
#     4  12  27  44  72  96 140 180 233 284 334 415
#     4  12  23  40  68  99 137 176 217 277 341 407
#     4  11  26  44  70 101 133 183 228 284 341 399
#     4  11  22  44  66  96 139 174 220 279 339 401
#     4  11  24  44  66  99 137 179 221 289 342 396
#     4  10  21  41  66  98 135 172 216 277 340 402
#
# _framework density 22.096070999999998
#
# number of rings (size 3 to 8) (size 9 to 14) (size 15 to 20)
#    0.000    1.000    5.000    2.250    7.000    3.000 
#    0.000    0.000    0.000    0.000    0.000    0.000 
#    0.000    0.000    0.000    0.000    0.000    0.000 
#
# Total GULP energy -89455.084479 kJ/mol
# GULP energy per Si atom -5590.942780 kJ/mol
# Density = 2.204578 g / cm^3
# Si number density = 22.096071 Si / 1000 Ang^3
#
#
#
# Elastic Constant Matrix: (Units=GPa)
#
#
# Indices 1 2 3 4 5 6 
#
# 1 30.1635 8.8118 4.7842 0.0000 6.1489 0.0000
# 2 8.8118 38.9995 2.4679 0.0000 -3.9005 0.0000
# 3 4.7842 2.4679 102.2704 0.0000 19.2612 0.0000
# 4 0.0000 0.0000 0.0000 28.0675 0.0000 10.5553
# 5 6.1489 -3.9005 19.2612 0.0000 19.9436 0.0000
# 6 0.0000 0.0000 0.0000 10.5553 0.0000 29.7105
#
#
#
# Elastic Compliance Matrix: (Units=1/GPa)
#
#
# Indices 1 2 3 4 5 6 
#
# 1 0.039138 -0.010466 0.001320 0.000000 -0.015388 0.000000
# 2 -0.010466 0.029273 -0.002326 0.000000 0.011198 0.000000
# 3 0.001320 -0.002326 0.012143 0.000000 -0.012590 0.000000
# 4 0.000000 0.000000 0.000000 0.041123 0.000000 -0.014610
# 5 -0.015388 0.011198 -0.012590 0.000000 0.069235 0.000000
# 6 0.000000 0.000000 0.000000 -0.014610 0.000000 0.038849
#
#
# Mechanical properties :
#
#
# Convention : Reuss Voigt Hill
#
# Bulk Modulus (GPa) = 17.35772 22.61791 19.98782
# Shear Modulus (GPa) = 18.38864 25.90229 22.14547
#
# Velocity S-wave (km/s) = 2.88794 3.42754 3.16924
# Velocity P-wave (km/s) = 4.35808 5.09141 4.73895
#
# Compressibility (1/GPa) = 0.05761126
#
# Stress axis : x y z
#
# Youngs Moduli (GPa) = 25.55086 34.16102 82.34859
#
# Poissons Ratio (x) = 0.35751 -0.10869
# Poissons Ratio (y) = 0.26740 0.19153
# Poissons Ratio (z) = -0.03372 0.07945
#
# Static dielectric constant tensor:
#      x y z
#    x 1.812860 0.000000 0.004550 
#    y 0.000000 1.837110 0.000000 
#    z 0.004550 0.000000 1.806140 
# 
# From -- ./inp_files/11969.got.cif
#   From: 2010.05.17/outbox.cif.g08.bks.cpg/sg4_6_cif.got.tgz:11969.got - 2010.06.03 18:43:04.
