data_PCOD9116148
_publ_section_title
;
Structure prediction by ZEFSAII (Michael W. Deem and Ramdas Pophale) SiO2 
 PCOD9116148
Probable space group: P 21
;
_chemical_formula_sum "Si O2"
_cell_formula_units_Z 12
_cell_length_a 10.410472
_cell_length_b 9.294681
_cell_length_c 10.229197
_cell_angle_alpha 90.000000
_cell_angle_beta 144.435855
_cell_angle_gamma 90.000000
_cell_volume 575.680242
_symmetry_space_group_name_H-M "P 21"
_symmetry_group_IT_number 4
_symmetry_cell_setting 'monoclinic'
loop_
_space_group_symop_operation_xyz
x,y,z
-x,1/2+y,-z
loop_
_atom_site_type_symbol
_atom_site_label
_atom_site_fract_x
_atom_site_fract_y
_atom_site_fract_z
Si Si1 0.013864 0.674190 0.500670
Si Si2 0.046708 0.470576 0.179363
Si Si3 0.183160 0.278899 0.054502
Si Si4 0.765148 0.917748 0.187592
Si Si5 0.394756 0.628231 0.622424
Si Si6 0.688842 0.467355 0.081156
O O1 0.893596 0.827798 0.407425
O O2 0.818074 0.573822 0.283943
O O3 0.145846 0.581545 0.718544
O O4 0.191321 0.696570 0.531792
O O5 0.073403 0.375704 0.073938
O O6 0.283799 0.509570 0.438009
O O7 0.880313 0.399589 0.148422
O O8 0.944161 0.627177 0.061526
O O9 0.437138 0.240384 0.302234
O O10 0.184391 0.357800 0.914714
O O11 0.503762 0.891028 0.996265
O O12 0.541203 0.552824 0.854302
#
# Coordination Sequence:
#
# PCOD9116148 Si02
#       6
#     2   2   2   2   2   2
#     4  10  21  40  66  95 128 166 209 267 321 377
#     4  10  22  44  66  90 131 170 211 269 319 381
#     4  11  23  43  66  93 130 172 212 265 321 383
#     4  11  22  40  69  94 128 171 212 264 323 379
#     4   9  18  40  63  84 126 170 206 253 323 365
#     4   9  20  39  64  88 127 167 208 258 321 369
#
# _framework density 20.844906000000002
#
# number of rings (size 3 to 8) (size 9 to 14) (size 15 to 20)
#    0.000    2.000    5.000    0.000    2.333    2.667 
#   12.000    0.000    0.000    0.000    0.000    0.000 
#    0.000    0.000    0.000    0.000    0.000    0.000 
#
# Total GULP energy -66852.098396 kJ/mol
# GULP energy per Si atom -5571.008200 kJ/mol
# Density = 2.079746 g / cm^3
# Si number density = 20.844906 Si / 1000 Ang^3
#
#
#
# Elastic Constant Matrix: (Units=GPa)
#
#
# Indices 1 2 3 4 5 6 
#
# 1 71.4139 23.7853 27.3695 0.0000 5.5279 0.0000
# 2 23.7853 60.8031 26.0199 0.0000 2.4062 0.0000
# 3 27.3695 26.0199 97.5937 0.0000 8.6464 0.0000
# 4 0.0000 0.0000 0.0000 38.9623 0.0000 -2.2687
# 5 5.5279 2.4062 8.6464 0.0000 17.7426 0.0000
# 6 0.0000 0.0000 0.0000 -2.2687 0.0000 31.9635
#
#
#
# Elastic Compliance Matrix: (Units=1/GPa)
#
#
# Indices 1 2 3 4 5 6 
#
# 1 0.017201 -0.005259 -0.003146 0.000000 -0.003113 0.000000
# 2 -0.005259 0.020173 -0.003978 0.000000 0.000841 0.000000
# 3 -0.003146 -0.003978 0.012599 0.000000 -0.004620 0.000000
# 4 0.000000 0.000000 0.000000 0.025772 0.000000 0.001829
# 5 -0.003113 0.000841 -0.004620 0.000000 0.059469 0.000000
# 6 0.000000 0.000000 0.000000 0.001829 0.000000 0.031416
#
#
# Mechanical properties :
#
#
# Convention : Reuss Voigt Hill
#
# Bulk Modulus (GPa) = 39.67272 42.68446 41.17859
# Shear Modulus (GPa) = 25.02520 27.90939 26.46730
#
# Velocity S-wave (km/s) = 3.46864 3.66308 3.56719
# Velocity P-wave (km/s) = 5.92585 6.19778 6.06334
#
# Compressibility (1/GPa) = 0.02520624
#
# Stress axis : x y z
#
# Youngs Moduli (GPa) = 58.13535 49.57129 79.37306
#
# Poissons Ratio (x) = 0.26072 0.24970
# Poissons Ratio (y) = 0.30576 0.31575
# Poissons Ratio (z) = 0.18289 0.19719
#
# Static dielectric constant tensor:
#      x y z
#    x 1.769120 0.000000 0.036070 
#    y 0.000000 1.800700 0.000000 
#    z 0.036070 0.000000 1.787950 
# 
# From -- ./inp_files/1242.got.cif
#   From: 2010.05.17/outbox.cif.g08.bks.cpg/sg4_1_cif.got.tgz:1242.got - 2010.06.03 18:43:04.
