data_PCOD9116322
_publ_section_title
;
Structure prediction by ZEFSAII (Michael W. Deem and Ramdas Pophale) SiO2 
 PCOD9116322
Probable space group: P 21
;
_chemical_formula_sum "Si O2"
_cell_formula_units_Z 16
_cell_length_a 5.250805
_cell_length_b 10.884222
_cell_length_c 11.675832
_cell_angle_alpha 90.000000
_cell_angle_beta 89.573449
_cell_angle_gamma 90.000000
_cell_volume 667.266134
_symmetry_space_group_name_H-M "P 21"
_symmetry_group_IT_number 4
_symmetry_cell_setting 'monoclinic'
loop_
_space_group_symop_operation_xyz
x,y,z
-x,1/2+y,-z
loop_
_atom_site_type_symbol
_atom_site_label
_atom_site_fract_x
_atom_site_fract_y
_atom_site_fract_z
Si Si1 0.808853 0.285400 0.589006
Si Si2 0.104145 0.270028 0.914329
Si Si3 0.651359 0.035090 0.638730
Si Si4 0.747627 0.685437 0.837609
Si Si5 0.707037 0.732605 0.324084
Si Si6 0.394845 0.923366 0.832502
Si Si7 0.012529 0.831429 0.652120
Si Si8 0.610171 0.425615 0.910205
O O1 0.854060 0.138623 0.607596
O O2 0.557344 0.310120 0.662242
O O3 0.800977 0.309107 0.454632
O O4 0.077078 0.327461 0.636412
O O5 0.206112 0.195016 0.803901
O O6 0.321049 0.376883 0.913955
O O7 0.823676 0.321483 0.888388
O O8 0.109379 0.211223 0.041232
O O9 0.395837 0.111546 0.605194
O O10 0.602722 0.011414 0.773216
O O11 0.767604 0.905238 0.603709
O O12 0.523308 0.787573 0.837637
O O13 0.647970 0.547500 0.836944
O O14 0.915148 0.715721 0.725066
O O15 0.161217 0.910629 0.746322
O O16 0.328409 0.962892 0.958726
#
# Coordination Sequence:
#
# PCOD9116322 Si02
#       8
#     2   2   2   2   2   2   2   2
#     4  10  24  42  66  96 130 176 228 277 336 393
#     4  11  23  44  65  96 137 170 228 274 341 403
#     4   9  22  38  68  92 126 178 228 269 330 392
#     4  10  24  40  66  98 132 180 212 290 335 410
#     4  10  22  45  64  98 129 179 222 283 331 399
#     4  10  21  42  66  97 138 175 230 273 339 413
#     4  11  22  44  66 101 136 175 231 281 339 410
#     4  11  24  41  65 102 132 179 219 275 351 402
#
# _framework density 23.978439000000002
#
# number of rings (size 3 to 8) (size 9 to 14) (size 15 to 20)
#    0.750    1.000    1.250    2.250    5.250    0.000 
#    4.500    0.000    0.000    0.000    0.000    0.000 
#    0.000    0.000    0.000    0.000    0.000    0.000 
#
# Total GULP energy -89101.948181 kJ/mol
# GULP energy per Si atom -5568.871761 kJ/mol
# Density = 2.392386 g / cm^3
# Si number density = 23.978439 Si / 1000 Ang^3
#
#
#
# Elastic Constant Matrix: (Units=GPa)
#
#
# Indices 1 2 3 4 5 6 
#
# 1 88.0960 -18.4165 11.2061 0.0000 -2.8341 0.0000
# 2 -18.4165 37.1131 -14.3134 0.0000 -0.3153 0.0000
# 3 11.2061 -14.3134 72.5913 0.0000 -15.6667 0.0000
# 4 0.0000 0.0000 0.0000 11.9939 0.0000 -15.9065
# 5 -2.8341 -0.3153 -15.6667 0.0000 31.4516 0.0000
# 6 0.0000 0.0000 0.0000 -15.9065 0.0000 20.5674
#
#
#
# Elastic Compliance Matrix: (Units=1/GPa)
#
#
# Indices 1 2 3 4 5 6 
#
# 1 0.012729 0.006109 -0.000560 0.000000 0.000929 0.000000
# 2 0.006109 0.032449 0.006324 0.000000 0.004026 0.000000
# 3 -0.000560 0.006324 0.016932 0.000000 0.008447 0.000000
# 4 0.000000 0.000000 0.000000 -3.247017 0.000000 -2.511196
# 5 0.000929 0.004026 0.008447 0.000000 0.036127 0.000000
# 6 0.000000 0.000000 0.000000 -2.511196 0.000000 -1.893503
#
#
# Mechanical properties :
#
#
# Convention : Reuss Voigt Hill
#
# Bulk Modulus (GPa) = 11.64738 17.19474 14.42106
# Shear Modulus (GPa) = -0.99257 27.42420 13.21581
#
# Velocity S-wave (km/s) = -0.64408 3.38554 2.35021
# Velocity P-wave (km/s) = 2.07722 4.74014 3.65950
#
# Compressibility (1/GPa) = 0.08585624
#
# Stress axis : x y z
#
# Youngs Moduli (GPa) = 78.55843 30.81744 59.05874
#
# Poissons Ratio (x) = -0.18825 0.03307
# Poissons Ratio (y) = -0.47988 -0.37350
# Poissons Ratio (z) = 0.04399 -0.19489
#
# Static dielectric constant tensor:
#      x y z
#    x 2.111070 0.000000 0.087890 
#    y 0.000000 1.967170 0.000000 
#    z 0.087890 0.000000 1.934490 
# 
# From -- ./inp_files/10458.got.cif
#   From: 2010.05.17/outbox.cif.g08.bks.cpg/sg4_6_cif.got.tgz:10458.got - 2010.06.03 18:43:04.
