data_PCOD9116649
_publ_section_title
;
Structure prediction by ZEFSAII (Michael W. Deem and Ramdas Pophale) SiO2 
 PCOD9116649
Probable space group: P 21
;
_chemical_formula_sum "Si O2"
_cell_formula_units_Z 16
_cell_length_a 5.439411
_cell_length_b 9.104868
_cell_length_c 13.953712
_cell_angle_alpha 90.000000
_cell_angle_beta 76.421785
_cell_angle_gamma 90.000000
_cell_volume 671.744376
_symmetry_space_group_name_H-M "P 21"
_symmetry_group_IT_number 4
_symmetry_cell_setting 'monoclinic'
loop_
_space_group_symop_operation_xyz
x,y,z
-x,1/2+y,-z
loop_
_atom_site_type_symbol
_atom_site_label
_atom_site_fract_x
_atom_site_fract_y
_atom_site_fract_z
Si Si1 0.973429 0.626700 0.578985
Si Si2 0.067339 0.217626 0.921345
Si Si3 0.570346 0.382583 0.904323
Si Si4 0.859278 0.343089 0.284722
Si Si5 0.840607 0.897461 0.910152
Si Si6 0.656470 0.919570 0.395746
Si Si7 0.502832 0.115774 0.244185
Si Si8 0.307129 0.096690 0.576770
O O1 0.144898 0.746702 0.617092
O O2 0.064425 0.462548 0.593958
O O3 0.719485 0.651729 0.661446
O O4 0.929483 0.635265 0.470746
O O5 0.845429 0.309282 0.887587
O O6 0.356316 0.273651 0.876257
O O7 0.996828 0.047751 0.914381
O O8 0.047340 0.267222 0.034226
O O9 0.578298 0.535792 0.845412
O O10 0.440409 0.415263 0.019955
O O11 0.679852 0.256998 0.227838
O O12 0.766192 0.500879 0.325986
O O13 0.123056 0.358932 0.204078
O O14 0.583980 0.751775 0.402707
O O15 0.645169 0.989184 0.292099
O O16 0.488881 0.005127 0.490003
#
# Coordination Sequence:
#
# PCOD9116649 Si02
#       8
#     2   2   2   2   2   2   2   2
#     4  10  22  40  64  94 129 175 225 281 356 418
#     4  10  25  44  70 101 142 191 232 293 351 414
#     4  10  25  42  73  99 147 187 234 290 354 414
#     4  11  24  42  67  99 135 178 236 287 353 423
#     4  10  25  43  69 101 141 186 240 294 348 425
#     4  10  22  39  63  89 131 165 225 277 351 420
#     4  10  23  42  65  96 129 185 224 292 346 420
#     4  11  22  40  65  95 130 173 220 290 349 430
#
# _framework density 23.818584999999999
#
# number of rings (size 3 to 8) (size 9 to 14) (size 15 to 20)
#    0.750    1.000    0.000    3.750    7.000    3.000 
#    0.000    1.250    0.000    0.000    0.000    0.000 
#    0.000    0.000    0.000    0.000    0.000    0.000 
#
# Total GULP energy -89266.997725 kJ/mol
# GULP energy per Si atom -5579.187358 kJ/mol
# Density = 2.376437 g / cm^3
# Si number density = 23.818585 Si / 1000 Ang^3
#
#
#
# Elastic Constant Matrix: (Units=GPa)
#
#
# Indices 1 2 3 4 5 6 
#
# 1 59.1283 -2.0422 0.7123 0.0000 7.1788 0.0000
# 2 -2.0422 109.1152 25.5902 0.0000 11.3442 0.0000
# 3 0.7123 25.5902 78.1757 0.0000 7.6488 0.0000
# 4 0.0000 0.0000 0.0000 29.1192 0.0000 -0.6906
# 5 7.1788 11.3442 7.6488 0.0000 14.5320 0.0000
# 6 0.0000 0.0000 0.0000 -0.6906 0.0000 18.9804
#
#
#
# Elastic Compliance Matrix: (Units=1/GPa)
#
#
# Indices 1 2 3 4 5 6 
#
# 1 0.018194 0.001308 0.000406 0.000000 -0.010223 0.000000
# 2 0.001308 0.010613 -0.002754 0.000000 -0.007481 0.000000
# 3 0.000406 -0.002754 0.014232 0.000000 -0.005542 0.000000
# 4 0.000000 0.000000 0.000000 0.034371 0.000000 0.001251
# 5 -0.010223 -0.007481 -0.005542 0.000000 0.082621 0.000000
# 6 0.000000 0.000000 0.000000 0.001251 0.000000 0.052731
#
#
# Mechanical properties :
#
#
# Convention : Reuss Voigt Hill
#
# Bulk Modulus (GPa) = 24.41469 32.77109 28.59289
# Shear Modulus (GPa) = 21.88240 27.33692 24.60966
#
# Velocity S-wave (km/s) = 3.03431 3.39147 3.21785
# Velocity P-wave (km/s) = 4.74854 5.39672 5.08297
#
# Compressibility (1/GPa) = 0.04095894
#
# Stress axis : x y z
#
# Youngs Moduli (GPa) = 54.96381 94.22602 70.26585
#
# Poissons Ratio (x) = -0.12325 -0.02854
# Poissons Ratio (y) = -0.07190 0.19351
# Poissons Ratio (z) = -0.02233 0.25949
#
# Static dielectric constant tensor:
#      x y z
#    x 2.047640 0.000000 0.009690 
#    y 0.000000 1.957060 0.000000 
#    z 0.009690 0.000000 1.902860 
# 
# From -- ./inp_files/13254.got.cif
#   From: 2010.05.17/outbox.cif.g08.bks.cpg/sg4_7_cif.got.tgz:13254.got - 2010.06.03 18:43:04.
