data_PCOD9116605
_publ_section_title
;
Structure prediction by ZEFSAII (Michael W. Deem and Ramdas Pophale) SiO2 
 PCOD9116605
Probable space group: P 21
;
_chemical_formula_sum "Si O2"
_cell_formula_units_Z 16
_cell_length_a 5.446235
_cell_length_b 8.679547
_cell_length_c 17.726066
_cell_angle_alpha 90.000000
_cell_angle_beta 50.474922
_cell_angle_gamma 90.000000
_cell_volume 646.331150
_symmetry_space_group_name_H-M "P 21"
_symmetry_group_IT_number 4
_symmetry_cell_setting 'monoclinic'
loop_
_space_group_symop_operation_xyz
x,y,z
-x,1/2+y,-z
loop_
_atom_site_type_symbol
_atom_site_label
_atom_site_fract_x
_atom_site_fract_y
_atom_site_fract_z
Si Si1 0.343646 0.699930 0.280089
Si Si2 0.398877 0.247706 0.924398
Si Si3 0.676513 0.438570 0.265908
Si Si4 0.212842 0.930356 0.024741
Si Si5 0.262981 0.974546 0.584127
Si Si6 0.853908 0.693593 0.670652
Si Si7 0.388779 0.974206 0.386382
Si Si8 0.017188 0.138952 0.202279
O O1 0.359328 0.771500 0.193575
O O2 0.660699 0.592833 0.221376
O O3 0.359724 0.817339 0.346055
O O4 0.031830 0.593997 0.351524
O O5 0.551263 0.320930 0.971478
O O6 0.064423 0.332221 0.964505
O O7 0.367163 0.061844 0.941093
O O8 0.564659 0.496936 0.370332
O O9 0.407212 0.322657 0.291999
O O10 0.978918 0.325260 0.202253
O O11 0.080041 0.047143 0.114832
O O12 0.395940 0.975988 0.474406
O O13 0.167270 0.795429 0.614200
O O14 0.888747 0.579065 0.594653
O O15 0.757555 0.618558 0.769062
O O16 0.697493 0.061485 0.296114
#
# Coordination Sequence:
#
# PCOD9116605 Si02
#       8
#     2   2   2   2   2   2   2   2
#     4  11  24  41  68 103 147 186 250 303 376 444
#     4  12  29  51  81 118 155 202 256 323 391 463
#     4   9  22  38  60  95 132 187 233 299 364 437
#     4  12  28  52  80 117 152 201 255 321 392 463
#     4  10  22  38  62  96 139 190 237 302 363 443
#     4   9  20  39  57  88 127 180 236 286 363 425
#     4  11  21  38  63  97 138 187 240 301 360 447
#     4  10  22  41  69  94 138 183 247 295 381 440
#
# _framework density 24.755112
#
# number of rings (size 3 to 8) (size 9 to 14) (size 15 to 20)
#    0.000    1.500    1.250    2.250    5.250    9.000 
#    0.000    0.000    0.000    0.000    0.000    0.000 
#    0.000    0.000    0.000    0.000    0.000    0.000 
#
# Total GULP energy -89253.531172 kJ/mol
# GULP energy per Si atom -5578.345698 kJ/mol
# Density = 2.469877 g / cm^3
# Si number density = 24.755112 Si / 1000 Ang^3
#
#
#
# Elastic Constant Matrix: (Units=GPa)
#
#
# Indices 1 2 3 4 5 6 
#
# 1 98.9484 29.3992 9.3814 0.0000 26.3269 0.0000
# 2 29.3992 114.3829 5.7777 0.0000 -1.1382 0.0000
# 3 9.3814 5.7777 84.9355 0.0000 18.3134 0.0000
# 4 0.0000 0.0000 0.0000 30.4883 0.0000 13.6623
# 5 26.3269 -1.1382 18.3134 0.0000 27.0881 0.0000
# 6 0.0000 0.0000 0.0000 13.6623 0.0000 47.7473
#
#
#
# Elastic Compliance Matrix: (Units=1/GPa)
#
#
# Indices 1 2 3 4 5 6 
#
# 1 0.015676 -0.004309 0.002208 0.000000 -0.016909 0.000000
# 2 -0.004309 0.009976 -0.001400 0.000000 0.005554 0.000000
# 3 0.002208 -0.001400 0.014165 0.000000 -0.011781 0.000000
# 4 0.000000 0.000000 0.000000 0.037624 0.000000 -0.010765
# 5 -0.016909 0.005554 -0.011781 0.000000 0.061549 0.000000
# 6 0.000000 0.000000 0.000000 -0.010765 0.000000 0.024024
#
#
# Mechanical properties :
#
#
# Convention : Reuss Voigt Hill
#
# Bulk Modulus (GPa) = 30.47446 43.04260 36.75853
# Shear Modulus (GPa) = 27.63117 37.97865 32.80491
#
# Velocity S-wave (km/s) = 3.34455 3.92110 3.64425
# Velocity P-wave (km/s) = 5.22033 6.15834 5.70863
#
# Compressibility (1/GPa) = 0.03281436
#
# Stress axis : x y z
#
# Youngs Moduli (GPa) = 63.79099 100.24005 70.59544
#
# Poissons Ratio (x) = 0.43193 -0.15584
# Poissons Ratio (y) = 0.27487 0.09884
# Poissons Ratio (z) = -0.14082 0.14035
#
# Static dielectric constant tensor:
#      x y z
#    x 2.280310 0.000000 0.009440 
#    y 0.000000 1.984530 0.000000 
#    z 0.009440 0.000000 2.081500 
# 
# From -- ./inp_files/3450.got.cif
#   From: 2010.05.17/outbox.cif.g08.bks.cpg/sg4_2_cif.got.tgz:3450.got - 2010.06.03 18:43:04.
