data_PCOD9116035
_publ_section_title
;
Structure prediction by ZEFSAII (Michael W. Deem and Ramdas Pophale) SiO2 
 PCOD9116035
Probable space group: P 21
;
_chemical_formula_sum "Si O2"
_cell_formula_units_Z 16
_cell_length_a 12.987545
_cell_length_b 7.254018
_cell_length_c 9.109959
_cell_angle_alpha 90.000000
_cell_angle_beta 63.254097
_cell_angle_gamma 90.000000
_cell_volume 766.441455
_symmetry_space_group_name_H-M "P 21"
_symmetry_group_IT_number 4
_symmetry_cell_setting 'monoclinic'
loop_
_space_group_symop_operation_xyz
x,y,z
-x,1/2+y,-z
loop_
_atom_site_type_symbol
_atom_site_label
_atom_site_fract_x
_atom_site_fract_y
_atom_site_fract_z
Si Si1 0.878962 0.227570 0.851321
Si Si2 0.500051 0.099554 0.887856
Si Si3 0.305363 0.998071 0.517947
Si Si4 0.725685 0.508651 0.117074
Si Si5 0.251980 0.638608 0.358353
Si Si6 0.783556 0.934214 0.109338
Si Si7 0.529691 0.018569 0.200146
Si Si8 0.862742 0.840136 0.381399
O O1 0.795301 0.211240 0.765535
O O2 0.005757 0.279347 0.717887
O O3 0.826614 0.381502 0.991967
O O4 0.872573 0.037567 0.946563
O O5 0.391557 0.984175 0.900512
O O6 0.625359 0.038967 0.750174
O O7 0.483096 0.301978 0.830847
O O8 0.503394 0.112333 0.061267
O O9 0.272164 0.810905 0.454104
O O10 0.432496 0.059515 0.382576
O O11 0.301199 0.972461 0.695369
O O12 0.215727 0.160758 0.539727
O O13 0.764518 0.721766 0.077127
O O14 0.162603 0.493078 0.480945
O O15 0.660752 0.038875 0.169819
O O16 0.823054 0.927717 0.251692
#
# Coordination Sequence:
#
# PCOD9116035 Si02
#       8
#     2   2   2   2   2   2   2   2
#     4  12  26  45  71  94 133 183 222 267 330 393
#     4  10  21  39  65 101 132 172 214 265 334 397
#     4  10  24  44  69 100 136 171 218 276 332 388
#     4  10  23  43  69 100 133 176 217 273 330 392
#     4  11  25  45  64 102 134 172 222 271 332 390
#     4  10  24  45  66 100 128 173 224 270 331 389
#     4  10  21  40  66 100 135 168 215 270 336 398
#     4  11  28  43  68  97 133 181 220 274 323 391
#
# _framework density 20.875696999999999
#
# number of rings (size 3 to 8) (size 9 to 14) (size 15 to 20)
#    0.000    1.500    1.250    2.250    8.750    2.000 
#    2.250    0.000    0.000    0.000    0.000    0.000 
#    0.000    0.000    0.000    0.000    0.000    0.000 
#
# Total GULP energy -89500.714568 kJ/mol
# GULP energy per Si atom -5593.794660 kJ/mol
# Density = 2.082818 g / cm^3
# Si number density = 20.875697 Si / 1000 Ang^3
#
#
#
# Elastic Constant Matrix: (Units=GPa)
#
#
# Indices 1 2 3 4 5 6 
#
# 1 28.5145 8.4305 9.2675 0.0000 -10.1425 0.0000
# 2 8.4305 60.8932 45.7745 0.0000 2.2302 0.0000
# 3 9.2675 45.7745 74.0520 0.0000 -17.0903 0.0000
# 4 0.0000 0.0000 0.0000 32.0382 0.0000 -12.4489
# 5 -10.1425 2.2302 -17.0903 0.0000 32.3942 0.0000
# 6 0.0000 0.0000 0.0000 -12.4489 0.0000 11.8031
#
#
#
# Elastic Compliance Matrix: (Units=1/GPa)
#
#
# Indices 1 2 3 4 5 6 
#
# 1 0.042330 -0.009936 0.004624 0.000000 0.016377 0.000000
# 2 -0.009936 0.039584 -0.027979 0.000000 -0.020597 0.000000
# 3 0.004624 -0.027979 0.035296 0.000000 0.021995 0.000000
# 4 0.000000 0.000000 0.000000 0.052887 0.000000 0.055781
# 5 0.016377 -0.020597 0.021995 0.000000 0.049019 0.000000
# 6 0.000000 0.000000 0.000000 0.055781 0.000000 0.143557
#
#
# Mechanical properties :
#
#
# Convention : Reuss Voigt Hill
#
# Bulk Modulus (GPa) = 19.75157 32.26718 26.00938
# Shear Modulus (GPa) = 11.20745 21.91291 16.56018
#
# Velocity S-wave (km/s) = 2.31955 3.24340 2.81957
# Velocity P-wave (km/s) = 4.08115 5.43291 4.80481
#
# Compressibility (1/GPa) = 0.05062888
#
# Stress axis : x y z
#
# Youngs Moduli (GPa) = 23.62390 25.26251 28.33152
#
# Poissons Ratio (x) = 0.25102 -0.13101
# Poissons Ratio (y) = 0.23474 0.79268
# Poissons Ratio (z) = -0.10924 0.70681
#
# Static dielectric constant tensor:
#      x y z
#    x 1.736400 0.000000 -0.007910 
#    y 0.000000 1.777720 0.000000 
#    z -0.007910 0.000000 1.707450 
# 
# From -- ./inp_files/7668.got.cif
#   From: 2010.05.17/outbox.cif.g08.bks.cpg/sg4_4_cif.got.tgz:7668.got - 2010.06.03 18:43:04.
