data_PCOD9116254
_publ_section_title
;
Structure prediction by ZEFSAII (Michael W. Deem and Ramdas Pophale) SiO2 
 PCOD9116254
Probable space group: P 21
;
_chemical_formula_sum "Si O2"
_cell_formula_units_Z 16
_cell_length_a 6.568690
_cell_length_b 14.797080
_cell_length_c 8.503654
_cell_angle_alpha 90.000000
_cell_angle_beta 59.471729
_cell_angle_gamma 90.000000
_cell_volume 711.958140
_symmetry_space_group_name_H-M "P 21"
_symmetry_group_IT_number 4
_symmetry_cell_setting 'monoclinic'
loop_
_space_group_symop_operation_xyz
x,y,z
-x,1/2+y,-z
loop_
_atom_site_type_symbol
_atom_site_label
_atom_site_fract_x
_atom_site_fract_y
_atom_site_fract_z
Si Si1 0.458795 0.890370 0.619912
Si Si2 0.126634 0.728376 0.724093
Si Si3 0.294216 0.604495 0.911180
Si Si4 0.419241 0.232145 0.978613
Si Si5 0.433521 0.917337 0.248235
Si Si6 0.157671 0.050076 0.723736
Si Si7 0.918810 0.960567 0.521778
Si Si8 0.596679 0.135004 0.602032
O O1 0.282524 0.810050 0.725513
O O2 0.480700 0.902044 0.419373
O O3 0.720090 0.883369 0.589634
O O4 0.325082 0.977735 0.744661
O O5 0.219016 0.637341 0.769384
O O6 0.222500 0.715771 0.510309
O O7 0.853958 0.738198 0.865363
O O8 0.426950 0.508540 0.854690
O O9 0.443254 0.684344 0.932988
O O10 0.048217 0.595992 0.100396
O O11 0.493079 0.330703 0.883840
O O12 0.476347 0.162462 0.813759
O O13 0.153885 0.936236 0.334593
O O14 0.360756 0.119815 0.586712
O O15 0.025349 0.989330 0.646958
O O16 0.767293 0.048342 0.534037
#
# Coordination Sequence:
#
# PCOD9116254 Si02
#       8
#     2   2   2   2   2   2   2   2
#     4  10  23  42  69 100 135 192 234 293 365 426
#     4  12  25  43  68 102 139 185 242 295 357 434
#     4  12  25  43  69 108 142 187 241 303 361 428
#     4  12  26  46  72 108 144 193 241 303 361 433
#     4  11  25  46  68 106 149 186 244 304 358 430
#     4  10  21  41  67  95 139 176 228 296 348 427
#     4  10  21  42  70  97 132 189 230 286 363 426
#     4  11  22  45  71  96 142 188 234 288 367 422
#
# _framework density 22.473230999999998
#
# number of rings (size 3 to 8) (size 9 to 14) (size 15 to 20)
#    0.000    1.000    3.750    3.750    0.000    5.000 
#    2.250    0.000    0.000    0.000    0.000    0.000 
#    0.000    0.000    0.000    0.000    0.000    0.000 
#
# Total GULP energy -89252.381502 kJ/mol
# GULP energy per Si atom -5578.273844 kJ/mol
# Density = 2.242208 g / cm^3
# Si number density = 22.473231 Si / 1000 Ang^3
#
#
#
# Elastic Constant Matrix: (Units=GPa)
#
#
# Indices 1 2 3 4 5 6 
#
# 1 111.0979 30.6311 60.7270 0.0000 -43.0691 0.0000
# 2 30.6311 89.8220 35.9134 0.0000 -21.3577 0.0000
# 3 60.7270 35.9134 127.2639 0.0000 -52.1398 0.0000
# 4 0.0000 0.0000 0.0000 48.2715 0.0000 -8.8530
# 5 -43.0691 -21.3577 -52.1398 0.0000 50.5485 0.0000
# 6 0.0000 0.0000 0.0000 -8.8530 0.0000 34.6553
#
#
#
# Elastic Compliance Matrix: (Units=1/GPa)
#
#
# Indices 1 2 3 4 5 6 
#
# 1 0.014354 -0.001717 -0.002860 0.000000 0.008555 0.000000
# 2 -0.001717 0.012997 -0.002075 0.000000 0.001888 0.000000
# 3 -0.002860 -0.002075 0.014635 0.000000 0.011782 0.000000
# 4 0.000000 0.000000 0.000000 0.021734 0.000000 0.005552
# 5 0.008555 0.001888 0.011782 0.000000 0.040023 0.000000
# 6 0.000000 0.000000 0.000000 0.005552 0.000000 0.030274
#
#
# Mechanical properties :
#
#
# Convention : Reuss Voigt Hill
#
# Bulk Modulus (GPa) = 34.86440 64.74742 49.80591
# Shear Modulus (GPa) = 31.87084 40.08920 35.98002
#
# Velocity S-wave (km/s) = 3.76994 4.22816 4.00561
# Velocity P-wave (km/s) = 5.87345 7.26016 6.60331
#
# Compressibility (1/GPa) = 0.02868255
#
# Stress axis : x y z
#
# Youngs Moduli (GPa) = 69.66577 76.93893 68.32885
#
# Poissons Ratio (x) = 0.13214 0.19542
# Poissons Ratio (y) = 0.11965 0.14176
# Poissons Ratio (z) = 0.19924 0.15962
#
# Static dielectric constant tensor:
#      x y z
#    x 1.855080 0.000000 0.031110 
#    y 0.000000 1.930630 0.000000 
#    z 0.031110 0.000000 1.947360 
# 
# From -- ./inp_files/1840.got.cif
#   From: 2010.05.17/outbox.cif.g08.bks.cpg/sg4_1_cif.got.tgz:1840.got - 2010.06.03 18:43:04.
