data_PCOD9116727
_publ_section_title
;
Structure prediction by ZEFSAII (Michael W. Deem and Ramdas Pophale) SiO2 
 PCOD9116727
Probable space group: P 21
;
_chemical_formula_sum "Si O2"
_cell_formula_units_Z 14
_cell_length_a 5.181343
_cell_length_b 12.872318
_cell_length_c 7.929333
_cell_angle_alpha 90.000000
_cell_angle_beta 92.174709
_cell_angle_gamma 90.000000
_cell_volume 528.473060
_symmetry_space_group_name_H-M "P 21"
_symmetry_group_IT_number 4
_symmetry_cell_setting 'monoclinic'
loop_
_space_group_symop_operation_xyz
x,y,z
-x,1/2+y,-z
loop_
_atom_site_type_symbol
_atom_site_label
_atom_site_fract_x
_atom_site_fract_y
_atom_site_fract_z
Si Si1 0.741867 0.430330 0.037320
Si Si2 0.711503 0.082439 0.091293
Si Si3 0.233895 0.086473 0.683057
Si Si4 0.442157 0.425562 0.487513
Si Si5 0.053644 0.997937 0.351400
Si Si6 0.428609 0.258207 0.225785
Si Si7 0.983480 0.745333 0.081143
O O1 0.490748 0.494247 0.966981
O O2 0.906061 0.361847 0.907813
O O3 0.879596 0.504903 0.178862
O O4 0.632707 0.336848 0.148187
O O5 0.990858 0.049325 0.170606
O O6 0.564607 0.146853 0.234725
O O7 0.779372 0.165406 0.947145
O O8 0.093647 0.085871 0.498948
O O9 0.192854 0.195902 0.775634
O O10 0.500293 0.024371 0.638306
O O11 0.214764 0.447068 0.608115
O O12 0.371840 0.318733 0.394162
O O13 0.709034 0.424011 0.596041
O O14 0.193559 0.250448 0.090564
#
# Coordination Sequence:
#
# PCOD9116727 Si02
#       7
#     2   2   2   2   2   2   2
#     4  10  22  40  64 102 133 178 233 290 343 415
#     4  11  25  41  68 104 141 177 236 294 347 410
#     4   9  21  40  68  93 135 177 225 282 345 411
#     4   9  22  41  69  93 137 184 223 268 355 410
#     4  10  23  43  68  95 139 181 217 284 347 410
#     4  10  22  40  68  99 136 183 235 284 347 418
#     4  11  23  39  73 100 131 184 237 292 348 416
#
# _framework density 26.491417999999999
#
# number of rings (size 3 to 8) (size 9 to 14) (size 15 to 20)
#    0.857    1.143    1.429    0.857   10.000    0.000 
#    2.571    0.000    0.000    0.000    0.000    0.000 
#    0.000    0.000    0.000    0.000    0.000    0.000 
#
# Total GULP energy -78176.692492 kJ/mol
# GULP energy per Si atom -5584.049464 kJ/mol
# Density = 2.643112 g / cm^3
# Si number density = 26.491418 Si / 1000 Ang^3
#
#
#
# Elastic Constant Matrix: (Units=GPa)
#
#
# Indices 1 2 3 4 5 6 
#
# 1 67.2535 -0.8348 -1.9835 0.0000 12.5770 0.0000
# 2 -0.8348 100.4615 17.0437 0.0000 11.0604 0.0000
# 3 -1.9835 17.0437 69.5714 0.0000 16.3537 0.0000
# 4 0.0000 0.0000 0.0000 32.8777 0.0000 -8.1598
# 5 12.5770 11.0604 16.3537 0.0000 50.6497 0.0000
# 6 0.0000 0.0000 0.0000 -8.1598 0.0000 48.2466
#
#
#
# Elastic Compliance Matrix: (Units=1/GPa)
#
#
# Indices 1 2 3 4 5 6 
#
# 1 0.015747 0.000383 0.001400 0.000000 -0.004446 0.000000
# 2 0.000383 0.010511 -0.002167 0.000000 -0.001691 0.000000
# 3 0.001400 -0.002167 0.016140 0.000000 -0.005086 0.000000
# 4 0.000000 0.000000 0.000000 0.031748 0.000000 0.005369
# 5 -0.004446 -0.001691 -0.005086 0.000000 0.022859 0.000000
# 6 0.000000 0.000000 0.000000 0.005369 0.000000 0.021635
#
#
# Mechanical properties :
#
#
# Convention : Reuss Voigt Hill
#
# Bulk Modulus (GPa) = 24.02108 29.52634 26.77371
# Shear Modulus (GPa) = 37.51400 41.22553 39.36976
#
# Velocity S-wave (km/s) = 3.76717 3.94913 3.85922
# Velocity P-wave (km/s) = 5.29238 5.65367 5.47600
#
# Compressibility (1/GPa) = 0.04163009
#
# Stress axis : x y z
#
# Youngs Moduli (GPa) = 63.50596 95.13870 61.95819
#
# Poissons Ratio (x) = -0.03641 -0.08675
# Poissons Ratio (y) = -0.02431 0.13424
# Poissons Ratio (z) = -0.08892 0.20613
#
# Static dielectric constant tensor:
#      x y z
#    x 2.096670 0.000000 -0.065900 
#    y 0.000000 2.199360 0.000000 
#    z -0.065900 0.000000 2.145850 
# 
# From -- ./inp_files/4755.got.cif
#   From: 2010.05.17/outbox.cif.g08.bks.cpg/sg4_3_cif.got.tgz:4755.got - 2010.06.03 18:43:04.
