data_PCOD9116650
_publ_section_title
;
Structure prediction by ZEFSAII (Michael W. Deem and Ramdas Pophale) SiO2 
 PCOD9116650
Probable space group: P 21
;
_chemical_formula_sum "Si O2"
_cell_formula_units_Z 14
_cell_length_a 12.759707
_cell_length_b 5.267634
_cell_length_c 9.631221
_cell_angle_alpha 90.000000
_cell_angle_beta 108.377124
_cell_angle_gamma 90.000000
_cell_volume 614.334285
_symmetry_space_group_name_H-M "P 21"
_symmetry_group_IT_number 4
_symmetry_cell_setting 'monoclinic'
loop_
_space_group_symop_operation_xyz
x,y,z
-x,1/2+y,-z
loop_
_atom_site_type_symbol
_atom_site_label
_atom_site_fract_x
_atom_site_fract_y
_atom_site_fract_z
Si Si1 0.460696 0.114920 0.298602
Si Si2 0.751577 0.689731 0.979029
Si Si3 0.848690 0.613129 0.513742
Si Si4 0.595205 0.616470 0.397660
Si Si5 0.938593 0.854413 0.835895
Si Si6 0.007372 0.279039 0.675491
Si Si7 0.159347 0.671085 0.869595
O O1 0.360510 0.133159 0.149340
O O2 0.541942 0.355560 0.322160
O O3 0.414836 0.118839 0.438048
O O4 0.526898 0.853738 0.311961
O O5 0.843586 0.766482 0.901220
O O6 0.783927 0.446632 0.088612
O O7 0.751050 0.954925 0.061792
O O8 0.723673 0.642585 0.419100
O O9 0.884511 0.778058 0.662279
O O10 0.929091 0.631061 0.416171
O O11 0.881480 0.336800 0.582853
O O12 0.050805 0.701411 0.923327
O O13 0.991841 0.124369 0.810573
O O14 0.086438 0.531067 0.719367
#
# Coordination Sequence:
#
# PCOD9116650 Si02
#       7
#     2   2   2   2   2   2   2
#     4  10  22  39  63  95 126 167 219 273 331 393
#     4  12  23  41  67  92 133 173 218 278 329 391
#     4  11  23  39  68  98 138 174 214 277 328 406
#     4  10  22  40  62  95 131 163 215 274 338 382
#     4  11  23  40  61 102 132 174 212 267 328 406
#     4  11  24  42  65 104 138 177 223 261 340 413
#     4  11  25  41  62  94 136 174 219 266 330 403
#
# _framework density 22.788896999999999
#
# number of rings (size 3 to 8) (size 9 to 14) (size 15 to 20)
#    0.000    1.143    4.286    1.714    6.000    1.143 
#    0.000    0.000    0.000    3.429    0.000    0.000 
#    0.000    0.000    0.000    0.000    0.000    0.000 
#
# Total GULP energy -77948.166112 kJ/mol
# GULP energy per Si atom -5567.726151 kJ/mol
# Density = 2.273703 g / cm^3
# Si number density = 22.788897 Si / 1000 Ang^3
#
#
#
# Elastic Constant Matrix: (Units=GPa)
#
#
# Indices 1 2 3 4 5 6 
#
# 1 39.2122 6.1630 12.0875 0.0000 14.4271 0.0000
# 2 6.1630 123.5008 19.2691 0.0000 -4.4179 0.0000
# 3 12.0875 19.2691 81.7214 0.0000 17.8218 0.0000
# 4 0.0000 0.0000 0.0000 30.1857 0.0000 14.1650
# 5 14.4271 -4.4179 17.8218 0.0000 36.4633 0.0000
# 6 0.0000 0.0000 0.0000 14.1650 0.0000 13.6503
#
#
#
# Elastic Compliance Matrix: (Units=1/GPa)
#
#
# Indices 1 2 3 4 5 6 
#
# 1 0.030486 -0.001681 -0.001610 0.000000 -0.011479 0.000000
# 2 -0.001681 0.008663 -0.002427 0.000000 0.002901 0.000000
# 3 -0.001610 -0.002427 0.014520 0.000000 -0.006754 0.000000
# 4 0.000000 0.000000 0.000000 0.064572 0.000000 -0.067006
# 5 -0.011479 0.002901 -0.006754 0.000000 0.035619 0.000000
# 6 0.000000 0.000000 0.000000 -0.067006 0.000000 0.142791
#
#
# Mechanical properties :
#
#
# Convention : Reuss Voigt Hill
#
# Bulk Modulus (GPa) = 23.67701 35.49705 29.58703
# Shear Modulus (GPa) = 15.52006 29.85417 22.68712
#
# Velocity S-wave (km/s) = 2.61250 3.62336 3.15863
# Velocity P-wave (km/s) = 4.41729 5.75459 5.12971
#
# Compressibility (1/GPa) = 0.04223506
#
# Stress axis : x y z
#
# Youngs Moduli (GPa) = 32.80188 115.42828 68.87121
#
# Poissons Ratio (x) = 0.19401 0.11085
# Poissons Ratio (y) = 0.05513 0.16713
# Poissons Ratio (z) = 0.05280 0.28011
#
# Static dielectric constant tensor:
#      x y z
#    x 1.810700 0.000000 -0.035630 
#    y 0.000000 1.967370 0.000000 
#    z -0.035630 0.000000 1.881780 
# 
# From -- ./inp_files/11541.got.cif
#   From: 2010.05.17/outbox.cif.g08.bks.cpg/sg4_6_cif.got.tgz:11541.got - 2010.06.03 18:43:04.
