data_PCOD9116040
_publ_section_title
;
Structure prediction by ZEFSAII (Michael W. Deem and Ramdas Pophale) SiO2 
 PCOD9116040
Probable space group: P 21
;
_chemical_formula_sum "Si O2"
_cell_formula_units_Z 12
_cell_length_a 13.694382
_cell_length_b 4.879057
_cell_length_c 12.667789
_cell_angle_alpha 90.000000
_cell_angle_beta 34.106594
_cell_angle_gamma 90.000000
_cell_volume 474.609324
_symmetry_space_group_name_H-M "P 21"
_symmetry_group_IT_number 4
_symmetry_cell_setting 'monoclinic'
loop_
_space_group_symop_operation_xyz
x,y,z
-x,1/2+y,-z
loop_
_atom_site_type_symbol
_atom_site_label
_atom_site_fract_x
_atom_site_fract_y
_atom_site_fract_z
Si Si1 0.012287 0.784700 0.564050
Si Si2 0.096692 0.063973 0.948408
Si Si3 0.607055 0.904025 0.432974
Si Si4 0.488927 0.671500 0.933460
Si Si5 0.646434 0.056612 0.637739
Si Si6 0.743972 0.540462 0.969324
O O1 0.192467 0.734289 0.465972
O O2 0.011635 0.582713 0.463575
O O3 0.855076 0.694109 0.781462
O O4 0.248652 0.235641 0.758028
O O5 0.144075 0.007829 0.026358
O O6 0.940429 0.282183 0.078320
O O7 0.547690 0.178116 0.425953
O O8 0.663752 0.977462 0.500472
O O9 0.635859 0.789887 0.723630
O O10 0.483519 0.883943 0.036791
O O11 0.315123 0.746391 0.024573
O O12 0.446097 0.169258 0.828491
#
# Coordination Sequence:
#
# PCOD9116040 Si02
#       6
#     2   2   2   2   2   2
#     4  12  27  47  71 107 148 186 242 305 364 436
#     4  12  27  48  75 109 151 194 245 316 375 442
#     4  12  25  48  74 110 145 191 254 307 366 448
#     4  10  21  39  65  97 131 176 230 285 346 420
#     4  10  25  46  74 107 138 195 241 299 361 445
#     4  10  25  48  73 106 141 196 240 296 370 441
#
# _framework density 25.283953
#
# number of rings (size 3 to 8) (size 9 to 14) (size 15 to 20)
#    1.000    0.000    1.667    4.000    0.000    8.000 
#    0.000    0.000    0.000    0.000    0.000    0.000 
#    0.000    0.000    0.000    0.000    0.000    0.000 
#
# Total GULP energy -67227.461994 kJ/mol
# GULP energy per Si atom -5602.288500 kJ/mol
# Density = 2.522641 g / cm^3
# Si number density = 25.283953 Si / 1000 Ang^3
#
#
#
# Elastic Constant Matrix: (Units=GPa)
#
#
# Indices 1 2 3 4 5 6 
#
# 1 181.5199 36.2355 12.1691 0.0000 2.8785 0.0000
# 2 36.2355 103.3360 2.1121 0.0000 -12.2240 0.0000
# 3 12.1691 2.1121 104.3929 0.0000 -9.7666 0.0000
# 4 0.0000 0.0000 0.0000 39.4577 0.0000 -6.4926
# 5 2.8785 -12.2240 -9.7666 0.0000 50.3189 0.0000
# 6 0.0000 0.0000 0.0000 -6.4926 0.0000 16.5928
#
#
#
# Elastic Compliance Matrix: (Units=1/GPa)
#
#
# Indices 1 2 3 4 5 6 
#
# 1 0.006018 -0.002217 -0.000753 0.000000 -0.001029 0.000000
# 2 -0.002217 0.010780 0.000303 0.000000 0.002804 0.000000
# 3 -0.000753 0.000303 0.009851 0.000000 0.002029 0.000000
# 4 0.000000 0.000000 0.000000 0.027088 0.000000 0.010599
# 5 -0.001029 0.002804 0.002029 0.000000 0.021007 0.000000
# 6 0.000000 0.000000 0.000000 0.010599 0.000000 0.064415
#
#
# Mechanical properties :
#
#
# Convention : Reuss Voigt Hill
#
# Bulk Modulus (GPa) = 46.91540 54.47579 50.69560
# Shear Modulus (GPa) = 32.98210 43.85602 38.41906
#
# Velocity S-wave (km/s) = 3.61566 4.16930 3.90231
# Velocity P-wave (km/s) = 6.00220 6.69102 6.35595
#
# Compressibility (1/GPa) = 0.02131496
#
# Stress axis : x y z
#
# Youngs Moduli (GPa) = 166.15885 92.76418 101.51641
#
# Poissons Ratio (x) = 0.20563 0.07644
# Poissons Ratio (y) = 0.36832 -0.03072
# Poissons Ratio (z) = 0.12511 -0.02808
#
# Static dielectric constant tensor:
#      x y z
#    x 1.921350 0.000000 -0.052990 
#    y 0.000000 2.013330 0.000000 
#    z -0.052990 0.000000 2.044910 
# 
# From -- ./inp_files/14035.got.cif
#   From: 2010.05.17/outbox.cif.g08.bks.cpg/sg4_8_cif.got.tgz:14035.got - 2010.06.03 18:43:04.
