data_PCOD9116278
_publ_section_title
;
Structure prediction by ZEFSAII (Michael W. Deem and Ramdas Pophale) SiO2 
 PCOD9116278
Probable space group: P 21
;
_chemical_formula_sum "Si O2"
_cell_formula_units_Z 16
_cell_length_a 8.933819
_cell_length_b 8.828065
_cell_length_c 18.417362
_cell_angle_alpha 90.000000
_cell_angle_beta 26.958260
_cell_angle_gamma 90.000000
_cell_volume 658.499369
_symmetry_space_group_name_H-M "P 21"
_symmetry_group_IT_number 4
_symmetry_cell_setting 'monoclinic'
loop_
_space_group_symop_operation_xyz
x,y,z
-x,1/2+y,-z
loop_
_atom_site_type_symbol
_atom_site_label
_atom_site_fract_x
_atom_site_fract_y
_atom_site_fract_z
Si Si1 0.281224 0.865420 0.197509
Si Si2 0.994082 0.411478 0.422308
Si Si3 0.082339 0.174520 0.260942
Si Si4 0.042829 0.404134 0.929582
Si Si5 0.693546 0.199257 0.670236
Si Si6 0.636554 0.132727 0.318448
Si Si7 0.796130 0.217397 0.913632
Si Si8 0.943041 0.428551 0.138016
O O1 0.203791 0.748468 0.293391
O O2 0.115377 0.818134 0.193490
O O3 0.147632 0.027359 0.282098
O O4 0.677342 0.870252 0.014741
O O5 0.913778 0.275463 0.512700
O O6 0.687330 0.528452 0.545850
O O7 0.052258 0.327131 0.320403
O O8 0.267721 0.519170 0.341168
O O9 0.781640 0.142842 0.336924
O O10 0.418247 0.166653 0.067530
O O11 0.347528 0.286842 0.807650
O O12 0.134081 0.545232 0.839435
O O13 0.785793 0.309665 0.993274
O O14 0.945135 0.456890 0.051197
O O15 0.670110 0.306951 0.278416
O O16 0.049828 0.080604 0.817014
#
# Coordination Sequence:
#
# PCOD9116278 Si02
#       8
#     2   2   2   2   2   2   2   2
#     4  10  21  41  69  99 143 176 226 307 367 430
#     4  11  26  45  71  97 141 205 245 288 345 424
#     4  11  24  42  69 103 144 187 240 292 356 432
#     4  10  22  42  66 102 144 180 226 300 369 432
#     4  10  24  44  66  98 137 188 247 290 354 425
#     4  11  23  43  65  99 147 187 241 290 349 432
#     4  11  22  39  71 107 138 181 225 301 385 414
#     4  10  22  38  65 105 140 176 230 292 367 425
#
# _framework density 24.297668000000002
#
# number of rings (size 3 to 8) (size 9 to 14) (size 15 to 20)
#    0.000    1.500    2.500    1.500    1.750    8.000 
#    0.000    0.000    0.000    0.000    0.000    0.000 
#    0.000    0.000    0.000    0.000    0.000    0.000 
#
# Total GULP energy -89376.096022 kJ/mol
# GULP energy per Si atom -5586.006001 kJ/mol
# Density = 2.424237 g / cm^3
# Si number density = 24.297668 Si / 1000 Ang^3
#
#
#
# Elastic Constant Matrix: (Units=GPa)
#
#
# Indices 1 2 3 4 5 6 
#
# 1 112.0361 50.1658 29.4819 0.0000 4.1957 0.0000
# 2 50.1658 143.4525 43.3892 0.0000 -2.5776 0.0000
# 3 29.4819 43.3892 42.7902 0.0000 -4.1371 0.0000
# 4 0.0000 0.0000 0.0000 40.0704 0.0000 3.7710
# 5 4.1957 -2.5776 -4.1371 0.0000 19.4577 0.0000
# 6 0.0000 0.0000 0.0000 3.7710 0.0000 48.6376
#
#
#
# Elastic Compliance Matrix: (Units=1/GPa)
#
#
# Indices 1 2 3 4 5 6 
#
# 1 0.011734 -0.002324 -0.006128 0.000000 -0.004141 0.000000
# 2 -0.002324 0.010529 -0.009078 0.000000 -0.000034 0.000000
# 3 -0.006128 -0.009078 0.037581 0.000000 0.008109 0.000000
# 4 0.000000 0.000000 0.000000 0.025140 0.000000 -0.001949
# 5 -0.004141 -0.000034 0.008109 0.000000 0.054006 0.000000
# 6 0.000000 0.000000 0.000000 -0.001949 0.000000 0.020711
#
#
# Mechanical properties :
#
#
# Convention : Reuss Voigt Hill
#
# Bulk Modulus (GPa) = 40.35017 60.48362 50.41689
# Shear Modulus (GPa) = 24.62760 33.31595 28.97177
#
# Velocity S-wave (km/s) = 3.18713 3.70693 3.45681
# Velocity P-wave (km/s) = 5.49421 6.57789 6.06032
#
# Compressibility (1/GPa) = 0.02478304
#
# Stress axis : x y z
#
# Youngs Moduli (GPa) = 85.22144 94.97574 26.60884
#
# Poissons Ratio (x) = 0.22075 0.16306
# Poissons Ratio (y) = 0.19808 0.24156
# Poissons Ratio (z) = 0.52225 0.86222
#
# Static dielectric constant tensor:
#      x y z
#    x 1.922790 0.000000 -0.055520 
#    y 0.000000 1.969710 0.000000 
#    z -0.055520 0.000000 1.931880 
# 
# From -- ./inp_files/14962.got.cif
#   From: 2010.05.17/outbox.cif.g08.bks.cpg/sg4_8_cif.got.tgz:14962.got - 2010.06.03 18:43:04.
