data_PCOD9116400
_publ_section_title
;
Structure prediction by ZEFSAII (Michael W. Deem and Ramdas Pophale) SiO2 
 PCOD9116400
Probable space group: P 21
;
_chemical_formula_sum "Si O2"
_cell_formula_units_Z 16
_cell_length_a 11.007188
_cell_length_b 11.197746
_cell_length_c 6.900557
_cell_angle_alpha 90.000000
_cell_angle_beta 59.659844
_cell_angle_gamma 90.000000
_cell_volume 734.045437
_symmetry_space_group_name_H-M "P 21"
_symmetry_group_IT_number 4
_symmetry_cell_setting 'monoclinic'
loop_
_space_group_symop_operation_xyz
x,y,z
-x,1/2+y,-z
loop_
_atom_site_type_symbol
_atom_site_label
_atom_site_fract_x
_atom_site_fract_y
_atom_site_fract_z
Si Si1 0.298315 0.059950 0.958093
Si Si2 0.118427 0.048641 0.716004
Si Si3 0.548505 0.879986 0.304747
Si Si4 0.548792 0.128046 0.520378
Si Si5 0.898668 0.694035 0.624001
Si Si6 0.277851 0.874109 0.279833
Si Si7 0.165598 0.431275 0.129439
Si Si8 0.809412 0.115174 0.563087
O O1 0.207871 0.068989 0.835629
O O2 0.457174 0.091056 0.780699
O O3 0.244639 0.148764 0.165652
O O4 0.275696 0.932432 0.071976
O O5 0.104996 0.169519 0.600720
O O6 0.199175 0.955665 0.506134
O O7 0.960687 0.000040 0.877526
O O8 0.505192 0.764765 0.476077
O O9 0.439001 0.863258 0.218390
O O10 0.522407 0.015494 0.401327
O O11 0.710628 0.880777 0.106051
O O12 0.711264 0.120251 0.453880
O O13 0.911001 0.826737 0.689330
O O14 0.023487 0.610126 0.607173
O O15 0.210251 0.744925 0.327541
O O16 0.228713 0.517273 0.245486
#
# Coordination Sequence:
#
# PCOD9116400 Si02
#       8
#     2   2   2   2   2   2   2   2
#     4  11  22  42  67  95 122 180 216 265 334 394
#     4  10  22  41  67  95 126 170 219 264 329 403
#     4  11  24  43  66  99 134 177 228 276 337 399
#     4  11  24  42  66  97 138 173 227 279 327 403
#     4  10  22  42  65  90 134 165 214 276 328 398
#     4  10  21  43  66  89 135 169 216 272 333 394
#     4  11  22  43  64  95 130 173 223 271 332 402
#     4  10  23  42  63  96 131 173 219 279 334 389
#
# _framework density 21.797017
#
# number of rings (size 3 to 8) (size 9 to 14) (size 15 to 20)
#    0.000    1.500    3.750    0.750    1.750    2.000 
#    4.500    0.000    0.000    0.000    0.000    0.000 
#    0.000    0.000    0.000    0.000    0.000    0.000 
#
# Total GULP energy -89246.743045 kJ/mol
# GULP energy per Si atom -5577.921440 kJ/mol
# Density = 2.174741 g / cm^3
# Si number density = 21.797017 Si / 1000 Ang^3
#
#
#
# Elastic Constant Matrix: (Units=GPa)
#
#
# Indices 1 2 3 4 5 6 
#
# 1 69.5867 -0.5692 20.6181 0.0000 -8.4316 0.0000
# 2 -0.5692 84.5838 13.9635 0.0000 10.8538 0.0000
# 3 20.6181 13.9635 41.7865 0.0000 -6.2912 0.0000
# 4 0.0000 0.0000 0.0000 29.8667 0.0000 1.5898
# 5 -8.4316 10.8538 -6.2912 0.0000 27.5048 0.0000
# 6 0.0000 0.0000 0.0000 1.5898 0.0000 27.3509
#
#
#
# Elastic Compliance Matrix: (Units=1/GPa)
#
#
# Indices 1 2 3 4 5 6 
#
# 1 0.017234 0.001138 -0.008447 0.000000 0.002902 0.000000
# 2 0.001138 0.013663 -0.006096 0.000000 -0.006437 0.000000
# 3 -0.008447 -0.006096 0.031182 0.000000 0.006949 0.000000
# 4 0.000000 0.000000 0.000000 0.033586 0.000000 -0.001952
# 5 0.002902 -0.006437 0.006949 0.000000 0.041376 0.000000
# 6 0.000000 0.000000 0.000000 -0.001952 0.000000 0.036675
#
#
# Mechanical properties :
#
#
# Convention : Reuss Voigt Hill
#
# Bulk Modulus (GPa) = 28.35360 29.33133 28.84247
# Shear Modulus (GPa) = 23.55340 27.74080 25.64710
#
# Velocity S-wave (km/s) = 3.29078 3.57135 3.43393
# Velocity P-wave (km/s) = 5.24168 5.52194 5.38364
#
# Compressibility (1/GPa) = 0.03526889
#
# Stress axis : x y z
#
# Youngs Moduli (GPa) = 58.02388 73.19235 32.06947
#
# Poissons Ratio (x) = -0.08330 0.27089
# Poissons Ratio (y) = -0.06603 0.19550
# Poissons Ratio (z) = 0.49013 0.44620
#
# Static dielectric constant tensor:
#      x y z
#    x 1.810830 0.000000 -0.034460 
#    y 0.000000 1.853840 0.000000 
#    z -0.034460 0.000000 1.791880 
# 
# From -- ./inp_files/3037.got.cif
#   From: 2010.05.17/outbox.cif.g08.bks.cpg/sg4_2_cif.got.tgz:3037.got - 2010.06.03 18:43:04.
