data_PCOD9116197
_publ_section_title
;
Structure prediction by ZEFSAII (Michael W. Deem and Ramdas Pophale) SiO2 
 PCOD9116197
Probable space group: P 21
;
_chemical_formula_sum "Si O2"
_cell_formula_units_Z 16
_cell_length_a 11.135563
_cell_length_b 8.585632
_cell_length_c 13.994620
_cell_angle_alpha 90.000000
_cell_angle_beta 151.062571
_cell_angle_gamma 90.000000
_cell_volume 647.381168
_symmetry_space_group_name_H-M "P 21"
_symmetry_group_IT_number 4
_symmetry_cell_setting 'monoclinic'
loop_
_space_group_symop_operation_xyz
x,y,z
-x,1/2+y,-z
loop_
_atom_site_type_symbol
_atom_site_label
_atom_site_fract_x
_atom_site_fract_y
_atom_site_fract_z
Si Si1 0.466180 0.550180 0.706465
Si Si2 0.156829 0.256168 0.496969
Si Si3 0.143320 0.829708 0.211385
Si Si4 0.929316 0.352429 0.055166
Si Si5 0.560783 0.088517 0.881276
Si Si6 0.222930 0.816076 0.624918
Si Si7 0.939001 0.961596 0.258948
Si Si8 0.374543 0.534880 0.445130
O O1 0.338738 0.388062 0.588224
O O2 0.737663 0.499419 0.926853
O O3 0.315392 0.639946 0.680920
O O4 0.410725 0.636780 0.568511
O O5 0.309401 0.186364 0.693739
O O6 0.107896 0.115809 0.391212
O O7 0.905227 0.332219 0.361370
O O8 0.012459 0.841390 0.017302
O O9 0.284847 0.665471 0.309138
O O10 0.977152 0.863040 0.188589
O O11 0.356707 0.958909 0.373279
O O12 0.777362 0.196985 0.984110
O O13 0.165641 0.401430 0.281672
O O14 0.459389 0.925338 0.768044
O O15 0.666297 0.036311 0.057022
O O16 0.016564 0.859771 0.402876
#
# Coordination Sequence:
#
# PCOD9116197 Si02
#       8
#     2   2   2   2   2   2   2   2
#     4  10  21  41  62  95 128 170 219 272 330 386
#     4  10  23  44  68  92 131 174 220 281 335 393
#     4  11  27  40  67  97 129 179 225 271 334 397
#     4  10  25  41  64  96 136 175 219 268 330 399
#     4  10  24  42  69  97 133 178 218 275 337 401
#     4  11  23  42  68  98 131 169 225 279 336 397
#     4  11  24  43  66  97 132 175 222 274 336 401
#     4  11  25  43  64  94 134 174 222 274 328 402
#
# _framework density 24.714959
#
# number of rings (size 3 to 8) (size 9 to 14) (size 15 to 20)
#    0.000    1.500    1.250    2.250   12.250    2.000 
#    0.000    3.750    0.000    0.000    0.000    0.000 
#    0.000    0.000    0.000    0.000    0.000    0.000 
#
# Total GULP energy -89217.714311 kJ/mol
# GULP energy per Si atom -5576.107144 kJ/mol
# Density = 2.465871 g / cm^3
# Si number density = 24.714959 Si / 1000 Ang^3
#
#
#
# Elastic Constant Matrix: (Units=GPa)
#
#
# Indices 1 2 3 4 5 6 
#
# 1 48.3320 1.7203 13.8828 0.0000 -4.4831 0.0000
# 2 1.7203 59.7465 8.1607 0.0000 -4.7298 0.0000
# 3 13.8828 8.1607 125.2849 0.0000 -16.2051 0.0000
# 4 0.0000 0.0000 0.0000 31.9699 0.0000 -1.2988
# 5 -4.4831 -4.7298 -16.2051 0.0000 17.6884 0.0000
# 6 0.0000 0.0000 0.0000 -1.2988 0.0000 24.0179
#
#
#
# Elastic Compliance Matrix: (Units=1/GPa)
#
#
# Indices 1 2 3 4 5 6 
#
# 1 0.021584 -0.000068 -0.001908 0.000000 0.003704 0.000000
# 2 -0.000068 0.017138 -0.000588 0.000000 0.004027 0.000000
# 3 -0.001908 -0.000588 0.009244 0.000000 0.007828 0.000000
# 4 0.000000 0.000000 0.000000 0.031348 0.000000 0.001695
# 5 0.003704 0.004027 0.007828 0.000000 0.065721 0.000000
# 6 0.000000 0.000000 0.000000 0.001695 0.000000 0.041727
#
#
# Mechanical properties :
#
#
# Convention : Reuss Voigt Hill
#
# Bulk Modulus (GPa) = 23.34308 31.21010 27.27659
# Shear Modulus (GPa) = 24.25169 28.70855 26.48012
#
# Velocity S-wave (km/s) = 3.13590 3.41190 3.27681
# Velocity P-wave (km/s) = 4.75155 5.30819 5.03756
#
# Compressibility (1/GPa) = 0.04283924
#
# Stress axis : x y z
#
# Youngs Moduli (GPa) = 46.32986 58.34836 108.17735
#
# Poissons Ratio (x) = 0.00394 0.20643
# Poissons Ratio (y) = 0.00313 0.06361
# Poissons Ratio (z) = 0.08841 0.03431
#
# Static dielectric constant tensor:
#      x y z
#    x 1.996210 0.000000 -0.010550 
#    y 0.000000 2.002740 0.000000 
#    z -0.010550 0.000000 1.947210 
# 
# From -- ./inp_files/12541.got.cif
#   From: 2010.05.17/outbox.cif.g08.bks.cpg/sg4_7_cif.got.tgz:12541.got - 2010.06.03 18:43:04.
