data_PCOD9116150
_publ_section_title
;
Structure prediction by ZEFSAII (Michael W. Deem and Ramdas Pophale) SiO2 
 PCOD9116150
Probable space group: P 21
;
_chemical_formula_sum "Si O2"
_cell_formula_units_Z 16
_cell_length_a 11.261123
_cell_length_b 8.932857
_cell_length_c 10.782391
_cell_angle_alpha 90.000000
_cell_angle_beta 142.072587
_cell_angle_gamma 90.000000
_cell_volume 666.690083
_symmetry_space_group_name_H-M "P 21"
_symmetry_group_IT_number 4
_symmetry_cell_setting 'monoclinic'
loop_
_space_group_symop_operation_xyz
x,y,z
-x,1/2+y,-z
loop_
_atom_site_type_symbol
_atom_site_label
_atom_site_fract_x
_atom_site_fract_y
_atom_site_fract_z
Si Si1 0.609092 0.840480 0.203623
Si Si2 0.836336 0.825170 0.738926
Si Si3 0.050141 0.668721 0.132287
Si Si4 0.590735 0.340578 0.524803
Si Si5 0.402468 0.653554 0.722169
Si Si6 0.291568 0.105947 0.545073
Si Si7 0.832847 0.674551 0.193374
Si Si8 0.766905 0.394900 0.273196
O O1 0.554112 0.701537 0.246796
O O2 0.794813 0.784293 0.278304
O O3 0.645144 0.980305 0.321098
O O4 0.443052 0.889743 0.970458
O O5 0.607583 0.845305 0.566313
O O6 0.860486 0.726785 0.633688
O O7 0.925087 0.990219 0.831943
O O8 0.903587 0.717194 0.905641
O O9 0.242772 0.761191 0.259598
O O10 0.975693 0.726896 0.204554
O O11 0.583512 0.235028 0.397087
O O12 0.635355 0.505722 0.508552
O O13 0.240060 0.726997 0.678807
O O14 0.618003 0.668852 0.955927
O O15 0.221662 0.989144 0.590199
O O16 0.882252 0.504865 0.276591
#
# Coordination Sequence:
#
# PCOD9116150 Si02
#       8
#     2   2   2   2   2   2   2   2
#     4   9  17  34  65 100 136 177 225 279 348 422
#     4  12  26  47  68 101 143 185 244 292 354 419
#     4  12  26  46  71 100 141 187 239 301 350 413
#     4  11  23  44  68  98 141 187 233 293 352 418
#     4   9  16  35  65  98 134 178 222 281 350 414
#     4  10  21  40  66  97 138 183 236 279 346 430
#     4   9  18  38  61  97 137 169 227 291 340 416
#     4   8  17  34  62  97 134 174 222 276 346 416
#
# _framework density 23.999158000000001
#
# number of rings (size 3 to 8) (size 9 to 14) (size 15 to 20)
#    0.000    2.000    1.250    3.000    0.000    0.000 
#    9.000   12.500    0.000    0.000    0.000    0.000 
#    0.000    0.000    0.000    0.000    0.000    0.000 
#
# Total GULP energy -89267.836753 kJ/mol
# GULP energy per Si atom -5579.239797 kJ/mol
# Density = 2.394453 g / cm^3
# Si number density = 23.999158 Si / 1000 Ang^3
#
#
#
# Elastic Constant Matrix: (Units=GPa)
#
#
# Indices 1 2 3 4 5 6 
#
# 1 52.7174 17.5027 28.1261 0.0000 -9.1572 0.0000
# 2 17.5027 128.6941 28.8916 0.0000 -6.5404 0.0000
# 3 28.1261 28.8916 63.8218 0.0000 -8.4296 0.0000
# 4 0.0000 0.0000 0.0000 36.2850 0.0000 -11.4368
# 5 -9.1572 -6.5404 -8.4296 0.0000 27.7093 0.0000
# 6 0.0000 0.0000 0.0000 -11.4368 0.0000 30.1278
#
#
#
# Elastic Compliance Matrix: (Units=1/GPa)
#
#
# Indices 1 2 3 4 5 6 
#
# 1 0.025605 -0.000935 -0.010181 0.000000 0.005144 0.000000
# 2 -0.000935 0.008704 -0.003436 0.000000 0.000700 0.000000
# 3 -0.010181 -0.003436 0.022045 0.000000 0.002531 0.000000
# 4 0.000000 0.000000 0.000000 0.031305 0.000000 0.011884
# 5 0.005144 0.000700 0.002531 0.000000 0.038724 0.000000
# 6 0.000000 0.000000 0.000000 0.011884 0.000000 0.037703
#
#
# Mechanical properties :
#
#
# Convention : Reuss Voigt Hill
#
# Bulk Modulus (GPa) = 36.69727 43.80822 40.25274
# Shear Modulus (GPa) = 24.71881 30.20529 27.46205
#
# Velocity S-wave (km/s) = 3.21282 3.55152 3.38641
# Velocity P-wave (km/s) = 5.39326 5.92549 5.66563
#
# Compressibility (1/GPa) = 0.02724998
#
# Stress axis : x y z
#
# Youngs Moduli (GPa) = 39.05477 114.88342 45.36151
#
# Poissons Ratio (x) = 0.10744 0.46184
# Poissons Ratio (y) = 0.03653 0.15585
# Poissons Ratio (z) = 0.39763 0.39472
#
# Static dielectric constant tensor:
#      x y z
#    x 1.915520 0.000000 -0.006480 
#    y 0.000000 1.928130 0.000000 
#    z -0.006480 0.000000 2.008050 
# 
# From -- ./inp_files/12043.got.cif
#   From: 2010.05.17/outbox.cif.g08.bks.cpg/sg4_7_cif.got.tgz:12043.got - 2010.06.03 18:43:04.
