data_PCOD9116904
_publ_section_title
;
Structure prediction by ZEFSAII (Michael W. Deem and Ramdas Pophale) SiO2 
 PCOD9116904
Probable space group: P 21
;
_chemical_formula_sum "Si O2"
_cell_formula_units_Z 14
_cell_length_a 17.523539
_cell_length_b 5.152875
_cell_length_c 14.741977
_cell_angle_alpha 90.000000
_cell_angle_beta 27.286731
_cell_angle_gamma 90.000000
_cell_volume 610.257621
_symmetry_space_group_name_H-M "P 21"
_symmetry_group_IT_number 4
_symmetry_cell_setting 'monoclinic'
loop_
_space_group_symop_operation_xyz
x,y,z
-x,1/2+y,-z
loop_
_atom_site_type_symbol
_atom_site_label
_atom_site_fract_x
_atom_site_fract_y
_atom_site_fract_z
Si Si1 0.947343 0.889610 0.536974
Si Si2 0.659618 0.232342 0.916695
Si Si3 0.470091 0.735324 0.155624
Si Si4 0.839175 0.968341 0.454274
Si Si5 0.890143 0.677790 0.228597
Si Si6 0.912811 0.664156 0.939663
Si Si7 0.612194 0.651694 0.370480
O O1 0.855496 0.861961 0.537997
O O2 0.913174 0.617319 0.623441
O O3 0.848969 0.123125 0.703442
O O4 0.596549 0.244521 0.878508
O O5 0.595438 0.494098 0.029964
O O6 0.563156 0.003524 0.070687
O O7 0.310308 0.672973 0.385734
O O8 0.809596 0.747437 0.411303
O O9 0.012400 0.098413 0.238293
O O10 0.750185 0.627524 0.303242
O O11 0.016690 0.442398 0.107321
O O12 0.993698 0.941269 0.100048
O O13 0.718493 0.647404 0.165040
O O14 0.483507 0.419180 0.514485
#
# Coordination Sequence:
#
# PCOD9116904 Si02
#       7
#     2   2   2   2   2   2   2
#     4  11  23  38  60  87 122 168 214 264 320 376
#     4   9  18  32  52  80 109 146 192 255 301 361
#     4   9  17  32  56  81 106 142 200 253 301 340
#     4   9  24  38  68  86 122 164 229 258 311 384
#     4  10  22  41  69  94 124 175 223 259 308 405
#     4  10  22  41  69  94 127 176 226 257 313 406
#     4  12  24  42  68 102 138 167 208 270 338 386
#
# _framework density 22.941130999999999
#
# number of rings (size 3 to 8) (size 9 to 14) (size 15 to 20)
#    0.857    1.143    0.000    3.429    4.000    2.286 
#    0.000    4.286    0.000    0.000    0.000    0.000 
#    0.000    0.000    0.000    0.000    0.000    0.000 
#
# Total GULP energy -78045.237885 kJ/mol
# GULP energy per Si atom -5574.659849 kJ/mol
# Density = 2.288892 g / cm^3
# Si number density = 22.941131 Si / 1000 Ang^3
#
#
#
# Elastic Constant Matrix: (Units=GPa)
#
#
# Indices 1 2 3 4 5 6 
#
# 1 28.4984 -9.0680 -2.7876 0.0000 8.2961 0.0000
# 2 -9.0680 85.6527 3.2380 0.0000 7.6484 0.0000
# 3 -2.7876 3.2380 157.6902 0.0000 -8.2221 0.0000
# 4 0.0000 0.0000 0.0000 75.3957 0.0000 -36.7438
# 5 8.2961 7.6484 -8.2221 0.0000 29.3806 0.0000
# 6 0.0000 0.0000 0.0000 -36.7438 0.0000 14.2449
#
#
#
# Elastic Compliance Matrix: (Units=1/GPa)
#
#
# Indices 1 2 3 4 5 6 
#
# 1 0.040570 0.005449 -0.000067 0.000000 -0.012893 0.000000
# 2 0.005449 0.012711 -0.000424 0.000000 -0.004966 0.000000
# 3 -0.000067 -0.000424 0.006450 0.000000 0.001934 0.000000
# 4 0.000000 0.000000 0.000000 -0.051592 0.000000 -0.133078
# 5 -0.012893 -0.004966 0.001934 0.000000 0.039511 0.000000
# 6 0.000000 0.000000 0.000000 -0.133078 0.000000 -0.273068
#
#
# Mechanical properties :
#
#
# Convention : Reuss Voigt Hill
#
# Bulk Modulus (GPa) = 14.35786 28.28956 21.32371
# Shear Modulus (GPa) = -23.57179 42.50150 9.46486
#
# Velocity S-wave (km/s) = -3.20893 4.30889 2.03339
# Velocity P-wave (km/s) = 2.73083 6.09209 3.85072
#
# Compressibility (1/GPa) = 0.06964826
#
# Stress axis : x y z
#
# Youngs Moduli (GPa) = 24.64865 78.66949 155.04087
#
# Poissons Ratio (x) = -0.42867 0.01038
# Poissons Ratio (y) = -0.13431 0.06568
# Poissons Ratio (z) = 0.00165 0.03333
#
# Static dielectric constant tensor:
#      x y z
#    x 0.895110 0.000000 1.402990 
#    y 0.000000 1.701040 0.000000 
#    z 1.402990 0.000000 -0.055580 
# 
# From -- ./inp_files/14267.got.cif
#   From: 2010.05.17/outbox.cif.g08.bks.cpg/sg4_8_cif.got.tgz:14267.got - 2010.06.03 18:43:04.
