data_PCOD9116202
_publ_section_title
;
Structure prediction by ZEFSAII (Michael W. Deem and Ramdas Pophale) SiO2 
 PCOD9116202
Probable space group: P 21
;
_chemical_formula_sum "Si O2"
_cell_formula_units_Z 16
_cell_length_a 22.805524
_cell_length_b 4.903027
_cell_length_c 9.808141
_cell_angle_alpha 90.000000
_cell_angle_beta 146.349682
_cell_angle_gamma 90.000000
_cell_volume 607.710970
_symmetry_space_group_name_H-M "P 21"
_symmetry_group_IT_number 4
_symmetry_cell_setting 'monoclinic'
loop_
_space_group_symop_operation_xyz
x,y,z
-x,1/2+y,-z
loop_
_atom_site_type_symbol
_atom_site_label
_atom_site_fract_x
_atom_site_fract_y
_atom_site_fract_z
Si Si1 0.929300 0.961770 0.875469
Si Si2 0.710883 0.368154 0.252436
Si Si3 0.054966 0.882534 0.661562
Si Si4 0.263222 0.152332 0.961119
Si Si5 0.484372 0.546901 0.066690
Si Si6 0.247655 0.817810 0.351271
Si Si7 0.660667 0.793831 0.604615
Si Si8 0.881218 0.011636 0.506566
O O1 0.860695 0.870804 0.611678
O O2 0.856970 0.133936 0.836398
O O3 0.993040 0.694817 0.033955
O O4 0.672877 0.536553 0.046138
O O5 0.718102 0.413882 0.429628
O O6 0.830411 0.304089 0.435589
O O7 0.632989 0.107351 0.106842
O O8 0.016186 0.570573 0.578870
O O9 0.001824 0.990138 0.696223
O O10 0.176528 0.943375 0.862127
O O11 0.188998 0.378401 0.747267
O O12 0.333963 0.268941 0.221553
O O13 0.563030 0.646870 0.338224
O O14 0.493407 0.247391 0.020214
O O15 0.324309 0.599260 0.423650
O O16 0.243657 0.099019 0.262785
#
# Coordination Sequence:
#
# PCOD9116202 Si02
#       8
#     2   2   2   2   2   2   2   2
#     4  11  26  42  67 108 142 192 251 305 352 432
#     4  11  24  47  76 104 142 194 250 304 375 449
#     4  10  21  41  63  94 138 190 230 277 355 433
#     4  11  27  44  74 107 154 190 247 303 380 446
#     4  12  25  49  79 107 142 194 249 313 381 451
#     4  11  26  45  77  99 156 191 253 302 378 440
#     4  12  26  50  71 114 142 201 243 316 375 452
#     4  10  25  44  69 101 148 194 241 300 372 439
#
# _framework density 26.328305
#
# number of rings (size 3 to 8) (size 9 to 14) (size 15 to 20)
#    0.000    1.000    3.750    0.750   14.000    0.000 
#    4.500    0.000    0.000    0.000    0.000    0.000 
#    0.000    0.000    0.000    0.000    0.000    0.000 
#
# Total GULP energy -89298.175892 kJ/mol
# GULP energy per Si atom -5581.135993 kJ/mol
# Density = 2.626838 g / cm^3
# Si number density = 26.328305 Si / 1000 Ang^3
#
#
#
# Elastic Constant Matrix: (Units=GPa)
#
#
# Indices 1 2 3 4 5 6 
#
# 1 92.4777 25.9618 30.9270 0.0000 -22.0698 0.0000
# 2 25.9618 116.0858 13.3529 0.0000 -3.3629 0.0000
# 3 30.9270 13.3529 124.6315 0.0000 -36.9313 0.0000
# 4 0.0000 0.0000 0.0000 26.6605 0.0000 1.0457
# 5 -22.0698 -3.3629 -36.9313 0.0000 34.5217 0.0000
# 6 0.0000 0.0000 0.0000 1.0457 0.0000 47.3149
#
#
#
# Elastic Compliance Matrix: (Units=1/GPa)
#
#
# Indices 1 2 3 4 5 6 
#
# 1 0.013673 -0.002740 -0.000861 0.000000 0.007553 0.000000
# 2 -0.002740 0.009272 -0.000827 0.000000 -0.001733 0.000000
# 3 -0.000861 -0.000827 0.011917 0.000000 0.012117 0.000000
# 4 0.000000 0.000000 0.000000 0.037541 0.000000 -0.000830
# 5 0.007553 -0.001733 0.012117 0.000000 0.046590 0.000000
# 6 0.000000 0.000000 0.000000 -0.000830 0.000000 0.021153
#
#
# Mechanical properties :
#
#
# Convention : Reuss Voigt Hill
#
# Bulk Modulus (GPa) = 38.45408 52.63090 45.54249
# Shear Modulus (GPa) = 31.71149 39.22964 35.47057
#
# Velocity S-wave (km/s) = 3.47430 3.86426 3.67446
# Velocity P-wave (km/s) = 5.54362 6.32010 5.94455
#
# Compressibility (1/GPa) = 0.02600505
#
# Stress axis : x y z
#
# Youngs Moduli (GPa) = 73.13577 107.85119 83.91661
#
# Poissons Ratio (x) = 0.29552 0.07227
# Poissons Ratio (y) = 0.20040 0.06941
# Poissons Ratio (z) = 0.06299 0.08920
#
# Static dielectric constant tensor:
#      x y z
#    x 2.156880 0.000000 -0.032830 
#    y 0.000000 2.108190 0.000000 
#    z -0.032830 0.000000 2.190580 
# 
# From -- ./inp_files/9774.got.cif
#   From: 2010.05.17/outbox.cif.g08.bks.cpg/sg4_5_cif.got.tgz:9774.got - 2010.06.03 18:43:04.
