data_PCOD9116576
_publ_section_title
;
Structure prediction by ZEFSAII (Michael W. Deem and Ramdas Pophale) SiO2 
 PCOD9116576
Probable space group: P 21
;
_chemical_formula_sum "Si O2"
_cell_formula_units_Z 16
_cell_length_a 24.954369
_cell_length_b 5.166669
_cell_length_c 6.608018
_cell_angle_alpha 90.000000
_cell_angle_beta 42.139688
_cell_angle_gamma 90.000000
_cell_volume 571.626564
_symmetry_space_group_name_H-M "P 21"
_symmetry_group_IT_number 4
_symmetry_cell_setting 'monoclinic'
loop_
_space_group_symop_operation_xyz
x,y,z
-x,1/2+y,-z
loop_
_atom_site_type_symbol
_atom_site_label
_atom_site_fract_x
_atom_site_fract_y
_atom_site_fract_z
Si Si1 0.285860 0.976580 0.653420
Si Si2 0.845664 0.442681 0.258957
Si Si3 0.224330 0.480151 0.062032
Si Si4 0.088587 0.443511 0.154550
Si Si5 0.644311 0.062550 0.001349
Si Si6 0.965692 0.552832 0.209896
Si Si7 0.495479 0.421148 0.345690
Si Si8 0.428085 0.255642 0.121160
O O1 0.245184 0.977703 0.545291
O O2 0.261852 0.715918 0.830643
O O3 0.254685 0.211832 0.880347
O O4 0.376403 0.022180 0.352965
O O5 0.888663 0.665330 0.002375
O O6 0.873808 0.499564 0.408222
O O7 0.871522 0.163755 0.101390
O O8 0.129429 0.477749 0.261170
O O9 0.265042 0.536926 0.167074
O O10 0.995983 0.500741 0.353371
O O11 0.591809 0.899206 0.312123
O O12 0.581912 0.307726 0.173029
O O13 0.636675 0.949510 0.796758
O O14 0.008718 0.332757 0.948327
O O15 0.480467 0.322704 0.163345
O O16 0.514765 0.716482 0.231678
#
# Coordination Sequence:
#
# PCOD9116576 Si02
#       8
#     2   2   2   2   2   2   2   2
#     4  10  22  37  58  82 117 151 189 236 289 340
#     4   8  14  26  43  72 105 143 178 224 274 323
#     4  10  22  37  58  82 117 151 189 236 289 340
#     4   8  14  26  43  72 105 143 178 224 274 323
#     4  12  26  41  61  84 114 152 194 240 296 348
#     4   8  12  20  40  66 104 138 176 220 268 318
#     4  12  26  42  60  84 112 148 196 240 292 348
#     4  12  26  41  61  84 114 152 194 240 296 348
#
# _framework density 27.990303999999998
#
# number of rings (size 3 to 8) (size 9 to 14) (size 15 to 20)
#    0.000    2.000    3.750    0.000    7.000    0.000 
#    0.000    0.000    0.000    0.000    0.000    0.000 
#    3.750    0.000    0.000    0.000    0.500    0.000 
#
# Total GULP energy -89266.554140 kJ/mol
# GULP energy per Si atom -5579.159634 kJ/mol
# Density = 2.792660 g / cm^3
# Si number density = 27.990304 Si / 1000 Ang^3
#
#
#
# Elastic Constant Matrix: (Units=GPa)
#
#
# Indices 1 2 3 4 5 6 
#
# 1 235.1580 5.9414 17.9909 0.0000 31.0201 0.0000
# 2 5.9414 119.4136 27.1401 0.0000 7.9536 0.0000
# 3 17.9909 27.1401 46.4926 0.0000 -3.0837 0.0000
# 4 0.0000 0.0000 0.0000 23.9905 0.0000 8.3719
# 5 31.0201 7.9536 -3.0837 0.0000 30.5585 0.0000
# 6 0.0000 0.0000 0.0000 8.3719 0.0000 43.6475
#
#
#
# Elastic Compliance Matrix: (Units=1/GPa)
#
#
# Indices 1 2 3 4 5 6 
#
# 1 0.005214 0.000774 -0.002853 0.000000 -0.005782 0.000000
# 2 0.000774 0.010071 -0.006448 0.000000 -0.004058 0.000000
# 3 -0.002853 -0.006448 0.026860 0.000000 0.007285 0.000000
# 4 0.000000 0.000000 0.000000 0.044673 0.000000 -0.008569
# 5 -0.005782 -0.004058 0.007285 0.000000 0.040385 0.000000
# 6 0.000000 0.000000 0.000000 -0.008569 0.000000 0.024554
#
#
# Mechanical properties :
#
#
# Convention : Reuss Voigt Hill
#
# Bulk Modulus (GPa) = 39.85372 55.91211 47.88292
# Shear Modulus (GPa) = 28.22061 42.97206 35.59634
#
# Velocity S-wave (km/s) = 3.17871 3.92248 3.57001
# Velocity P-wave (km/s) = 5.26702 6.36658 5.84272
#
# Compressibility (1/GPa) = 0.02509176
#
# Stress axis : x y z
#
# Youngs Moduli (GPa) = 191.79552 99.29015 37.23010
#
# Poissons Ratio (x) = -0.07686 0.10622
# Poissons Ratio (y) = -0.14847 0.24006
# Poissons Ratio (z) = 0.54719 0.64022
#
# Static dielectric constant tensor:
#      x y z
#    x 2.345000 0.000000 0.059760 
#    y 0.000000 2.529590 0.000000 
#    z 0.059760 0.000000 2.076120 
# 
# From -- ./inp_files/4360.got.cif
#   From: 2010.05.17/outbox.cif.g08.bks.cpg/sg4_3_cif.got.tgz:4360.got - 2010.06.03 18:43:04.
