data_PCOD9116186
_publ_section_title
;
Structure prediction by ZEFSAII (Michael W. Deem and Ramdas Pophale) SiO2 
 PCOD9116186
Probable space group: P 21
;
_chemical_formula_sum "Si O2"
_cell_formula_units_Z 16
_cell_length_a 12.446635
_cell_length_b 5.635851
_cell_length_c 10.276415
_cell_angle_alpha 90.000000
_cell_angle_beta 56.701634
_cell_angle_gamma 90.000000
_cell_volume 602.514383
_symmetry_space_group_name_H-M "P 21"
_symmetry_group_IT_number 4
_symmetry_cell_setting 'monoclinic'
loop_
_space_group_symop_operation_xyz
x,y,z
-x,1/2+y,-z
loop_
_atom_site_type_symbol
_atom_site_label
_atom_site_fract_x
_atom_site_fract_y
_atom_site_fract_z
Si Si1 0.128123 0.344120 0.870705
Si Si2 0.381259 0.748797 0.949600
Si Si3 0.663589 0.749748 0.708312
Si Si4 0.416446 0.749664 0.354506
Si Si5 0.954260 0.783593 0.592367
Si Si6 0.673076 0.246586 0.317297
Si Si7 0.935623 0.471445 0.218828
Si Si8 0.688709 0.737651 0.024202
O O1 0.243083 0.510548 0.748378
O O2 0.067574 0.254646 0.774165
O O3 0.201288 0.209446 0.940617
O O4 0.012295 0.453484 0.031659
O O5 0.532048 0.748233 0.882801
O O6 0.379049 0.776634 0.793127
O O7 0.305904 0.508381 0.033176
O O8 0.315089 0.985020 0.046199
O O9 0.652851 0.497563 0.638771
O O10 0.801564 0.758378 0.682438
O O11 0.652354 0.002303 0.638745
O O12 0.431555 0.746177 0.500176
O O13 0.550515 0.752778 0.189344
O O14 0.008920 0.534050 0.501832
O O15 0.005151 0.828175 0.704819
O O16 0.786380 0.421175 0.289186
#
# Coordination Sequence:
#
# PCOD9116186 Si02
#       8
#     2   2   2   2   2   2   2   2
#     4  11  24  42  64 101 140 183 231 283 356 427
#     4   9  19  33  59  84 126 163 209 279 335 403
#     4  10  21  41  57  90 127 172 221 274 337 409
#     4  10  22  36  65  94 132 170 220 291 349 402
#     4  12  28  47  68  98 137 191 243 291 342 413
#     4  11  22  37  60  98 130 175 220 287 354 408
#     4  12  25  43  70  95 144 186 234 286 352 426
#     4   9  19  37  57  92 132 164 216 275 347 414
#
# _framework density 26.555381000000001
#
# number of rings (size 3 to 8) (size 9 to 14) (size 15 to 20)
#    0.000    1.500    2.500    2.250    5.250    6.000 
#    0.000    0.000    0.000    9.000    0.000    0.000 
#    0.000    0.000    0.000    0.000    0.000    0.000 
#
# Total GULP energy -89380.254642 kJ/mol
# GULP energy per Si atom -5586.265915 kJ/mol
# Density = 2.649494 g / cm^3
# Si number density = 26.555381 Si / 1000 Ang^3
#
#
#
# Elastic Constant Matrix: (Units=GPa)
#
#
# Indices 1 2 3 4 5 6 
#
# 1 150.5727 72.2832 -6.7707 0.0000 -6.6498 0.0000
# 2 72.2832 220.3231 38.0826 0.0000 9.0073 0.0000
# 3 -6.7707 38.0826 116.8431 0.0000 6.2335 0.0000
# 4 0.0000 0.0000 0.0000 27.7847 0.0000 7.7688
# 5 -6.6498 9.0073 6.2335 0.0000 30.7935 0.0000
# 6 0.0000 0.0000 0.0000 7.7688 0.0000 50.8226
#
#
#
# Elastic Compliance Matrix: (Units=1/GPa)
#
#
# Indices 1 2 3 4 5 6 
#
# 1 0.008269 -0.003043 0.001343 0.000000 0.002404 0.000000
# 2 -0.003043 0.005967 -0.002015 0.000000 -0.001995 0.000000
# 3 0.001343 -0.002015 0.009347 0.000000 -0.001013 0.000000
# 4 0.000000 0.000000 0.000000 0.037598 0.000000 -0.005747
# 5 0.002404 -0.001995 -0.001013 0.000000 0.033782 0.000000
# 6 0.000000 0.000000 0.000000 -0.005747 0.000000 0.020555
#
#
# Mechanical properties :
#
#
# Convention : Reuss Voigt Hill
#
# Bulk Modulus (GPa) = 61.91023 77.21432 69.56228
# Shear Modulus (GPa) = 38.96147 47.48975 43.22561
#
# Velocity S-wave (km/s) = 3.83453 4.23345 4.03892
# Velocity P-wave (km/s) = 6.55508 7.28258 6.92839
#
# Compressibility (1/GPa) = 0.01615242
#
# Stress axis : x y z
#
# Youngs Moduli (GPa) = 120.93731 167.58890 106.98628
#
# Poissons Ratio (x) = 0.51000 -0.14366
# Poissons Ratio (y) = 0.36803 0.21555
# Poissons Ratio (z) = -0.16239 0.33765
#
# Static dielectric constant tensor:
#      x y z
#    x 2.251160 0.000000 -0.057430 
#    y 0.000000 2.309660 0.000000 
#    z -0.057430 0.000000 2.140140 
# 
# From -- ./inp_files/11740.got.cif
#   From: 2010.05.17/outbox.cif.g08.bks.cpg/sg4_6_cif.got.tgz:11740.got - 2010.06.03 18:43:04.
