data_PCOD9116614
_publ_section_title
;
Structure prediction by ZEFSAII (Michael W. Deem and Ramdas Pophale) SiO2 
 PCOD9116614
Probable space group: P 21
;
_chemical_formula_sum "Si O2"
_cell_formula_units_Z 10
_cell_length_a 5.005030
_cell_length_b 14.815143
_cell_length_c 5.086409
_cell_angle_alpha 90.000000
_cell_angle_beta 91.165219
_cell_angle_gamma 90.000000
_cell_volume 377.080432
_symmetry_space_group_name_H-M "P 21"
_symmetry_group_IT_number 4
_symmetry_cell_setting 'monoclinic'
loop_
_space_group_symop_operation_xyz
x,y,z
-x,1/2+y,-z
loop_
_atom_site_type_symbol
_atom_site_label
_atom_site_fract_x
_atom_site_fract_y
_atom_site_fract_z
Si Si1 0.828700 0.168090 0.569982
Si Si2 0.660538 0.663776 0.065379
Si Si3 0.981721 0.518455 0.769531
Si Si4 0.176166 0.349666 0.932305
Si Si5 0.684947 0.353576 0.604222
O O1 0.623029 0.154226 0.804005
O O2 0.755864 0.265065 0.440337
O O3 0.127376 0.169325 0.689279
O O4 0.818864 0.085095 0.372451
O O5 0.707320 0.761613 0.925996
O O6 0.760167 0.580714 0.897927
O O7 0.825402 0.450191 0.563350
O O8 0.138063 0.455911 0.987622
O O9 0.378127 0.357469 0.682616
O O10 0.867408 0.328825 0.863464
#
# Coordination Sequence:
#
# PCOD9116614 Si02
#       5
#     2   2   2   2   2
#     4  10  22  39  58  86 115 147 191 232 279 338
#     4  10  22  39  58  86 115 147 191 232 279 338
#     4  10  22  38  64  78 118 152 184 234 286 324
#     4   8  18  36  54  81 117 138 184 241 262 330
#     4   8  18  36  54  81 117 138 184 241 262 330
#
# _framework density 26.519539000000002
#
# number of rings (size 3 to 8) (size 9 to 14) (size 15 to 20)
#    1.200    1.600    0.000    0.000    5.600    0.000 
#    3.600    0.000    0.000    0.000    0.000    0.000 
#    0.000    0.000    0.000    0.000    0.000    0.000 
#
# Total GULP energy -55678.160017 kJ/mol
# GULP energy per Si atom -5567.816002 kJ/mol
# Density = 2.645918 g / cm^3
# Si number density = 26.519539 Si / 1000 Ang^3
#
#
#
# Elastic Constant Matrix: (Units=GPa)
#
#
# Indices 1 2 3 4 5 6 
#
# 1 108.0994 29.1113 31.3475 0.0000 -14.1202 0.0000
# 2 29.1113 261.7493 52.7740 0.0000 -29.5824 0.0000
# 3 31.3475 52.7740 71.0871 0.0000 -18.4312 0.0000
# 4 0.0000 0.0000 0.0000 16.1416 0.0000 -34.9423
# 5 -14.1202 -29.5824 -18.4312 0.0000 48.1442 0.0000
# 6 0.0000 0.0000 0.0000 -34.9423 0.0000 19.1621
#
#
#
# Elastic Compliance Matrix: (Units=1/GPa)
#
#
# Indices 1 2 3 4 5 6 
#
# 1 0.010708 -0.000180 -0.004222 0.000000 0.001414 0.000000
# 2 -0.000180 0.004617 -0.002916 0.000000 0.001668 0.000000
# 3 -0.004222 -0.002916 0.019215 0.000000 0.004326 0.000000
# 4 0.000000 0.000000 0.000000 -0.021019 0.000000 -0.038328
# 5 0.001414 0.001668 0.004326 0.000000 0.023867 0.000000
# 6 0.000000 0.000000 0.000000 -0.038328 0.000000 -0.017706
#
#
# Mechanical properties :
#
#
# Convention : Reuss Voigt Hill
#
# Bulk Modulus (GPa) = 50.23795 74.15572 62.19683
# Shear Modulus (GPa) = 122.09304 38.53646 80.31475
#
# Velocity S-wave (km/s) = 6.79256 3.81614 5.50916
# Velocity P-wave (km/s) = 8.97237 6.88771 7.99825
#
# Compressibility (1/GPa) = 0.01990527
#
# Stress axis : x y z
#
# Youngs Moduli (GPa) = 93.38670 216.59946 52.04188
#
# Poissons Ratio (x) = 0.03898 0.21971
# Poissons Ratio (y) = 0.01680 0.15174
# Poissons Ratio (z) = 0.39427 0.63153
#
# Static dielectric constant tensor:
#      x y z
#    x 1.990580 0.000000 0.095650 
#    y 0.000000 2.283270 0.000000 
#    z 0.095650 0.000000 2.153120 
# 
# From -- ./inp_files/238.got.cif
#   From: 2010.05.17/outbox.cif.g08.bks.cpg/sg4_1_cif.got.tgz:238.got - 2010.06.03 18:43:04.
