data_PCOD9116660
_publ_section_title
;
Structure prediction by ZEFSAII (Michael W. Deem and Ramdas Pophale) SiO2 
 PCOD9116660
Probable space group: P 21
;
_chemical_formula_sum "Si O2"
_cell_formula_units_Z 16
_cell_length_a 14.574235
_cell_length_b 9.297788
_cell_length_c 11.045851
_cell_angle_alpha 90.000000
_cell_angle_beta 151.430334
_cell_angle_gamma 90.000000
_cell_volume 715.811458
_symmetry_space_group_name_H-M "P 21"
_symmetry_group_IT_number 4
_symmetry_cell_setting 'monoclinic'
loop_
_space_group_symop_operation_xyz
x,y,z
-x,1/2+y,-z
loop_
_atom_site_type_symbol
_atom_site_label
_atom_site_fract_x
_atom_site_fract_y
_atom_site_fract_z
Si Si1 0.230812 0.741670 0.843143
Si Si2 0.192448 0.684070 0.240460
Si Si3 0.157893 0.512552 0.435093
Si Si4 0.553510 0.166229 0.684925
Si Si5 0.501167 0.193101 0.059416
Si Si6 0.639826 0.430444 0.398964
Si Si7 0.093664 0.057078 0.636001
Si Si8 0.166392 0.212927 0.351063
O O1 0.424133 0.707754 0.990913
O O2 0.079887 0.614215 0.647242
O O3 0.143430 0.888149 0.687990
O O4 0.294500 0.751092 0.055697
O O5 0.141922 0.561103 0.278044
O O6 0.377141 0.654363 0.370891
O O7 0.242264 0.822467 0.379138
O O8 0.018789 0.704231 0.947092
O O9 0.358045 0.574136 0.717330
O O10 0.153344 0.341043 0.431064
O O11 0.991196 0.576768 0.326186
O O12 0.347758 0.238303 0.471147
O O13 0.523421 0.009452 0.710815
O O14 0.550861 0.341148 0.186443
O O15 0.285174 0.145920 0.831602
O O16 0.782693 0.559901 0.529419
#
# Coordination Sequence:
#
# PCOD9116660 Si02
#       8
#     2   2   2   2   2   2   2   2
#     4  11  26  43  70 103 133 184 229 277 351 395
#     4  11  22  42  65  97 137 177 225 274 348 397
#     4  10  23  43  65 100 131 179 227 276 348 396
#     4  10  25  40  64  99 134 176 224 282 327 408
#     4  10  24  45  67  96 137 179 222 285 339 409
#     4   9  24  43  63  99 131 177 227 274 339 396
#     4  11  26  45  71  99 138 178 228 286 332 418
#     4  10  22  39  65  93 133 172 224 278 326 409
#
# _framework density 22.352255
#
# number of rings (size 3 to 8) (size 9 to 14) (size 15 to 20)
#    0.750    1.000    0.000    2.250    5.250    7.000 
#    4.500    0.000    0.000    0.000    0.000    0.000 
#    0.000    0.000    0.000    0.000    0.000    0.000 
#
# Total GULP energy -89480.153783 kJ/mol
# GULP energy per Si atom -5592.509611 kJ/mol
# Density = 2.230138 g / cm^3
# Si number density = 22.352255 Si / 1000 Ang^3
#
#
#
# Elastic Constant Matrix: (Units=GPa)
#
#
# Indices 1 2 3 4 5 6 
#
# 1 133.0073 12.6417 33.6274 0.0000 22.0620 0.0000
# 2 12.6417 95.1783 15.1824 0.0000 3.1287 0.0000
# 3 33.6274 15.1824 78.2807 0.0000 23.5954 0.0000
# 4 0.0000 0.0000 0.0000 29.5930 0.0000 4.9738
# 5 22.0620 3.1287 23.5954 0.0000 31.9747 0.0000
# 6 0.0000 0.0000 0.0000 4.9738 0.0000 25.7692
#
#
#
# Elastic Compliance Matrix: (Units=1/GPa)
#
#
# Indices 1 2 3 4 5 6 
#
# 1 0.008902 -0.000658 -0.002398 0.000000 -0.004308 0.000000
# 2 -0.000658 0.010901 -0.002118 0.000000 0.000950 0.000000
# 3 -0.002398 -0.002118 0.017560 0.000000 -0.011097 0.000000
# 4 0.000000 0.000000 0.000000 0.034925 0.000000 -0.006741
# 5 -0.004308 0.000950 -0.011097 0.000000 0.042343 0.000000
# 6 0.000000 0.000000 0.000000 -0.006741 0.000000 0.040107
#
#
# Mechanical properties :
#
#
# Convention : Reuss Voigt Hill
#
# Bulk Modulus (GPa) = 37.01672 47.70769 42.36220
# Shear Modulus (GPa) = 28.72079 33.80170 31.26124
#
# Velocity S-wave (km/s) = 3.58846 3.89296 3.74381
# Velocity P-wave (km/s) = 5.81085 6.44955 6.13851
#
# Compressibility (1/GPa) = 0.02701482
#
# Stress axis : x y z
#
# Youngs Moduli (GPa) = 112.33733 91.73790 56.94750
#
# Poissons Ratio (x) = 0.06039 0.13654
# Poissons Ratio (y) = 0.07395 0.12061
# Poissons Ratio (z) = 0.26935 0.19429
#
# Static dielectric constant tensor:
#      x y z
#    x 1.842440 0.000000 0.012420 
#    y 0.000000 1.844240 0.000000 
#    z 0.012420 0.000000 1.788900 
# 
# From -- ./inp_files/12681.got.cif
#   From: 2010.05.17/outbox.cif.g08.bks.cpg/sg4_7_cif.got.tgz:12681.got - 2010.06.03 18:43:04.
