data_PCOD9116267
_publ_section_title
;
Structure prediction by ZEFSAII (Michael W. Deem and Ramdas Pophale) SiO2 
 PCOD9116267
Probable space group: P 21
;
_chemical_formula_sum "Si O2"
_cell_formula_units_Z 16
_cell_length_a 8.227713
_cell_length_b 7.707551
_cell_length_c 9.455228
_cell_angle_alpha 90.000000
_cell_angle_beta 72.666408
_cell_angle_gamma 90.000000
_cell_volume 572.377744
_symmetry_space_group_name_H-M "P 21"
_symmetry_group_IT_number 4
_symmetry_cell_setting 'monoclinic'
loop_
_space_group_symop_operation_xyz
x,y,z
-x,1/2+y,-z
loop_
_atom_site_type_symbol
_atom_site_label
_atom_site_fract_x
_atom_site_fract_y
_atom_site_fract_z
Si Si1 0.907388 0.150530 0.999313
Si Si2 0.377849 0.226681 0.989418
Si Si3 0.680116 0.671649 0.291579
Si Si4 0.709797 0.214260 0.555073
Si Si5 0.372210 0.767722 0.731118
Si Si6 0.088311 0.334894 0.194112
Si Si7 0.759428 0.799965 0.564546
Si Si8 0.735993 0.373687 0.834659
O O1 0.719736 0.155704 0.124956
O O2 0.019223 0.185888 0.109185
O O3 0.885254 0.311324 0.897931
O O4 0.977001 0.005277 0.871830
O O5 0.276677 0.257938 0.868042
O O6 0.572298 0.249364 0.900436
O O7 0.292217 0.365686 0.115408
O O8 0.337127 0.052216 0.085588
O O9 0.494352 0.745150 0.381947
O O10 0.643582 0.475129 0.248672
O O11 0.789170 0.711988 0.403221
O O12 0.738127 0.249702 0.383359
O O13 0.783901 0.339154 0.658110
O O14 0.745033 0.009671 0.563002
O O15 0.571532 0.726272 0.657792
O O16 0.094678 0.275890 0.355064
#
# Coordination Sequence:
#
# PCOD9116267 Si02
#       8
#     2   2   2   2   2   2   2   2
#     4  12  25  44  65  91 135 179 230 282 336 401
#     4  11  23  39  68 102 131 171 223 275 342 406
#     4   9  20  37  64  99 134 162 214 273 325 396
#     4   9  20  37  64  99 131 171 212 271 332 389
#     4  10  21  41  68  98 133 172 218 273 336 399
#     4  12  27  44  64  94 130 182 227 282 339 402
#     4  10  21  43  66  98 134 172 221 272 334 405
#     4  11  21  41  67 101 134 171 223 278 336 408
#
# _framework density 27.953565999999999
#
# number of rings (size 3 to 8) (size 9 to 14) (size 15 to 20)
#    0.000    1.500    2.500    2.250    5.250    0.000 
#    2.250    2.500    0.000    0.000    0.000    0.000 
#    0.000    0.000    0.000    0.000    0.000    0.000 
#
# Total GULP energy -89332.168505 kJ/mol
# GULP energy per Si atom -5583.260532 kJ/mol
# Density = 2.788994 g / cm^3
# Si number density = 27.953566 Si / 1000 Ang^3
#
#
#
# Elastic Constant Matrix: (Units=GPa)
#
#
# Indices 1 2 3 4 5 6 
#
# 1 81.8815 7.3993 44.6821 0.0000 24.0737 0.0000
# 2 7.3993 94.1497 9.3626 0.0000 17.7271 0.0000
# 3 44.6821 9.3626 155.2053 0.0000 42.0961 0.0000
# 4 0.0000 0.0000 0.0000 34.6448 0.0000 11.7926
# 5 24.0737 17.7271 42.0961 0.0000 64.3933 0.0000
# 6 0.0000 0.0000 0.0000 11.7926 0.0000 23.3650
#
#
#
# Elastic Compliance Matrix: (Units=1/GPa)
#
#
# Indices 1 2 3 4 5 6 
#
# 1 0.015083 -0.000216 -0.003423 0.000000 -0.003342 0.000000
# 2 -0.000216 0.011210 0.000244 0.000000 -0.003165 0.000000
# 3 -0.003423 0.000244 0.008612 0.000000 -0.004418 0.000000
# 4 0.000000 0.000000 0.000000 0.034852 0.000000 -0.017590
# 5 -0.003342 -0.003165 -0.004418 0.000000 0.020538 0.000000
# 6 0.000000 0.000000 0.000000 -0.017590 0.000000 0.051677
#
#
# Mechanical properties :
#
#
# Convention : Reuss Voigt Hill
#
# Bulk Modulus (GPa) = 35.56684 50.45827 43.01256
# Shear Modulus (GPa) = 31.61925 42.46680 37.04303
#
# Velocity S-wave (km/s) = 3.36688 3.90191 3.64423
# Velocity P-wave (km/s) = 5.27880 6.19595 5.75567
#
# Compressibility (1/GPa) = 0.02811607
#
# Stress axis : x y z
#
# Youngs Moduli (GPa) = 66.30196 89.20618 116.11881
#
# Poissons Ratio (x) = 0.01925 0.39744
# Poissons Ratio (y) = 0.01431 -0.02837
# Poissons Ratio (z) = 0.22693 -0.02180
#
# Static dielectric constant tensor:
#      x y z
#    x 2.285660 0.000000 0.029840 
#    y 0.000000 2.375300 0.000000 
#    z 0.029840 0.000000 2.229140 
# 
# From -- ./inp_files/5822.got.cif
#   From: 2010.05.17/outbox.cif.g08.bks.cpg/sg4_3_cif.got.tgz:5822.got - 2010.06.03 18:43:04.
