data_PCOD9116954
_publ_section_title
;
Structure prediction by ZEFSAII (Michael W. Deem and Ramdas Pophale) SiO2 
 PCOD9116954
Probable space group: P 21
;
_chemical_formula_sum "Si O2"
_cell_formula_units_Z 16
_cell_length_a 6.395377
_cell_length_b 7.854800
_cell_length_c 18.813340
_cell_angle_alpha 90.000000
_cell_angle_beta 134.976421
_cell_angle_gamma 90.000000
_cell_volume 668.545301
_symmetry_space_group_name_H-M "P 21"
_symmetry_group_IT_number 4
_symmetry_cell_setting 'monoclinic'
loop_
_space_group_symop_operation_xyz
x,y,z
-x,1/2+y,-z
loop_
_atom_site_type_symbol
_atom_site_label
_atom_site_fract_x
_atom_site_fract_y
_atom_site_fract_z
Si Si1 0.487409 0.875000 0.085529
Si Si2 0.925218 0.290921 0.551389
Si Si3 0.824429 0.879421 0.903438
Si Si4 0.645268 0.258758 0.102299
Si Si5 0.393328 0.141602 0.754256
Si Si6 0.650199 0.573184 0.586717
Si Si7 0.256432 0.182116 0.240856
Si Si8 0.089728 0.832183 0.616894
O O1 0.612596 0.754134 0.176526
O O2 0.639895 0.057809 0.117011
O O3 0.479487 0.787579 0.006498
O O4 0.139090 0.908870 0.013433
O O5 0.757179 0.416144 0.565301
O O6 0.692818 0.131602 0.495785
O O7 0.954059 0.361881 0.478197
O O8 0.260228 0.260171 0.659632
O O9 0.570482 0.860755 0.899583
O O10 0.836140 0.696291 0.864590
O O11 0.709404 0.042637 0.829535
O O12 0.986369 0.309886 0.197874
O O13 0.164436 0.988467 0.686419
O O14 0.734426 0.555177 0.690338
O O15 0.838135 0.723317 0.593999
O O16 0.594976 0.235054 0.312207
#
# Coordination Sequence:
#
# PCOD9116954 Si02
#       8
#     2   2   2   2   2   2   2   2
#     4  11  24  41  65  98 133 179 228 280 348 412
#     4  11  24  41  65  98 133 179 228 280 348 412
#     4  10  22  42  66  95 133 174 224 285 338 406
#     4  11  22  41  64  92 135 174 222 285 339 407
#     4  11  22  41  67  97 132 176 227 275 342 413
#     4  11  22  41  64  92 135 174 222 285 339 407
#     4   9  20  37  63  91 122 170 215 265 338 395
#     4  10  22  42  66  95 133 174 224 285 338 406
#
# _framework density 23.932559000000001
#
# number of rings (size 3 to 8) (size 9 to 14) (size 15 to 20)
#    0.000    1.500    0.000    5.250    0.000    4.000 
#    0.000   10.000    0.000    0.000    0.000    0.000 
#    0.000    0.000    0.000    0.000    0.000    0.000 
#
# Total GULP energy -89070.053125 kJ/mol
# GULP energy per Si atom -5566.878320 kJ/mol
# Density = 2.387809 g / cm^3
# Si number density = 23.932559 Si / 1000 Ang^3
#
#
#
# Elastic Constant Matrix: (Units=GPa)
#
#
# Indices 1 2 3 4 5 6 
#
# 1 109.9920 25.2607 42.7426 0.0000 10.3034 0.0000
# 2 25.2607 87.5682 32.0921 0.0000 -3.6677 0.0000
# 3 42.7426 32.0921 127.4666 0.0000 -4.7770 0.0000
# 4 0.0000 0.0000 0.0000 37.6417 0.0000 6.5233
# 5 10.3034 -3.6677 -4.7770 0.0000 30.2398 0.0000
# 6 0.0000 0.0000 0.0000 6.5233 0.0000 17.2126
#
#
#
# Elastic Compliance Matrix: (Units=1/GPa)
#
#
# Indices 1 2 3 4 5 6 
#
# 1 0.011373 -0.002220 -0.003431 0.000000 -0.004686 0.000000
# 2 -0.002220 0.013046 -0.002467 0.000000 0.001949 0.000000
# 3 -0.003431 -0.002467 0.009707 0.000000 0.002403 0.000000
# 4 0.000000 0.000000 0.000000 0.028434 0.000000 -0.010776
# 5 -0.004686 0.001949 0.002403 0.000000 0.035282 0.000000
# 6 0.000000 0.000000 0.000000 -0.010776 0.000000 0.062181
#
#
# Mechanical properties :
#
#
# Convention : Reuss Voigt Hill
#
# Bulk Modulus (GPa) = 55.89429 58.35750 57.12589
# Shear Modulus (GPa) = 27.43915 32.01424 29.72670
#
# Velocity S-wave (km/s) = 3.38970 3.66141 3.52817
# Velocity P-wave (km/s) = 6.22300 6.50474 6.36543
#
# Compressibility (1/GPa) = 0.01789091
#
# Stress axis : x y z
#
# Youngs Moduli (GPa) = 87.92381 76.65285 103.02153
#
# Poissons Ratio (x) = 0.17017 0.35342
# Poissons Ratio (y) = 0.19519 0.25416
# Poissons Ratio (z) = 0.30162 0.18911
#
# Static dielectric constant tensor:
#      x y z
#    x 1.928350 0.000000 -0.007220 
#    y 0.000000 2.012900 0.000000 
#    z -0.007220 0.000000 1.942770 
# 
# From -- ./inp_files/13236.got.cif
#   From: 2010.05.17/outbox.cif.g08.bks.cpg/sg4_7_cif.got.tgz:13236.got - 2010.06.03 18:43:04.
