data_PCOD9116276
_publ_section_title
;
Structure prediction by ZEFSAII (Michael W. Deem and Ramdas Pophale) SiO2 
 PCOD9116276
Probable space group: P 21
;
_chemical_formula_sum "Si O2"
_cell_formula_units_Z 16
_cell_length_a 8.740240
_cell_length_b 5.421001
_cell_length_c 22.388183
_cell_angle_alpha 90.000000
_cell_angle_beta 40.190374
_cell_angle_gamma 90.000000
_cell_volume 684.546755
_symmetry_space_group_name_H-M "P 21"
_symmetry_group_IT_number 4
_symmetry_cell_setting 'monoclinic'
loop_
_space_group_symop_operation_xyz
x,y,z
-x,1/2+y,-z
loop_
_atom_site_type_symbol
_atom_site_label
_atom_site_fract_x
_atom_site_fract_y
_atom_site_fract_z
Si Si1 0.312368 0.384220 0.295559
Si Si2 0.379497 0.093108 0.167200
Si Si3 0.849015 0.594831 0.546720
Si Si4 0.859612 0.896722 0.054697
Si Si5 0.997163 0.730743 0.322423
Si Si6 0.982081 0.875264 0.790449
Si Si7 0.631395 0.003231 0.366989
Si Si8 0.735025 0.696590 0.217000
O O1 0.438933 0.313520 0.195571
O O2 0.272085 0.164536 0.353988
O O3 0.489754 0.566300 0.275470
O O4 0.072342 0.531515 0.349371
O O5 0.241870 0.193225 0.150046
O O6 0.614459 0.934773 0.091428
O O7 0.179759 0.956385 0.266598
O O8 0.643276 0.564353 0.558541
O O9 0.992380 0.340130 0.510865
O O10 0.801336 0.868365 0.142302
O O11 0.985825 0.641425 0.000403
O O12 0.068106 0.600216 0.238868
O O13 0.735488 0.847296 0.391952
O O14 0.207014 0.743846 0.691307
O O15 0.067304 0.986810 0.827465
O O16 0.695695 0.843804 0.289383
#
# Coordination Sequence:
#
# PCOD9116276 Si02
#       8
#     2   2   2   2   2   2   2   2
#     4  11  21  40  72 100 125 175 239 280 326 405
#     4  10  21  41  69  96 128 174 231 281 332 401
#     4  12  27  41  67 101 145 177 220 286 355 409
#     4  12  27  41  67 101 145 177 220 286 355 409
#     4   9  20  37  71  96 126 165 236 283 325 386
#     4   9  20  37  71  96 126 165 236 283 325 386
#     4  10  21  41  69  96 128 174 231 281 332 401
#     4  11  21  40  72 100 125 175 239 280 326 405
#
# _framework density 23.37313
#
# number of rings (size 3 to 8) (size 9 to 14) (size 15 to 20)
#    0.000    1.500    2.500    2.250    7.000    0.000 
#    0.000    0.000   16.500    0.000    0.000    0.000 
#    0.000    0.000    0.000    0.000    0.000    0.000 
#
# Total GULP energy -89372.601347 kJ/mol
# GULP energy per Si atom -5585.787584 kJ/mol
# Density = 2.331993 g / cm^3
# Si number density = 23.373130 Si / 1000 Ang^3
#
#
#
# Elastic Constant Matrix: (Units=GPa)
#
#
# Indices 1 2 3 4 5 6 
#
# 1 129.4126 32.4497 32.1256 0.0000 -25.8689 0.0000
# 2 32.4497 84.4614 25.3054 0.0000 -6.2510 0.0000
# 3 32.1256 25.3054 54.6166 0.0000 -17.9572 0.0000
# 4 0.0000 0.0000 0.0000 36.3142 0.0000 6.7357
# 5 -25.8689 -6.2510 -17.9572 0.0000 21.8291 0.0000
# 6 0.0000 0.0000 0.0000 6.7357 0.0000 48.2489
#
#
#
# Elastic Compliance Matrix: (Units=1/GPa)
#
#
# Indices 1 2 3 4 5 6 
#
# 1 0.011046 -0.002981 -0.001498 0.000000 0.011004 0.000000
# 2 -0.002981 0.014603 -0.006579 0.000000 -0.004762 0.000000
# 3 -0.001498 -0.006579 0.028835 0.000000 0.020060 0.000000
# 4 0.000000 0.000000 0.000000 0.028269 0.000000 -0.003947
# 5 0.011004 -0.004762 0.020060 0.000000 0.073990 0.000000
# 6 0.000000 0.000000 0.000000 -0.003947 0.000000 0.021277
#
#
# Mechanical properties :
#
#
# Convention : Reuss Voigt Hill
#
# Bulk Modulus (GPa) = 30.89389 49.80578 40.34984
# Shear Modulus (GPa) = 23.70507 33.18576 28.44541
#
# Velocity S-wave (km/s) = 3.18811 3.77214 3.49236
# Velocity P-wave (km/s) = 5.17672 6.35038 5.79335
#
# Compressibility (1/GPa) = 0.03236886
#
# Stress axis : x y z
#
# Youngs Moduli (GPa) = 90.52831 68.47688 34.68067
#
# Poissons Ratio (x) = 0.20410 0.05196
# Poissons Ratio (y) = 0.26983 0.22816
# Poissons Ratio (z) = 0.13564 0.45049
#
# Static dielectric constant tensor:
#      x y z
#    x 1.885450 0.000000 -0.026860 
#    y 0.000000 1.920370 0.000000 
#    z -0.026860 0.000000 1.895920 
# 
# From -- ./inp_files/14277.got.cif
#   From: 2010.05.17/outbox.cif.g08.bks.cpg/sg4_8_cif.got.tgz:14277.got - 2010.06.03 18:43:04.
