data_PCOD9116172
_publ_section_title
;
Structure prediction by ZEFSAII (Michael W. Deem and Ramdas Pophale) SiO2 
 PCOD9116172
Probable space group: P 21
;
_chemical_formula_sum "Si O2"
_cell_formula_units_Z 16
_cell_length_a 15.732038
_cell_length_b 4.998230
_cell_length_c 19.954432
_cell_angle_alpha 90.000000
_cell_angle_beta 26.096254
_cell_angle_gamma 90.000000
_cell_volume 690.200485
_symmetry_space_group_name_H-M "P 21"
_symmetry_group_IT_number 4
_symmetry_cell_setting 'monoclinic'
loop_
_space_group_symop_operation_xyz
x,y,z
-x,1/2+y,-z
loop_
_atom_site_type_symbol
_atom_site_label
_atom_site_fract_x
_atom_site_fract_y
_atom_site_fract_z
Si Si1 0.510908 0.795800 0.039507
Si Si2 0.787419 0.620344 0.680072
Si Si3 0.489780 0.864290 0.283369
Si Si4 0.131629 0.620568 0.164133
Si Si5 0.957639 0.489138 0.420885
Si Si6 0.275295 0.044217 0.615053
Si Si7 0.491132 0.055527 0.594104
Si Si8 0.574381 0.366817 0.137171
O O1 0.324214 0.853541 0.217761
O O2 0.514773 0.508136 0.003227
O O3 0.705842 0.892561 0.938274
O O4 0.923773 0.609461 0.518516
O O5 0.610708 0.793596 0.776478
O O6 0.900900 0.744466 0.661990
O O7 0.256268 0.897194 0.451038
O O8 0.554399 0.704574 0.304134
O O9 0.547212 0.658573 0.185028
O O10 0.572930 0.150211 0.199723
O O11 0.048054 0.668638 0.298168
O O12 0.942106 0.560268 0.255350
O O13 0.244399 0.834696 0.039733
O O14 0.316954 0.083862 0.664358
O O15 0.342886 0.744090 0.553408
O O16 0.414583 0.257109 0.475908
#
# Coordination Sequence:
#
# PCOD9116172 Si02
#       8
#     2   2   2   2   2   2   2   2
#     4  11  25  43  63  89 131 173 210 265 336 389
#     4  10  23  38  60  92 125 166 217 272 320 381
#     4  11  22  43  66  94 129 178 213 277 335 399
#     4  11  24  43  68  97 133 179 227 276 336 415
#     4  11  22  40  68  96 128 174 236 280 324 402
#     4  10  22  40  66 104 131 168 221 285 329 407
#     4  10  21  40  69  98 136 166 219 281 348 386
#     4  10  25  43  62  92 139 170 217 268 344 395
#
# _framework density 23.181667999999998
#
# number of rings (size 3 to 8) (size 9 to 14) (size 15 to 20)
#    0.000    1.500    2.500    1.500    3.500    9.000 
#    0.000    1.250    0.000    0.000    0.000    0.000 
#    0.000    0.000    0.000    0.000    0.000    0.000 
#
# Total GULP energy -89447.893531 kJ/mol
# GULP energy per Si atom -5590.493346 kJ/mol
# Density = 2.312891 g / cm^3
# Si number density = 23.181668 Si / 1000 Ang^3
#
#
#
# Elastic Constant Matrix: (Units=GPa)
#
#
# Indices 1 2 3 4 5 6 
#
# 1 117.8372 -1.0263 45.6420 0.0000 -7.8284 0.0000
# 2 -1.0263 43.4146 6.1700 0.0000 -1.0018 0.0000
# 3 45.6420 6.1700 138.8915 0.0000 10.1893 0.0000
# 4 0.0000 0.0000 0.0000 20.8826 0.0000 14.5279
# 5 -7.8284 -1.0018 10.1893 0.0000 40.4820 0.0000
# 6 0.0000 0.0000 0.0000 14.5279 0.0000 30.9861
#
#
#
# Elastic Compliance Matrix: (Units=1/GPa)
#
#
# Indices 1 2 3 4 5 6 
#
# 1 0.010059 0.000808 -0.003551 0.000000 0.002859 0.000000
# 2 0.000808 0.023274 -0.001379 0.000000 0.001079 0.000000
# 3 -0.003551 -0.001379 0.008640 0.000000 -0.002896 0.000000
# 4 0.000000 0.000000 0.000000 0.071067 0.000000 -0.033320
# 5 0.002859 0.001079 -0.002896 0.000000 0.026011 0.000000
# 6 0.000000 0.000000 0.000000 -0.033320 0.000000 0.047895
#
#
# Mechanical properties :
#
#
# Convention : Reuss Voigt Hill
#
# Bulk Modulus (GPa) = 29.64717 44.63498 37.14108
# Shear Modulus (GPa) = 24.22104 35.09399 29.65752
#
# Velocity S-wave (km/s) = 3.23590 3.89507 3.58068
# Velocity P-wave (km/s) = 5.17477 6.28689 5.75774
#
# Compressibility (1/GPa) = 0.03373003
#
# Stress axis : x y z
#
# Youngs Moduli (GPa) = 99.41634 42.96703 115.73423
#
# Poissons Ratio (x) = -0.03474 0.41098
# Poissons Ratio (y) = -0.08037 0.15957
# Poissons Ratio (z) = 0.35304 0.05924
#
# Static dielectric constant tensor:
#      x y z
#    x 1.913200 0.000000 0.042900 
#    y 0.000000 1.907610 0.000000 
#    z 0.042900 0.000000 1.895100 
# 
# From -- ./inp_files/13442.got.cif
#   From: 2010.05.17/outbox.cif.g08.bks.cpg/sg4_7_cif.got.tgz:13442.got - 2010.06.03 18:43:04.
