data_PCOD9116469
_publ_section_title
;
Structure prediction by ZEFSAII (Michael W. Deem and Ramdas Pophale) SiO2 
 PCOD9116469
Probable space group: P 21
;
_chemical_formula_sum "Si O2"
_cell_formula_units_Z 16
_cell_length_a 14.623965
_cell_length_b 5.672189
_cell_length_c 11.898021
_cell_angle_alpha 90.000000
_cell_angle_beta 137.723685
_cell_angle_gamma 90.000000
_cell_volume 663.920870
_symmetry_space_group_name_H-M "P 21"
_symmetry_group_IT_number 4
_symmetry_cell_setting 'monoclinic'
loop_
_space_group_symop_operation_xyz
x,y,z
-x,1/2+y,-z
loop_
_atom_site_type_symbol
_atom_site_label
_atom_site_fract_x
_atom_site_fract_y
_atom_site_fract_z
Si Si1 0.812963 0.939330 0.395404
Si Si2 0.936913 0.552241 0.243743
Si Si3 0.577241 0.312733 0.223751
Si Si4 0.682967 0.605586 0.110888
Si Si5 0.264578 0.116774 0.475815
Si Si6 0.824477 0.868456 0.951151
Si Si7 0.422806 0.350546 0.426886
Si Si8 0.026442 0.215203 0.136405
O O1 0.775262 0.819873 0.243397
O O2 0.796356 0.719557 0.465190
O O3 0.692192 0.116717 0.313253
O O4 0.955504 0.064841 0.555413
O O5 0.798958 0.432215 0.167265
O O6 0.022582 0.422007 0.224047
O O7 0.869406 0.762143 0.110024
O O8 0.598382 0.489044 0.136461
O O9 0.617589 0.442703 0.375799
O O10 0.429610 0.198216 0.077730
O O11 0.329642 0.312315 0.453553
O O12 0.134364 0.026689 0.287088
O O13 0.674454 0.835794 0.769926
O O14 0.919717 0.767378 0.937637
O O15 0.870689 0.138035 0.992409
O O16 0.487414 0.610914 0.491865
#
# Coordination Sequence:
#
# PCOD9116469 Si02
#       8
#     2   2   2   2   2   2   2   2
#     4  10  23  44  67  96 138 181 237 295 361 432
#     4  11  25  41  70 103 135 182 236 294 356 430
#     4  11  22  45  68  93 138 183 230 293 365 439
#     4  11  25  42  67 103 130 182 235 292 361 430
#     4   9  23  42  71  96 133 190 233 288 367 436
#     4  11  23  42  72 101 143 186 231 295 363 432
#     4  11  28  46  69 108 151 191 242 299 358 438
#     4  10  21  44  68 102 134 177 234 290 359 433
#
# _framework density 24.099257000000001
#
# number of rings (size 3 to 8) (size 9 to 14) (size 15 to 20)
#    0.000    1.500    2.500    0.750    7.000    1.000 
#    0.000    0.000    0.000    0.000    0.000    0.000 
#    0.000    0.000    0.000    0.000    0.000    0.000 
#
# Total GULP energy -89244.957055 kJ/mol
# GULP energy per Si atom -5577.809816 kJ/mol
# Density = 2.404441 g / cm^3
# Si number density = 24.099257 Si / 1000 Ang^3
#
#
#
# Elastic Constant Matrix: (Units=GPa)
#
#
# Indices 1 2 3 4 5 6 
#
# 1 78.5225 -2.9154 38.9935 0.0000 8.7777 0.0000
# 2 -2.9154 40.6858 37.9713 0.0000 7.6916 0.0000
# 3 38.9935 37.9713 159.1505 0.0000 24.3463 0.0000
# 4 0.0000 0.0000 0.0000 29.5027 0.0000 9.8360
# 5 8.7777 7.6916 24.3463 0.0000 43.7387 0.0000
# 6 0.0000 0.0000 0.0000 9.8360 0.0000 25.4700
#
#
#
# Elastic Compliance Matrix: (Units=1/GPa)
#
#
# Indices 1 2 3 4 5 6 
#
# 1 0.015641 0.006126 -0.005081 0.000000 -0.001388 0.000000
# 2 0.006126 0.034107 -0.009327 0.000000 -0.002035 0.000000
# 3 -0.005081 -0.009327 0.010217 0.000000 -0.003027 0.000000
# 4 0.000000 0.000000 0.000000 0.038904 0.000000 -0.015024
# 5 -0.001388 -0.002035 -0.003027 0.000000 0.025184 0.000000
# 6 0.000000 0.000000 0.000000 -0.015024 0.000000 0.045064
#
#
# Mechanical properties :
#
#
# Convention : Reuss Voigt Hill
#
# Bulk Modulus (GPa) = 23.04191 47.38418 35.21304
# Shear Modulus (GPa) = 24.98137 33.36291 29.17214
#
# Velocity S-wave (km/s) = 3.22313 3.72478 3.48300
# Velocity P-wave (km/s) = 4.84081 6.18089 5.55143
#
# Compressibility (1/GPa) = 0.04339918
#
# Stress axis : x y z
#
# Youngs Moduli (GPa) = 63.93390 29.31951 97.87890
#
# Poissons Ratio (x) = -0.17960 0.49737
# Poissons Ratio (y) = -0.39163 0.91291
# Poissons Ratio (z) = 0.32488 0.27346
#
# Static dielectric constant tensor:
#      x y z
#    x 1.998500 0.000000 -0.020590 
#    y 0.000000 2.019730 0.000000 
#    z -0.020590 0.000000 1.964670 
# 
# From -- ./inp_files/7309.got.cif
#   From: 2010.05.17/outbox.cif.g08.bks.cpg/sg4_4_cif.got.tgz:7309.got - 2010.06.03 18:43:04.
