data_PCOD9116321
_publ_section_title
;
Structure prediction by ZEFSAII (Michael W. Deem and Ramdas Pophale) SiO2 
 PCOD9116321
Probable space group: P 21
;
_chemical_formula_sum "Si O2"
_cell_formula_units_Z 16
_cell_length_a 20.249574
_cell_length_b 8.003350
_cell_length_c 5.353514
_cell_angle_alpha 90.000000
_cell_angle_beta 44.907860
_cell_angle_gamma 90.000000
_cell_volume 612.508489
_symmetry_space_group_name_H-M "P 21"
_symmetry_group_IT_number 4
_symmetry_cell_setting 'monoclinic'
loop_
_space_group_symop_operation_xyz
x,y,z
-x,1/2+y,-z
loop_
_atom_site_type_symbol
_atom_site_label
_atom_site_fract_x
_atom_site_fract_y
_atom_site_fract_z
Si Si1 0.488485 0.719900 0.819784
Si Si2 0.903770 0.779958 0.200594
Si Si3 0.041933 0.958356 0.187913
Si Si4 0.409177 0.569044 0.529084
Si Si5 0.829313 0.524490 0.767950
Si Si6 0.762923 0.315952 0.566547
Si Si7 0.671757 0.615940 0.558828
Si Si8 0.740943 0.958326 0.404410
O O1 0.433281 0.654030 0.726136
O O2 0.583990 0.613235 0.610312
O O3 0.525096 0.906136 0.672716
O O4 0.437040 0.689054 0.222449
O O5 0.833629 0.653026 0.529869
O O6 0.846766 0.897625 0.167376
O O7 0.966283 0.649264 0.882568
O O8 0.957303 0.866972 0.283482
O O9 0.067414 0.979210 0.410512
O O10 0.136778 0.865387 0.831419
O O11 0.304241 0.503788 0.743354
O O12 0.779976 0.355813 0.810486
O O13 0.766478 0.611237 0.142323
O O14 0.685176 0.451653 0.689546
O O15 0.739450 0.129469 0.560700
O O16 0.675309 0.802050 0.671447
#
# Coordination Sequence:
#
# PCOD9116321 Si02
#       8
#     2   2   2   2   2   2   2   2
#     4  11  26  46  74 105 148 188 246 304 372 442
#     4  11  22  41  66  92 142 178 233 293 348 426
#     4  10  22  42  63  97 131 185 223 288 351 410
#     4  11  27  46  73 109 144 194 245 306 374 442
#     4  10  21  42  66  97 136 177 238 285 360 416
#     4  10  22  42  67  94 137 171 231 286 350 416
#     4  10  23  45  68  95 137 185 223 296 356 429
#     4  11  23  44  67  99 135 184 231 288 363 427
#
# _framework density 26.122084999999998
#
# number of rings (size 3 to 8) (size 9 to 14) (size 15 to 20)
#    0.000    1.500    3.750    1.500    5.250    5.000 
#    9.000    0.000    0.000    0.000    0.000    0.000 
#    0.000    0.000    0.000    0.000    0.000    0.000 
#
# Total GULP energy -89452.250472 kJ/mol
# GULP energy per Si atom -5590.765654 kJ/mol
# Density = 2.606263 g / cm^3
# Si number density = 26.122085 Si / 1000 Ang^3
#
#
#
# Elastic Constant Matrix: (Units=GPa)
#
#
# Indices 1 2 3 4 5 6 
#
# 1 209.4060 79.7320 19.3334 0.0000 13.0121 0.0000
# 2 79.7320 182.5013 19.8904 0.0000 16.4328 0.0000
# 3 19.3334 19.8904 34.0231 0.0000 5.7699 0.0000
# 4 0.0000 0.0000 0.0000 17.1788 0.0000 4.5088
# 5 13.0121 16.4328 5.7699 0.0000 38.3161 0.0000
# 6 0.0000 0.0000 0.0000 4.5088 0.0000 63.7975
#
#
#
# Elastic Compliance Matrix: (Units=1/GPa)
#
#
# Indices 1 2 3 4 5 6 
#
# 1 0.005867 -0.002294 -0.001869 0.000000 -0.000727 0.000000
# 2 -0.002294 0.006910 -0.002428 0.000000 -0.001819 0.000000
# 3 -0.001869 -0.002428 0.032417 0.000000 -0.003206 0.000000
# 4 0.000000 0.000000 0.000000 0.059311 0.000000 -0.004192
# 5 -0.000727 -0.001819 -0.003206 0.000000 0.027608 0.000000
# 6 0.000000 0.000000 0.000000 -0.004192 0.000000 0.015971
#
#
# Mechanical properties :
#
#
# Convention : Reuss Voigt Hill
#
# Bulk Modulus (GPa) = 31.23861 73.76021 52.49941
# Shear Modulus (GPa) = 29.08053 44.32346 36.70200
#
# Velocity S-wave (km/s) = 3.34017 4.12367 3.75242
# Velocity P-wave (km/s) = 5.18269 7.13939 6.23824
#
# Compressibility (1/GPa) = 0.03201167
#
# Stress axis : x y z
#
# Youngs Moduli (GPa) = 170.45787 144.71955 30.84805
#
# Poissons Ratio (x) = 0.33196 0.05767
# Poissons Ratio (y) = 0.39100 0.07489
# Poissons Ratio (z) = 0.31864 0.35134
#
# Static dielectric constant tensor:
#      x y z
#    x 2.095690 0.000000 -0.019750 
#    y 0.000000 2.058720 0.000000 
#    z -0.019750 0.000000 2.097500 
# 
# From -- ./inp_files/4042.got.cif
#   From: 2010.05.17/outbox.cif.g08.bks.cpg/sg4_3_cif.got.tgz:4042.got - 2010.06.03 18:43:04.
