data_PCOD9116183
_publ_section_title
;
Structure prediction by ZEFSAII (Michael W. Deem and Ramdas Pophale) SiO2 
 PCOD9116183
Probable space group: P 21
;
_chemical_formula_sum "Si O2"
_cell_formula_units_Z 16
_cell_length_a 16.055113
_cell_length_b 5.939713
_cell_length_c 22.214697
_cell_angle_alpha 90.000000
_cell_angle_beta 18.305934
_cell_angle_gamma 90.000000
_cell_volume 665.387159
_symmetry_space_group_name_H-M "P 21"
_symmetry_group_IT_number 4
_symmetry_cell_setting 'monoclinic'
loop_
_space_group_symop_operation_xyz
x,y,z
-x,1/2+y,-z
loop_
_atom_site_type_symbol
_atom_site_label
_atom_site_fract_x
_atom_site_fract_y
_atom_site_fract_z
Si Si1 0.660467 0.131460 0.779956
Si Si2 0.807486 0.011484 0.255926
Si Si3 0.952975 0.219203 0.005842
Si Si4 0.988429 0.275058 0.435689
Si Si5 0.166185 0.364609 0.067213
Si Si6 0.032869 0.367247 0.615206
Si Si7 0.255520 0.203717 0.589683
Si Si8 0.459149 0.135611 0.272385
O O1 0.856175 0.201132 0.590166
O O2 0.785900 0.242322 0.753741
O O3 0.364987 0.208550 0.969145
O O4 0.723029 0.870039 0.744890
O O5 0.554366 0.115852 0.396222
O O6 0.035898 0.201644 0.105716
O O7 0.759882 0.920132 0.355545
O O8 0.892360 0.790551 0.160651
O O9 0.656902 0.151111 0.191919
O O10 0.938960 0.475595 0.044487
O O11 0.773667 0.456170 0.561062
O O12 0.037183 0.124866 0.343813
O O13 0.933245 0.497727 0.259918
O O14 0.359418 0.554151 0.906310
O O15 0.142427 0.280994 0.602831
O O16 0.286637 0.360391 0.394140
#
# Coordination Sequence:
#
# PCOD9116183 Si02
#       8
#     2   2   2   2   2   2   2   2
#     4  10  22  42  74 113 151 194 250 325 403 469
#     4  12  27  49  76 106 156 213 264 320 405 470
#     4  12  27  45  76 116 152 199 267 342 396 471
#     4  10  21  40  74 114 152 192 248 323 409 476
#     4  11  25  48  79 108 152 210 264 320 399 485
#     4  11  25  44  75 116 150 201 259 324 393 487
#     4  12  27  51  76 107 156 217 262 320 394 487
#     4  10  24  43  72 110 147 192 254 324 393 461
#
# _framework density 24.046150999999998
#
# number of rings (size 3 to 8) (size 9 to 14) (size 15 to 20)
#    0.000    1.000    3.750    1.500    5.250    4.000 
#    2.250    0.000    0.000    0.000    0.000    0.000 
#    0.000    0.000    0.000    0.000    0.000    0.000 
#
# Total GULP energy -89219.385206 kJ/mol
# GULP energy per Si atom -5576.211575 kJ/mol
# Density = 2.399142 g / cm^3
# Si number density = 24.046151 Si / 1000 Ang^3
#
#
#
# Elastic Constant Matrix: (Units=GPa)
#
#
# Indices 1 2 3 4 5 6 
#
# 1 175.7645 67.9295 49.7892 0.0000 -27.9139 0.0000
# 2 67.9295 80.4928 19.7176 0.0000 -11.9834 0.0000
# 3 49.7892 19.7176 69.1259 0.0000 -33.5477 0.0000
# 4 0.0000 0.0000 0.0000 20.7550 0.0000 1.6145
# 5 -27.9139 -11.9834 -33.5477 0.0000 35.9763 0.0000
# 6 0.0000 0.0000 0.0000 1.6145 0.0000 53.9365
#
#
#
# Elastic Compliance Matrix: (Units=1/GPa)
#
#
# Indices 1 2 3 4 5 6 
#
# 1 0.009887 -0.007063 -0.004613 0.000000 0.001017 0.000000
# 2 -0.007063 0.018455 0.000268 0.000000 0.000917 0.000000
# 3 -0.004613 0.000268 0.029261 0.000000 0.023796 0.000000
# 4 0.000000 0.000000 0.000000 0.048294 0.000000 -0.001446
# 5 0.001017 0.000917 0.023796 0.000000 0.051080 0.000000
# 6 0.000000 0.000000 0.000000 -0.001446 0.000000 0.018584
#
#
# Mechanical properties :
#
#
# Convention : Reuss Voigt Hill
#
# Bulk Modulus (GPa) = 28.74615 66.69511 47.72063
# Shear Modulus (GPa) = 23.81270 34.66337 29.23803
#
# Velocity S-wave (km/s) = 3.15030 3.80087 3.49078
# Velocity P-wave (km/s) = 5.02126 6.85993 6.01131
#
# Compressibility (1/GPa) = 0.03478726
#
# Stress axis : x y z
#
# Youngs Moduli (GPa) = 101.13914 54.18694 34.17504
#
# Poissons Ratio (x) = 0.38270 0.15766
# Poissons Ratio (y) = 0.71431 -0.00916
# Poissons Ratio (z) = 0.46659 -0.01453
#
# Static dielectric constant tensor:
#      x y z
#    x 1.986550 0.000000 0.087360 
#    y 0.000000 2.061910 0.000000 
#    z 0.087360 0.000000 1.941920 
# 
# From -- ./inp_files/15789.got.cif
#   From: 2010.05.17/outbox.cif.g08.bks.cpg/sg4_8_cif.got.tgz:15789.got - 2010.06.03 18:43:04.
