data_PCOD9116557
_publ_section_title
;
Structure prediction by ZEFSAII (Michael W. Deem and Ramdas Pophale) SiO2 
 PCOD9116557
Probable space group: P 21
;
_chemical_formula_sum "Si O2"
_cell_formula_units_Z 16
_cell_length_a 17.585788
_cell_length_b 5.250437
_cell_length_c 11.809597
_cell_angle_alpha 90.000000
_cell_angle_beta 138.238197
_cell_angle_gamma 90.000000
_cell_volume 726.255838
_symmetry_space_group_name_H-M "P 21"
_symmetry_group_IT_number 4
_symmetry_cell_setting 'monoclinic'
loop_
_space_group_symop_operation_xyz
x,y,z
-x,1/2+y,-z
loop_
_atom_site_type_symbol
_atom_site_label
_atom_site_fract_x
_atom_site_fract_y
_atom_site_fract_z
Si Si1 0.403408 0.476990 0.272734
Si Si2 0.662628 0.311916 0.601366
Si Si3 0.688552 0.160764 0.394582
Si Si4 0.438168 0.963986 0.167804
Si Si5 0.576111 0.477781 0.087488
Si Si6 0.141619 0.466907 0.601736
Si Si7 0.752471 0.627253 0.905131
Si Si8 0.874903 0.467291 0.266779
O O1 0.548244 0.456478 0.434725
O O2 0.391606 0.575986 0.390317
O O3 0.402019 0.695247 0.173734
O O4 0.249943 0.425451 0.103802
O O5 0.732418 0.237803 0.566549
O O6 0.736045 0.479347 0.771409
O O7 0.652665 0.405845 0.278611
O O8 0.769253 0.001311 0.401630
O O9 0.569607 0.017415 0.291533
O O10 0.387262 0.161386 0.206636
O O11 0.373994 0.033362 0.980773
O O12 0.493533 0.715856 0.015751
O O13 0.153361 0.205482 0.682807
O O14 0.012936 0.473762 0.411565
O O15 0.156830 0.704127 0.705196
O O16 0.822563 0.510277 0.083939
#
# Coordination Sequence:
#
# PCOD9116557 Si02
#       8
#     2   2   2   2   2   2   2   2
#     4  11  20  36  56  84 126 175 212 256 306 377
#     4  11  21  36  53  91 127 170 217 249 316 386
#     4  11  22  38  60  89 133 168 203 269 338 391
#     4  10  22  34  56  91 122 163 213 260 317 394
#     4  10  22  35  51  84 122 159 195 249 315 382
#     4  10  24  46  72  96 127 165 213 287 341 388
#     4  11  23  36  65  86 123 175 216 265 304 385
#     4  10  24  47  71  97 122 165 231 271 331 397
#
# _framework density 22.030804
#
# number of rings (size 3 to 8) (size 9 to 14) (size 15 to 20)
#    0.000    1.500    2.500    2.250    7.000    5.000 
#    0.000    0.000    2.750    0.000    0.000    0.000 
#    0.000    0.000    0.000    0.000    0.000    0.000 
#
# Total GULP energy -89104.996465 kJ/mol
# GULP energy per Si atom -5569.062279 kJ/mol
# Density = 2.198066 g / cm^3
# Si number density = 22.030804 Si / 1000 Ang^3
#
#
#
# Elastic Constant Matrix: (Units=GPa)
#
#
# Indices 1 2 3 4 5 6 
#
# 1 104.2424 26.5993 40.5032 0.0000 -16.1097 0.0000
# 2 26.5993 90.0206 29.7237 0.0000 -0.4894 0.0000
# 3 40.5032 29.7237 135.3075 0.0000 -16.0182 0.0000
# 4 0.0000 0.0000 0.0000 25.4712 0.0000 -6.0812
# 5 -16.1097 -0.4894 -16.0182 0.0000 35.6396 0.0000
# 6 0.0000 0.0000 0.0000 -6.0812 0.0000 30.4866
#
#
#
# Elastic Compliance Matrix: (Units=1/GPa)
#
#
# Indices 1 2 3 4 5 6 
#
# 1 0.011889 -0.002674 -0.002471 0.000000 0.004227 0.000000
# 2 -0.002674 0.012618 -0.002212 0.000000 -0.002029 0.000000
# 3 -0.002471 -0.002212 0.008957 0.000000 0.002878 0.000000
# 4 0.000000 0.000000 0.000000 0.041223 0.000000 0.008223
# 5 0.004227 -0.002029 0.002878 0.000000 0.031235 0.000000
# 6 0.000000 0.000000 0.000000 0.008223 0.000000 0.034442
#
#
# Mechanical properties :
#
#
# Convention : Reuss Voigt Hill
#
# Bulk Modulus (GPa) = 53.33306 58.13586 55.73446
# Shear Modulus (GPa) = 30.99307 33.83576 32.41441
#
# Velocity S-wave (km/s) = 3.75481 3.92323 3.83994
# Velocity P-wave (km/s) = 6.56194 6.85332 6.70921
#
# Compressibility (1/GPa) = 0.01875010
#
# Stress axis : x y z
#
# Youngs Moduli (GPa) = 84.11412 79.25246 111.64651
#
# Poissons Ratio (x) = 0.21192 0.27588
# Poissons Ratio (y) = 0.22492 0.24692
# Poissons Ratio (z) = 0.20785 0.17528
#
# Static dielectric constant tensor:
#      x y z
#    x 1.926960 0.000000 0.025910 
#    y 0.000000 1.853910 0.000000 
#    z 0.025910 0.000000 1.891030 
# 
# From -- ./inp_files/12408.got.cif
#   From: 2010.05.17/outbox.cif.g08.bks.cpg/sg4_7_cif.got.tgz:12408.got - 2010.06.03 18:43:04.
