data_PCOD9116822
_publ_section_title
;
Structure prediction by ZEFSAII (Michael W. Deem and Ramdas Pophale) SiO2 
 PCOD9116822
Probable space group: P 21
;
_chemical_formula_sum "Si O2"
_cell_formula_units_Z 14
_cell_length_a 4.893347
_cell_length_b 5.203967
_cell_length_c 20.708292
_cell_angle_alpha 90.000000
_cell_angle_beta 115.287750
_cell_angle_gamma 90.000000
_cell_volume 476.800601
_symmetry_space_group_name_H-M "P 21"
_symmetry_group_IT_number 4
_symmetry_cell_setting 'monoclinic'
loop_
_space_group_symop_operation_xyz
x,y,z
-x,1/2+y,-z
loop_
_atom_site_type_symbol
_atom_site_label
_atom_site_fract_x
_atom_site_fract_y
_atom_site_fract_z
Si Si1 0.308765 0.906590 0.159186
Si Si2 0.875975 0.891796 0.731869
Si Si3 0.315512 0.210835 0.554106
Si Si4 0.313481 0.204565 0.697810
Si Si5 0.736195 0.703355 0.588686
Si Si6 0.398175 0.899044 0.874897
Si Si7 0.150910 0.331120 0.983045
O O1 0.440628 0.894277 0.244993
O O2 0.477567 0.665670 0.141605
O O3 0.418351 0.170262 0.140333
O O4 0.960810 0.857164 0.102381
O O5 0.060450 0.846319 0.815896
O O6 0.916194 0.704781 0.674331
O O7 0.041680 0.142497 0.718080
O O8 0.531767 0.955322 0.712222
O O9 0.186562 0.242943 0.613091
O O10 0.533478 0.453096 0.569023
O O11 0.116906 0.217305 0.468328
O O12 0.522835 0.955826 0.572723
O O13 0.502105 0.872812 0.959812
O O14 0.979790 0.564630 0.002539
#
# Coordination Sequence:
#
# PCOD9116822 Si02
#       7
#     2   2   2   2   2   2   2
#     4   9  18  33  56  85 117 154 196 242 293 349
#     4  10  22  41  63  90 122 158 200 246 298 354
#     4   9  19  38  62  88 119 156 198 244 295 352
#     4  10  22  41  63  90 122 158 200 246 298 354
#     4   9  19  38  62  88 119 156 198 244 295 352
#     4   9  18  33  56  85 117 154 196 242 293 349
#     4   8  14  28  52  80 112 150 192 238 288 344
#
# _framework density 29.362383000000001
#
# number of rings (size 3 to 8) (size 9 to 14) (size 15 to 20)
#    0.000    2.857    0.000    0.000    0.000    9.143 
#    0.000   12.857    0.000   24.000    0.000    0.000 
#    0.000    0.000    0.000    0.000    0.000    0.000 
#
# Total GULP energy -78428.582441 kJ/mol
# GULP energy per Si atom -5602.041603 kJ/mol
# Density = 2.929555 g / cm^3
# Si number density = 29.362383 Si / 1000 Ang^3
#
#
#
# Elastic Constant Matrix: (Units=GPa)
#
#
# Indices 1 2 3 4 5 6 
#
# 1 101.9148 45.2420 51.4445 0.0000 4.7866 0.0000
# 2 45.2420 148.1558 58.1928 0.0000 -10.3503 0.0000
# 3 51.4445 58.1928 184.6643 0.0000 11.6220 0.0000
# 4 0.0000 0.0000 0.0000 48.8475 0.0000 2.5625
# 5 4.7866 -10.3503 11.6220 0.0000 43.2989 0.0000
# 6 0.0000 0.0000 0.0000 2.5625 0.0000 17.0576
#
#
#
# Elastic Compliance Matrix: (Units=1/GPa)
#
#
# Indices 1 2 3 4 5 6 
#
# 1 0.012414 -0.002929 -0.002446 0.000000 -0.001416 0.000000
# 2 -0.002929 0.008678 -0.002105 0.000000 0.002963 0.000000
# 3 -0.002446 -0.002105 0.006891 0.000000 -0.002083 0.000000
# 4 0.000000 0.000000 0.000000 0.020635 0.000000 -0.003100
# 5 -0.001416 0.002963 -0.002083 0.000000 0.024519 0.000000
# 6 0.000000 0.000000 0.000000 -0.003100 0.000000 0.059091
#
#
# Mechanical properties :
#
#
# Convention : Reuss Voigt Hill
#
# Bulk Modulus (GPa) = 76.79162 82.72149 79.75655
# Shear Modulus (GPa) = 32.99722 40.49784 36.74753
#
# Velocity S-wave (km/s) = 3.35594 3.71784 3.54152
# Velocity P-wave (km/s) = 6.42077 6.83108 6.62910
#
# Compressibility (1/GPa) = 0.01302225
#
# Stress axis : x y z
#
# Youngs Moduli (GPa) = 80.55719 115.23490 145.11324
#
# Poissons Ratio (x) = 0.33750 0.35497
# Poissons Ratio (y) = 0.23594 0.30550
# Poissons Ratio (z) = 0.19706 0.24260
#
# Static dielectric constant tensor:
#      x y z
#    x 2.160350 0.000000 0.007150 
#    y 0.000000 2.275650 0.000000 
#    z 0.007150 0.000000 2.488540 
# 
# From -- ./inp_files/15460.got.cif
#   From: 2010.05.17/outbox.cif.g08.bks.cpg/sg4_8_cif.got.tgz:15460.got - 2010.06.03 18:43:04.
