data_PCOD9116549
_publ_section_title
;
Structure prediction by ZEFSAII (Michael W. Deem and Ramdas Pophale) SiO2 
 PCOD9116549
Probable space group: P 21
;
_chemical_formula_sum "Si O2"
_cell_formula_units_Z 14
_cell_length_a 7.208880
_cell_length_b 11.569354
_cell_length_c 6.525656
_cell_angle_alpha 90.000000
_cell_angle_beta 75.391409
_cell_angle_gamma 90.000000
_cell_volume 526.658347
_symmetry_space_group_name_H-M "P 21"
_symmetry_group_IT_number 4
_symmetry_cell_setting 'monoclinic'
loop_
_space_group_symop_operation_xyz
x,y,z
-x,1/2+y,-z
loop_
_atom_site_type_symbol
_atom_site_label
_atom_site_fract_x
_atom_site_fract_y
_atom_site_fract_z
Si Si1 0.599124 0.020500 0.529857
Si Si2 0.328516 0.636707 0.875566
Si Si3 0.081116 0.777086 0.283460
Si Si4 0.703746 0.697903 0.185149
Si Si5 0.087711 0.982886 0.000385
Si Si6 0.329217 0.425175 0.059699
Si Si7 0.319316 0.835654 0.602968
O O1 0.738539 0.072233 0.319328
O O2 0.465173 0.124091 0.659779
O O3 0.469721 0.921691 0.458905
O O4 0.684890 0.948877 0.695129
O O5 0.453166 0.536419 0.947673
O O6 0.418006 0.745925 0.732444
O O7 0.199833 0.696108 0.089455
O O8 0.175066 0.778034 0.481001
O O9 0.858383 0.743519 0.311184
O O10 0.106054 0.907368 0.196922
O O11 0.836244 0.612171 0.013239
O O12 0.634387 0.801984 0.056016
O O13 0.209870 0.919128 0.790232
O O14 0.876251 0.964828 0.970027
#
# Coordination Sequence:
#
# PCOD9116549 Si02
#       7
#     2   2   2   2   2   2   2
#     4  11  27  45  71 109 145 183 244 293 373 423
#     4  11  24  42  71 104 142 187 232 292 363 423
#     4  10  21  47  76  95 142 185 243 295 351 425
#     4  10  23  47  72 104 139 192 240 291 361 420
#     4   9  21  45  71 105 131 188 242 292 349 425
#     4  11  24  44  74 103 148 188 235 302 357 430
#     4  10  24  46  71 102 139 189 240 295 354 428
#
# _framework density 26.582698000000001
#
# number of rings (size 3 to 8) (size 9 to 14) (size 15 to 20)
#    0.000    1.714    1.429    0.857    4.000    5.714 
#    5.143    1.429    0.000    0.000    0.000    0.000 
#    0.000    0.000    0.000    0.000    0.000    0.000 
#
# Total GULP energy -78130.969350 kJ/mol
# GULP energy per Si atom -5580.783525 kJ/mol
# Density = 2.652219 g / cm^3
# Si number density = 26.582698 Si / 1000 Ang^3
#
#
#
# Elastic Constant Matrix: (Units=GPa)
#
#
# Indices 1 2 3 4 5 6 
#
# 1 78.5183 24.2912 21.8884 0.0000 22.4415 0.0000
# 2 24.2912 145.4912 38.5530 0.0000 6.9604 0.0000
# 3 21.8884 38.5530 98.9022 0.0000 25.4825 0.0000
# 4 0.0000 0.0000 0.0000 35.2255 0.0000 -2.0307
# 5 22.4415 6.9604 25.4825 0.0000 42.7024 0.0000
# 6 0.0000 0.0000 0.0000 -2.0307 0.0000 38.0487
#
#
#
# Elastic Compliance Matrix: (Units=1/GPa)
#
#
# Indices 1 2 3 4 5 6 
#
# 1 0.015722 -0.002070 -0.000745 0.000000 -0.007480 0.000000
# 2 -0.002070 0.007952 -0.003058 0.000000 0.001616 0.000000
# 3 -0.000745 -0.003058 0.013281 0.000000 -0.007035 0.000000
# 4 0.000000 0.000000 0.000000 0.028476 0.000000 0.001520
# 5 -0.007480 0.001616 -0.007035 0.000000 0.031284 0.000000
# 6 0.000000 0.000000 0.000000 0.001520 0.000000 0.026363
#
#
# Mechanical properties :
#
#
# Convention : Reuss Voigt Hill
#
# Bulk Modulus (GPa) = 39.66981 54.70855 47.18918
# Shear Modulus (GPa) = 34.90979 39.07393 36.99186
#
# Velocity S-wave (km/s) = 3.62781 3.83809 3.73443
# Velocity P-wave (km/s) = 5.70119 6.34558 6.03200
#
# Compressibility (1/GPa) = 0.02520809
#
# Stress axis : x y z
#
# Youngs Moduli (GPa) = 63.60570 125.75721 75.29747
#
# Poissons Ratio (x) = 0.26026 0.05613
# Poissons Ratio (y) = 0.13163 0.23027
# Poissons Ratio (z) = 0.04741 0.38459
#
# Static dielectric constant tensor:
#      x y z
#    x 2.207520 0.000000 -0.058300 
#    y 0.000000 2.318870 0.000000 
#    z -0.058300 0.000000 2.059820 
# 
# From -- ./inp_files/1376.got.cif
#   From: 2010.05.17/outbox.cif.g08.bks.cpg/sg4_1_cif.got.tgz:1376.got - 2010.06.03 18:43:04.
