data_PCOD9116168
_publ_section_title
;
Structure prediction by ZEFSAII (Michael W. Deem and Ramdas Pophale) SiO2 
 PCOD9116168
Probable space group: P 21
;
_chemical_formula_sum "Si O2"
_cell_formula_units_Z 16
_cell_length_a 26.219279
_cell_length_b 5.531342
_cell_length_c 24.036033
_cell_angle_alpha 90.000000
_cell_angle_beta 10.021175
_cell_angle_gamma 90.000000
_cell_volume 606.587641
_symmetry_space_group_name_H-M "P 21"
_symmetry_group_IT_number 4
_symmetry_cell_setting 'monoclinic'
loop_
_space_group_symop_operation_xyz
x,y,z
-x,1/2+y,-z
loop_
_atom_site_type_symbol
_atom_site_label
_atom_site_fract_x
_atom_site_fract_y
_atom_site_fract_z
Si Si1 0.325448 0.799700 0.682508
Si Si2 0.335685 0.819263 0.545296
Si Si3 0.210430 0.165003 0.357120
Si Si4 0.348743 0.791822 0.335432
Si Si5 0.164424 0.633113 0.143627
Si Si6 0.723198 0.861495 0.837283
Si Si7 0.891846 0.133367 0.970199
Si Si8 0.419523 0.448931 0.365190
O O1 0.533437 0.564356 0.464578
O O2 0.220671 0.778181 0.731395
O O3 0.125871 0.767979 0.950854
O O4 0.472030 0.594418 0.366163
O O5 0.059629 0.885334 0.804195
O O6 0.572948 0.039459 0.293041
O O7 0.222301 0.279518 0.283944
O O8 0.024462 0.276132 0.607315
O O9 0.026973 0.917441 0.541610
O O10 0.531540 0.104276 0.033974
O O11 0.368187 0.617449 0.366645
O O12 0.031343 0.906401 0.665815
O O13 0.548441 0.022628 0.136657
O O14 0.513401 0.701439 0.102320
O O15 0.290015 0.798341 0.960838
O O16 0.131699 0.283527 0.679219
#
# Coordination Sequence:
#
# PCOD9116168 Si02
#       8
#     2   2   2   2   2   2   2   2
#     4  10  26  52  82 116 160 200 264 332 402 464
#     4  11  29  49  78 115 153 197 259 318 378 469
#     4  10  21  40  68  99 137 178 239 304 369 438
#     4  10  25  48  68 107 150 191 248 313 369 460
#     4  10  25  48  68 107 150 191 248 313 369 460
#     4  10  21  40  68  99 137 178 239 304 369 438
#     4  11  29  49  78 115 153 197 259 318 378 469
#     4  12  28  48  82 106 154 210 248 302 406 448
#
# _framework density 26.37706
#
# number of rings (size 3 to 8) (size 9 to 14) (size 15 to 20)
#    0.000    1.500    0.000    1.500   10.500    8.000 
#    0.000    0.000    0.000    0.000    0.000    0.000 
#    0.000    0.000    0.000    0.000    0.000    0.000 
#
# Total GULP energy -89602.113377 kJ/mol
# GULP energy per Si atom -5600.132086 kJ/mol
# Density = 2.631702 g / cm^3
# Si number density = 26.377060 Si / 1000 Ang^3
#
#
#
# Elastic Constant Matrix: (Units=GPa)
#
#
# Indices 1 2 3 4 5 6 
#
# 1 -202.7530 -12.6414 264.8400 0.0000 123.8836 0.0000
# 2 -12.6414 48.0666 57.3143 0.0000 19.4842 0.0000
# 3 264.8400 57.3143 -23.4292 0.0000 -47.8584 0.0000
# 4 0.0000 0.0000 0.0000 31.0472 0.0000 14.5113
# 5 123.8836 19.4842 -47.8584 0.0000 15.8604 0.0000
# 6 0.0000 0.0000 0.0000 14.5113 0.0000 45.4643
#
#
#
# Elastic Compliance Matrix: (Units=1/GPa)
#
#
# Indices 1 2 3 4 5 6 
#
# 1 0.001904 -0.005048 0.003752 0.000000 0.002652 0.000000
# 2 -0.005048 0.022959 -0.003325 0.000000 0.001190 0.000000
# 3 0.003752 -0.003325 0.006017 0.000000 -0.007062 0.000000
# 4 0.000000 0.000000 0.000000 0.037857 0.000000 -0.012083
# 5 0.002652 0.001190 -0.007062 0.000000 0.019560 0.000000
# 6 0.000000 0.000000 0.000000 -0.012083 0.000000 0.025852
#
#
# Mechanical properties :
#
#
# Convention : Reuss Voigt Hill
#
# Bulk Modulus (GPa) = 46.21683 48.99003 47.60343
# Shear Modulus (GPa) = 38.28371 -14.03418 12.12477
#
# Velocity S-wave (km/s) = 3.81386 -2.30914 2.14632
# Velocity P-wave (km/s) = 6.07895 3.39172 4.92227
#
# Compressibility (1/GPa) = 0.02163714
#
# Stress axis : x y z
#
# Youngs Moduli (GPa) = 525.31776 43.55508 166.20044
#
# Poissons Ratio (x) = 0.21986 -0.62350
# Poissons Ratio (y) = 2.65173 0.55262
# Poissons Ratio (z) = -1.97074 0.14482
#
# Static dielectric constant tensor:
#      x y z
#    x 2.096200 0.000000 0.082480 
#    y 0.000000 2.087460 0.000000 
#    z 0.082480 0.000000 2.054150 
# 
# From -- ./inp_files/16224.got.cif
#   From: 2010.05.17/outbox.cif.g08.bks.cpg/sg4_9_cif.got.tgz:16224.got - 2010.06.03 18:43:04.
