data_PCOD9116011
_publ_section_title
;
Structure prediction by ZEFSAII (Michael W. Deem and Ramdas Pophale) SiO2 
 PCOD9116011
Probable space group: P 21
;
_chemical_formula_sum "Si O2"
_cell_formula_units_Z 14
_cell_length_a 7.145839
_cell_length_b 7.482333
_cell_length_c 13.391155
_cell_angle_alpha 90.000000
_cell_angle_beta 74.780800
_cell_angle_gamma 90.000000
_cell_volume 690.881345
_symmetry_space_group_name_H-M "P 21"
_symmetry_group_IT_number 4
_symmetry_cell_setting 'monoclinic'
loop_
_space_group_symop_operation_xyz
x,y,z
-x,1/2+y,-z
loop_
_atom_site_type_symbol
_atom_site_label
_atom_site_fract_x
_atom_site_fract_y
_atom_site_fract_z
Si Si1 0.184573 0.042980 0.388674
Si Si2 0.239802 0.418286 0.013311
Si Si3 0.456287 0.499647 0.180188
Si Si4 0.572476 0.865284 0.594781
Si Si5 0.777482 0.210355 0.471101
Si Si6 0.605844 0.407341 0.834852
Si Si7 0.813155 0.496667 0.998605
O O1 0.296441 0.189646 0.439683
O O2 0.973937 0.127683 0.399179
O O3 0.173045 0.854734 0.449183
O O4 0.303190 0.012273 0.270063
O O5 0.295008 0.468089 0.118102
O O6 0.032289 0.481329 0.003999
O O7 0.414124 0.484105 0.916613
O O8 0.236472 0.203836 0.011723
O O9 0.420545 0.405685 0.288986
O O10 0.455543 0.712824 0.195900
O O11 0.659372 0.436544 0.103731
O O12 0.358668 0.815068 0.587312
O O13 0.658077 0.040449 0.529540
O O14 0.762952 0.396040 0.902647
#
# Coordination Sequence:
#
# PCOD9116011 Si02
#       7
#     2   2   2   2   2   2   2
#     4  12  25  45  71 101 136 181 232 291 349 409
#     4  10  21  39  62  95 137 176 218 276 332 408
#     4  10  22  40  65  95 135 179 221 275 340 404
#     4  12  25  45  71 100 137 182 230 292 348 412
#     4  12  26  46  70 102 136 177 238 291 346 414
#     4  10  22  40  65  95 135 177 223 276 340 401
#     4  10  21  39  62  98 134 174 222 273 329 412
#
# _framework density 20.263971000000002
#
# number of rings (size 3 to 8) (size 9 to 14) (size 15 to 20)
#    0.000    1.143    4.286    1.714    0.000    6.857 
#    0.000    2.857    0.000    0.000    0.000    0.000 
#    0.000    0.000    0.000    0.000    0.000    0.000 
#
# Total GULP energy -78228.813523 kJ/mol
# GULP energy per Si atom -5587.772394 kJ/mol
# Density = 2.021785 g / cm^3
# Si number density = 20.263971 Si / 1000 Ang^3
#
#
#
# Elastic Constant Matrix: (Units=GPa)
#
#
# Indices 1 2 3 4 5 6 
#
# 1 140.9811 28.1799 28.1680 0.0000 6.6788 0.0000
# 2 28.1799 93.3958 42.2561 0.0000 -4.7663 0.0000
# 3 28.1680 42.2561 68.1804 0.0000 1.9973 0.0000
# 4 0.0000 0.0000 0.0000 21.6958 0.0000 2.3520
# 5 6.6788 -4.7663 1.9973 0.0000 10.2046 0.0000
# 6 0.0000 0.0000 0.0000 2.3520 0.0000 39.8321
#
#
#
# Elastic Compliance Matrix: (Units=1/GPa)
#
#
# Indices 1 2 3 4 5 6 
#
# 1 0.008143 -0.001815 -0.002070 0.000000 -0.005772 0.000000
# 2 -0.001815 0.016114 -0.009547 0.000000 0.010583 0.000000
# 3 -0.002070 -0.009547 0.021655 0.000000 -0.007343 0.000000
# 4 0.000000 0.000000 0.000000 0.046389 0.000000 -0.002739
# 5 -0.005772 0.010583 -0.007343 0.000000 0.108153 0.000000
# 6 0.000000 0.000000 0.000000 -0.002739 0.000000 0.025267
#
#
# Mechanical properties :
#
#
# Convention : Reuss Voigt Hill
#
# Bulk Modulus (GPa) = 52.50223 55.52947 54.01585
# Shear Modulus (GPa) = 19.30984 27.94339 23.62662
#
# Velocity S-wave (km/s) = 3.09028 3.71748 3.41829
# Velocity P-wave (km/s) = 6.22081 6.77412 6.50335
#
# Compressibility (1/GPa) = 0.01904681
#
# Stress axis : x y z
#
# Youngs Moduli (GPa) = 122.80495 62.05616 46.17953
#
# Poissons Ratio (x) = 0.11262 0.09561
# Poissons Ratio (y) = 0.22287 0.44090
# Poissons Ratio (z) = 0.25425 0.59248
#
# Static dielectric constant tensor:
#      x y z
#    x 1.710460 0.000000 -0.012730 
#    y 0.000000 1.760330 0.000000 
#    z -0.012730 0.000000 1.689720 
# 
# From -- ./inp_files/2651.got.cif
#   From: 2010.05.17/outbox.cif.g08.bks.cpg/sg4_2_cif.got.tgz:2651.got - 2010.06.03 18:43:04.
