data_PCOD9116049
_publ_section_title
;
Structure prediction by ZEFSAII (Michael W. Deem and Ramdas Pophale) SiO2 
 PCOD9116049
Probable space group: P 21
;
_chemical_formula_sum "Si O2"
_cell_formula_units_Z 14
_cell_length_a 7.181373
_cell_length_b 14.003040
_cell_length_c 7.431235
_cell_angle_alpha 90.000000
_cell_angle_beta 124.718185
_cell_angle_gamma 90.000000
_cell_volume 614.247285
_symmetry_space_group_name_H-M "P 21"
_symmetry_group_IT_number 4
_symmetry_cell_setting 'monoclinic'
loop_
_space_group_symop_operation_xyz
x,y,z
-x,1/2+y,-z
loop_
_atom_site_type_symbol
_atom_site_label
_atom_site_fract_x
_atom_site_fract_y
_atom_site_fract_z
Si Si1 0.080835 0.929940 0.788723
Si Si2 0.503305 0.560563 0.014995
Si Si3 0.764581 0.792366 0.775766
Si Si4 0.050335 0.467176 0.684586
Si Si5 0.205664 0.145717 0.523950
Si Si6 0.918726 0.762319 0.228996
Si Si7 0.571663 0.269612 0.126845
O O1 0.222490 0.832453 0.826197
O O2 0.889322 0.893248 0.817767
O O3 0.270843 0.009075 0.939328
O O4 0.959170 0.961911 0.538017
O O5 0.583163 0.598623 0.254055
O O6 0.298381 0.487343 0.898364
O O7 0.413788 0.655106 0.865065
O O8 0.749698 0.732339 0.586236
O O9 0.518939 0.803492 0.729715
O O10 0.904542 0.735524 0.010830
O O11 0.960837 0.363600 0.692764
O O12 0.902039 0.559310 0.647367
O O13 0.039005 0.185650 0.592737
O O14 0.650995 0.785056 0.120954
#
# Coordination Sequence:
#
# PCOD9116049 Si02
#       7
#     2   2   2   2   2   2   2
#     4  11  21  40  69  93 132 179 214 275 336 380
#     4  10  21  39  66  94 136 172 215 283 326 387
#     4  10  21  40  71  94 129 177 218 263 340 391
#     4  11  21  39  69  97 133 174 222 274 331 397
#     4  10  21  40  67  91 133 178 210 277 336 383
#     4   9  20  41  62  95 135 158 227 272 303 412
#     4   9  21  41  62  94 134 164 222 268 320 396
#
# _framework density 22.792126
#
# number of rings (size 3 to 8) (size 9 to 14) (size 15 to 20)
#    0.857    1.143    2.857    0.857    0.000    1.143 
#    0.000   10.000    0.000    0.000    0.000    0.000 
#    0.000    0.000    0.000    0.000    0.000    0.000 
#
# Total GULP energy -77970.983105 kJ/mol
# GULP energy per Si atom -5569.355936 kJ/mol
# Density = 2.274025 g / cm^3
# Si number density = 22.792126 Si / 1000 Ang^3
#
#
#
# Elastic Constant Matrix: (Units=GPa)
#
#
# Indices 1 2 3 4 5 6 
#
# 1 43.1788 17.9064 20.4893 0.0000 -2.8416 0.0000
# 2 17.9064 116.3817 27.1271 0.0000 9.7269 0.0000
# 3 20.4893 27.1271 98.8625 0.0000 6.4706 0.0000
# 4 0.0000 0.0000 0.0000 46.6436 0.0000 2.2401
# 5 -2.8416 9.7269 6.4706 0.0000 27.6962 0.0000
# 6 0.0000 0.0000 0.0000 2.2401 0.0000 15.0637
#
#
#
# Elastic Compliance Matrix: (Units=1/GPa)
#
#
# Indices 1 2 3 4 5 6 
#
# 1 0.027337 -0.003462 -0.005056 0.000000 0.005202 0.000000
# 2 -0.003462 0.009818 -0.001754 0.000000 -0.003393 0.000000
# 3 -0.005056 -0.001754 0.011819 0.000000 -0.002664 0.000000
# 4 0.000000 0.000000 0.000000 0.021593 0.000000 -0.003211
# 5 0.005202 -0.003393 -0.002664 0.000000 0.038454 0.000000
# 6 0.000000 0.000000 0.000000 -0.003211 0.000000 0.066862
#
#
# Mechanical properties :
#
#
# Convention : Reuss Voigt Hill
#
# Bulk Modulus (GPa) = 35.17654 43.27426 39.22540
# Shear Modulus (GPa) = 24.28323 30.74073 27.51198
#
# Velocity S-wave (km/s) = 3.26762 3.67651 3.47808
# Velocity P-wave (km/s) = 5.45010 6.08687 5.77727
#
# Compressibility (1/GPa) = 0.02842804
#
# Stress axis : x y z
#
# Youngs Moduli (GPa) = 36.58064 101.85767 84.61227
#
# Poissons Ratio (x) = 0.35266 0.42780
# Poissons Ratio (y) = 0.12665 0.14843
# Poissons Ratio (z) = 0.18495 0.17868
#
# Static dielectric constant tensor:
#      x y z
#    x 1.852920 0.000000 0.014650 
#    y 0.000000 1.931480 0.000000 
#    z 0.014650 0.000000 1.905600 
# 
# From -- ./inp_files/6644.got.cif
#   From: 2010.05.17/outbox.cif.g08.bks.cpg/sg4_4_cif.got.tgz:6644.got - 2010.06.03 18:43:04.
