data_PCOD9116113
_publ_section_title
;
Structure prediction by ZEFSAII (Michael W. Deem and Ramdas Pophale) SiO2 
 PCOD9116113
Probable space group: P 21
;
_chemical_formula_sum "Si O2"
_cell_formula_units_Z 16
_cell_length_a 11.720177
_cell_length_b 11.853720
_cell_length_c 7.773219
_cell_angle_alpha 90.000000
_cell_angle_beta 37.638346
_cell_angle_gamma 90.000000
_cell_volume 659.477643
_symmetry_space_group_name_H-M "P 21"
_symmetry_group_IT_number 4
_symmetry_cell_setting 'monoclinic'
loop_
_space_group_symop_operation_xyz
x,y,z
-x,1/2+y,-z
loop_
_atom_site_type_symbol
_atom_site_label
_atom_site_fract_x
_atom_site_fract_y
_atom_site_fract_z
Si Si1 0.699878 0.617860 0.201488
Si Si2 0.468434 0.067215 0.091108
Si Si3 0.548344 0.384573 0.405135
Si Si4 0.724948 0.923518 0.562915
Si Si5 0.749467 0.175142 0.986009
Si Si6 0.136896 0.175904 0.633000
Si Si7 0.068320 0.657239 0.598740
Si Si8 0.410282 0.736846 0.346451
O O1 0.695865 0.485069 0.223392
O O2 0.766862 0.672524 0.296223
O O3 0.493525 0.649450 0.386257
O O4 0.848685 0.660625 0.885155
O O5 0.251565 0.080805 0.390645
O O6 0.593240 0.085970 0.112908
O O7 0.515267 0.179313 0.917998
O O8 0.544866 0.959226 0.896672
O O9 0.359825 0.415936 0.528153
O O10 0.524729 0.348619 0.632966
O O11 0.643719 0.284534 0.180690
O O12 0.820825 0.803111 0.485298
O O13 0.860175 0.030045 0.439381
O O14 0.869337 0.189605 0.666721
O O15 0.919473 0.146330 0.909033
O O16 0.188843 0.736210 0.582233
#
# Coordination Sequence:
#
# PCOD9116113 Si02
#       8
#     2   2   2   2   2   2   2   2
#     4  12  23  39  67  95 128 172 216 262 322 385
#     4  10  22  43  65  93 131 172 213 269 320 384
#     4  12  21  42  67  95 130 172 212 272 323 379
#     4  10  21  40  68  88 130 167 211 265 322 376
#     4  10  22  40  65  92 131 168 211 264 324 382
#     4  12  23  41  67  97 128 174 215 263 323 384
#     4  10  23  43  64  96 129 174 210 267 322 383
#     4  10  21  40  63  92 129 165 214 266 316 379
#
# _framework density 24.261627000000001
#
# number of rings (size 3 to 8) (size 9 to 14) (size 15 to 20)
#    0.000    1.500    5.000    2.250    0.000    1.000 
#    0.000    0.000    0.000    1.500    0.000    0.000 
#    0.000    0.000    0.000    0.000    0.000    0.000 
#
# Total GULP energy -89301.954507 kJ/mol
# GULP energy per Si atom -5581.372157 kJ/mol
# Density = 2.420641 g / cm^3
# Si number density = 24.261627 Si / 1000 Ang^3
#
#
#
# Elastic Constant Matrix: (Units=GPa)
#
#
# Indices 1 2 3 4 5 6 
#
# 1 62.3346 18.1124 2.7982 0.0000 -21.7444 0.0000
# 2 18.1124 90.9494 15.3386 0.0000 -2.3628 0.0000
# 3 2.7982 15.3386 59.5553 0.0000 -1.1286 0.0000
# 4 0.0000 0.0000 0.0000 37.1456 0.0000 6.7615
# 5 -21.7444 -2.3628 -1.1286 0.0000 31.4799 0.0000
# 6 0.0000 0.0000 0.0000 6.7615 0.0000 29.6927
#
#
#
# Elastic Compliance Matrix: (Units=1/GPa)
#
#
# Indices 1 2 3 4 5 6 
#
# 1 0.022567 -0.004147 0.000298 0.000000 0.015287 0.000000
# 2 -0.004147 0.012275 -0.003005 0.000000 -0.002051 0.000000
# 3 0.000298 -0.003005 0.017563 0.000000 0.000610 0.000000
# 4 0.000000 0.000000 0.000000 0.028085 0.000000 -0.006395
# 5 0.015287 -0.002051 0.000610 0.000000 0.042194 0.000000
# 6 0.000000 0.000000 0.000000 -0.006395 0.000000 0.035135
#
#
# Mechanical properties :
#
#
# Convention : Reuss Voigt Hill
#
# Bulk Modulus (GPa) = 25.84376 31.70421 28.77399
# Shear Modulus (GPa) = 27.11119 31.43631 29.27375
#
# Velocity S-wave (km/s) = 3.34646 3.60352 3.47736
# Velocity P-wave (km/s) = 5.06033 5.51451 5.29229
#
# Compressibility (1/GPa) = 0.03869406
#
# Stress axis : x y z
#
# Youngs Moduli (GPa) = 44.31289 81.46910 56.93876
#
# Poissons Ratio (x) = 0.33787 -0.01694
# Poissons Ratio (y) = 0.18377 0.17112
# Poissons Ratio (z) = -0.01318 0.24484
#
# Static dielectric constant tensor:
#      x y z
#    x 1.978560 0.000000 0.030780 
#    y 0.000000 1.974540 0.000000 
#    z 0.030780 0.000000 1.996570 
# 
# From -- ./inp_files/8300.got.cif
#   From: 2010.05.17/outbox.cif.g08.bks.cpg/sg4_5_cif.got.tgz:8300.got - 2010.06.03 18:43:04.
