data_PCOD9116117
_publ_section_title
;
Structure prediction by ZEFSAII (Michael W. Deem and Ramdas Pophale) SiO2 
 PCOD9116117
Probable space group: P 21
;
_chemical_formula_sum "Si O2"
_cell_formula_units_Z 16
_cell_length_a 15.392089
_cell_length_b 5.239426
_cell_length_c 8.728659
_cell_angle_alpha 90.000000
_cell_angle_beta 78.868968
_cell_angle_gamma 90.000000
_cell_volume 690.686778
_symmetry_space_group_name_H-M "P 21"
_symmetry_group_IT_number 4
_symmetry_cell_setting 'monoclinic'
loop_
_space_group_symop_operation_xyz
x,y,z
-x,1/2+y,-z
loop_
_atom_site_type_symbol
_atom_site_label
_atom_site_fract_x
_atom_site_fract_y
_atom_site_fract_z
Si Si1 0.501368 0.818880 0.786580
Si Si2 0.899120 0.882880 0.214239
Si Si3 0.251276 0.326366 0.525386
Si Si4 0.330218 0.820443 0.655986
Si Si5 0.750316 0.953328 0.822169
Si Si6 0.913323 0.192379 0.913851
Si Si7 0.595904 0.317419 0.849796
Si Si8 0.228351 0.066351 0.955362
O O1 0.565997 0.575236 0.775826
O O2 0.432391 0.818768 0.670730
O O3 0.553915 0.082410 0.770253
O O4 0.447631 0.816257 0.966259
O O5 0.989642 0.725955 0.185811
O O6 0.850647 0.899889 0.392655
O O7 0.819795 0.743812 0.151850
O O8 0.920382 0.117939 0.092327
O O9 0.293409 0.059129 0.569474
O O10 0.253488 0.335759 0.342826
O O11 0.306111 0.557826 0.582345
O O12 0.278385 0.855907 0.836491
O O13 0.850480 0.998628 0.844579
O O14 0.696629 0.219958 0.836388
O O15 0.712081 0.751893 0.960193
O O16 0.854115 0.445180 0.927679
#
# Coordination Sequence:
#
# PCOD9116117 Si02
#       8
#     2   2   2   2   2   2   2   2
#     4  10  22  40  68 106 125 172 221 289 333 396
#     4  10  21  40  64 100 130 179 233 296 336 402
#     4  11  26  45  66 101 145 184 227 284 354 427
#     4  11  23  44  72  99 135 181 236 278 345 421
#     4  11  27  42  65 103 138 192 223 290 363 424
#     4  11  20  40  67  95 132 172 242 288 340 407
#     4  10  23  39  67 102 140 158 226 286 339 401
#     4  10  22  38  71  96 133 176 238 285 342 410
#
# _framework density 23.165347000000001
#
# number of rings (size 3 to 8) (size 9 to 14) (size 15 to 20)
#    0.000    1.500    2.500    1.500   12.250    0.000 
#    2.250    2.500    0.000    0.000    0.000    0.000 
#    0.000    0.000    0.000    0.000    0.000    0.000 
#
# Total GULP energy -89410.691959 kJ/mol
# GULP energy per Si atom -5588.168247 kJ/mol
# Density = 2.311262 g / cm^3
# Si number density = 23.165347 Si / 1000 Ang^3
#
#
#
# Elastic Constant Matrix: (Units=GPa)
#
#
# Indices 1 2 3 4 5 6 
#
# 1 110.1658 18.9891 28.6257 0.0000 2.4227 0.0000
# 2 18.9891 101.6558 6.1063 0.0000 10.7186 0.0000
# 3 28.6257 6.1063 67.8943 0.0000 -1.4295 0.0000
# 4 0.0000 0.0000 0.0000 20.8080 0.0000 4.4229
# 5 2.4227 10.7186 -1.4295 0.0000 22.3879 0.0000
# 6 0.0000 0.0000 0.0000 4.4229 0.0000 32.4490
#
#
#
# Elastic Compliance Matrix: (Units=1/GPa)
#
#
# Indices 1 2 3 4 5 6 
#
# 1 0.010487 -0.001635 -0.004288 0.000000 -0.000626 0.000000
# 2 -0.001635 0.010689 -0.000376 0.000000 -0.004964 0.000000
# 3 -0.004288 -0.000376 0.016606 0.000000 0.001704 0.000000
# 4 0.000000 0.000000 0.000000 0.049492 0.000000 -0.006746
# 5 -0.000626 -0.004964 0.001704 0.000000 0.047220 0.000000
# 6 0.000000 0.000000 0.000000 -0.006746 0.000000 0.031737
#
#
# Mechanical properties :
#
#
# Convention : Reuss Voigt Hill
#
# Bulk Modulus (GPa) = 39.70901 43.01754 41.36328
# Shear Modulus (GPa) = 26.70588 30.19531 28.45060
#
# Velocity S-wave (km/s) = 3.39903 3.61428 3.50830
# Velocity P-wave (km/s) = 5.70818 6.00228 5.85708
#
# Compressibility (1/GPa) = 0.02518320
#
# Stress axis : x y z
#
# Youngs Moduli (GPa) = 95.35630 93.55700 60.21823
#
# Poissons Ratio (x) = 0.15301 0.25819
# Poissons Ratio (y) = 0.15595 0.02266
# Poissons Ratio (z) = 0.40885 0.03521
#
# Static dielectric constant tensor:
#      x y z
#    x 1.889240 0.000000 -0.006640 
#    y 0.000000 1.921490 0.000000 
#    z -0.006640 0.000000 1.905510 
# 
# From -- ./inp_files/8674.got.cif
#   From: 2010.05.17/outbox.cif.g08.bks.cpg/sg4_5_cif.got.tgz:8674.got - 2010.06.03 18:43:04.
