data_PCOD9116610
_publ_section_title
;
Structure prediction by ZEFSAII (Michael W. Deem and Ramdas Pophale) SiO2 
 PCOD9116610
Probable space group: P 21
;
_chemical_formula_sum "Si O2"
_cell_formula_units_Z 16
_cell_length_a 6.843530
_cell_length_b 13.694434
_cell_length_c 11.411376
_cell_angle_alpha 90.000000
_cell_angle_beta 134.972925
_cell_angle_gamma 90.000000
_cell_volume 756.575735
_symmetry_space_group_name_H-M "P 21"
_symmetry_group_IT_number 4
_symmetry_cell_setting 'monoclinic'
loop_
_space_group_symop_operation_xyz
x,y,z
-x,1/2+y,-z
loop_
_atom_site_type_symbol
_atom_site_label
_atom_site_fract_x
_atom_site_fract_y
_atom_site_fract_z
Si Si1 0.027461 0.434770 0.610108
Si Si2 0.630217 0.969280 0.926872
Si Si3 0.677353 0.733902 0.681892
Si Si4 0.177440 0.614808 0.811305
Si Si5 0.049083 0.018031 0.667147
Si Si6 0.398988 0.457769 0.358480
Si Si7 0.286653 0.238670 0.025859
Si Si8 0.968016 0.221745 0.661695
O O1 0.004911 0.444425 0.461412
O O2 0.718578 0.452308 0.529226
O O3 0.099818 0.325397 0.678479
O O4 0.200635 0.527532 0.726230
O O5 0.611445 0.988791 0.780768
O O6 0.710563 0.856901 0.976825
O O7 0.322322 0.982679 0.847973
O O8 0.810479 0.050910 0.065048
O O9 0.728686 0.849393 0.688770
O O10 0.725368 0.711789 0.841003
O O11 0.355555 0.723120 0.509708
O O12 0.890021 0.673017 0.693407
O O13 0.430280 0.689811 0.902481
O O14 0.097869 0.129506 0.648662
O O15 0.782856 0.022638 0.634966
O O16 0.046994 0.208909 0.832484
#
# Coordination Sequence:
#
# PCOD9116610 Si02
#       8
#     2   2   2   2   2   2   2   2
#     4  10  23  40  63  94 128 165 211 271 318 373
#     4  10  22  38  63  90 128 163 209 266 314 371
#     4  10  24  41  63  94 128 171 211 268 317 376
#     4  12  22  40  65  94 125 168 215 258 319 386
#     4  11  21  40  65  91 122 174 211 259 322 384
#     4   9  21  41  61  89 124 164 211 260 317 376
#     4  11  23  44  65  94 134 169 211 268 319 376
#     4  11  22  42  65  92 131 166 213 266 320 376
#
# _framework density 21.147918000000001
#
# number of rings (size 3 to 8) (size 9 to 14) (size 15 to 20)
#    0.000    1.500    2.500    3.000    1.750    1.000 
#    0.000    3.750    0.000    0.000    0.000    0.000 
#    0.000    0.000    0.000    0.000    0.000    0.000 
#
# Total GULP energy -89256.213087 kJ/mol
# GULP energy per Si atom -5578.513318 kJ/mol
# Density = 2.109978 g / cm^3
# Si number density = 21.147918 Si / 1000 Ang^3
#
#
#
# Elastic Constant Matrix: (Units=GPa)
#
#
# Indices 1 2 3 4 5 6 
#
# 1 40.8333 22.1012 2.8904 0.0000 0.9014 0.0000
# 2 22.1012 79.9089 12.1295 0.0000 -1.2156 0.0000
# 3 2.8904 12.1295 80.8988 0.0000 -8.6473 0.0000
# 4 0.0000 0.0000 0.0000 34.1320 0.0000 0.4376
# 5 0.9014 -1.2156 -8.6473 0.0000 14.9895 0.0000
# 6 0.0000 0.0000 0.0000 0.4376 0.0000 18.4231
#
#
#
# Elastic Compliance Matrix: (Units=1/GPa)
#
#
# Indices 1 2 3 4 5 6 
#
# 1 0.028887 -0.008013 -0.000091 0.000000 -0.002440 0.000000
# 2 -0.008013 0.015028 -0.001903 0.000000 0.000603 0.000000
# 3 -0.000091 -0.001903 0.013464 0.000000 0.007618 0.000000
# 4 0.000000 0.000000 0.000000 0.029307 0.000000 -0.000696
# 5 -0.002440 0.000603 0.007618 0.000000 0.071304 0.000000
# 6 0.000000 0.000000 0.000000 -0.000696 0.000000 0.054296
#
#
# Mechanical properties :
#
#
# Convention : Reuss Voigt Hill
#
# Bulk Modulus (GPa) = 26.76240 30.65368 28.70804
# Shear Modulus (GPa) = 20.42853 24.47691 22.45272
#
# Velocity S-wave (km/s) = 3.11140 3.40577 3.26191
# Velocity P-wave (km/s) = 5.05866 5.47650 5.27172
#
# Compressibility (1/GPa) = 0.03736586
#
# Stress axis : x y z
#
# Youngs Moduli (GPa) = 34.61754 66.54070 74.27224
#
# Poissons Ratio (x) = 0.53318 0.00679
# Poissons Ratio (y) = 0.27738 0.14130
# Poissons Ratio (z) = 0.00317 0.12660
#
# Static dielectric constant tensor:
#      x y z
#    x 1.743360 0.000000 -0.020120 
#    y 0.000000 1.799590 0.000000 
#    z -0.020120 0.000000 1.821200 
# 
# From -- ./inp_files/1873.got.cif
#   From: 2010.05.17/outbox.cif.g08.bks.cpg/sg4_1_cif.got.tgz:1873.got - 2010.06.03 18:43:04.
