data_PCOD9116570
_publ_section_title
;
Structure prediction by ZEFSAII (Michael W. Deem and Ramdas Pophale) SiO2 
 PCOD9116570
Probable space group: P 21
;
_chemical_formula_sum "Si O2"
_cell_formula_units_Z 12
_cell_length_a 10.579480
_cell_length_b 5.416377
_cell_length_c 20.776467
_cell_angle_alpha 90.000000
_cell_angle_beta 150.793387
_cell_angle_gamma 90.000000
_cell_volume 580.937606
_symmetry_space_group_name_H-M "P 21"
_symmetry_group_IT_number 4
_symmetry_cell_setting 'monoclinic'
loop_
_space_group_symop_operation_xyz
x,y,z
-x,1/2+y,-z
loop_
_atom_site_type_symbol
_atom_site_label
_atom_site_fract_x
_atom_site_fract_y
_atom_site_fract_z
Si Si1 0.837199 0.781570 0.429374
Si Si2 0.886445 0.961972 0.886446
Si Si3 0.591284 0.212822 0.653280
Si Si4 0.593920 0.211975 0.864640
Si Si5 0.777269 0.711126 0.715274
Si Si6 0.386275 0.642387 0.978450
O O1 0.662139 0.726292 0.414856
O O2 0.652280 0.797516 0.284842
O O3 0.017277 0.541729 0.499463
O O4 0.827160 0.184780 0.810643
O O5 0.727836 0.002882 0.880184
O O6 0.777608 0.739165 0.794126
O O7 0.184875 0.921063 0.032531
O O8 0.634243 0.461973 0.634242
O O9 0.630938 0.961974 0.630940
O O10 0.549968 0.126439 0.917405
O O11 0.079707 0.697660 0.832425
O O12 0.463839 0.382230 0.981650
#
# Coordination Sequence:
#
# PCOD9116570 Si02
#       6
#     2   2   2   2   2   2
#     4  11  24  38  55  90 128 162 195 238 311 370
#     4   8  20  30  56  92 108 142 186 250 324 350
#     4   9  18  35  56  83 115 148 190 244 297 365
#     4  10  22  36  62  88 132 152 194 252 308 370
#     4   9  18  35  56  83 115 148 190 244 297 365
#     4  11  24  38  55  90 128 162 195 238 311 370
#
# _framework density 20.656261000000001
#
# number of rings (size 3 to 8) (size 9 to 14) (size 15 to 20)
#    1.000    1.333    0.000    2.000    9.333    1.333 
#    0.000    0.000    0.000    0.000    0.000   23.333 
#    0.000    0.000    0.000    0.000    0.000    0.000 
#
# Total GULP energy -66883.321026 kJ/mol
# GULP energy per Si atom -5573.610086 kJ/mol
# Density = 2.060925 g / cm^3
# Si number density = 20.656261 Si / 1000 Ang^3
#
#
#
# Elastic Constant Matrix: (Units=GPa)
#
#
# Indices 1 2 3 4 5 6 
#
# 1 71.6622 21.2739 17.9437 0.0000 -5.2265 0.0000
# 2 21.2739 135.9808 20.9882 0.0000 0.2931 0.0000
# 3 17.9437 20.9882 77.1528 0.0000 -0.4322 0.0000
# 4 0.0000 0.0000 0.0000 16.4713 0.0000 19.8152
# 5 -5.2265 0.2931 -0.4322 0.0000 24.4562 0.0000
# 6 0.0000 0.0000 0.0000 19.8152 0.0000 35.7029
#
#
#
# Elastic Compliance Matrix: (Units=1/GPa)
#
#
# Indices 1 2 3 4 5 6 
#
# 1 0.015545 -0.001966 -0.003062 0.000000 0.003292 0.000000
# 2 -0.001966 0.007925 -0.001702 0.000000 -0.000545 0.000000
# 3 -0.003062 -0.001702 0.014134 0.000000 -0.000384 0.000000
# 4 0.000000 0.000000 0.000000 0.182687 0.000000 -0.101391
# 5 0.003292 -0.000545 -0.000384 0.000000 0.041593 0.000000
# 6 0.000000 0.000000 0.000000 -0.101391 0.000000 0.084281
#
#
# Mechanical properties :
#
#
# Convention : Reuss Voigt Hill
#
# Bulk Modulus (GPa) = 41.41762 45.02304 43.22033
# Shear Modulus (GPa) = 13.59902 30.29875 21.94889
#
# Velocity S-wave (km/s) = 2.56861 3.83405 3.26326
# Velocity P-wave (km/s) = 5.37508 6.43766 5.93022
#
# Compressibility (1/GPa) = 0.02414431
#
# Stress axis : x y z
#
# Youngs Moduli (GPa) = 64.32992 126.17569 70.75048
#
# Poissons Ratio (x) = 0.24812 0.21663
# Poissons Ratio (y) = 0.12650 0.12040
# Poissons Ratio (z) = 0.19697 0.21471
#
# Static dielectric constant tensor:
#      x y z
#    x 1.735070 0.000000 0.000880 
#    y 0.000000 1.809340 0.000000 
#    z 0.000880 0.000000 1.734220 
# 
# From -- ./inp_files/14774.got.cif
#   From: 2010.05.17/outbox.cif.g08.bks.cpg/sg4_8_cif.got.tgz:14774.got - 2010.06.03 18:43:04.
