data_PCOD9116000
_publ_section_title
;
Structure prediction by ZEFSAII (Michael W. Deem and Ramdas Pophale) SiO2 
 PCOD9116000
Probable space group: P 21
;
_chemical_formula_sum "Si O2"
_cell_formula_units_Z 16
_cell_length_a 11.546180
_cell_length_b 7.563949
_cell_length_c 11.678234
_cell_angle_alpha 90.000000
_cell_angle_beta 46.203870
_cell_angle_gamma 90.000000
_cell_volume 736.181949
_symmetry_space_group_name_H-M "P 21"
_symmetry_group_IT_number 4
_symmetry_cell_setting 'monoclinic'
loop_
_space_group_symop_operation_xyz
x,y,z
-x,1/2+y,-z
loop_
_atom_site_type_symbol
_atom_site_label
_atom_site_fract_x
_atom_site_fract_y
_atom_site_fract_z
Si Si1 0.906330 0.001080 0.667825
Si Si2 0.320440 0.204165 0.591465
Si Si3 0.500297 0.414519 0.654210
Si Si4 0.083682 0.370152 0.589010
Si Si5 0.710040 0.046405 0.015977
Si Si6 0.161646 0.845346 0.650247
Si Si7 0.871593 0.405692 0.942098
Si Si8 0.067342 0.264852 0.012312
O O1 0.749563 0.014403 0.855721
O O2 0.007519 0.180641 0.609672
O O3 0.878649 0.963928 0.554910
O O4 0.024633 0.859685 0.647955
O O5 0.371348 0.302124 0.671483
O O6 0.242623 0.338730 0.554869
O O7 0.471489 0.100611 0.431914
O O8 0.196872 0.039464 0.681425
O O9 0.668584 0.310497 0.526295
O O10 0.448372 0.466812 0.817404
O O11 0.948050 0.448095 0.766070
O O12 0.737441 0.254292 0.021242
O O13 0.847426 0.933988 0.988913
O O14 0.096145 0.733656 0.800960
O O15 0.831451 0.588346 0.032330
O O16 0.009154 0.314873 0.926442
#
# Coordination Sequence:
#
# PCOD9116000 Si02
#       8
#     2   2   2   2   2   2   2   2
#     4   9  20  40  63  83 121 156 223 265 303 360
#     4   9  21  37  60  89 125 166 207 254 322 390
#     4  10  21  39  61  88 133 166 197 262 327 386
#     4  10  21  40  60  94 116 163 213 264 313 369
#     4  10  22  38  58  91 120 168 206 263 314 375
#     4   8  21  37  58  89 123 162 209 257 306 386
#     4  11  23  34  61  90 124 156 206 268 320 365
#     4  11  21  35  59  88 126 157 209 265 319 367
#
# _framework density 21.733757000000001
#
# number of rings (size 3 to 8) (size 9 to 14) (size 15 to 20)
#    0.750    1.500    1.250    1.500    7.000    0.000 
#    0.000    0.000    5.500    0.000    0.000    0.000 
#    0.000    0.000    0.000    0.000    0.000    0.000 
#
# Total GULP energy -89205.200219 kJ/mol
# GULP energy per Si atom -5575.325014 kJ/mol
# Density = 2.168429 g / cm^3
# Si number density = 21.733757 Si / 1000 Ang^3
#
#
#
# Elastic Constant Matrix: (Units=GPa)
#
#
# Indices 1 2 3 4 5 6 
#
# 1 36.3548 21.0108 25.6986 0.0000 14.8778 0.0000
# 2 21.0108 73.1293 33.2249 0.0000 10.6675 0.0000
# 3 25.6986 33.2249 131.8091 0.0000 22.3621 0.0000
# 4 0.0000 0.0000 0.0000 25.3458 0.0000 4.4675
# 5 14.8778 10.6675 22.3621 0.0000 33.5490 0.0000
# 6 0.0000 0.0000 0.0000 4.4675 0.0000 24.1088
#
#
#
# Elastic Compliance Matrix: (Units=1/GPa)
#
#
# Indices 1 2 3 4 5 6 
#
# 1 0.039871 -0.007958 -0.003605 0.000000 -0.012748 0.000000
# 2 -0.007958 0.017237 -0.002776 0.000000 -0.000101 0.000000
# 3 -0.003605 -0.002776 0.009661 0.000000 -0.003958 0.000000
# 4 0.000000 0.000000 0.000000 0.040786 0.000000 -0.007558
# 5 -0.012748 -0.000101 -0.003958 0.000000 0.038131 0.000000
# 6 0.000000 0.000000 0.000000 -0.007558 0.000000 0.042879
#
#
# Mechanical properties :
#
#
# Convention : Reuss Voigt Hill
#
# Bulk Modulus (GPa) = 26.25296 44.57353 35.41325
# Shear Modulus (GPa) = 21.74476 27.35797 24.55137
#
# Velocity S-wave (km/s) = 3.16651 3.55178 3.36466
# Velocity P-wave (km/s) = 5.04724 6.11339 5.60572
#
# Compressibility (1/GPa) = 0.03809094
#
# Stress axis : x y z
#
# Youngs Moduli (GPa) = 25.08080 58.01514 103.51056
#
# Poissons Ratio (x) = 0.46168 0.37314
# Poissons Ratio (y) = 0.19959 0.28736
# Poissons Ratio (z) = 0.09041 0.16106
#
# Static dielectric constant tensor:
#      x y z
#    x 1.757190 0.000000 -0.034520 
#    y 0.000000 1.825980 0.000000 
#    z -0.034520 0.000000 1.895230 
# 
# From -- ./inp_files/12115.got.cif
#   From: 2010.05.17/outbox.cif.g08.bks.cpg/sg4_7_cif.got.tgz:12115.got - 2010.06.03 18:43:04.
