data_PCOD9116834
_publ_section_title
;
Structure prediction by ZEFSAII (Michael W. Deem and Ramdas Pophale) SiO2 
 PCOD9116834
Probable space group: P 21
;
_chemical_formula_sum "Si O2"
_cell_formula_units_Z 16
_cell_length_a 15.642724
_cell_length_b 8.141608
_cell_length_c 6.055264
_cell_angle_alpha 90.000000
_cell_angle_beta 127.036357
_cell_angle_gamma 90.000000
_cell_volume 615.596961
_symmetry_space_group_name_H-M "P 21"
_symmetry_group_IT_number 4
_symmetry_cell_setting 'monoclinic'
loop_
_space_group_symop_operation_xyz
x,y,z
-x,1/2+y,-z
loop_
_atom_site_type_symbol
_atom_site_label
_atom_site_fract_x
_atom_site_fract_y
_atom_site_fract_z
Si Si1 0.467789 0.510360 0.443860
Si Si2 0.374358 0.811324 0.064871
Si Si3 0.873050 0.811268 0.078528
Si Si4 0.306954 0.615274 0.578807
Si Si5 0.174938 0.816726 0.071160
Si Si6 0.329108 0.310550 0.928787
Si Si7 0.999359 0.628018 0.595582
Si Si8 0.201131 0.126665 0.415823
O O1 0.457076 0.670258 0.274857
O O2 0.574672 0.473044 0.746619
O O3 0.379519 0.540042 0.497477
O O4 0.434763 0.360455 0.228328
O O5 0.259680 0.791480 0.004667
O O6 0.358757 0.774634 0.782784
O O7 0.763212 0.779242 0.037277
O O8 0.962932 0.680873 0.295965
O O9 0.917563 0.983515 0.233345
O O10 0.843651 0.787768 0.779415
O O11 0.200933 0.681178 0.298175
O O12 0.298970 0.479252 0.754239
O O13 0.201645 0.987268 0.231932
O O14 0.057294 0.786238 0.795151
O O15 0.310663 0.171642 0.713228
O O16 0.890124 0.580895 0.550676
#
# Coordination Sequence:
#
# PCOD9116834 Si02
#       8
#     2   2   2   2   2   2   2   2
#     4  10  22  42  64  92 126 165 211 262 321 381
#     4  10  24  42  65  93 128 169 212 266 323 382
#     4  11  23  40  60  90 124 165 212 264 321 381
#     4  10  22  41  65  90 123 167 211 263 322 380
#     4  11  24  42  62  95 132 167 213 268 322 382
#     4  10  22  41  64  89 122 164 210 262 321 380
#     4  11  23  39  63  90 127 169 212 263 321 384
#     4  11  24  39  63  95 124 166 215 262 323 390
#
# _framework density 25.991032000000001
#
# number of rings (size 3 to 8) (size 9 to 14) (size 15 to 20)
#    0.000    1.500    0.000    5.250    0.000   15.000 
#    0.000    1.250    0.000    0.000    0.000    0.000 
#    0.000    0.000    0.000    0.000    0.000    0.000 
#
# Total GULP energy -89529.829009 kJ/mol
# GULP energy per Si atom -5595.614313 kJ/mol
# Density = 2.593188 g / cm^3
# Si number density = 25.991032 Si / 1000 Ang^3
#
#
#
# Elastic Constant Matrix: (Units=GPa)
#
#
# Indices 1 2 3 4 5 6 
#
# 1 48.7057 -3.0608 2.4506 0.0000 -5.7251 0.0000
# 2 -3.0608 77.7688 24.1767 0.0000 2.5797 0.0000
# 3 2.4506 24.1767 179.4463 0.0000 5.2360 0.0000
# 4 0.0000 0.0000 0.0000 60.6340 0.0000 0.1361
# 5 -5.7251 2.5797 5.2360 0.0000 19.3723 0.0000
# 6 0.0000 0.0000 0.0000 0.1361 0.0000 30.2233
#
#
#
# Elastic Compliance Matrix: (Units=1/GPa)
#
#
# Indices 1 2 3 4 5 6 
#
# 1 0.021360 0.000812 -0.000587 0.000000 0.006363 0.000000
# 2 0.000812 0.013485 -0.001797 0.000000 -0.001070 0.000000
# 3 -0.000587 -0.001797 0.005867 0.000000 -0.001520 0.000000
# 4 0.000000 0.000000 0.000000 0.016493 0.000000 -0.000074
# 5 0.006363 -0.001070 -0.001520 0.000000 0.054054 0.000000
# 6 0.000000 0.000000 0.000000 -0.000074 0.000000 0.033087
#
#
# Mechanical properties :
#
#
# Convention : Reuss Voigt Hill
#
# Bulk Modulus (GPa) = 26.61771 39.22819 32.92295
# Shear Modulus (GPa) = 31.24778 40.86953 36.05865
#
# Velocity S-wave (km/s) = 3.47111 3.96971 3.72876
# Velocity P-wave (km/s) = 5.13110 6.01142 5.58862
#
# Compressibility (1/GPa) = 0.03756898
#
# Stress axis : x y z
#
# Youngs Moduli (GPa) = 46.81652 74.15851 170.44128
#
# Poissons Ratio (x) = -0.06022 0.10001
# Poissons Ratio (y) = -0.03802 0.30622
# Poissons Ratio (z) = 0.02747 0.13324
#
# Static dielectric constant tensor:
#      x y z
#    x 1.923170 0.000000 0.005390 
#    y 0.000000 2.201370 0.000000 
#    z 0.005390 0.000000 2.019220 
# 
# From -- ./inp_files/2672.got.cif
#   From: 2010.05.17/outbox.cif.g08.bks.cpg/sg4_2_cif.got.tgz:2672.got - 2010.06.03 18:43:04.
