data_PCOD9116733
_publ_section_title
;
Structure prediction by ZEFSAII (Michael W. Deem and Ramdas Pophale) SiO2 
 PCOD9116733
Probable space group: P 21
;
_chemical_formula_sum "Si O2"
_cell_formula_units_Z 12
_cell_length_a 18.337033
_cell_length_b 4.986079
_cell_length_c 21.327411
_cell_angle_alpha 90.000000
_cell_angle_beta 167.863563
_cell_angle_gamma 90.000000
_cell_volume 409.960869
_symmetry_space_group_name_H-M "P 21"
_symmetry_group_IT_number 4
_symmetry_cell_setting 'monoclinic'
loop_
_space_group_symop_operation_xyz
x,y,z
-x,1/2+y,-z
loop_
_atom_site_type_symbol
_atom_site_label
_atom_site_fract_x
_atom_site_fract_y
_atom_site_fract_z
Si Si1 0.715460 0.794680 0.864311
Si Si2 0.607773 0.192767 0.626871
Si Si3 0.215461 0.126958 0.864312
Si Si4 0.107773 0.728872 0.626871
Si Si5 0.882986 0.943709 0.695370
Si Si6 0.617014 0.477929 0.304631
O O1 0.381657 0.670511 0.551604
O O2 0.615127 0.032982 0.828642
O O3 0.010205 0.821625 0.059005
O O4 0.887931 0.581757 0.058091
O O5 0.407738 0.391151 0.410385
O O6 0.382757 0.225820 0.500396
O O7 0.115128 0.888656 0.828643
O O8 0.510205 0.100013 0.059005
O O9 0.881657 0.251127 0.551604
O O10 0.387932 0.339881 0.058091
O O11 0.092263 0.030488 0.589615
O O12 0.882757 0.695818 0.500396
#
# Coordination Sequence:
#
# PCOD9116733 Si02
#       6
#     2   2   2   2   2   2
#     4   9  19  37  60  87 120 158 200 247 300 358
#     4  10  22  40  64  92 124 162 204 252 304 360
#     4   9  19  37  60  87 120 158 200 247 300 358
#     4  10  22  40  64  92 124 162 204 252 304 360
#     4   9  19  37  60  87 120 158 200 247 300 358
#     4   9  19  37  60  87 120 158 200 247 300 358
#
# _framework density 29.271087999999999
#
# number of rings (size 3 to 8) (size 9 to 14) (size 15 to 20)
#    0.000    2.667    0.000    0.000    0.000   12.000 
#    0.000    0.000    0.000   38.000    0.000    0.000 
#    0.000    0.000    0.000    0.000    0.000    0.000 
#
# Total GULP energy -67226.365303 kJ/mol
# GULP energy per Si atom -5602.197109 kJ/mol
# Density = 2.920447 g / cm^3
# Si number density = 29.271088 Si / 1000 Ang^3
#
#
#
# Elastic Constant Matrix: (Units=GPa)
#
#
# Indices 1 2 3 4 5 6 
#
# 1 152.2260 56.1103 57.5800 0.0000 13.4343 0.0000
# 2 56.1103 96.7019 29.0470 0.0000 -8.2581 0.0000
# 3 57.5800 29.0470 127.9024 0.0000 26.7584 0.0000
# 4 0.0000 0.0000 0.0000 21.4956 0.0000 18.4833
# 5 13.4343 -8.2581 26.7584 0.0000 59.9663 0.0000
# 6 0.0000 0.0000 0.0000 18.4833 0.0000 32.3650
#
#
#
# Elastic Compliance Matrix: (Units=1/GPa)
#
#
# Indices 1 2 3 4 5 6 
#
# 1 0.009574 -0.004813 -0.002900 0.000000 -0.001514 0.000000
# 2 -0.004813 0.014004 -0.001812 0.000000 0.003815 0.000000
# 3 -0.002900 -0.001812 0.010425 0.000000 -0.004252 0.000000
# 4 0.000000 0.000000 0.000000 0.091408 0.000000 -0.052202
# 5 -0.001514 0.003815 -0.004252 0.000000 0.019438 0.000000
# 6 0.000000 0.000000 0.000000 -0.052202 0.000000 0.060710
#
#
# Mechanical properties :
#
#
# Convention : Reuss Voigt Hill
#
# Bulk Modulus (GPa) = 66.87861 73.58945 70.23403
# Shear Modulus (GPa) = 21.77764 38.37158 30.07461
#
# Velocity S-wave (km/s) = 2.73059 3.62457 3.20886
# Velocity P-wave (km/s) = 5.73054 6.53543 6.14618
#
# Compressibility (1/GPa) = 0.01495246
#
# Stress axis : x y z
#
# Youngs Moduli (GPa) = 104.44991 71.40877 95.92264
#
# Poissons Ratio (x) = 0.34371 0.27821
# Poissons Ratio (y) = 0.50274 0.17378
# Poissons Ratio (z) = 0.30294 0.12937
#
# Static dielectric constant tensor:
#      x y z
#    x 2.438680 0.000000 0.125450 
#    y 0.000000 2.181600 0.000000 
#    z 0.125450 0.000000 2.307960 
# 
# From -- ./inp_files/359.got.cif
#   From: 2010.05.17/outbox.cif.g08.bks.cpg/sg4_1_cif.got.tgz:359.got - 2010.06.03 18:43:04.
