data_PCOD9116836
_publ_section_title
;
Structure prediction by ZEFSAII (Michael W. Deem and Ramdas Pophale) SiO2 
 PCOD9116836
Probable space group: P 21
;
_chemical_formula_sum "Si O2"
_cell_formula_units_Z 16
_cell_length_a 16.447927
_cell_length_b 5.336769
_cell_length_c 8.420594
_cell_angle_alpha 90.000000
_cell_angle_beta 116.776434
_cell_angle_gamma 90.000000
_cell_volume 659.891403
_symmetry_space_group_name_H-M "P 21"
_symmetry_group_IT_number 4
_symmetry_cell_setting 'monoclinic'
loop_
_space_group_symop_operation_xyz
x,y,z
-x,1/2+y,-z
loop_
_atom_site_type_symbol
_atom_site_label
_atom_site_fract_x
_atom_site_fract_y
_atom_site_fract_z
Si Si1 0.578458 0.781790 0.227413
Si Si2 0.844799 0.713906 0.385079
Si Si3 0.030276 0.868000 0.390247
Si Si4 0.319878 0.266396 0.000537
Si Si5 0.036457 0.608675 0.972037
Si Si6 0.352424 0.783348 0.541585
Si Si7 0.836828 0.039805 0.673857
Si Si8 0.618400 0.266731 0.791595
O O1 0.598181 0.767667 0.057518
O O2 0.628292 0.542132 0.351568
O O3 0.474468 0.765894 0.189758
O O4 0.615336 0.047016 0.325463
O O5 0.876955 0.428588 0.432675
O O6 0.769610 0.766329 0.188543
O O7 0.943137 0.817481 0.418906
O O8 0.816805 0.816653 0.533574
O O9 0.068871 0.652240 0.311581
O O10 0.992387 0.075764 0.235045
O O11 0.330602 0.510879 0.117811
O O12 0.326540 0.013661 0.108132
O O13 0.133421 0.497025 0.117776
O O14 0.968345 0.402868 0.992472
O O15 0.246762 0.729956 0.409211
O O16 0.401592 0.779366 0.413689
#
# Coordination Sequence:
#
# PCOD9116836 Si02
#       8
#     2   2   2   2   2   2   2   2
#     4  12  24  49  79 104 142 191 239 290 362 437
#     4  12  24  43  69  97 140 184 241 283 354 415
#     4  11  24  43  67  96 136 185 237 288 342 413
#     4  12  27  46  73 108 148 187 239 297 357 424
#     4  10  22  41  64  91 126 175 227 278 335 395
#     4  12  26  45  76 108 144 187 238 298 356 430
#     4  11  24  44  66  99 138 182 234 291 350 414
#     4  12  27  49  72 111 146 187 235 297 364 432
#
# _framework density 24.246413
#
# number of rings (size 3 to 8) (size 9 to 14) (size 15 to 20)
#    0.000    0.500    3.750    4.500    3.500    0.000 
#    9.000    0.000    0.000    0.000    0.000    0.000 
#    0.000    0.000    0.000    0.000    0.000    0.000 
#
# Total GULP energy -89417.041601 kJ/mol
# GULP energy per Si atom -5588.565100 kJ/mol
# Density = 2.419123 g / cm^3
# Si number density = 24.246413 Si / 1000 Ang^3
#
#
#
# Elastic Constant Matrix: (Units=GPa)
#
#
# Indices 1 2 3 4 5 6 
#
# 1 62.9467 -0.2668 -24.2229 0.0000 5.5946 0.0000
# 2 -0.2668 136.6720 36.4565 0.0000 1.4756 0.0000
# 3 -24.2229 36.4565 52.9175 0.0000 7.1427 0.0000
# 4 0.0000 0.0000 0.0000 41.8498 0.0000 8.0755
# 5 5.5946 1.4756 7.1427 0.0000 44.1182 0.0000
# 6 0.0000 0.0000 0.0000 8.0755 0.0000 19.0194
#
#
#
# Elastic Compliance Matrix: (Units=1/GPa)
#
#
# Indices 1 2 3 4 5 6 
#
# 1 0.021096 -0.003247 0.012514 0.000000 -0.004593 0.000000
# 2 -0.003247 0.009486 -0.008214 0.000000 0.001424 0.000000
# 3 0.012514 -0.008214 0.031142 0.000000 -0.006354 0.000000
# 4 0.000000 0.000000 0.000000 0.026027 0.000000 -0.011051
# 5 -0.004593 0.001424 -0.006354 0.000000 0.024230 0.000000
# 6 0.000000 0.000000 0.000000 -0.011051 0.000000 0.057270
#
#
# Mechanical properties :
#
#
# Convention : Reuss Voigt Hill
#
# Bulk Modulus (GPa) = 15.66662 30.71884 23.19273
# Shear Modulus (GPa) = 26.53603 37.03545 31.78574
#
# Velocity S-wave (km/s) = 3.31181 3.91251 3.62463
# Velocity P-wave (km/s) = 4.59342 5.75389 5.20609
#
# Compressibility (1/GPa) = 0.06382998
#
# Stress axis : x y z
#
# Youngs Moduli (GPa) = 47.40138 105.41758 32.11097
#
# Poissons Ratio (x) = 0.34232 -0.40183
# Poissons Ratio (y) = 0.15392 0.26376
# Poissons Ratio (z) = -0.59318 0.86589
#
# Static dielectric constant tensor:
#      x y z
#    x 1.962510 0.000000 -0.021270 
#    y 0.000000 2.033160 0.000000 
#    z -0.021270 0.000000 1.973700 
# 
# From -- ./inp_files/9500.got.cif
#   From: 2010.05.17/outbox.cif.g08.bks.cpg/sg4_5_cif.got.tgz:9500.got - 2010.06.03 18:43:04.
