data_PCOD9116552
_publ_section_title
;
Structure prediction by ZEFSAII (Michael W. Deem and Ramdas Pophale) SiO2 
 PCOD9116552
Probable space group: P 21
;
_chemical_formula_sum "Si O2"
_cell_formula_units_Z 16
_cell_length_a 5.254120
_cell_length_b 21.437177
_cell_length_c 5.163934
_cell_angle_alpha 90.000000
_cell_angle_beta 90.229797
_cell_angle_gamma 90.000000
_cell_volume 581.627284
_symmetry_space_group_name_H-M "P 21"
_symmetry_group_IT_number 4
_symmetry_cell_setting 'monoclinic'
loop_
_space_group_symop_operation_xyz
x,y,z
-x,1/2+y,-z
loop_
_atom_site_type_symbol
_atom_site_label
_atom_site_fract_x
_atom_site_fract_y
_atom_site_fract_z
Si Si1 0.431115 0.437510 0.184827
Si Si2 0.949867 0.285957 0.884500
Si Si3 0.229676 0.686604 0.474798
Si Si4 0.434281 0.247197 0.154899
Si Si5 0.721743 0.403093 0.671293
Si Si6 0.930714 0.003736 0.132355
Si Si7 0.526528 0.061262 0.533455
Si Si8 0.152713 0.127216 0.156315
O O1 0.524567 0.399021 0.433351
O O2 0.515800 0.508188 0.256995
O O3 0.565671 0.410135 0.935172
O O4 0.146244 0.453106 0.086843
O O5 0.959977 0.225287 0.702116
O O6 0.913818 0.345668 0.701346
O O7 0.680515 0.276825 0.025934
O O8 0.187480 0.287963 0.081182
O O9 0.467633 0.730876 0.555004
O O10 0.315811 0.620598 0.364814
O O11 0.081451 0.667717 0.736646
O O12 0.354378 0.177503 0.055390
O O13 0.887011 0.466288 0.671675
O O14 0.691970 0.027816 0.304462
O O15 0.052404 0.066084 0.013118
O O16 0.285855 0.094356 0.403869
#
# Coordination Sequence:
#
# PCOD9116552 Si02
#       8
#     2   2   2   2   2   2   2   2
#     4  12  26  50  74 116 152 206 266 328 398 470
#     4  12  30  49  77 113 157 218 268 329 390 481
#     4  10  25  46  77 115 156 203 260 333 406 477
#     4  11  26  49  74 114 151 204 264 327 399 470
#     4  12  31  49  78 112 158 218 272 324 394 481
#     4  11  24  47  76 114 158 209 262 335 405 479
#     4  10  23  44  74 118 160 200 260 337 410 481
#     4  10  21  48  76 116 158 200 260 335 412 483
#
# _framework density 27.509028000000001
#
# number of rings (size 3 to 8) (size 9 to 14) (size 15 to 20)
#    0.000    1.000    3.750    0.000   10.500    1.000 
#    0.000    1.250    0.000    0.000    0.000    0.000 
#    0.000    0.000    0.000    0.000    0.000    0.000 
#
# Total GULP energy -89587.111204 kJ/mol
# GULP energy per Si atom -5599.194450 kJ/mol
# Density = 2.744642 g / cm^3
# Si number density = 27.509028 Si / 1000 Ang^3
#
#
#
# Elastic Constant Matrix: (Units=GPa)
#
#
# Indices 1 2 3 4 5 6 
#
# 1 111.0712 3.5853 30.6311 0.0000 26.2793 0.0000
# 2 3.5853 74.2206 7.4738 0.0000 8.0977 0.0000
# 3 30.6311 7.4738 121.0593 0.0000 21.6882 0.0000
# 4 0.0000 0.0000 0.0000 38.2695 0.0000 6.8388
# 5 26.2793 8.0977 21.6882 0.0000 45.3387 0.0000
# 6 0.0000 0.0000 0.0000 6.8388 0.0000 39.1216
#
#
#
# Elastic Compliance Matrix: (Units=1/GPa)
#
#
# Indices 1 2 3 4 5 6 
#
# 1 0.010770 0.000251 -0.001765 0.000000 -0.005443 0.000000
# 2 0.000251 0.013769 -0.000489 0.000000 -0.002371 0.000000
# 3 -0.001765 -0.000489 0.009339 0.000000 -0.003357 0.000000
# 4 0.000000 0.000000 0.000000 0.026973 0.000000 -0.004715
# 5 -0.005443 -0.002371 -0.003357 0.000000 0.027240 0.000000
# 6 0.000000 0.000000 0.000000 -0.004715 0.000000 0.026386
#
#
# Mechanical properties :
#
#
# Convention : Reuss Voigt Hill
#
# Bulk Modulus (GPa) = 33.47663 43.30351 38.39007
# Shear Modulus (GPa) = 38.92887 42.19002 40.55945
#
# Velocity S-wave (km/s) = 3.76590 3.92047 3.84396
# Velocity P-wave (km/s) = 5.57720 6.02239 5.80406
#
# Compressibility (1/GPa) = 0.02987159
#
# Stress axis : x y z
#
# Youngs Moduli (GPa) = 92.85275 72.62623 107.08187
#
# Poissons Ratio (x) = -0.01826 0.18905
# Poissons Ratio (y) = -0.02334 0.05235
# Poissons Ratio (z) = 0.16393 0.03551
#
# Static dielectric constant tensor:
#      x y z
#    x 2.204040 0.000000 -0.016190 
#    y 0.000000 2.166900 0.000000 
#    z -0.016190 0.000000 2.171980 
# 
# From -- ./inp_files/738.got.cif
#   From: 2010.05.17/outbox.cif.g08.bks.cpg/sg4_1_cif.got.tgz:738.got - 2010.06.03 18:43:04.
