data_PCOD9116963
_publ_section_title
;
Structure prediction by ZEFSAII (Michael W. Deem and Ramdas Pophale) SiO2 
 PCOD9116963
Probable space group: P 21
;
_chemical_formula_sum "Si O2"
_cell_formula_units_Z 16
_cell_length_a 7.652271
_cell_length_b 12.844262
_cell_length_c 10.449021
_cell_angle_alpha 90.000000
_cell_angle_beta 43.405501
_cell_angle_gamma 90.000000
_cell_volume 705.718079
_symmetry_space_group_name_H-M "P 21"
_symmetry_group_IT_number 4
_symmetry_cell_setting 'monoclinic'
loop_
_space_group_symop_operation_xyz
x,y,z
-x,1/2+y,-z
loop_
_atom_site_type_symbol
_atom_site_label
_atom_site_fract_x
_atom_site_fract_y
_atom_site_fract_z
Si Si1 0.233919 0.211740 0.560475
Si Si2 0.601772 0.346299 0.041886
Si Si3 0.846776 0.127332 0.951962
Si Si4 0.174457 0.207661 0.169941
Si Si5 0.661754 0.564596 0.148349
Si Si6 0.879585 0.353401 0.624067
Si Si7 0.642102 0.212142 0.535419
Si Si8 0.660832 0.560989 0.698048
O O1 0.982062 0.151317 0.744343
O O2 0.389441 0.252919 0.598676
O O3 0.391787 0.124482 0.402722
O O4 0.151835 0.303183 0.508937
O O5 0.764527 0.367604 0.826985
O O6 0.725389 0.242869 0.042718
O O7 0.329185 0.309369 0.131021
O O8 0.616310 0.449248 0.119449
O O9 0.068979 0.083220 0.923304
O O10 0.610889 0.048193 0.087429
O O11 0.183497 0.132693 0.288066
O O12 0.874431 0.221704 0.312251
O O13 0.316199 0.146830 0.981094
O O14 0.444807 0.600272 0.363651
O O15 0.725303 0.275519 0.615761
O O16 0.165362 0.962485 0.419544
#
# Coordination Sequence:
#
# PCOD9116963 Si02
#       8
#     2   2   2   2   2   2   2   2
#     4  10  23  46  64  98 137 171 225 282 333 409
#     4  10  22  42  67 100 134 184 227 282 343 408
#     4   9  23  42  66  96 138 173 226 285 332 411
#     4  11  22  41  67  99 135 179 225 281 339 412
#     4  11  22  44  69  97 139 181 227 282 349 402
#     4  11  22  43  68  96 133 180 227 279 340 404
#     4  11  24  44  68  99 138 179 221 287 338 407
#     4  11  22  42  67  95 134 177 222 282 344 399
#
# _framework density 22.671942000000001
#
# number of rings (size 3 to 8) (size 9 to 14) (size 15 to 20)
#    0.000    1.500    3.750    0.750    0.000    4.000 
#    4.500    3.750    0.000    0.000    0.000    0.000 
#    0.000    0.000    0.000    0.000    0.000    0.000 
#
# Total GULP energy -89269.552967 kJ/mol
# GULP energy per Si atom -5579.347060 kJ/mol
# Density = 2.262034 g / cm^3
# Si number density = 22.671942 Si / 1000 Ang^3
#
#
#
# Elastic Constant Matrix: (Units=GPa)
#
#
# Indices 1 2 3 4 5 6 
#
# 1 90.4590 35.2691 -1.6338 0.0000 -7.4607 0.0000
# 2 35.2691 86.6686 17.2315 0.0000 -8.4959 0.0000
# 3 -1.6338 17.2315 75.6328 0.0000 -11.5613 0.0000
# 4 0.0000 0.0000 0.0000 19.9131 0.0000 3.7910
# 5 -7.4607 -8.4959 -11.5613 0.0000 29.1797 0.0000
# 6 0.0000 0.0000 0.0000 3.7910 0.0000 27.4161
#
#
#
# Elastic Compliance Matrix: (Units=1/GPa)
#
#
# Indices 1 2 3 4 5 6 
#
# 1 0.013500 -0.005631 0.001971 0.000000 0.002593 0.000000
# 2 -0.005631 0.014621 -0.003217 0.000000 0.001543 0.000000
# 3 0.001971 -0.003217 0.014829 0.000000 0.005443 0.000000
# 4 0.000000 0.000000 0.000000 0.051576 0.000000 -0.007132
# 5 0.002593 0.001543 0.005443 0.000000 0.037539 0.000000
# 6 0.000000 0.000000 0.000000 -0.007132 0.000000 0.037461
#
#
# Mechanical properties :
#
#
# Convention : Reuss Voigt Hill
#
# Bulk Modulus (GPa) = 34.25223 39.38824 36.82023
# Shear Modulus (GPa) = 25.90515 28.76136 27.33325
#
# Velocity S-wave (km/s) = 3.38392 3.56559 3.47594
# Velocity P-wave (km/s) = 5.51438 5.86192 5.69080
#
# Compressibility (1/GPa) = 0.02919518
#
# Stress axis : x y z
#
# Youngs Moduli (GPa) = 74.07520 68.39652 67.43422
#
# Poissons Ratio (x) = 0.38516 -0.13291
# Poissons Ratio (y) = 0.41714 0.21693
# Poissons Ratio (z) = -0.14600 0.22002
#
# Static dielectric constant tensor:
#      x y z
#    x 1.852430 0.000000 -0.037430 
#    y 0.000000 1.850650 0.000000 
#    z -0.037430 0.000000 1.907270 
# 
# From -- ./inp_files/11346.got.cif
#   From: 2010.05.17/outbox.cif.g08.bks.cpg/sg4_6_cif.got.tgz:11346.got - 2010.06.03 18:43:04.
