data_PCOD9116493
_publ_section_title
;
Structure prediction by ZEFSAII (Michael W. Deem and Ramdas Pophale) SiO2 
 PCOD9116493
Probable space group: P 21
;
_chemical_formula_sum "Si O2"
_cell_formula_units_Z 16
_cell_length_a 12.473424
_cell_length_b 9.177191
_cell_length_c 9.231353
_cell_angle_alpha 90.000000
_cell_angle_beta 143.052417
_cell_angle_gamma 90.000000
_cell_volume 635.178930
_symmetry_space_group_name_H-M "P 21"
_symmetry_group_IT_number 4
_symmetry_cell_setting 'monoclinic'
loop_
_space_group_symop_operation_xyz
x,y,z
-x,1/2+y,-z
loop_
_atom_site_type_symbol
_atom_site_label
_atom_site_fract_x
_atom_site_fract_y
_atom_site_fract_z
Si Si1 0.302910 0.755980 0.365266
Si Si2 0.135945 0.373645 0.876325
Si Si3 0.501673 0.898865 0.828187
Si Si4 0.992138 0.159585 0.163170
Si Si5 0.313047 0.241804 0.323884
Si Si6 0.640419 0.567200 0.055753
Si Si7 0.990652 0.377624 0.406862
Si Si8 0.297365 0.486757 0.526563
O O1 0.388148 0.879207 0.559151
O O2 0.482835 0.697915 0.479335
O O3 0.235465 0.646351 0.416155
O O4 0.142259 0.757976 0.079183
O O5 0.037802 0.488145 0.870192
O O6 0.027507 0.341509 0.614411
O O7 0.309502 0.464137 0.011882
O O8 0.213616 0.245054 0.061004
O O9 0.401610 0.001143 0.831857
O O10 0.573983 0.738332 0.970002
O O11 0.961505 0.226243 0.289397
O O12 0.188721 0.170379 0.309160
O O13 0.307624 0.402842 0.386161
O O14 0.835387 0.500177 0.229871
O O15 0.497929 0.487918 0.799576
O O16 0.166163 0.431522 0.509474
#
# Coordination Sequence:
#
# PCOD9116493 Si02
#       8
#     2   2   2   2   2   2   2   2
#     4  10  22  44  71  96 140 188 233 296 358 419
#     4  11  24  48  68 104 149 181 237 304 355 425
#     4  10  25  45  71 105 145 184 243 303 350 430
#     4  11  25  46  72 103 140 193 241 297 361 437
#     4  10  23  45  68 102 138 181 240 296 352 428
#     4  11  24  44  71 105 140 191 234 297 367 426
#     4  11  26  41  73 104 142 190 235 292 370 428
#     4  10  21  45  66  99 142 178 241 301 345 425
#
# _framework density 25.189754000000001
#
# number of rings (size 3 to 8) (size 9 to 14) (size 15 to 20)
#    0.000    1.500    2.500    0.750    5.250    3.000 
#    4.500    0.000    0.000    0.000    0.000    0.000 
#    0.000    0.000    0.000    0.000    0.000    0.000 
#
# Total GULP energy -89321.678949 kJ/mol
# GULP energy per Si atom -5582.604934 kJ/mol
# Density = 2.513242 g / cm^3
# Si number density = 25.189754 Si / 1000 Ang^3
#
#
#
# Elastic Constant Matrix: (Units=GPa)
#
#
# Indices 1 2 3 4 5 6 
#
# 1 95.6126 22.2491 9.4169 0.0000 4.5474 0.0000
# 2 22.2491 42.0138 9.8359 0.0000 12.1745 0.0000
# 3 9.4169 9.8359 97.0041 0.0000 -10.8857 0.0000
# 4 0.0000 0.0000 0.0000 31.5270 0.0000 4.4509
# 5 4.5474 12.1745 -10.8857 0.0000 40.4363 0.0000
# 6 0.0000 0.0000 0.0000 4.4509 0.0000 26.1270
#
#
#
# Elastic Compliance Matrix: (Units=1/GPa)
#
#
# Indices 1 2 3 4 5 6 
#
# 1 0.011962 -0.006353 -0.000467 0.000000 0.000442 0.000000
# 2 -0.006353 0.030756 -0.003569 0.000000 -0.009506 0.000000
# 3 -0.000467 -0.003569 0.011180 0.000000 0.004137 0.000000
# 4 0.000000 0.000000 0.000000 0.032501 0.000000 -0.005537
# 5 0.000442 -0.009506 0.004137 0.000000 0.028656 0.000000
# 6 0.000000 0.000000 0.000000 -0.005537 0.000000 0.039218
#
#
# Mechanical properties :
#
#
# Convention : Reuss Voigt Hill
#
# Bulk Modulus (GPa) = 30.19323 35.29271 32.74297
# Shear Modulus (GPa) = 26.86833 32.49330 29.68081
#
# Velocity S-wave (km/s) = 3.26948 3.59547 3.43635
# Velocity P-wave (km/s) = 5.12494 5.59265 5.36390
#
# Compressibility (1/GPa) = 0.03312000
#
# Stress axis : x y z
#
# Youngs Moduli (GPa) = 83.59569 32.51358 89.44307
#
# Poissons Ratio (x) = 0.20657 0.04181
# Poissons Ratio (y) = 0.53112 0.31919
# Poissons Ratio (z) = 0.03908 0.11603
#
# Static dielectric constant tensor:
#      x y z
#    x 2.006150 0.000000 0.012110 
#    y 0.000000 2.208130 0.000000 
#    z 0.012110 0.000000 2.033360 
# 
# From -- ./inp_files/8400.got.cif
#   From: 2010.05.17/outbox.cif.g08.bks.cpg/sg4_5_cif.got.tgz:8400.got - 2010.06.03 18:43:04.
