data_PCOD9116348
_publ_section_title
;
Structure prediction by ZEFSAII (Michael W. Deem and Ramdas Pophale) SiO2 
 PCOD9116348
Probable space group: P 21
;
_chemical_formula_sum "Si O2"
_cell_formula_units_Z 16
_cell_length_a 14.872377
_cell_length_b 7.490120
_cell_length_c 6.959016
_cell_angle_alpha 90.000000
_cell_angle_beta 110.396261
_cell_angle_gamma 90.000000
_cell_volume 726.604038
_symmetry_space_group_name_H-M "P 21"
_symmetry_group_IT_number 4
_symmetry_cell_setting 'monoclinic'
loop_
_space_group_symop_operation_xyz
x,y,z
-x,1/2+y,-z
loop_
_atom_site_type_symbol
_atom_site_label
_atom_site_fract_x
_atom_site_fract_y
_atom_site_fract_z
Si Si1 0.873772 0.991230 0.286311
Si Si2 0.516870 0.356810 0.159920
Si Si3 0.857211 0.741144 0.944179
Si Si4 0.316849 0.662007 0.944142
Si Si5 0.377012 0.234435 0.739334
Si Si6 0.799114 0.509563 0.223430
Si Si7 0.934227 0.664227 0.590960
Si Si8 0.353806 0.372649 0.299907
O O1 0.897294 0.837276 0.452676
O O2 0.887834 0.918577 0.079739
O O3 0.954552 0.138485 0.371192
O O4 0.763042 0.042721 0.220952
O O5 0.561659 0.549774 0.244874
O O6 0.452910 0.290494 0.290531
O O7 0.598541 0.230257 0.132539
O O8 0.437193 0.354812 0.931836
O O9 0.913508 0.695989 0.796922
O O10 0.743509 0.765642 0.819581
O O11 0.866291 0.588155 0.108546
O O12 0.343381 0.559752 0.165961
O O13 0.255403 0.845076 0.914981
O O14 0.282578 0.151308 0.769595
O O15 0.361210 0.348496 0.534693
O O16 0.868273 0.500782 0.461154
#
# Coordination Sequence:
#
# PCOD9116348 Si02
#       8
#     2   2   2   2   2   2   2   2
#     4  10  24  41  66  98 135 180 227 286 343 416
#     4  11  23  44  65  98 140 185 228 292 345 405
#     4  10  22  41  69  97 133 175 221 286 342 409
#     4  10  23  45  66  99 141 181 229 289 340 411
#     4  11  23  41  67  96 137 181 231 282 345 416
#     4  10  21  42  69  97 140 174 227 287 342 412
#     4  11  22  43  70 100 135 180 226 278 358 408
#     4  11  22  43  66 101 133 186 229 280 349 413
#
# _framework density 22.020247999999999
#
# number of rings (size 3 to 8) (size 9 to 14) (size 15 to 20)
#    0.000    1.500    3.750    0.750    0.000    4.000 
#    2.250    5.000    0.000    0.000    0.000    0.000 
#    0.000    0.000    0.000    0.000    0.000    0.000 
#
# Total GULP energy -89191.390917 kJ/mol
# GULP energy per Si atom -5574.461932 kJ/mol
# Density = 2.197013 g / cm^3
# Si number density = 22.020248 Si / 1000 Ang^3
#
#
#
# Elastic Constant Matrix: (Units=GPa)
#
#
# Indices 1 2 3 4 5 6 
#
# 1 53.5216 19.1191 17.6806 0.0000 2.3941 0.0000
# 2 19.1191 90.0612 32.2527 0.0000 -5.9817 0.0000
# 3 17.6806 32.2527 112.2318 0.0000 -14.3171 0.0000
# 4 0.0000 0.0000 0.0000 24.4094 0.0000 2.1395
# 5 2.3941 -5.9817 -14.3171 0.0000 33.3215 0.0000
# 6 0.0000 0.0000 0.0000 2.1395 0.0000 31.7637
#
#
#
# Elastic Compliance Matrix: (Units=1/GPa)
#
#
# Indices 1 2 3 4 5 6 
#
# 1 0.021048 -0.003734 -0.002667 0.000000 -0.003329 0.000000
# 2 -0.003734 0.013057 -0.002995 0.000000 0.001325 0.000000
# 3 -0.002667 -0.002995 0.010735 0.000000 0.004267 0.000000
# 4 0.000000 0.000000 0.000000 0.041211 0.000000 -0.002776
# 5 -0.003329 0.001325 0.004267 0.000000 0.032321 0.000000
# 6 0.000000 0.000000 0.000000 -0.002776 0.000000 0.031669
#
#
# Mechanical properties :
#
#
# Convention : Reuss Voigt Hill
#
# Bulk Modulus (GPa) = 38.39159 43.76884 41.08022
# Shear Modulus (GPa) = 28.16636 30.34976 29.25806
#
# Velocity S-wave (km/s) = 3.58035 3.71653 3.64907
# Velocity P-wave (km/s) = 5.87915 6.19165 6.03742
#
# Compressibility (1/GPa) = 0.02604737
#
# Stress axis : x y z
#
# Youngs Moduli (GPa) = 47.51042 76.58830 93.15088
#
# Poissons Ratio (x) = 0.28599 0.24847
# Poissons Ratio (y) = 0.17741 0.27898
# Poissons Ratio (z) = 0.12673 0.22937
#
# Static dielectric constant tensor:
#      x y z
#    x 1.822520 0.000000 0.036680 
#    y 0.000000 1.929690 0.000000 
#    z 0.036680 0.000000 1.808040 
# 
# From -- ./inp_files/3725.got.cif
#   From: 2010.05.17/outbox.cif.g08.bks.cpg/sg4_2_cif.got.tgz:3725.got - 2010.06.03 18:43:04.
