data_PCOD9116990
_publ_section_title
;
Structure prediction by ZEFSAII (Michael W. Deem and Ramdas Pophale) SiO2 
 PCOD9116990
Probable space group: P 21
;
_chemical_formula_sum "Si O2"
_cell_formula_units_Z 14
_cell_length_a 5.712037
_cell_length_b 9.699886
_cell_length_c 11.564173
_cell_angle_alpha 90.000000
_cell_angle_beta 70.667443
_cell_angle_gamma 90.000000
_cell_volume 604.597203
_symmetry_space_group_name_H-M "P 21"
_symmetry_group_IT_number 4
_symmetry_cell_setting 'monoclinic'
loop_
_space_group_symop_operation_xyz
x,y,z
-x,1/2+y,-z
loop_
_atom_site_type_symbol
_atom_site_label
_atom_site_fract_x
_atom_site_fract_y
_atom_site_fract_z
Si Si1 0.566512 0.141820 0.634612
Si Si2 0.167907 0.125801 0.859947
Si Si3 0.750769 0.182679 0.203521
Si Si4 0.960607 0.007341 0.656200
Si Si5 0.415584 0.854033 0.548216
Si Si6 0.131111 0.423132 0.937078
Si Si7 0.310019 0.311706 0.135186
O O1 0.454749 0.150459 0.782676
O O2 0.470179 0.266348 0.573406
O O3 0.860674 0.137684 0.604357
O O4 0.539234 0.994925 0.572182
O O5 0.052707 0.273681 0.905000
O O6 0.093266 0.062709 0.749366
O O7 0.086855 0.013641 0.967039
O O8 0.634915 0.247287 0.338455
O O9 0.561427 0.234263 0.132244
O O10 0.042592 0.231784 0.160448
O O11 0.761073 0.019335 0.181044
O O12 0.750433 0.911321 0.747636
O O13 0.146024 0.912189 0.555751
O O14 0.323755 0.393147 0.011215
#
# Coordination Sequence:
#
# PCOD9116990 Si02
#       7
#     2   2   2   2   2   2   2
#     4  11  23  45  69  97 137 181 238 292 357 426
#     4  10  24  43  66 103 138 184 235 290 358 422
#     4  11  23  45  67 103 140 186 235 289 362 416
#     4   9  21  43  67  95 137 179 230 296 355 421
#     4  10  24  43  69  95 137 182 234 294 357 417
#     4  11  23  43  70 102 143 184 240 293 355 429
#     4  10  22  42  68  97 138 186 226 294 352 421
#
# _framework density 23.155913999999999
#
# number of rings (size 3 to 8) (size 9 to 14) (size 15 to 20)
#    0.000    1.714    2.857    0.857    2.000    5.714 
#    2.571    0.000    0.000    0.000    0.000    0.000 
#    0.000    0.000    0.000    0.000    0.000    0.000 
#
# Total GULP energy -77941.664258 kJ/mol
# GULP energy per Si atom -5567.261733 kJ/mol
# Density = 2.310321 g / cm^3
# Si number density = 23.155914 Si / 1000 Ang^3
#
#
#
# Elastic Constant Matrix: (Units=GPa)
#
#
# Indices 1 2 3 4 5 6 
#
# 1 61.1938 13.1222 14.5063 0.0000 3.0422 0.0000
# 2 13.1222 104.5032 20.6137 0.0000 -10.1012 0.0000
# 3 14.5063 20.6137 27.6296 0.0000 -7.1095 0.0000
# 4 0.0000 0.0000 0.0000 44.2109 0.0000 1.3788
# 5 3.0422 -10.1012 -7.1095 0.0000 14.9004 0.0000
# 6 0.0000 0.0000 0.0000 1.3788 0.0000 18.0828
#
#
#
# Elastic Compliance Matrix: (Units=1/GPa)
#
#
# Indices 1 2 3 4 5 6 
#
# 1 0.020079 -0.001100 -0.012503 0.000000 -0.010811 0.000000
# 2 -0.001100 0.011507 -0.006774 0.000000 0.004793 0.000000
# 3 -0.012503 -0.006774 0.053905 0.000000 0.023681 0.000000
# 4 0.000000 0.000000 0.000000 0.022673 0.000000 -0.001729
# 5 -0.010811 0.004793 0.023681 0.000000 0.083868 0.000000
# 6 0.000000 0.000000 0.000000 -0.001729 0.000000 0.055433
#
#
# Mechanical properties :
#
#
# Convention : Reuss Voigt Hill
#
# Bulk Modulus (GPa) = 22.35326 32.20124 27.27725
# Shear Modulus (GPa) = 16.49456 25.11111 20.80283
#
# Velocity S-wave (km/s) = 2.67184 3.29665 3.00055
# Velocity P-wave (km/s) = 4.38094 5.33170 4.87953
#
# Compressibility (1/GPa) = 0.04473621
#
# Stress axis : x y z
#
# Youngs Moduli (GPa) = 49.80378 86.90597 18.55119
#
# Poissons Ratio (x) = 0.09559 0.23195
# Poissons Ratio (y) = 0.05478 0.12567
# Poissons Ratio (z) = 0.62270 0.58870
#
# Static dielectric constant tensor:
#      x y z
#    x 2.119110 0.000000 -0.058490 
#    y 0.000000 1.905300 0.000000 
#    z -0.058490 0.000000 1.888630 
# 
# From -- ./inp_files/3380.got.cif
#   From: 2010.05.17/outbox.cif.g08.bks.cpg/sg4_2_cif.got.tgz:3380.got - 2010.06.03 18:43:04.
