data_PCOD9116140
_publ_section_title
;
Structure prediction by ZEFSAII (Michael W. Deem and Ramdas Pophale) SiO2 
 PCOD9116140
Probable space group: P 21
;
_chemical_formula_sum "Si O2"
_cell_formula_units_Z 16
_cell_length_a 10.888513
_cell_length_b 13.442538
_cell_length_c 7.138577
_cell_angle_alpha 90.000000
_cell_angle_beta 44.904449
_cell_angle_gamma 90.000000
_cell_volume 737.600197
_symmetry_space_group_name_H-M "P 21"
_symmetry_group_IT_number 4
_symmetry_cell_setting 'monoclinic'
loop_
_space_group_symop_operation_xyz
x,y,z
-x,1/2+y,-z
loop_
_atom_site_type_symbol
_atom_site_label
_atom_site_fract_x
_atom_site_fract_y
_atom_site_fract_z
Si Si1 0.371758 0.256990 0.105427
Si Si2 0.835105 0.936562 0.572855
Si Si3 0.494957 0.066799 0.561327
Si Si4 0.104693 0.567039 0.855278
Si Si5 0.616337 0.400906 0.605864
Si Si6 0.509700 0.055971 0.989122
Si Si7 0.192392 0.212035 0.945378
Si Si8 0.000313 0.899674 0.774315
O O1 0.489624 0.316612 0.825685
O O2 0.483262 0.169803 0.075237
O O3 0.226748 0.203578 0.132655
O O4 0.282303 0.337957 0.333930
O O5 0.973767 0.904712 0.579386
O O6 0.896298 0.989926 0.319711
O O7 0.701880 0.013376 0.818078
O O8 0.696350 0.095020 0.314214
O O9 0.483745 0.046960 0.795332
O O10 0.355753 0.155165 0.674564
O O11 0.450722 0.965934 0.496698
O O12 0.022820 0.508339 0.116235
O O13 0.979893 0.655837 0.932230
O O14 0.810113 0.361120 0.373275
O O15 0.621565 0.485053 0.761601
O O16 0.149143 0.328942 0.975657
#
# Coordination Sequence:
#
# PCOD9116140 Si02
#       8
#     2   2   2   2   2   2   2   2
#     4   9  20  40  62  91 122 163 209 252 309 367
#     4   9  21  39  60  87 125 161 200 261 299 362
#     4  10  21  40  66  88 123 167 202 258 305 365
#     4  11  22  42  66  90 124 162 209 252 314 365
#     4  11  22  39  66  91 126 166 204 255 314 367
#     4   9  20  38  65  88 118 164 210 247 310 360
#     4  10  22  39  61  94 122 158 208 253 306 367
#     4  11  24  39  62  95 126 161 206 256 311 371
#
# _framework density 21.691967999999999
#
# number of rings (size 3 to 8) (size 9 to 14) (size 15 to 20)
#    0.000    2.000    1.250    2.250    8.750    1.000 
#    0.000    3.750    8.250    0.000    0.000    0.000 
#    0.000    0.000    0.000    0.000    0.000    0.000 
#
# Total GULP energy -89253.618064 kJ/mol
# GULP energy per Si atom -5578.351129 kJ/mol
# Density = 2.164260 g / cm^3
# Si number density = 21.691968 Si / 1000 Ang^3
#
#
#
# Elastic Constant Matrix: (Units=GPa)
#
#
# Indices 1 2 3 4 5 6 
#
# 1 64.1675 12.7065 19.7396 0.0000 -30.4833 0.0000
# 2 12.7065 54.8665 -12.5135 0.0000 -10.4814 0.0000
# 3 19.7396 -12.5135 43.7055 0.0000 -10.7982 0.0000
# 4 0.0000 0.0000 0.0000 20.1302 0.0000 0.2612
# 5 -30.4833 -10.4814 -10.7982 0.0000 33.1158 0.0000
# 6 0.0000 0.0000 0.0000 0.2612 0.0000 36.6045
#
#
#
# Elastic Compliance Matrix: (Units=1/GPa)
#
#
# Indices 1 2 3 4 5 6 
#
# 1 0.030626 -0.004701 -0.009333 0.000000 0.023660 0.000000
# 2 -0.004701 0.022829 0.010197 0.000000 0.006223 0.000000
# 3 -0.009333 0.010197 0.031204 0.000000 0.004812 0.000000
# 4 0.000000 0.000000 0.000000 0.049681 0.000000 -0.000355
# 5 0.023660 0.006223 0.004812 0.000000 0.055515 0.000000
# 6 0.000000 0.000000 0.000000 -0.000355 0.000000 0.027322
#
#
# Mechanical properties :
#
#
# Convention : Reuss Voigt Hill
#
# Bulk Modulus (GPa) = 12.98936 22.51166 17.75051
# Shear Modulus (GPa) = 19.95905 27.49056 23.72481
#
# Velocity S-wave (km/s) = 3.03663 3.56380 3.31072
# Velocity P-wave (km/s) = 4.27737 5.22825 4.77653
#
# Compressibility (1/GPa) = 0.07698607
#
# Stress axis : x y z
#
# Youngs Moduli (GPa) = 32.65173 43.80323 32.04727
#
# Poissons Ratio (x) = 0.20593 0.29909
# Poissons Ratio (y) = 0.15351 -0.32679
# Poissons Ratio (z) = 0.30473 -0.44667
#
# Static dielectric constant tensor:
#      x y z
#    x 1.836350 0.000000 -0.031830 
#    y 0.000000 1.826300 0.000000 
#    z -0.031830 0.000000 1.802710 
# 
# From -- ./inp_files/8391.got.cif
#   From: 2010.05.17/outbox.cif.g08.bks.cpg/sg4_5_cif.got.tgz:8391.got - 2010.06.03 18:43:04.
