data_PCOD9116728
_publ_section_title
;
Structure prediction by ZEFSAII (Michael W. Deem and Ramdas Pophale) SiO2 
 PCOD9116728
Probable space group: P 21
;
_chemical_formula_sum "Si O2"
_cell_formula_units_Z 14
_cell_length_a 14.045852
_cell_length_b 7.876726
_cell_length_c 9.311613
_cell_angle_alpha 90.000000
_cell_angle_beta 148.302112
_cell_angle_gamma 90.000000
_cell_volume 541.305094
_symmetry_space_group_name_H-M "P 21"
_symmetry_group_IT_number 4
_symmetry_cell_setting 'monoclinic'
loop_
_space_group_symop_operation_xyz
x,y,z
-x,1/2+y,-z
loop_
_atom_site_type_symbol
_atom_site_label
_atom_site_fract_x
_atom_site_fract_y
_atom_site_fract_z
Si Si1 0.382750 0.447310 0.882737
Si Si2 0.456649 0.622565 0.253984
Si Si3 0.170275 0.933451 0.230986
Si Si4 0.723127 0.464321 0.933884
Si Si5 0.571741 0.171582 0.318980
Si Si6 0.999226 0.788377 0.533983
Si Si7 0.902741 0.960413 0.145769
O O1 0.406007 0.505684 0.750675
O O2 0.187048 0.365252 0.647175
O O3 0.403795 0.607680 0.017528
O O4 0.516368 0.315883 0.132409
O O5 0.662467 0.564264 0.531205
O O6 0.411760 0.804716 0.259502
O O7 0.312754 0.491222 0.141390
O O8 0.138735 0.956210 0.021872
O O9 0.257596 0.749407 0.379815
O O10 0.007201 0.964123 0.130278
O O11 0.595551 0.625189 0.792329
O O12 0.837697 0.417129 0.220811
O O13 0.039032 0.620337 0.677738
O O14 0.966736 0.795470 0.320302
#
# Coordination Sequence:
#
# PCOD9116728 Si02
#       7
#     2   2   2   2   2   2   2
#     4  10  22  40  64 103 120 173 223 282 336 378
#     4   9  22  43  66  93 135 170 223 282 332 392
#     4  11  25  44  66  96 137 186 216 271 341 415
#     4  11  23  44  64  98 136 175 222 274 339 407
#     4  11  24  39  70  96 134 176 226 280 333 400
#     4  10  23  41  65  98 128 167 218 288 329 389
#     4  10  23  43  67  96 132 169 226 279 334 393
#
# _framework density 25.863419
#
# number of rings (size 3 to 8) (size 9 to 14) (size 15 to 20)
#    0.000    1.714    0.000    2.571   16.000    0.000 
#    7.714    0.000    0.000    0.000    0.000    0.000 
#    0.000    0.000    0.000    0.000    0.000    0.000 
#
# Total GULP energy -78338.739037 kJ/mol
# GULP energy per Si atom -5595.624217 kJ/mol
# Density = 2.580455 g / cm^3
# Si number density = 25.863419 Si / 1000 Ang^3
#
#
#
# Elastic Constant Matrix: (Units=GPa)
#
#
# Indices 1 2 3 4 5 6 
#
# 1 169.2040 19.2104 -2.7500 0.0000 -5.6856 0.0000
# 2 19.2104 86.0770 -1.8371 0.0000 -10.9224 0.0000
# 3 -2.7500 -1.8371 50.9780 0.0000 -2.2458 0.0000
# 4 0.0000 0.0000 0.0000 25.2167 0.0000 1.5473
# 5 -5.6856 -10.9224 -2.2458 0.0000 19.5072 0.0000
# 6 0.0000 0.0000 0.0000 1.5473 0.0000 33.1742
#
#
#
# Elastic Compliance Matrix: (Units=1/GPa)
#
#
# Indices 1 2 3 4 5 6 
#
# 1 0.006091 -0.001208 0.000335 0.000000 0.001138 0.000000
# 2 -0.001208 0.012775 0.000698 0.000000 0.006881 0.000000
# 3 0.000335 0.000698 0.019781 0.000000 0.002766 0.000000
# 4 0.000000 0.000000 0.000000 0.039770 0.000000 -0.001855
# 5 0.001138 0.006881 0.002766 0.000000 0.055766 0.000000
# 6 0.000000 0.000000 0.000000 -0.001855 0.000000 0.030230
#
#
# Mechanical properties :
#
#
# Convention : Reuss Voigt Hill
#
# Bulk Modulus (GPa) = 26.11049 37.27842 31.69446
# Shear Modulus (GPa) = 28.16443 35.02200 31.59321
#
# Velocity S-wave (km/s) = 3.30353 3.68382 3.49885
# Velocity P-wave (km/s) = 4.96674 5.70429 5.34824
#
# Compressibility (1/GPa) = 0.03829878
#
# Stress axis : x y z
#
# Youngs Moduli (GPa) = 164.18131 78.27692 50.55254
#
# Poissons Ratio (x) = 0.09455 -0.01694
# Poissons Ratio (y) = 0.19830 -0.03530
# Poissons Ratio (z) = -0.05503 -0.05467
#
# Static dielectric constant tensor:
#      x y z
#    x 2.049150 0.000000 -0.063330 
#    y 0.000000 2.149060 0.000000 
#    z -0.063330 0.000000 2.042440 
# 
# From -- ./inp_files/5639.got.cif
#   From: 2010.05.17/outbox.cif.g08.bks.cpg/sg4_3_cif.got.tgz:5639.got - 2010.06.03 18:43:04.
