data_PCOD9116126
_publ_section_title
;
Structure prediction by ZEFSAII (Michael W. Deem and Ramdas Pophale) SiO2 
 PCOD9116126
Probable space group: P 21
;
_chemical_formula_sum "Si O2"
_cell_formula_units_Z 12
_cell_length_a 11.708095
_cell_length_b 5.123761
_cell_length_c 17.304870
_cell_angle_alpha 90.000000
_cell_angle_beta 25.827674
_cell_angle_gamma 90.000000
_cell_volume 452.269203
_symmetry_space_group_name_H-M "P 21"
_symmetry_group_IT_number 4
_symmetry_cell_setting 'monoclinic'
loop_
_space_group_symop_operation_xyz
x,y,z
-x,1/2+y,-z
loop_
_atom_site_type_symbol
_atom_site_label
_atom_site_fract_x
_atom_site_fract_y
_atom_site_fract_z
Si Si1 0.991532 0.348860 0.231174
Si Si2 0.749537 0.193493 0.230308
Si Si3 0.638194 0.346708 0.020166
Si Si4 0.106681 0.554027 0.313555
Si Si5 0.653476 0.687500 0.199177
Si Si6 0.276838 0.962412 0.315322
O O1 0.921210 0.430688 0.361298
O O2 0.759189 0.287653 0.312812
O O3 0.157193 0.609373 0.110741
O O4 0.177707 0.097894 0.104107
O O5 0.603046 0.412646 0.269984
O O6 0.653544 0.909916 0.264661
O O7 0.053672 0.194800 0.015652
O O8 0.385537 0.423752 0.122502
O O9 0.459505 0.217159 0.197325
O O10 0.185745 0.854649 0.286408
O O11 0.966309 0.489120 0.479522
O O12 0.462315 0.755018 0.245430
#
# Coordination Sequence:
#
# PCOD9116126 Si02
#       6
#     2   2   2   2   2   2
#     4  12  26  44  73 105 143 182 242 304 354 421
#     4  10  21  40  65 101 134 180 238 294 355 406
#     4  12  24  44  70 103 138 186 238 287 359 424
#     4  12  27  45  70 107 146 193 234 299 360 438
#     4  10  22  38  69  99 136 182 236 296 343 431
#     4  12  26  45  73 105 149 193 242 290 371 440
#
# _framework density 26.532869000000002
#
# number of rings (size 3 to 8) (size 9 to 14) (size 15 to 20)
#    0.000    0.667    5.000    2.000    9.333    0.000 
#    0.000    1.667    0.000    0.000    0.000    0.000 
#    0.000    0.000    0.000    0.000    0.000    0.000 
#
# Total GULP energy -66967.232176 kJ/mol
# GULP energy per Si atom -5580.602681 kJ/mol
# Density = 2.647248 g / cm^3
# Si number density = 26.532869 Si / 1000 Ang^3
#
#
#
# Elastic Constant Matrix: (Units=GPa)
#
#
# Indices 1 2 3 4 5 6 
#
# 1 125.7046 26.0584 7.7528 0.0000 29.5998 0.0000
# 2 26.0584 140.9075 28.9376 0.0000 24.6090 0.0000
# 3 7.7528 28.9376 80.2804 0.0000 2.1321 0.0000
# 4 0.0000 0.0000 0.0000 17.6547 0.0000 1.0269
# 5 29.5998 24.6090 2.1321 0.0000 33.9767 0.0000
# 6 0.0000 0.0000 0.0000 1.0269 0.0000 23.5652
#
#
#
# Elastic Compliance Matrix: (Units=1/GPa)
#
#
# Indices 1 2 3 4 5 6 
#
# 1 0.010058 -0.000230 -0.000661 0.000000 -0.008554 0.000000
# 2 -0.000230 0.008799 -0.002990 0.000000 -0.005985 0.000000
# 3 -0.000661 -0.002990 0.013548 0.000000 0.001892 0.000000
# 4 0.000000 0.000000 0.000000 0.056786 0.000000 -0.002474
# 5 -0.008554 -0.005985 0.001892 0.000000 0.041100 0.000000
# 6 0.000000 0.000000 0.000000 -0.002474 0.000000 0.042543
#
#
# Mechanical properties :
#
#
# Convention : Reuss Voigt Hill
#
# Bulk Modulus (GPa) = 40.58303 52.48776 46.53539
# Shear Modulus (GPa) = 26.48154 33.98223 30.23188
#
# Velocity S-wave (km/s) = 3.16264 3.58265 3.37918
# Velocity P-wave (km/s) = 5.35397 6.07774 5.72730
#
# Compressibility (1/GPa) = 0.02464084
#
# Stress axis : x y z
#
# Youngs Moduli (GPa) = 99.42444 113.65253 73.81244
#
# Poissons Ratio (x) = 0.02618 0.04880
# Poissons Ratio (y) = 0.02290 0.22073
# Poissons Ratio (z) = 0.06573 0.33986
#
# Static dielectric constant tensor:
#      x y z
#    x 2.170640 0.000000 0.077790 
#    y 0.000000 2.218490 0.000000 
#    z 0.077790 0.000000 2.073490 
# 
# From -- ./inp_files/15059.got.cif
#   From: 2010.05.17/outbox.cif.g08.bks.cpg/sg4_8_cif.got.tgz:15059.got - 2010.06.03 18:43:04.
