data_PCOD9116942
_publ_section_title
;
Structure prediction by ZEFSAII (Michael W. Deem and Ramdas Pophale) SiO2 
 PCOD9116942
Probable space group: P 21
;
_chemical_formula_sum "Si O2"
_cell_formula_units_Z 14
_cell_length_a 8.669827
_cell_length_b 5.672636
_cell_length_c 13.314106
_cell_angle_alpha 90.000000
_cell_angle_beta 94.687180
_cell_angle_gamma 90.000000
_cell_volume 652.608178
_symmetry_space_group_name_H-M "P 21"
_symmetry_group_IT_number 4
_symmetry_cell_setting 'monoclinic'
loop_
_space_group_symop_operation_xyz
x,y,z
-x,1/2+y,-z
loop_
_atom_site_type_symbol
_atom_site_label
_atom_site_fract_x
_atom_site_fract_y
_atom_site_fract_z
Si Si1 0.330919 0.218630 0.879032
Si Si2 0.914471 0.292121 0.472134
Si Si3 0.773713 0.336985 0.249251
Si Si4 0.756750 0.489457 0.931346
Si Si5 0.110767 0.621508 0.944009
Si Si6 0.466886 0.013412 0.234130
Si Si7 0.572478 0.338818 0.543495
O O1 0.201581 0.399331 0.906514
O O2 0.488634 0.336530 0.853705
O O3 0.275739 0.104668 0.771222
O O4 0.347557 0.058258 0.977627
O O5 0.872181 0.287625 0.352008
O O6 0.750925 0.311408 0.521300
O O7 0.005780 0.539334 0.497619
O O8 0.865547 0.291171 0.150944
O O9 0.611607 0.192223 0.246152
O O10 0.692895 0.596779 0.824148
O O11 0.931359 0.589528 0.954152
O O12 0.799326 0.215366 0.953132
O O13 0.444589 0.891393 0.339258
O O14 0.492318 0.085301 0.510698
#
# Coordination Sequence:
#
# PCOD9116942 Si02
#       7
#     2   2   2   2   2   2   2
#     4  10  23  42  68  92 143 178 233 293 359 434
#     4  12  28  48  79 112 151 194 251 317 383 450
#     4  10  24  46  68  99 138 189 230 302 368 437
#     4  11  23  41  64 102 137 185 236 286 358 434
#     4  10  22  42  64  96 139 183 226 292 353 437
#     4  11  26  41  73 100 136 190 241 296 365 439
#     4  12  26  52  78 109 152 195 253 316 376 447
#
# _framework density 21.452380999999999
#
# number of rings (size 3 to 8) (size 9 to 14) (size 15 to 20)
#    0.000    1.143    2.857    1.714   12.000    0.000 
#    0.000    0.000    0.000    0.000    0.000    0.000 
#    0.000    0.000    0.000    0.000    0.000    0.000 
#
# Total GULP energy -77974.088157 kJ/mol
# GULP energy per Si atom -5569.577726 kJ/mol
# Density = 2.140355 g / cm^3
# Si number density = 21.452381 Si / 1000 Ang^3
#
#
#
# Elastic Constant Matrix: (Units=GPa)
#
#
# Indices 1 2 3 4 5 6 
#
# 1 92.6433 46.3658 35.2584 0.0000 -5.1959 0.0000
# 2 46.3658 93.1032 30.8914 0.0000 16.3064 0.0000
# 3 35.2584 30.8914 126.3238 0.0000 17.6743 0.0000
# 4 0.0000 0.0000 0.0000 28.4292 0.0000 1.5843
# 5 -5.1959 16.3064 17.6743 0.0000 46.3806 0.0000
# 6 0.0000 0.0000 0.0000 1.5843 0.0000 29.4684
#
#
#
# Elastic Compliance Matrix: (Units=1/GPa)
#
#
# Indices 1 2 3 4 5 6 
#
# 1 0.016523 -0.008135 -0.003466 0.000000 0.006032 0.000000
# 2 -0.008135 0.016159 -0.000801 0.000000 -0.006287 0.000000
# 3 -0.003466 -0.000801 0.009607 0.000000 -0.003767 0.000000
# 4 0.000000 0.000000 0.000000 0.035281 0.000000 -0.001897
# 5 0.006032 -0.006287 -0.003767 0.000000 0.025883 0.000000
# 6 0.000000 0.000000 0.000000 -0.001897 0.000000 0.034037
#
#
# Mechanical properties :
#
#
# Convention : Reuss Voigt Hill
#
# Bulk Modulus (GPa) = 57.19678 59.67794 58.43736
# Shear Modulus (GPa) = 29.74040 34.15929 31.94984
#
# Velocity S-wave (km/s) = 3.72740 3.99473 3.86338
# Velocity P-wave (km/s) = 6.72643 7.01116 6.87027
#
# Compressibility (1/GPa) = 0.01748350
#
# Stress axis : x y z
#
# Youngs Moduli (GPa) = 60.52209 61.88517 104.09340
#
# Poissons Ratio (x) = 0.50342 0.36083
# Poissons Ratio (y) = 0.49233 0.08342
# Poissons Ratio (z) = 0.20979 0.04959
#
# Static dielectric constant tensor:
#      x y z
#    x 1.868740 0.000000 0.059890 
#    y 0.000000 2.061680 0.000000 
#    z 0.059890 0.000000 1.799070 
# 
# From -- ./inp_files/7136.got.cif
#   From: 2010.05.17/outbox.cif.g08.bks.cpg/sg4_4_cif.got.tgz:7136.got - 2010.06.03 18:43:04.
