data_PCOD9116497
_publ_section_title
;
Structure prediction by ZEFSAII (Michael W. Deem and Ramdas Pophale) SiO2 
 PCOD9116497
Probable space group: P 21
;
_chemical_formula_sum "Si O2"
_cell_formula_units_Z 16
_cell_length_a 11.086063
_cell_length_b 11.577986
_cell_length_c 5.710012
_cell_angle_alpha 90.000000
_cell_angle_beta 113.914376
_cell_angle_gamma 90.000000
_cell_volume 669.986307
_symmetry_space_group_name_H-M "P 21"
_symmetry_group_IT_number 4
_symmetry_cell_setting 'monoclinic'
loop_
_space_group_symop_operation_xyz
x,y,z
-x,1/2+y,-z
loop_
_atom_site_type_symbol
_atom_site_label
_atom_site_fract_x
_atom_site_fract_y
_atom_site_fract_z
Si Si1 0.013315 0.079260 0.903993
Si Si2 0.535043 0.324773 0.857730
Si Si3 0.689912 0.555405 0.951510
Si Si4 0.256214 0.285588 0.767991
Si Si5 0.438287 0.625945 0.471472
Si Si6 0.995575 0.214842 0.384516
Si Si7 0.271518 0.673393 0.746317
Si Si8 0.244660 0.474157 0.105443
O O1 0.163122 0.031451 0.027491
O O2 0.008437 0.163021 0.131994
O O3 0.889882 0.995358 0.855784
O O4 0.000151 0.134388 0.629656
O O5 0.617045 0.438863 0.964398
O O6 0.380449 0.346746 0.749529
O O7 0.563588 0.250767 0.650252
O O8 0.588282 0.231357 0.085491
O O9 0.583651 0.607311 0.685300
O O10 0.707626 0.651066 0.168791
O O11 0.119968 0.296081 0.525504
O O12 0.241590 0.344424 0.008717
O O13 0.303377 0.631288 0.515921
O O14 0.393940 0.510272 0.297813
O O15 0.847023 0.261742 0.297998
O O16 0.234347 0.564791 0.878209
#
# Coordination Sequence:
#
# PCOD9116497 Si02
#       8
#     2   2   2   2   2   2   2   2
#     4  10  22  47  69 103 142 187 229 301 348 427
#     4  11  25  43  68  98 138 188 235 293 366 420
#     4  11  25  44  67 106 139 182 243 294 362 426
#     4  11  24  45  68 104 139 188 232 306 351 431
#     4  11  22  42  70 100 136 182 238 292 355 435
#     4  10  22  45  72 102 146 180 241 287 359 418
#     4  10  21  45  68 101 137 182 232 293 354 435
#     4  10  23  43  72  98 137 185 236 288 363 424
#
# _framework density 23.881084999999999
#
# number of rings (size 3 to 8) (size 9 to 14) (size 15 to 20)
#    0.000    1.500    2.500    1.500    3.500    1.000 
#   22.500    0.000    0.000    0.000    0.000    0.000 
#    0.000    0.000    0.000    0.000    0.000    0.000 
#
# Total GULP energy -89138.876195 kJ/mol
# GULP energy per Si atom -5571.179762 kJ/mol
# Density = 2.382673 g / cm^3
# Si number density = 23.881085 Si / 1000 Ang^3
#
#
#
# Elastic Constant Matrix: (Units=GPa)
#
#
# Indices 1 2 3 4 5 6 
#
# 1 112.1851 22.2200 20.1019 0.0000 17.5190 0.0000
# 2 22.2200 70.1319 1.9936 0.0000 -6.8503 0.0000
# 3 20.1019 1.9936 51.5153 0.0000 0.7381 0.0000
# 4 0.0000 0.0000 0.0000 21.3358 0.0000 3.8095
# 5 17.5190 -6.8503 0.7381 0.0000 29.6833 0.0000
# 6 0.0000 0.0000 0.0000 3.8095 0.0000 7.0014
#
#
#
# Elastic Compliance Matrix: (Units=1/GPa)
#
#
# Indices 1 2 3 4 5 6 
#
# 1 0.011781 -0.004377 -0.004315 0.000000 -0.007856 0.000000
# 2 -0.004377 0.016233 0.000989 0.000000 0.006305 0.000000
# 3 -0.004315 0.000989 0.021025 0.000000 0.002252 0.000000
# 4 0.000000 0.000000 0.000000 0.051913 0.000000 -0.028246
# 5 -0.007856 0.006305 0.002252 0.000000 0.039725 0.000000
# 6 0.000000 0.000000 0.000000 -0.028246 0.000000 0.158196
#
#
# Mechanical properties :
#
#
# Convention : Reuss Voigt Hill
#
# Bulk Modulus (GPa) = 29.73221 35.82928 32.78075
# Shear Modulus (GPa) = 15.36149 24.23856 19.80003
#
# Velocity S-wave (km/s) = 2.53899 3.18931 2.88255
# Velocity P-wave (km/s) = 4.59047 5.34772 4.98350
#
# Compressibility (1/GPa) = 0.03363355
#
# Stress axis : x y z
#
# Youngs Moduli (GPa) = 84.88394 61.60130 47.56259
#
# Poissons Ratio (x) = 0.26964 0.20524
# Poissons Ratio (y) = 0.37155 -0.04706
# Poissons Ratio (z) = 0.36628 -0.06095
#
# Static dielectric constant tensor:
#      x y z
#    x 1.935780 0.000000 -0.057530 
#    y 0.000000 1.934720 0.000000 
#    z -0.057530 0.000000 2.168480 
# 
# From -- ./inp_files/2716.got.cif
#   From: 2010.05.17/outbox.cif.g08.bks.cpg/sg4_2_cif.got.tgz:2716.got - 2010.06.03 18:43:04.
