data_PCOD9116842
_publ_section_title
;
Structure prediction by ZEFSAII (Michael W. Deem and Ramdas Pophale) SiO2 
 PCOD9116842
Probable space group: P 21
;
_chemical_formula_sum "Si O2"
_cell_formula_units_Z 16
_cell_length_a 8.073751
_cell_length_b 11.686012
_cell_length_c 12.074685
_cell_angle_alpha 90.000000
_cell_angle_beta 145.582804
_cell_angle_gamma 90.000000
_cell_volume 643.918457
_symmetry_space_group_name_H-M "P 21"
_symmetry_group_IT_number 4
_symmetry_cell_setting 'monoclinic'
loop_
_space_group_symop_operation_xyz
x,y,z
-x,1/2+y,-z
loop_
_atom_site_type_symbol
_atom_site_label
_atom_site_fract_x
_atom_site_fract_y
_atom_site_fract_z
Si Si1 0.842464 0.253460 0.080910
Si Si2 0.434848 0.018270 0.531768
Si Si3 0.999481 0.016416 0.491540
Si Si4 0.411569 0.994636 0.023280
Si Si5 0.755907 0.851043 0.537870
Si Si6 0.183691 0.190115 0.766488
Si Si7 0.102656 0.406455 0.846968
Si Si8 0.806140 0.226871 0.826651
O O1 0.779610 0.390640 0.035112
O O2 0.525510 0.208219 0.935795
O O3 0.925624 0.193340 0.012392
O O4 0.063730 0.249512 0.305182
O O5 0.283277 0.000271 0.569279
O O6 0.621098 0.922999 0.566811
O O7 0.135244 0.006776 0.292304
O O8 0.653702 0.125726 0.670405
O O9 0.693730 0.020973 0.254881
O O10 0.952726 0.922846 0.562224
O O11 0.038625 0.133359 0.581026
O O12 0.574024 0.951785 0.999375
O O13 0.206285 0.101295 0.881325
O O14 0.485567 0.803953 0.319065
O O15 0.045323 0.312595 0.716904
O O16 0.041822 0.319119 0.912067
#
# Coordination Sequence:
#
# PCOD9116842 Si02
#       8
#     2   2   2   2   2   2   2   2
#     4  11  23  39  64  98 128 167 226 267 331 398
#     4  10  23  42  68  94 130 180 221 268 342 390
#     4  11  21  41  71  89 130 179 214 267 338 391
#     4  10  22  41  64  99 125 172 223 269 335 398
#     4  11  24  42  65  95 133 170 218 279 325 399
#     4  11  22  41  65  96 131 170 220 277 327 397
#     4   9  23  42  63  97 136 166 232 280 320 411
#     4  11  22  44  64  92 135 176 218 279 336 392
#
# _framework density 24.847864000000001
#
# number of rings (size 3 to 8) (size 9 to 14) (size 15 to 20)
#    0.000    1.500    3.750    0.750    3.500    1.000 
#    0.000    2.500    0.000    0.000    0.000    0.000 
#    0.000    0.000    0.000    0.000    0.000    0.000 
#
# Total GULP energy -89256.785512 kJ/mol
# GULP energy per Si atom -5578.549094 kJ/mol
# Density = 2.479131 g / cm^3
# Si number density = 24.847864 Si / 1000 Ang^3
#
#
#
# Elastic Constant Matrix: (Units=GPa)
#
#
# Indices 1 2 3 4 5 6 
#
# 1 91.4438 21.3872 40.2304 0.0000 7.2992 0.0000
# 2 21.3872 113.5420 18.3229 0.0000 -2.0605 0.0000
# 3 40.2304 18.3229 105.3972 0.0000 1.4279 0.0000
# 4 0.0000 0.0000 0.0000 34.1327 0.0000 2.4079
# 5 7.2992 -2.0605 1.4279 0.0000 30.3712 0.0000
# 6 0.0000 0.0000 0.0000 2.4079 0.0000 23.1332
#
#
#
# Elastic Compliance Matrix: (Units=1/GPa)
#
#
# Indices 1 2 3 4 5 6 
#
# 1 0.013780 -0.001864 -0.004892 0.000000 -0.003208 0.000000
# 2 -0.001864 0.009328 -0.000925 0.000000 0.001124 0.000000
# 3 -0.004892 -0.000925 0.011508 0.000000 0.000572 0.000000
# 4 0.000000 0.000000 0.000000 0.029514 0.000000 -0.003072
# 5 -0.003208 0.001124 0.000572 0.000000 0.033746 0.000000
# 6 0.000000 0.000000 0.000000 -0.003072 0.000000 0.043548
#
#
# Mechanical properties :
#
#
# Convention : Reuss Voigt Hill
#
# Bulk Modulus (GPa) = 51.94045 52.25158 52.09601
# Shear Modulus (GPa) = 30.63599 32.89026 31.76312
#
# Velocity S-wave (km/s) = 3.51514 3.64217 3.57922
# Velocity P-wave (km/s) = 6.11749 6.22587 6.17192
#
# Compressibility (1/GPa) = 0.01925282
#
# Stress axis : x y z
#
# Youngs Moduli (GPa) = 72.56782 107.20159 86.89265
#
# Poissons Ratio (x) = 0.19987 0.42511
# Poissons Ratio (y) = 0.13530 0.08040
# Poissons Ratio (z) = 0.35503 0.09919
#
# Static dielectric constant tensor:
#      x y z
#    x 2.043410 0.000000 -0.067550 
#    y 0.000000 2.016720 0.000000 
#    z -0.067550 0.000000 1.956010 
# 
# From -- ./inp_files/5935.got.cif
#   From: 2010.05.17/outbox.cif.g08.bks.cpg/sg4_3_cif.got.tgz:5935.got - 2010.06.03 18:43:04.
