data_PCOD9116787
_publ_section_title
;
Structure prediction by ZEFSAII (Michael W. Deem and Ramdas Pophale) SiO2 
 PCOD9116787
Probable space group: P 21
;
_chemical_formula_sum "Si O2"
_cell_formula_units_Z 14
_cell_length_a 19.511375
_cell_length_b 4.899849
_cell_length_c 4.965801
_cell_angle_alpha 90.000000
_cell_angle_beta 95.502201
_cell_angle_gamma 90.000000
_cell_volume 472.557059
_symmetry_space_group_name_H-M "P 21"
_symmetry_group_IT_number 4
_symmetry_cell_setting 'monoclinic'
loop_
_space_group_symop_operation_xyz
x,y,z
-x,1/2+y,-z
loop_
_atom_site_type_symbol
_atom_site_label
_atom_site_fract_x
_atom_site_fract_y
_atom_site_fract_z
Si Si1 0.702093 0.640190 0.615693
Si Si2 0.869529 0.882548 0.067974
Si Si3 0.274739 0.540773 0.881016
Si Si4 0.495971 0.347255 0.702638
Si Si5 0.845003 0.520494 0.571304
Si Si6 0.388698 0.969941 0.827317
Si Si7 0.012286 0.791167 0.334242
O O1 0.767501 0.438426 0.610503
O O2 0.634719 0.472515 0.500203
O O3 0.713839 0.863363 0.383433
O O4 0.853962 0.783110 0.765546
O O5 0.855545 0.635130 0.275881
O O6 0.951549 0.921759 0.131144
O O7 0.702173 0.825304 0.879212
O O8 0.191904 0.587266 0.873716
O O9 0.320580 0.812442 0.911900
O O10 0.489986 0.614520 0.516673
O O11 0.423752 0.272619 0.822018
O O12 0.551452 0.343593 0.963326
O O13 0.907505 0.332380 0.695156
O O14 0.996974 0.482033 0.404489
#
# Coordination Sequence:
#
# PCOD9116787 Si02
#       7
#     2   2   2   2   2   2   2
#     4  10  24  45  74 109 152 200 263 319 389 463
#     4   9  20  41  65 102 145 195 251 315 372 448
#     4  10  24  45  74 109 152 200 263 319 389 463
#     4  12  30  52  80 116 162 206 268 328 408 486
#     4   9  20  41  65 102 145 195 251 315 372 448
#     4  12  28  46  80 110 154 208 254 328 394 486
#     4  10  22  40  70 100 150 200 254 312 380 444
#
# _framework density 29.626052000000001
#
# number of rings (size 3 to 8) (size 9 to 14) (size 15 to 20)
#    0.000    1.714    0.000    1.714   12.000    4.571 
#    0.000    0.000    0.000    0.000    0.000    0.000 
#    0.000    0.000    0.000    0.000    0.000    0.000 
#
# Total GULP energy -78321.501034 kJ/mol
# GULP energy per Si atom -5594.392931 kJ/mol
# Density = 2.955862 g / cm^3
# Si number density = 29.626052 Si / 1000 Ang^3
#
#
#
# Elastic Constant Matrix: (Units=GPa)
#
#
# Indices 1 2 3 4 5 6 
#
# 1 189.2891 41.1591 60.4018 0.0000 39.5947 0.0000
# 2 41.1591 143.4118 63.8759 0.0000 -4.4869 0.0000
# 3 60.4018 63.8759 170.5677 0.0000 13.8499 0.0000
# 4 0.0000 0.0000 0.0000 41.9431 0.0000 4.1527
# 5 39.5947 -4.4869 13.8499 0.0000 70.5020 0.0000
# 6 0.0000 0.0000 0.0000 4.1527 0.0000 48.0882
#
#
#
# Elastic Compliance Matrix: (Units=1/GPa)
#
#
# Indices 1 2 3 4 5 6 
#
# 1 0.006853 -0.001356 -0.001625 0.000000 -0.003616 0.000000
# 2 -0.001356 0.008733 -0.002944 0.000000 0.001896 0.000000
# 3 -0.001625 -0.002944 0.007603 0.000000 -0.000768 0.000000
# 4 0.000000 0.000000 0.000000 0.024047 0.000000 -0.002077
# 5 -0.003616 0.001896 -0.000768 0.000000 0.016486 0.000000
# 6 0.000000 0.000000 0.000000 -0.002077 0.000000 0.020974
#
#
# Mechanical properties :
#
#
# Convention : Reuss Voigt Hill
#
# Bulk Modulus (GPa) = 88.19914 92.68247 90.44081
# Shear Modulus (GPa) = 49.83730 54.62878 52.23304
#
# Velocity S-wave (km/s) = 4.10593 4.29878 4.20346
# Velocity P-wave (km/s) = 7.23282 7.48273 7.35884
#
# Compressibility (1/GPa) = 0.01133798
#
# Stress axis : x y z
#
# Youngs Moduli (GPa) = 145.92839 114.51255 131.52288
#
# Poissons Ratio (x) = 0.15527 0.21377
# Poissons Ratio (y) = 0.19786 0.38721
# Poissons Ratio (z) = 0.23718 0.33713
#
# Static dielectric constant tensor:
#      x y z
#    x 2.490810 0.000000 -0.047850 
#    y 0.000000 2.266680 0.000000 
#    z -0.047850 0.000000 2.271420 
# 
# From -- ./inp_files/4227.got.cif
#   From: 2010.05.17/outbox.cif.g08.bks.cpg/sg4_3_cif.got.tgz:4227.got - 2010.06.03 18:43:04.
