data_PCOD9116817
_publ_section_title
;
Structure prediction by ZEFSAII (Michael W. Deem and Ramdas Pophale) SiO2 
 PCOD9116817
Probable space group: P 21
;
_chemical_formula_sum "Si O2"
_cell_formula_units_Z 14
_cell_length_a 7.571575
_cell_length_b 16.746968
_cell_length_c 5.133609
_cell_angle_alpha 90.000000
_cell_angle_beta 116.672774
_cell_angle_gamma 90.000000
_cell_volume 581.675776
_symmetry_space_group_name_H-M "P 21"
_symmetry_group_IT_number 4
_symmetry_cell_setting 'monoclinic'
loop_
_space_group_symop_operation_xyz
x,y,z
-x,1/2+y,-z
loop_
_atom_site_type_symbol
_atom_site_label
_atom_site_fract_x
_atom_site_fract_y
_atom_site_fract_z
Si Si1 0.236283 0.417020 0.203062
Si Si2 0.772909 0.672975 0.742821
Si Si3 0.736505 0.567310 0.196467
Si Si4 0.025930 0.449374 0.565383
Si Si5 0.418707 0.793278 0.602537
Si Si6 0.817799 0.252148 0.047325
Si Si7 0.700503 0.071172 0.025375
O O1 0.144893 0.403388 0.423532
O O2 0.428305 0.365772 0.269341
O O3 0.294638 0.510303 0.213533
O O4 0.068453 0.407901 0.868293
O O5 0.746988 0.625146 0.455879
O O6 0.569842 0.717591 0.686585
O O7 0.832888 0.610769 0.011061
O O8 0.947704 0.738131 0.827184
O O9 0.817918 0.479828 0.323506
O O10 0.507602 0.559524 0.975727
O O11 0.129483 0.536184 0.678216
O O12 0.293676 0.797982 0.255792
O O13 0.262202 0.785226 0.732089
O O14 0.737542 0.161329 0.979946
#
# Coordination Sequence:
#
# PCOD9116817 Si02
#       7
#     2   2   2   2   2   2   2
#     4  10  24  44  64  89 139 171 213 271 328 394
#     4  12  24  40  66  99 128 166 221 267 332 387
#     4  12  22  38  68  98 122 164 220 273 325 379
#     4  10  22  41  62  90 128 163 216 271 317 384
#     4  12  25  46  63  98 136 178 212 270 341 388
#     4  12  24  42  71  94 132 172 219 278 318 388
#     4  10  23  39  68  90 129 166 221 270 319 374
#
# _framework density 24.068390000000001
#
# number of rings (size 3 to 8) (size 9 to 14) (size 15 to 20)
#    0.857    0.000    4.286    3.429    4.000    0.000 
#    5.143    0.000    0.000    0.000    0.000    0.000 
#    0.000    0.000    0.000    0.000    0.000    0.000 
#
# Total GULP energy -78306.212052 kJ/mol
# GULP energy per Si atom -5593.300861 kJ/mol
# Density = 2.401361 g / cm^3
# Si number density = 24.068390 Si / 1000 Ang^3
#
#
#
# Elastic Constant Matrix: (Units=GPa)
#
#
# Indices 1 2 3 4 5 6 
#
# 1 100.7380 -2.4321 25.0446 0.0000 7.5926 0.0000
# 2 -2.4321 63.5022 -1.2076 0.0000 -1.3501 0.0000
# 3 25.0446 -1.2076 66.7215 0.0000 -34.8071 0.0000
# 4 0.0000 0.0000 0.0000 24.2128 0.0000 7.0358
# 5 7.5926 -1.3501 -34.8071 0.0000 30.9172 0.0000
# 6 0.0000 0.0000 0.0000 7.0358 0.0000 39.3259
#
#
#
# Elastic Compliance Matrix: (Units=1/GPa)
#
#
# Indices 1 2 3 4 5 6 
#
# 1 0.017281 -0.000336 -0.021116 0.000000 -0.028031 0.000000
# 2 -0.000336 0.015836 0.001978 0.000000 0.003001 0.000000
# 3 -0.021116 0.001978 0.062274 0.000000 0.075382 0.000000
# 4 0.000000 0.000000 0.000000 0.043565 0.000000 -0.007794
# 5 -0.028031 0.003001 0.075382 0.000000 0.124225 0.000000
# 6 0.000000 0.000000 0.000000 -0.007794 0.000000 0.026823
#
#
# Mechanical properties :
#
#
# Convention : Reuss Voigt Hill
#
# Bulk Modulus (GPa) = 17.71641 30.41908 24.06774
# Shear Modulus (GPa) = 14.37747 32.86165 23.61956
#
# Velocity S-wave (km/s) = 2.44674 3.69907 3.13605
# Velocity P-wave (km/s) = 3.91905 5.55969 4.80984
#
# Compressibility (1/GPa) = 0.05644484
#
# Stress axis : x y z
#
# Youngs Moduli (GPa) = 57.86713 63.14707 16.05796
#
# Poissons Ratio (x) = 0.02120 0.33908
# Poissons Ratio (y) = 0.01942 -0.03177
# Poissons Ratio (z) = 1.22191 -0.12492
#
# Static dielectric constant tensor:
#      x y z
#    x 1.920110 0.000000 0.022420 
#    y 0.000000 1.947360 0.000000 
#    z 0.022420 0.000000 1.867920 
# 
# From -- ./inp_files/2118.got.cif
#   From: 2010.05.17/outbox.cif.g08.bks.cpg/sg4_2_cif.got.tgz:2118.got - 2010.06.03 18:43:04.
