data_PCOD9116841
_publ_section_title
;
Structure prediction by ZEFSAII (Michael W. Deem and Ramdas Pophale) SiO2 
 PCOD9116841
Probable space group: P 21
;
_chemical_formula_sum "Si O2"
_cell_formula_units_Z 14
_cell_length_a 5.281196
_cell_length_b 6.528085
_cell_length_c 16.204255
_cell_angle_alpha 90.000000
_cell_angle_beta 84.789762
_cell_angle_gamma 90.000000
_cell_volume 556.351181
_symmetry_space_group_name_H-M "P 21"
_symmetry_group_IT_number 4
_symmetry_cell_setting 'monoclinic'
loop_
_space_group_symop_operation_xyz
x,y,z
-x,1/2+y,-z
loop_
_atom_site_type_symbol
_atom_site_label
_atom_site_fract_x
_atom_site_fract_y
_atom_site_fract_z
Si Si1 0.801971 0.818170 0.467764
Si Si2 0.606168 0.561038 0.314519
Si Si3 0.095459 0.335451 0.808056
Si Si4 0.774732 0.003298 0.913574
Si Si5 0.799564 0.330014 0.659544
Si Si6 0.283892 0.718207 0.910453
Si Si7 0.540424 0.158297 0.383215
O O1 0.704585 0.665177 0.397571
O O2 0.691508 0.757771 0.558144
O O3 0.097076 0.832091 0.436648
O O4 0.702625 0.041091 0.446016
O O5 0.713271 0.659856 0.229061
O O6 0.305233 0.605118 0.319751
O O7 0.672979 0.327983 0.325371
O O8 0.988865 0.407323 0.722635
O O9 0.218185 0.524781 0.852513
O O10 0.872781 0.204460 0.859727
O O11 0.541029 0.856330 0.888935
O O12 0.029483 0.862342 0.918307
O O13 0.685447 0.104556 0.002251
O O14 0.567309 0.483041 0.671299
#
# Coordination Sequence:
#
# PCOD9116841 Si02
#       7
#     2   2   2   2   2   2   2
#     4  10  22  41  64  98 136 184 252 317 384 466
#     4  10  24  45  67 100 145 191 250 317 394 464
#     4  11  28  52  73 113 162 203 263 327 401 493
#     4  12  28  50  88 122 162 214 267 334 404 483
#     4  10  26  42  67 103 143 190 254 320 394 478
#     4  12  28  51  86 123 161 212 270 330 406 487
#     4  11  22  41  71  97 139 194 252 325 393 471
#
# _framework density 25.163962000000001
#
# number of rings (size 3 to 8) (size 9 to 14) (size 15 to 20)
#    0.000    1.143    2.857    0.857    6.000    6.857 
#    0.000    0.000    0.000    0.000    0.000    0.000 
#    0.000    0.000    0.000    0.000    0.000    0.000 
#
# Total GULP energy -78202.760738 kJ/mol
# GULP energy per Si atom -5585.911481 kJ/mol
# Density = 2.510669 g / cm^3
# Si number density = 25.163962 Si / 1000 Ang^3
#
#
#
# Elastic Constant Matrix: (Units=GPa)
#
#
# Indices 1 2 3 4 5 6 
#
# 1 109.6642 53.1234 17.9982 0.0000 -3.3297 0.0000
# 2 53.1234 129.0356 33.4555 0.0000 5.4721 0.0000
# 3 17.9982 33.4555 85.1856 0.0000 -7.0149 0.0000
# 4 0.0000 0.0000 0.0000 45.5612 0.0000 -1.7583
# 5 -3.3297 5.4721 -7.0149 0.0000 35.5752 0.0000
# 6 0.0000 0.0000 0.0000 -1.7583 0.0000 45.7791
#
#
#
# Elastic Compliance Matrix: (Units=1/GPa)
#
#
# Indices 1 2 3 4 5 6 
#
# 1 0.011521 -0.004700 -0.000447 0.000000 0.001713 0.000000
# 2 -0.004700 0.010692 -0.003434 0.000000 -0.002762 0.000000
# 3 -0.000447 -0.003434 0.013440 0.000000 0.003137 0.000000
# 4 0.000000 0.000000 0.000000 0.021981 0.000000 0.000844
# 5 0.001713 -0.002762 0.003137 0.000000 0.029313 0.000000
# 6 0.000000 0.000000 0.000000 0.000844 0.000000 0.021876
#
#
# Mechanical properties :
#
#
# Convention : Reuss Voigt Hill
#
# Bulk Modulus (GPa) = 54.07771 59.22662 56.65216
# Shear Modulus (GPa) = 37.83610 40.00368 38.91989
#
# Velocity S-wave (km/s) = 3.88181 3.99146 3.93702
# Velocity P-wave (km/s) = 6.45198 6.69550 6.57487
#
# Compressibility (1/GPa) = 0.01849191
#
# Stress axis : x y z
#
# Youngs Moduli (GPa) = 86.79949 93.52790 74.40276
#
# Poissons Ratio (x) = 0.43956 0.03328
# Poissons Ratio (y) = 0.40793 0.25547
# Poissons Ratio (z) = 0.03883 0.32113
#
# Static dielectric constant tensor:
#      x y z
#    x 2.152680 0.000000 -0.030310 
#    y 0.000000 2.014820 0.000000 
#    z -0.030310 0.000000 1.965920 
# 
# From -- ./inp_files/14647.got.cif
#   From: 2010.05.17/outbox.cif.g08.bks.cpg/sg4_8_cif.got.tgz:14647.got - 2010.06.03 18:43:04.
