data_PCOD9116578
_publ_section_title
;
Structure prediction by ZEFSAII (Michael W. Deem and Ramdas Pophale) SiO2 
 PCOD9116578
Probable space group: P 21
;
_chemical_formula_sum "Si O2"
_cell_formula_units_Z 10
_cell_length_a 7.265792
_cell_length_b 5.298768
_cell_length_c 12.303830
_cell_angle_alpha 90.000000
_cell_angle_beta 59.832829
_cell_angle_gamma 90.000000
_cell_volume 409.538534
_symmetry_space_group_name_H-M "P 21"
_symmetry_group_IT_number 4
_symmetry_cell_setting 'monoclinic'
loop_
_space_group_symop_operation_xyz
x,y,z
-x,1/2+y,-z
loop_
_atom_site_type_symbol
_atom_site_label
_atom_site_fract_x
_atom_site_fract_y
_atom_site_fract_z
Si Si1 0.045188 0.643740 0.810392
Si Si2 0.246476 0.028659 0.906301
Si Si3 0.670161 0.818869 0.775998
Si Si4 0.866615 0.167368 0.560842
Si Si5 0.540018 0.916517 0.309765
O O1 0.847055 0.679692 0.791557
O O2 0.241307 0.495979 0.698186
O O3 0.940014 0.534132 0.951365
O O4 0.153120 0.898125 0.825480
O O5 0.360913 0.279302 0.827070
O O6 0.445510 0.876786 0.898686
O O7 0.591328 0.657030 0.695555
O O8 0.787383 0.073972 0.702489
O O9 0.636373 0.246322 0.578493
O O10 0.011885 0.417296 0.516827
#
# Coordination Sequence:
#
# PCOD9116578 Si02
#       5
#     2   2   2   2   2
#     4  11  22  40  63 100 145 182 228 271 340 412
#     4  10  22  37  59  96 144 186 214 276 336 403
#     4  10  24  39  69 100 133 182 236 277 335 421
#     4  11  22  46  78  95 133 184 231 295 359 390
#     4  10  22  42  67  97 133 180 227 283 334 408
#
# _framework density 24.417726999999999
#
# number of rings (size 3 to 8) (size 9 to 14) (size 15 to 20)
#    0.000    1.600    4.000    0.000    2.800    3.200 
#    0.000    0.000   17.600    0.000    0.000    0.000 
#    0.000    0.000    0.000    0.000    0.000    0.000 
#
# Total GULP energy -55742.745781 kJ/mol
# GULP energy per Si atom -5574.274578 kJ/mol
# Density = 2.436215 g / cm^3
# Si number density = 24.417727 Si / 1000 Ang^3
#
#
#
# Elastic Constant Matrix: (Units=GPa)
#
#
# Indices 1 2 3 4 5 6 
#
# 1 110.4048 34.7689 21.4127 0.0000 -34.3383 0.0000
# 2 34.7689 101.5081 45.6648 0.0000 -35.1693 0.0000
# 3 21.4127 45.6648 90.4904 0.0000 -44.1563 0.0000
# 4 0.0000 0.0000 0.0000 42.8044 0.0000 -20.2301
# 5 -34.3383 -35.1693 -44.1563 0.0000 41.1407 0.0000
# 6 0.0000 0.0000 0.0000 -20.2301 0.0000 25.7862
#
#
#
# Elastic Compliance Matrix: (Units=1/GPa)
#
#
# Indices 1 2 3 4 5 6 
#
# 1 0.013291 -0.001567 0.005050 0.000000 0.015175 0.000000
# 2 -0.001567 0.014473 -0.003220 0.000000 0.007608 0.000000
# 3 0.005050 -0.003220 0.025605 0.000000 0.028944 0.000000
# 4 0.000000 0.000000 0.000000 0.037129 0.000000 0.029129
# 5 0.015175 0.007608 0.028944 0.000000 0.074541 0.000000
# 6 0.000000 0.000000 0.000000 0.029129 0.000000 0.061633
#
#
# Mechanical properties :
#
#
# Convention : Reuss Voigt Hill
#
# Bulk Modulus (GPa) = 18.55477 56.23290 37.39383
# Shear Modulus (GPa) = 20.48254 35.31672 27.89963
#
# Velocity S-wave (km/s) = 2.89941 3.80722 3.38390
# Velocity P-wave (km/s) = 4.33868 6.51200 5.53310
#
# Compressibility (1/GPa) = 0.05389450
#
# Stress axis : x y z
#
# Youngs Moduli (GPa) = 75.23791 69.09538 39.05558
#
# Poissons Ratio (x) = 0.10827 -0.19724
# Poissons Ratio (y) = 0.11790 0.12577
# Poissons Ratio (z) = -0.37998 0.22251
#
# Static dielectric constant tensor:
#      x y z
#    x 1.940920 0.000000 0.013200 
#    y 0.000000 2.104400 0.000000 
#    z 0.013200 0.000000 1.965830 
# 
# From -- ./inp_files/2287.got.cif
#   From: 2010.05.17/outbox.cif.g08.bks.cpg/sg4_2_cif.got.tgz:2287.got - 2010.06.03 18:43:04.
