data_PCOD9116873
_publ_section_title
;
Structure prediction by ZEFSAII (Michael W. Deem and Ramdas Pophale) SiO2 
 PCOD9116873
Probable space group: P 21
;
_chemical_formula_sum "Si O2"
_cell_formula_units_Z 16
_cell_length_a 5.218818
_cell_length_b 10.608175
_cell_length_c 11.902232
_cell_angle_alpha 90.000000
_cell_angle_beta 88.379870
_cell_angle_gamma 90.000000
_cell_volume 658.669558
_symmetry_space_group_name_H-M "P 21"
_symmetry_group_IT_number 4
_symmetry_cell_setting 'monoclinic'
loop_
_space_group_symop_operation_xyz
x,y,z
-x,1/2+y,-z
loop_
_atom_site_type_symbol
_atom_site_label
_atom_site_fract_x
_atom_site_fract_y
_atom_site_fract_z
Si Si1 0.406575 0.576960 0.968147
Si Si2 0.514551 0.288368 0.431318
Si Si3 0.083285 0.060837 0.159845
Si Si4 0.113177 0.637776 0.182022
Si Si5 0.801166 0.518870 0.354238
Si Si6 0.521644 0.276336 0.677500
Si Si7 0.982344 0.621837 0.584274
Si Si8 0.783891 0.839182 0.109546
O O1 0.660683 0.612406 0.898761
O O2 0.373438 0.423288 0.975946
O O3 0.172223 0.621495 0.890556
O O4 0.346953 0.623786 0.093563
O O5 0.614187 0.400424 0.352745
O O6 0.526980 0.341769 0.558177
O O7 0.232339 0.233121 0.417009
O O8 0.731494 0.179134 0.423231
O O9 0.070307 0.060574 0.293979
O O10 0.046287 0.918450 0.116016
O O11 0.204363 0.731752 0.279721
O O12 0.006211 0.518534 0.250513
O O13 0.884102 0.697733 0.111698
O O14 0.635882 0.646327 0.339228
O O15 0.935688 0.536142 0.474437
O O16 0.377877 0.355343 0.773813
#
# Coordination Sequence:
#
# PCOD9116873 Si02
#       8
#     2   2   2   2   2   2   2   2
#     4  10  24  42  68  96 129 175 227 273 331 389
#     4  11  25  41  64 104 133 180 218 272 350 393
#     4  10  23  45  66 100 126 180 219 278 331 391
#     4  11  22  45  66  98 140 169 233 271 339 401
#     4  10  25  40  67  97 135 181 214 284 334 402
#     4  10  22  41  67 101 134 176 227 273 330 414
#     4  11  24  44  66  97 140 170 228 274 335 403
#     4   9  23  40  68  99 121 181 224 275 324 389
#
# _framework density 24.291391999999998
#
# number of rings (size 3 to 8) (size 9 to 14) (size 15 to 20)
#    0.750    1.000    1.250    1.500    8.750    1.000 
#    4.500    0.000    0.000    0.000    0.000    0.000 
#    0.000    0.000    0.000    0.000    0.000    0.000 
#
# Total GULP energy -89323.121797 kJ/mol
# GULP energy per Si atom -5582.695112 kJ/mol
# Density = 2.423610 g / cm^3
# Si number density = 24.291392 Si / 1000 Ang^3
#
#
#
# Elastic Constant Matrix: (Units=GPa)
#
#
# Indices 1 2 3 4 5 6 
#
# 1 111.0879 -1.6289 17.4758 0.0000 -13.7755 0.0000
# 2 -1.6289 19.2831 -3.1403 0.0000 3.3644 0.0000
# 3 17.4758 -3.1403 76.1013 0.0000 -2.8259 0.0000
# 4 0.0000 0.0000 0.0000 22.3330 0.0000 -9.3281
# 5 -13.7755 3.3644 -2.8259 0.0000 37.1875 0.0000
# 6 0.0000 0.0000 0.0000 -9.3281 0.0000 24.9781
#
#
#
# Elastic Compliance Matrix: (Units=1/GPa)
#
#
# Indices 1 2 3 4 5 6 
#
# 1 0.009763 -0.000125 -0.002118 0.000000 0.003467 0.000000
# 2 -0.000125 0.052999 0.002042 0.000000 -0.004686 0.000000
# 3 -0.002118 0.002042 0.013714 0.000000 0.000073 0.000000
# 4 0.000000 0.000000 0.000000 0.053052 0.000000 0.019812
# 5 0.003467 -0.004686 0.000073 0.000000 0.028604 0.000000
# 6 0.000000 0.000000 0.000000 0.019812 0.000000 0.047434
#
#
# Mechanical properties :
#
#
# Convention : Reuss Voigt Hill
#
# Bulk Modulus (GPa) = 13.14548 25.76504 19.45526
# Shear Modulus (GPa) = 21.61442 29.81745 25.71594
#
# Velocity S-wave (km/s) = 2.98618 3.50736 3.25721
# Velocity P-wave (km/s) = 4.16090 5.19921 4.70876
#
# Compressibility (1/GPa) = 0.07607175
#
# Stress axis : x y z
#
# Youngs Moduli (GPa) = 102.42506 18.86846 72.91923
#
# Poissons Ratio (x) = 0.00236 0.15447
# Poissons Ratio (y) = 0.01282 -0.14888
# Poissons Ratio (z) = 0.21698 -0.03852
#
# Static dielectric constant tensor:
#      x y z
#    x 1.962790 0.000000 0.024240 
#    y 0.000000 2.007290 0.000000 
#    z 0.024240 0.000000 1.907000 
# 
# From -- ./inp_files/2898.got.cif
#   From: 2010.05.17/outbox.cif.g08.bks.cpg/sg4_2_cif.got.tgz:2898.got - 2010.06.03 18:43:04.
