data_PCOD9116038
_publ_section_title
;
Structure prediction by ZEFSAII (Michael W. Deem and Ramdas Pophale) SiO2 
 PCOD9116038
Probable space group: P 21
;
_chemical_formula_sum "Si O2"
_cell_formula_units_Z 12
_cell_length_a 8.230071
_cell_length_b 9.587285
_cell_length_c 10.215502
_cell_angle_alpha 90.000000
_cell_angle_beta 38.205025
_cell_angle_gamma 90.000000
_cell_volume 498.520139
_symmetry_space_group_name_H-M "P 21"
_symmetry_group_IT_number 4
_symmetry_cell_setting 'monoclinic'
loop_
_space_group_symop_operation_xyz
x,y,z
-x,1/2+y,-z
loop_
_atom_site_type_symbol
_atom_site_label
_atom_site_fract_x
_atom_site_fract_y
_atom_site_fract_z
Si Si1 0.831102 0.347460 0.490038
Si Si2 0.042601 0.843985 0.038217
Si Si3 0.909395 0.058261 0.357747
Si Si4 0.375923 0.365562 0.273588
Si Si5 0.539713 0.472503 0.891360
Si Si6 0.003097 0.053774 0.827672
O O1 0.586002 0.369589 0.740453
O O2 0.834385 0.219002 0.387685
O O3 0.075123 0.316581 0.436338
O O4 0.858793 0.490357 0.388942
O O5 0.904343 0.697942 0.165535
O O6 0.955932 0.956443 0.205200
O O7 0.356276 0.808776 0.832661
O O8 0.992124 0.928677 0.938412
O O9 0.189018 0.050641 0.254813
O O10 0.687760 0.997860 0.594157
O O11 0.468461 0.392795 0.067748
O O12 0.298005 0.574650 0.024849
#
# Coordination Sequence:
#
# PCOD9116038 Si02
#       6
#     2   2   2   2   2   2
#     4  10  21  39  65  93 119 153 199 249 300 353
#     4  11  24  41  61  87 122 161 200 245 297 355
#     4  10  21  39  65  93 119 153 199 249 300 353
#     4   9  21  38  61  90 122 155 194 242 296 353
#     4   9  21  38  61  90 122 155 194 242 296 353
#     4  11  24  41  61  87 122 161 200 245 297 355
#
# _framework density 24.071245999999999
#
# number of rings (size 3 to 8) (size 9 to 14) (size 15 to 20)
#    0.000    2.000    0.000    2.000    0.000   21.333 
#    0.000    0.000    0.000    0.000    0.000    0.000 
#    0.000    0.000    0.000    0.000    0.000    0.000 
#
# Total GULP energy -66864.885071 kJ/mol
# GULP energy per Si atom -5572.073756 kJ/mol
# Density = 2.401646 g / cm^3
# Si number density = 24.071246 Si / 1000 Ang^3
#
#
#
# Elastic Constant Matrix: (Units=GPa)
#
#
# Indices 1 2 3 4 5 6 
#
# 1 29.4191 -14.3979 5.3966 0.0000 13.0141 0.0000
# 2 -14.3979 51.4146 3.0030 0.0000 12.9660 0.0000
# 3 5.3966 3.0030 85.0280 0.0000 16.1021 0.0000
# 4 0.0000 0.0000 0.0000 14.0651 0.0000 13.5023
# 5 13.0141 12.9660 16.1021 0.0000 22.7990 0.0000
# 6 0.0000 0.0000 0.0000 13.5023 0.0000 16.3538
#
#
#
# Elastic Compliance Matrix: (Units=1/GPa)
#
#
# Indices 1 2 3 4 5 6 
#
# 1 0.094720 0.048128 0.008901 0.000000 -0.087726 0.000000
# 2 0.048128 0.047429 0.006443 0.000000 -0.058996 0.000000
# 3 0.008901 0.006443 0.014574 0.000000 -0.019038 0.000000
# 4 0.000000 0.000000 0.000000 0.342809 0.000000 -0.283036
# 5 -0.087726 -0.058996 -0.019038 0.000000 0.140934 0.000000
# 6 0.000000 0.000000 0.000000 -0.283036 0.000000 0.294832
#
#
# Mechanical properties :
#
#
# Convention : Reuss Voigt Hill
#
# Bulk Modulus (GPa) = 3.52527 17.09613 10.31070
# Shear Modulus (GPa) = 5.53765 22.10091 13.81928
#
# Velocity S-wave (km/s) = 1.51839 3.03338 2.39864
# Velocity P-wave (km/s) = 2.13113 4.40298 3.45890
#
# Compressibility (1/GPa) = 0.28366644
#
# Stress axis : x y z
#
# Youngs Moduli (GPa) = 10.55744 21.08424 68.61714
#
# Poissons Ratio (x) = -1.01474 -0.61079
# Poissons Ratio (y) = -0.50811 -0.44207
# Poissons Ratio (z) = -0.09398 -0.13584
#
# Static dielectric constant tensor:
#      x y z
#    x 2.038880 0.000000 -0.030230 
#    y 0.000000 1.963330 0.000000 
#    z -0.030230 0.000000 1.906690 
# 
# From -- ./inp_files/6331.got.cif
#   From: 2010.05.17/outbox.cif.g08.bks.cpg/sg4_4_cif.got.tgz:6331.got - 2010.06.03 18:43:04.
