data_PCOD9116758
_publ_section_title
;
Structure prediction by ZEFSAII (Michael W. Deem and Ramdas Pophale) SiO2 
 PCOD9116758
Probable space group: P 21
;
_chemical_formula_sum "Si O2"
_cell_formula_units_Z 16
_cell_length_a 8.564985
_cell_length_b 5.062017
_cell_length_c 22.197871
_cell_angle_alpha 90.000000
_cell_angle_beta 42.934722
_cell_angle_gamma 90.000000
_cell_volume 655.561811
_symmetry_space_group_name_H-M "P 21"
_symmetry_group_IT_number 4
_symmetry_cell_setting 'monoclinic'
loop_
_space_group_symop_operation_xyz
x,y,z
-x,1/2+y,-z
loop_
_atom_site_type_symbol
_atom_site_label
_atom_site_fract_x
_atom_site_fract_y
_atom_site_fract_z
Si Si1 0.001242 0.704600 0.424726
Si Si2 0.237418 0.534103 0.248339
Si Si3 0.807903 0.289998 0.989934
Si Si4 0.242977 0.558699 0.735069
Si Si5 0.306567 0.293259 0.906450
Si Si6 0.946041 0.050021 0.832183
Si Si7 0.500838 0.596766 0.542400
Si Si8 0.276119 0.206807 0.344931
O O1 0.738979 0.643031 0.510750
O O2 0.812483 0.989931 0.605669
O O3 0.031938 0.670979 0.343305
O O4 0.086109 0.993721 0.415356
O O5 0.470679 0.697108 0.191399
O O6 0.268241 0.260840 0.275296
O O7 0.184729 0.521796 0.193591
O O8 0.078494 0.272503 0.930387
O O9 0.788806 0.174718 0.928577
O O10 0.730022 0.583413 0.028620
O O11 0.682196 0.085710 0.070035
O O12 0.150725 0.262474 0.766442
O O13 0.300781 0.614332 0.648479
O O14 0.476273 0.614111 0.704916
O O15 0.056021 0.764285 0.813547
O O16 0.518453 0.319094 0.503291
#
# Coordination Sequence:
#
# PCOD9116758 Si02
#       8
#     2   2   2   2   2   2   2   2
#     4  10  23  41  65  96 132 173 224 273 329 399
#     4  10  25  40  69  95 135 177 213 282 335 405
#     4  10  23  41  62  98 125 176 217 283 316 418
#     4  12  26  44  69  98 130 186 222 281 334 409
#     4  10  22  40  66  90 133 171 225 263 346 387
#     4  12  26  42  68  98 139 167 235 272 346 402
#     4  12  25  43  68  98 140 175 222 278 343 403
#     4  10  24  41  67  95 130 177 224 276 329 401
#
# _framework density 24.406547
#
# number of rings (size 3 to 8) (size 9 to 14) (size 15 to 20)
#    0.750    0.500    0.000    5.250    7.000    3.000 
#    0.000    0.000    0.000    0.000    0.000    0.000 
#    0.000    0.000    0.000    0.000    0.000    0.000 
#
# Total GULP energy -89589.645391 kJ/mol
# GULP energy per Si atom -5599.352837 kJ/mol
# Density = 2.435100 g / cm^3
# Si number density = 24.406547 Si / 1000 Ang^3
#
#
#
# Elastic Constant Matrix: (Units=GPa)
#
#
# Indices 1 2 3 4 5 6 
#
# 1 79.7169 -1.0459 9.5028 0.0000 12.4812 0.0000
# 2 -1.0459 65.4271 9.3681 0.0000 3.0830 0.0000
# 3 9.5028 9.3681 69.1193 0.0000 6.4577 0.0000
# 4 0.0000 0.0000 0.0000 17.3627 0.0000 -7.5341
# 5 12.4812 3.0830 6.4577 0.0000 42.8944 0.0000
# 6 0.0000 0.0000 0.0000 -7.5341 0.0000 26.5024
#
#
#
# Elastic Compliance Matrix: (Units=1/GPa)
#
#
# Indices 1 2 3 4 5 6 
#
# 1 0.013316 0.000611 -0.001570 0.000000 -0.003682 0.000000
# 2 0.000611 0.015643 -0.002112 0.000000 -0.000984 0.000000
# 3 -0.001570 -0.002112 0.015126 0.000000 -0.001669 0.000000
# 4 0.000000 0.000000 0.000000 0.065699 0.000000 0.018677
# 5 -0.003682 -0.000984 -0.001669 0.000000 0.024706 0.000000
# 6 0.000000 0.000000 0.000000 0.018677 0.000000 0.043042
#
#
# Mechanical properties :
#
#
# Convention : Reuss Voigt Hill
#
# Bulk Modulus (GPa) = 26.35516 27.76813 27.06164
# Shear Modulus (GPa) = 25.46850 30.44781 27.95815
#
# Velocity S-wave (km/s) = 3.23385 3.53587 3.38822
# Velocity P-wave (km/s) = 4.97650 5.29828 5.13991
#
# Compressibility (1/GPa) = 0.03794324
#
# Stress axis : x y z
#
# Youngs Moduli (GPa) = 75.09742 63.92733 66.11265
#
# Poissons Ratio (x) = -0.03907 0.10377
# Poissons Ratio (y) = -0.04589 0.13964
# Poissons Ratio (z) = 0.11787 0.13503
#
# Static dielectric constant tensor:
#      x y z
#    x 1.936610 0.000000 0.058860 
#    y 0.000000 1.876220 0.000000 
#    z 0.058860 0.000000 1.966640 
# 
# From -- ./inp_files/10157.got.cif
#   From: 2010.05.17/outbox.cif.g08.bks.cpg/sg4_6_cif.got.tgz:10157.got - 2010.06.03 18:43:04.
