data_PCOD9116851
_publ_section_title
;
Structure prediction by ZEFSAII (Michael W. Deem and Ramdas Pophale) SiO2 
 PCOD9116851
Probable space group: P 21
;
_chemical_formula_sum "Si O2"
_cell_formula_units_Z 16
_cell_length_a 5.376435
_cell_length_b 5.040699
_cell_length_c 24.578946
_cell_angle_alpha 90.000000
_cell_angle_beta 115.544792
_cell_angle_gamma 90.000000
_cell_volume 601.000127
_symmetry_space_group_name_H-M "P 21"
_symmetry_group_IT_number 4
_symmetry_cell_setting 'monoclinic'
loop_
_space_group_symop_operation_xyz
x,y,z
-x,1/2+y,-z
loop_
_atom_site_type_symbol
_atom_site_label
_atom_site_fract_x
_atom_site_fract_y
_atom_site_fract_z
Si Si1 0.050766 0.758390 0.616661
Si Si2 0.424443 0.268869 0.121863
Si Si3 0.222492 0.616029 0.254942
Si Si4 0.826573 0.629562 0.001735
Si Si5 0.654100 0.770226 0.381475
Si Si6 0.581334 0.556184 0.495478
Si Si7 0.104417 0.781475 0.125104
Si Si8 0.731649 0.292656 0.253753
O O1 0.258326 0.571996 0.603216
O O2 0.099862 0.646274 0.682430
O O3 0.769845 0.720700 0.557742
O O4 0.135623 0.063790 0.626891
O O5 0.339421 0.572928 0.125245
O O6 0.653311 0.178376 0.187065
O O7 0.171218 0.080966 0.115954
O O8 0.440518 0.202330 0.059391
O O9 0.393633 0.767402 0.317001
O O10 0.125686 0.760554 0.191426
O O11 0.443452 0.393337 0.253551
O O12 0.947781 0.515293 0.257143
O O13 0.834518 0.684376 0.066946
O O14 0.942449 0.340377 0.998512
O O15 0.622081 0.644954 0.437735
O O16 0.674320 0.254455 0.513724
#
# Coordination Sequence:
#
# PCOD9116851 Si02
#       8
#     2   2   2   2   2   2   2   2
#     4  11  23  42  64  92 128 172 216 267 323 386
#     4   9  17  33  56  88 122 164 210 263 320 382
#     4  10  22  41  65  94 129 169 215 266 322 384
#     4   8  14  26  52  82 118 158 206 258 316 378
#     4  11  23  42  64  92 128 172 216 267 323 386
#     4  12  24  40  64  96 130 172 218 270 324 386
#     4   9  17  33  56  88 122 164 210 263 320 382
#     4  10  22  41  65  94 129 169 215 266 322 384
#
# _framework density 26.622292000000002
#
# number of rings (size 3 to 8) (size 9 to 14) (size 15 to 20)
#    0.000    2.000    0.000    3.750    0.000    2.000 
#    0.000   15.000    0.000   19.500    0.000    0.000 
#    0.000    0.000    0.000    0.000    0.000    0.000 
#
# Total GULP energy -89255.177106 kJ/mol
# GULP energy per Si atom -5578.448569 kJ/mol
# Density = 2.656170 g / cm^3
# Si number density = 26.622292 Si / 1000 Ang^3
#
#
#
# Elastic Constant Matrix: (Units=GPa)
#
#
# Indices 1 2 3 4 5 6 
#
# 1 31.3370 11.6918 16.4968 0.0000 42.1111 0.0000
# 2 11.6918 99.1837 -26.3482 0.0000 79.6229 0.0000
# 3 16.4968 -26.3482 181.3958 0.0000 338.9327 0.0000
# 4 0.0000 0.0000 0.0000 38.6172 0.0000 0.4776
# 5 42.1111 79.6229 338.9327 0.0000 -300.7363 0.0000
# 6 0.0000 0.0000 0.0000 0.4776 0.0000 31.1381
#
#
#
# Elastic Compliance Matrix: (Units=1/GPa)
#
#
# Indices 1 2 3 4 5 6 
#
# 1 0.035959 -0.004973 -0.003523 0.000000 -0.000251 0.000000
# 2 -0.004973 0.009527 -0.000507 0.000000 0.001254 0.000000
# 3 -0.003523 -0.000507 0.002232 0.000000 0.001888 0.000000
# 4 0.000000 0.000000 0.000000 0.025900 0.000000 -0.000397
# 5 -0.000251 0.001254 0.001888 0.000000 -0.000901 0.000000
# 6 0.000000 0.000000 0.000000 -0.000397 0.000000 0.032121
#
#
# Mechanical properties :
#
#
# Convention : Reuss Voigt Hill
#
# Bulk Modulus (GPa) = 33.65634 35.06636 34.36135
# Shear Modulus (GPa) = 37.66538 -25.52446 6.07046
#
# Velocity S-wave (km/s) = 3.76547 -3.09975 1.51168
# Velocity P-wave (km/s) = 5.61913 0.62381 3.99774
#
# Compressibility (1/GPa) = 0.02971209
#
# Stress axis : x y z
#
# Youngs Moduli (GPa) = 27.80960 104.96631 448.02771
#
# Poissons Ratio (x) = 0.52197 1.57825
# Poissons Ratio (y) = 0.13829 0.22732
# Poissons Ratio (z) = 0.09796 0.05326
#
# Static dielectric constant tensor:
#      x y z
#    x 2.264980 0.000000 0.005540 
#    y 0.000000 1.950390 0.000000 
#    z 0.005540 0.000000 2.256470 
# 
# From -- ./inp_files/16297.got.cif
#   From: 2010.05.17/outbox.cif.g08.bks.cpg/sg4_9_cif.got.tgz:16297.got - 2010.06.03 18:43:04.
