data_PCOD9116374
_publ_section_title
;
Structure prediction by ZEFSAII (Michael W. Deem and Ramdas Pophale) SiO2 
 PCOD9116374
Probable space group: P 21
;
_chemical_formula_sum "Si O2"
_cell_formula_units_Z 16
_cell_length_a 12.845751
_cell_length_b 8.229921
_cell_length_c 11.577910
_cell_angle_alpha 90.000000
_cell_angle_beta 32.970740
_cell_angle_gamma 90.000000
_cell_volume 666.119867
_symmetry_space_group_name_H-M "P 21"
_symmetry_group_IT_number 4
_symmetry_cell_setting 'monoclinic'
loop_
_space_group_symop_operation_xyz
x,y,z
-x,1/2+y,-z
loop_
_atom_site_type_symbol
_atom_site_label
_atom_site_fract_x
_atom_site_fract_y
_atom_site_fract_z
Si Si1 0.065292 0.684180 0.808563
Si Si2 0.306805 0.739299 0.805387
Si Si3 0.489032 0.421138 0.739037
Si Si4 0.706261 0.002276 0.608689
Si Si5 0.374003 0.078125 0.774499
Si Si6 0.947629 0.279209 0.728033
Si Si7 0.788227 0.303596 0.648112
Si Si8 0.080364 0.412699 0.224579
O O1 0.173981 0.673051 0.826930
O O2 0.187564 0.591421 0.598434
O O3 0.029835 0.865726 0.791834
O O4 0.850891 0.614499 0.013105
O O5 0.453835 0.596272 0.709629
O O6 0.392779 0.912751 0.681612
O O7 0.161337 0.780425 0.047231
O O8 0.469938 0.258879 0.674686
O O9 0.661719 0.400166 0.670485
O O10 0.301287 0.399256 0.992808
O O11 0.485169 0.003419 0.781450
O O12 0.716410 0.118585 0.709288
O O13 0.838207 0.846111 0.487883
O O14 0.814799 0.360304 0.753302
O O15 0.964637 0.089403 0.689749
O O16 0.000457 0.294116 0.395701
#
# Coordination Sequence:
#
# PCOD9116374 Si02
#       8
#     2   2   2   2   2   2   2   2
#     4  10  22  45  64  91 132 170 212 269 326 392
#     4  11  24  43  67  99 128 172 220 262 335 390
#     4   9  22  43  63  91 132 167 219 265 320 391
#     4  10  22  43  64  94 130 166 218 266 324 388
#     4  10  22  42  66  93 128 172 208 269 323 385
#     4  11  22  39  65  99 126 169 223 263 328 392
#     4  10  21  43  63  90 133 170 215 274 320 383
#     4   9  21  40  64  91 125 174 209 270 330 377
#
# _framework density 24.019703
#
# number of rings (size 3 to 8) (size 9 to 14) (size 15 to 20)
#    0.000    2.000    1.250    0.750    7.000    0.000 
#   20.250    0.000    0.000    0.000    0.000    0.000 
#    0.000    0.000    0.000    0.000    0.000    0.000 
#
# Total GULP energy -89090.776350 kJ/mol
# GULP energy per Si atom -5568.173522 kJ/mol
# Density = 2.396503 g / cm^3
# Si number density = 24.019703 Si / 1000 Ang^3
#
#
#
# Elastic Constant Matrix: (Units=GPa)
#
#
# Indices 1 2 3 4 5 6 
#
# 1 139.2911 46.5405 33.8819 0.0000 -0.0518 0.0000
# 2 46.5405 106.0260 15.5580 0.0000 -18.4647 0.0000
# 3 33.8819 15.5580 46.4091 0.0000 3.0432 0.0000
# 4 0.0000 0.0000 0.0000 28.9952 0.0000 -9.4511
# 5 -0.0518 -18.4647 3.0432 0.0000 24.4533 0.0000
# 6 0.0000 0.0000 0.0000 -9.4511 0.0000 26.6365
#
#
#
# Elastic Compliance Matrix: (Units=1/GPa)
#
#
# Indices 1 2 3 4 5 6 
#
# 1 0.009874 -0.003868 -0.005769 0.000000 -0.002182 0.000000
# 2 -0.003868 0.013258 -0.002296 0.000000 0.010289 0.000000
# 3 -0.005769 -0.002296 0.026863 0.000000 -0.005089 0.000000
# 4 0.000000 0.000000 0.000000 0.038999 0.000000 0.013837
# 5 -0.002182 0.010289 -0.005089 0.000000 0.049292 0.000000
# 6 0.000000 0.000000 0.000000 0.013837 0.000000 0.042452
#
#
# Mechanical properties :
#
#
# Convention : Reuss Voigt Hill
#
# Bulk Modulus (GPa) = 38.27020 53.74298 46.00659
# Shear Modulus (GPa) = 23.43985 29.06672 26.25328
#
# Velocity S-wave (km/s) = 3.12726 3.48245 3.30963
# Velocity P-wave (km/s) = 5.38583 6.21233 5.81379
#
# Compressibility (1/GPa) = 0.02612999
#
# Stress axis : x y z
#
# Youngs Moduli (GPa) = 101.27669 75.42627 37.22648
#
# Poissons Ratio (x) = 0.29172 0.21476
# Poissons Ratio (y) = 0.39170 0.08546
# Poissons Ratio (z) = 0.58427 0.17315
#
# Static dielectric constant tensor:
#      x y z
#    x 1.980570 0.000000 -0.028300 
#    y 0.000000 2.028140 0.000000 
#    z -0.028300 0.000000 1.952380 
# 
# From -- ./inp_files/12093.got.cif
#   From: 2010.05.17/outbox.cif.g08.bks.cpg/sg4_7_cif.got.tgz:12093.got - 2010.06.03 18:43:04.
