data_PCOD9116702
_publ_section_title
;
Structure prediction by ZEFSAII (Michael W. Deem and Ramdas Pophale) SiO2 
 PCOD9116702
Probable space group: P 21
;
_chemical_formula_sum "Si O2"
_cell_formula_units_Z 14
_cell_length_a 6.982351
_cell_length_b 11.400388
_cell_length_c 8.270504
_cell_angle_alpha 90.000000
_cell_angle_beta 66.283804
_cell_angle_gamma 90.000000
_cell_volume 602.746709
_symmetry_space_group_name_H-M "P 21"
_symmetry_group_IT_number 4
_symmetry_cell_setting 'monoclinic'
loop_
_space_group_symop_operation_xyz
x,y,z
-x,1/2+y,-z
loop_
_atom_site_type_symbol
_atom_site_label
_atom_site_fract_x
_atom_site_fract_y
_atom_site_fract_z
Si Si1 0.772377 0.639100 0.465646
Si Si2 0.811065 0.407119 0.285875
Si Si3 0.882594 0.290295 0.747195
Si Si4 0.010294 0.698853 0.936020
Si Si5 0.512352 0.289841 0.650797
Si Si6 0.406889 0.536257 0.806928
Si Si7 0.688044 0.504506 0.986770
O O1 0.882754 0.522742 0.357167
O O2 0.620759 0.686457 0.376917
O O3 0.614500 0.597230 0.659159
O O4 0.936829 0.744823 0.436611
O O5 0.985836 0.316970 0.168784
O O6 0.658296 0.339288 0.458154
O O7 0.692337 0.441439 0.159452
O O8 0.663466 0.251666 0.744036
O O9 0.831103 0.424353 0.815726
O O10 0.949898 0.231768 0.891736
O O11 0.208513 0.614771 0.832065
O O12 0.803616 0.626589 0.973818
O O13 0.381061 0.404404 0.747977
O O14 0.466930 0.520774 0.974335
#
# Coordination Sequence:
#
# PCOD9116702 Si02
#       7
#     2   2   2   2   2   2   2
#     4  11  21  41  62  91 123 165 196 256 304 358
#     4  10  22  40  62  92 124 154 206 250 296 366
#     4  10  23  38  64  90 123 160 208 246 309 360
#     4  11  21  41  62  91 123 165 196 256 304 358
#     4  10  22  42  62  89 126 158 207 257 296 367
#     4  10  23  38  64  90 123 160 208 246 309 360
#     4  10  22  42  62  89 126 158 207 257 296 367
#
# _framework density 23.227005999999999
#
# number of rings (size 3 to 8) (size 9 to 14) (size 15 to 20)
#    0.000    1.714    2.857    0.857    4.000    0.000 
#    0.000    2.857    0.000    0.000    0.000    0.000 
#    0.000    0.000    0.000    0.000    0.000    0.000 
#
# Total GULP energy -78235.264291 kJ/mol
# GULP energy per Si atom -5588.233164 kJ/mol
# Density = 2.317414 g / cm^3
# Si number density = 23.227006 Si / 1000 Ang^3
#
#
#
# Elastic Constant Matrix: (Units=GPa)
#
#
# Indices 1 2 3 4 5 6 
#
# 1 41.1169 6.4676 1.2922 0.0000 9.3687 0.0000
# 2 6.4676 63.9171 15.8306 0.0000 5.6531 0.0000
# 3 1.2922 15.8306 60.7485 0.0000 2.1488 0.0000
# 4 0.0000 0.0000 0.0000 41.6597 0.0000 0.9630
# 5 9.3687 5.6531 2.1488 0.0000 25.3548 0.0000
# 6 0.0000 0.0000 0.0000 0.9630 0.0000 23.1242
#
#
#
# Elastic Compliance Matrix: (Units=1/GPa)
#
#
# Indices 1 2 3 4 5 6 
#
# 1 0.026779 -0.001938 0.000271 0.000000 -0.009486 0.000000
# 2 -0.001938 0.017157 -0.004333 0.000000 -0.002742 0.000000
# 3 0.000271 -0.004333 0.017607 0.000000 -0.000626 0.000000
# 4 0.000000 0.000000 0.000000 0.024027 0.000000 -0.001001
# 5 -0.009486 -0.002742 -0.000626 0.000000 0.043610 0.000000
# 6 0.000000 0.000000 0.000000 -0.001001 0.000000 0.043286
#
#
# Mechanical properties :
#
#
# Convention : Reuss Voigt Hill
#
# Bulk Modulus (GPa) = 20.18450 23.66259 21.92355
# Shear Modulus (GPa) = 24.87817 27.50719 26.19268
#
# Velocity S-wave (km/s) = 3.27630 3.44506 3.36174
# Velocity P-wave (km/s) = 4.79804 5.10238 4.95255
#
# Compressibility (1/GPa) = 0.04954296
#
# Stress axis : x y z
#
# Youngs Moduli (GPa) = 37.34329 58.28531 56.79629
#
# Poissons Ratio (x) = 0.11295 -0.01538
# Poissons Ratio (y) = 0.07236 0.24608
# Poissons Ratio (z) = -0.01012 0.25254
#
# Static dielectric constant tensor:
#      x y z
#    x 1.831340 0.000000 -0.045280 
#    y 0.000000 1.877720 0.000000 
#    z -0.045280 0.000000 1.943770 
# 
# From -- ./inp_files/1120.got.cif
#   From: 2010.05.17/outbox.cif.g08.bks.cpg/sg4_1_cif.got.tgz:1120.got - 2010.06.03 18:43:04.
