data_PCOD9116434
_publ_section_title
;
Structure prediction by ZEFSAII (Michael W. Deem and Ramdas Pophale) SiO2 
 PCOD9116434
Probable space group: P 21
;
_chemical_formula_sum "Si O2"
_cell_formula_units_Z 16
_cell_length_a 9.067715
_cell_length_b 8.734252
_cell_length_c 12.417284
_cell_angle_alpha 90.000000
_cell_angle_beta 39.687937
_cell_angle_gamma 90.000000
_cell_volume 628.033865
_symmetry_space_group_name_H-M "P 21"
_symmetry_group_IT_number 4
_symmetry_cell_setting 'monoclinic'
loop_
_space_group_symop_operation_xyz
x,y,z
-x,1/2+y,-z
loop_
_atom_site_type_symbol
_atom_site_label
_atom_site_fract_x
_atom_site_fract_y
_atom_site_fract_z
Si Si1 0.225187 0.229520 0.059847
Si Si2 0.483082 0.223163 0.287247
Si Si3 0.192447 0.919702 0.661337
Si Si4 0.980690 0.106615 0.609187
Si Si5 0.414156 0.574276 0.999489
Si Si6 0.287036 0.487212 0.676086
Si Si7 0.311097 0.533732 0.435185
Si Si8 0.759858 0.682829 0.197671
O O1 0.352750 0.108851 0.064568
O O2 0.960380 0.275427 0.226122
O O3 0.356658 0.394955 0.006033
O O4 0.216469 0.170077 0.942958
O O5 0.556428 0.161279 0.130046
O O6 0.496501 0.404643 0.291953
O O7 0.205305 0.209473 0.463278
O O8 0.624319 0.123268 0.295220
O O9 0.465260 0.921391 0.505127
O O10 0.134278 0.056865 0.780458
O O11 0.104204 0.959704 0.591466
O O12 0.852568 0.074452 0.570809
O O13 0.786161 0.140931 0.808591
O O14 0.174239 0.498299 0.621380
O O15 0.163895 0.353414 0.811822
O O16 0.482567 0.671594 0.368120
#
# Coordination Sequence:
#
# PCOD9116434 Si02
#       8
#     2   2   2   2   2   2   2   2
#     4  11  23  45  68 101 145 183 231 294 359 412
#     4  11  23  42  70 100 135 187 235 285 356 423
#     4   9  22  42  63  97 142 175 226 295 340 421
#     4  10  22  41  64  98 141 174 227 296 339 410
#     4  11  23  43  69 102 140 182 235 292 349 426
#     4  10  21  43  70  97 134 183 237 285 353 424
#     4  11  22  40  69  98 139 181 229 295 352 412
#     4  11  22  44  69  99 140 183 226 292 356 418
#
# _framework density 25.476334999999999
#
# number of rings (size 3 to 8) (size 9 to 14) (size 15 to 20)
#    0.000    1.500    2.500    3.750    0.000    4.000 
#    9.000    1.250    0.000    0.000    0.000    0.000 
#    0.000    0.000    0.000    0.000    0.000    0.000 
#
# Total GULP energy -89382.966923 kJ/mol
# GULP energy per Si atom -5586.435433 kJ/mol
# Density = 2.541835 g / cm^3
# Si number density = 25.476335 Si / 1000 Ang^3
#
#
#
# Elastic Constant Matrix: (Units=GPa)
#
#
# Indices 1 2 3 4 5 6 
#
# 1 177.5719 39.8474 56.7312 0.0000 31.4101 0.0000
# 2 39.8474 99.4693 36.2537 0.0000 12.9239 0.0000
# 3 56.7312 36.2537 81.7074 0.0000 14.0855 0.0000
# 4 0.0000 0.0000 0.0000 31.4712 0.0000 0.5812
# 5 31.4101 12.9239 14.0855 0.0000 50.2455 0.0000
# 6 0.0000 0.0000 0.0000 0.5812 0.0000 33.8271
#
#
#
# Elastic Compliance Matrix: (Units=1/GPa)
#
#
# Indices 1 2 3 4 5 6 
#
# 1 0.007890 -0.001115 -0.004395 0.000000 -0.003413 0.000000
# 2 -0.001115 0.012286 -0.004468 0.000000 -0.001210 0.000000
# 3 -0.004395 -0.004468 0.017444 0.000000 -0.000994 0.000000
# 4 0.000000 0.000000 0.000000 0.031785 0.000000 -0.000546
# 5 -0.003413 -0.001210 -0.000994 0.000000 0.022626 0.000000
# 6 0.000000 0.000000 0.000000 -0.000546 0.000000 0.029572
#
#
# Mechanical properties :
#
#
# Convention : Reuss Voigt Hill
#
# Bulk Modulus (GPa) = 56.61547 69.37925 62.99736
# Shear Modulus (GPa) = 33.91071 38.16984 36.04028
#
# Velocity S-wave (km/s) = 3.65234 3.87492 3.76527
# Velocity P-wave (km/s) = 6.32907 6.87837 6.60943
#
# Compressibility (1/GPa) = 0.01766302
#
# Stress axis : x y z
#
# Youngs Moduli (GPa) = 126.74982 81.39372 57.32656
#
# Poissons Ratio (x) = 0.09078 0.25193
# Poissons Ratio (y) = 0.14137 0.25615
# Poissons Ratio (z) = 0.55701 0.36369
#
# Static dielectric constant tensor:
#      x y z
#    x 2.014280 0.000000 -0.085410 
#    y 0.000000 2.101730 0.000000 
#    z -0.085410 0.000000 2.155080 
# 
# From -- ./inp_files/5612.got.cif
#   From: 2010.05.17/outbox.cif.g08.bks.cpg/sg4_3_cif.got.tgz:5612.got - 2010.06.03 18:43:04.
