data_PCOD9116856
_publ_section_title
;
Structure prediction by ZEFSAII (Michael W. Deem and Ramdas Pophale) SiO2 
 PCOD9116856
Probable space group: P 21
;
_chemical_formula_sum "Si O2"
_cell_formula_units_Z 16
_cell_length_a 9.219005
_cell_length_b 9.578385
_cell_length_c 17.197788
_cell_angle_alpha 90.000000
_cell_angle_beta 152.236703
_cell_angle_gamma 90.000000
_cell_volume 707.403105
_symmetry_space_group_name_H-M "P 21"
_symmetry_group_IT_number 4
_symmetry_cell_setting 'monoclinic'
loop_
_space_group_symop_operation_xyz
x,y,z
-x,1/2+y,-z
loop_
_atom_site_type_symbol
_atom_site_label
_atom_site_fract_x
_atom_site_fract_y
_atom_site_fract_z
Si Si1 0.539790 0.196480 0.457152
Si Si2 0.661998 0.812606 0.313930
Si Si3 0.614447 0.585613 0.780784
Si Si4 0.746819 0.299477 0.318657
Si Si5 0.490285 0.081955 0.974682
Si Si6 0.897266 0.910961 0.664670
Si Si7 0.191300 0.354889 0.792073
Si Si8 0.675272 0.052908 0.880208
O O1 0.419992 0.180352 0.311925
O O2 0.272586 0.281008 0.375615
O O3 0.848009 0.291564 0.616877
O O4 0.652000 0.039162 0.534115
O O5 0.665375 0.854647 0.225789
O O6 0.407168 0.694345 0.203573
O O7 0.993063 0.752607 0.496258
O O8 0.601197 0.951602 0.332393
O O9 0.497471 0.673292 0.799601
O O10 0.961138 0.528528 0.954319
O O11 0.548318 0.430666 0.254446
O O12 0.931926 0.347652 0.330484
O O13 0.383293 0.241574 0.934946
O O14 0.582126 0.071168 0.926907
O O15 0.182285 0.988165 0.844144
O O16 0.768433 0.007611 0.152660
#
# Coordination Sequence:
#
# PCOD9116856 Si02
#       8
#     2   2   2   2   2   2   2   2
#     4  11  24  43  67 100 136 176 227 279 336 398
#     4  11  22  42  68  97 136 183 227 280 345 407
#     4  12  24  42  69 100 136 176 227 287 337 402
#     4  11  22  46  70  99 137 181 226 277 347 412
#     4   9  22  41  67  94 138 174 224 278 337 403
#     4  10  24  44  65 100 134 177 226 278 339 405
#     4  10  22  41  65  99 132 181 227 277 340 403
#     4  10  24  43  67  97 137 176 228 282 339 402
#
# _framework density 22.617939
#
# number of rings (size 3 to 8) (size 9 to 14) (size 15 to 20)
#    0.000    1.500    2.500    2.250    5.250    3.000 
#    2.250    1.250    0.000    0.000    0.000    0.000 
#    0.000    0.000    0.000    0.000    0.000    0.000 
#
# Total GULP energy -89353.195753 kJ/mol
# GULP energy per Si atom -5584.574735 kJ/mol
# Density = 2.256646 g / cm^3
# Si number density = 22.617939 Si / 1000 Ang^3
#
#
#
# Elastic Constant Matrix: (Units=GPa)
#
#
# Indices 1 2 3 4 5 6 
#
# 1 57.8331 49.7866 25.0660 0.0000 19.5779 0.0000
# 2 49.7866 90.2235 26.8025 0.0000 21.8311 0.0000
# 3 25.0660 26.8025 59.5993 0.0000 6.0261 0.0000
# 4 0.0000 0.0000 0.0000 49.7671 0.0000 9.2417
# 5 19.5779 21.8311 6.0261 0.0000 27.7790 0.0000
# 6 0.0000 0.0000 0.0000 9.2417 0.0000 31.4408
#
#
#
# Elastic Compliance Matrix: (Units=1/GPa)
#
#
# Indices 1 2 3 4 5 6 
#
# 1 0.038862 -0.015926 -0.007851 0.000000 -0.013170 0.000000
# 2 -0.015926 0.021979 -0.002632 0.000000 -0.005478 0.000000
# 3 -0.007851 -0.002632 0.020955 0.000000 0.003056 0.000000
# 4 0.000000 0.000000 0.000000 0.021254 0.000000 -0.006247
# 5 -0.013170 -0.005478 0.003056 0.000000 0.048923 0.000000
# 6 0.000000 0.000000 0.000000 -0.006247 0.000000 0.033642
#
#
# Mechanical properties :
#
#
# Convention : Reuss Voigt Hill
#
# Bulk Modulus (GPa) = 34.50808 45.66292 40.08550
# Shear Modulus (GPa) = 20.15374 28.86409 24.50892
#
# Velocity S-wave (km/s) = 2.98829 3.57621 3.29539
# Velocity P-wave (km/s) = 5.21503 6.10615 5.67810
#
# Compressibility (1/GPa) = 0.02897872
#
# Stress axis : x y z
#
# Youngs Moduli (GPa) = 25.73190 45.49772 47.72030
#
# Poissons Ratio (x) = 0.72458 0.37465
# Poissons Ratio (y) = 0.40980 0.12562
# Poissons Ratio (z) = 0.20202 0.11977
#
# Static dielectric constant tensor:
#      x y z
#    x 1.821250 0.000000 -0.015550 
#    y 0.000000 1.831970 0.000000 
#    z -0.015550 0.000000 1.827180 
# 
# From -- ./inp_files/10849.got.cif
#   From: 2010.05.17/outbox.cif.g08.bks.cpg/sg4_6_cif.got.tgz:10849.got - 2010.06.03 18:43:04.
