data_PCOD9116794
_publ_section_title
;
Structure prediction by ZEFSAII (Michael W. Deem and Ramdas Pophale) SiO2 
 PCOD9116794
Probable space group: P 21
;
_chemical_formula_sum "Si O2"
_cell_formula_units_Z 16
_cell_length_a 6.571174
_cell_length_b 5.281946
_cell_length_c 19.228917
_cell_angle_alpha 90.000000
_cell_angle_beta 109.733696
_cell_angle_gamma 90.000000
_cell_volume 628.213045
_symmetry_space_group_name_H-M "P 21"
_symmetry_group_IT_number 4
_symmetry_cell_setting 'monoclinic'
loop_
_space_group_symop_operation_xyz
x,y,z
-x,1/2+y,-z
loop_
_atom_site_type_symbol
_atom_site_label
_atom_site_fract_x
_atom_site_fract_y
_atom_site_fract_z
Si Si1 0.496391 0.952390 0.402658
Si Si2 0.900062 0.928162 0.175284
Si Si3 0.480006 0.009012 0.041752
Si Si4 0.612059 0.916419 0.261844
Si Si5 0.714637 0.822603 0.787491
Si Si6 0.234623 0.470417 0.356837
Si Si7 0.773336 0.208015 0.880351
Si Si8 0.919835 0.857018 0.526343
O O1 0.612471 0.869173 0.343659
O O2 0.310325 0.745861 0.390364
O O3 0.670097 0.924029 0.482788
O O4 0.403703 0.234706 0.384556
O O5 0.681242 0.040909 0.117796
O O6 0.827748 0.856213 0.244547
O O7 0.993877 0.736776 0.128631
O O8 0.103002 0.111071 0.202656
O O9 0.279660 0.876358 0.059840
O O10 0.549054 0.778313 0.998238
O O11 0.423173 0.769783 0.197309
O O12 0.523498 0.205001 0.246724
O O13 0.779521 0.991705 0.728084
O O14 0.743190 0.907955 0.871204
O O15 0.043182 0.384240 0.386630
O O16 0.957918 0.575742 0.502213
#
# Coordination Sequence:
#
# PCOD9116794 Si02
#       8
#     2   2   2   2   2   2   2   2
#     4  11  22  43  66  90 133 188 226 273 354 407
#     4  10  24  41  70 100 134 179 220 287 337 397
#     4  11  28  47  72  99 141 185 228 275 336 415
#     4   9  21  40  63  98 133 177 223 282 339 411
#     4  10  22  40  71 100 138 174 229 289 343 406
#     4  11  23  43  67  95 132 183 228 280 350 412
#     4  10  22  43  68 100 135 172 229 278 337 405
#     4  12  26  41  63  98 138 176 235 294 336 413
#
# _framework density 25.469069000000001
#
# number of rings (size 3 to 8) (size 9 to 14) (size 15 to 20)
#    0.000    1.500    1.250    2.250    8.750    3.000 
#    0.000    0.000    0.000    0.000    0.000    0.000 
#    0.000    0.000    0.000    0.000    0.000    0.000 
#
# Total GULP energy -89250.676057 kJ/mol
# GULP energy per Si atom -5578.167254 kJ/mol
# Density = 2.541110 g / cm^3
# Si number density = 25.469069 Si / 1000 Ang^3
#
#
#
# Elastic Constant Matrix: (Units=GPa)
#
#
# Indices 1 2 3 4 5 6 
#
# 1 89.7858 10.6874 16.6580 0.0000 -28.4277 0.0000
# 2 10.6874 35.1703 -1.9808 0.0000 -9.5510 0.0000
# 3 16.6580 -1.9808 70.9758 0.0000 -34.5334 0.0000
# 4 0.0000 0.0000 0.0000 40.7108 0.0000 -7.1440
# 5 -28.4277 -9.5510 -34.5334 0.0000 49.3699 0.0000
# 6 0.0000 0.0000 0.0000 -7.1440 0.0000 34.0612
#
#
#
# Elastic Compliance Matrix: (Units=1/GPa)
#
#
# Indices 1 2 3 4 5 6 
#
# 1 0.013787 -0.001995 0.000581 0.000000 0.007959 0.000000
# 2 -0.001995 0.031814 0.005748 0.000000 0.009026 0.000000
# 3 0.000581 0.005748 0.022462 0.000000 0.017158 0.000000
# 4 0.000000 0.000000 0.000000 0.025502 0.000000 0.005349
# 5 0.007959 0.009026 0.017158 0.000000 0.038586 0.000000
# 6 0.000000 0.000000 0.000000 0.005349 0.000000 0.030481
#
#
# Mechanical properties :
#
#
# Convention : Reuss Voigt Hill
#
# Bulk Modulus (GPa) = 13.03260 27.40678 20.21969
# Shear Modulus (GPa) = 27.84857 36.19954 32.02406
#
# Velocity S-wave (km/s) = 3.31029 3.77412 3.54979
# Velocity P-wave (km/s) = 4.44284 5.45675 4.97569
#
# Compressibility (1/GPa) = 0.07673067
#
# Stress axis : x y z
#
# Youngs Moduli (GPa) = 72.53001 31.43224 44.52032
#
# Poissons Ratio (x) = 0.06272 -0.02587
# Poissons Ratio (y) = 0.14473 -0.25590
# Poissons Ratio (z) = -0.04214 -0.18067
#
# Static dielectric constant tensor:
#      x y z
#    x 2.013880 0.000000 -0.065200 
#    y 0.000000 2.256960 0.000000 
#    z -0.065200 0.000000 2.064420 
# 
# From -- ./inp_files/4251.got.cif
#   From: 2010.05.17/outbox.cif.g08.bks.cpg/sg4_3_cif.got.tgz:4251.got - 2010.06.03 18:43:04.
