data_PCOD9116252
_publ_section_title
;
Structure prediction by ZEFSAII (Michael W. Deem and Ramdas Pophale) SiO2 
 PCOD9116252
Probable space group: P 21
;
_chemical_formula_sum "Si O2"
_cell_formula_units_Z 14
_cell_length_a 15.081400
_cell_length_b 5.165135
_cell_length_c 8.248947
_cell_angle_alpha 90.000000
_cell_angle_beta 61.779467
_cell_angle_gamma 90.000000
_cell_volume 566.192135
_symmetry_space_group_name_H-M "P 21"
_symmetry_group_IT_number 4
_symmetry_cell_setting 'monoclinic'
loop_
_space_group_symop_operation_xyz
x,y,z
-x,1/2+y,-z
loop_
_atom_site_type_symbol
_atom_site_label
_atom_site_fract_x
_atom_site_fract_y
_atom_site_fract_z
Si Si1 0.893248 0.599370 0.470034
Si Si2 0.038726 0.672244 0.064618
Si Si3 0.418979 0.672249 0.864443
Si Si4 0.246465 0.460460 0.850474
Si Si5 0.607520 0.908448 0.792993
Si Si6 0.244066 0.050030 0.136131
Si Si7 0.211902 0.597176 0.527777
O O1 0.996023 0.605141 0.279539
O O2 0.860449 0.500057 0.677999
O O3 0.832282 0.382718 0.416788
O O4 0.862699 0.903475 0.501742
O O5 0.005001 0.438607 0.971772
O O6 0.159468 0.671207 0.965794
O O7 0.446090 0.493362 0.994282
O O8 0.322318 0.833132 0.010709
O O9 0.364660 0.522769 0.768256
O O10 0.520051 0.826721 0.746682
O O11 0.228985 0.432095 0.675855
O O12 0.226624 0.235560 0.997249
O O13 0.680491 0.118974 0.651443
O O14 0.687593 0.697861 0.786881
#
# Coordination Sequence:
#
# PCOD9116252 Si02
#       7
#     2   2   2   2   2   2   2
#     4  11  22  45  70  98 130 188 228 280 342 437
#     4  12  24  45  73  97 135 186 232 279 363 426
#     4  11  21  41  66  93 139 172 233 282 346 410
#     4  11  26  42  65 104 134 176 230 308 335 413
#     4  10  21  41  67  95 125 191 224 273 347 430
#     4  10  23  41  66  94 136 170 229 286 345 403
#     4  11  23  43  71  97 137 177 236 278 350 415
#
# _framework density 24.726589000000001
#
# number of rings (size 3 to 8) (size 9 to 14) (size 15 to 20)
#    0.000    1.143    5.714    0.000    4.000    0.000 
#    5.143    0.000    0.000    0.000    0.000    0.000 
#    0.000    0.000    0.000    0.000    0.000    0.000 
#
# Total GULP energy -78063.823176 kJ/mol
# GULP energy per Si atom -5575.987370 kJ/mol
# Density = 2.467031 g / cm^3
# Si number density = 24.726589 Si / 1000 Ang^3
#
#
#
# Elastic Constant Matrix: (Units=GPa)
#
#
# Indices 1 2 3 4 5 6 
#
# 1 90.7325 33.4108 5.6415 0.0000 -8.1703 0.0000
# 2 33.4108 90.2539 -0.4451 0.0000 6.8009 0.0000
# 3 5.6415 -0.4451 59.8694 0.0000 -0.0878 0.0000
# 4 0.0000 0.0000 0.0000 27.3537 0.0000 -1.0183
# 5 -8.1703 6.8009 -0.0878 0.0000 31.0756 0.0000
# 6 0.0000 0.0000 0.0000 -1.0183 0.0000 39.7205
#
#
#
# Elastic Compliance Matrix: (Units=1/GPa)
#
#
# Indices 1 2 3 4 5 6 
#
# 1 0.013501 -0.005360 -0.001305 0.000000 0.004719 0.000000
# 2 -0.005360 0.013394 0.000598 0.000000 -0.004339 0.000000
# 3 -0.001305 0.000598 0.016830 0.000000 -0.000427 0.000000
# 4 0.000000 0.000000 0.000000 0.036593 0.000000 0.000938
# 5 0.004719 -0.004339 -0.000427 0.000000 0.034369 0.000000
# 6 0.000000 0.000000 0.000000 0.000938 0.000000 0.025200
#
#
# Mechanical properties :
#
#
# Convention : Reuss Voigt Hill
#
# Bulk Modulus (GPa) = 31.65431 35.34113 33.49772
# Shear Modulus (GPa) = 30.75961 33.11320 31.93641
#
# Velocity S-wave (km/s) = 3.53085 3.66344 3.59776
# Velocity P-wave (km/s) = 5.42697 5.67611 5.55294
#
# Compressibility (1/GPa) = 0.03159127
#
# Stress axis : x y z
#
# Youngs Moduli (GPa) = 74.06731 74.66052 59.41833
#
# Poissons Ratio (x) = 0.40018 0.07755
# Poissons Ratio (y) = 0.39700 -0.03555
# Poissons Ratio (z) = 0.09667 -0.04467
#
# Static dielectric constant tensor:
#      x y z
#    x 2.039640 0.000000 0.033180 
#    y 0.000000 2.006100 0.000000 
#    z 0.033180 0.000000 2.001700 
# 
# From -- ./inp_files/7219.got.cif
#   From: 2010.05.17/outbox.cif.g08.bks.cpg/sg4_4_cif.got.tgz:7219.got - 2010.06.03 18:43:04.
