data_PCOD9116725
_publ_section_title
;
Structure prediction by ZEFSAII (Michael W. Deem and Ramdas Pophale) SiO2 
 PCOD9116725
Probable space group: P 21
;
_chemical_formula_sum "Si O2"
_cell_formula_units_Z 16
_cell_length_a 17.654766
_cell_length_b 6.698502
_cell_length_c 6.610562
_cell_angle_alpha 90.000000
_cell_angle_beta 70.143928
_cell_angle_gamma 90.000000
_cell_volume 735.291221
_symmetry_space_group_name_H-M "P 21"
_symmetry_group_IT_number 4
_symmetry_cell_setting 'monoclinic'
loop_
_space_group_symop_operation_xyz
x,y,z
-x,1/2+y,-z
loop_
_atom_site_type_symbol
_atom_site_label
_atom_site_fract_x
_atom_site_fract_y
_atom_site_fract_z
Si Si1 0.919430 0.945110 0.435435
Si Si2 0.350028 0.815530 0.738695
Si Si3 0.919037 0.543104 0.211525
Si Si4 0.549127 0.315740 0.733564
Si Si5 0.210349 0.746162 0.540255
Si Si6 0.943983 0.743475 0.800798
Si Si7 0.669725 0.059941 0.861498
Si Si8 0.618573 0.650591 0.972027
O O1 0.941594 0.744836 0.301874
O O2 0.896651 0.876414 0.682338
O O3 0.848812 0.057707 0.379845
O O4 0.995697 0.092034 0.369620
O O5 0.427933 0.831380 0.522504
O O6 0.275800 0.781508 0.654640
O O7 0.346495 0.010143 0.883905
O O8 0.350924 0.633614 0.895329
O O9 0.848023 0.435735 0.398838
O O10 0.994839 0.394536 0.140857
O O11 0.896262 0.611122 0.005588
O O12 0.596870 0.125138 0.780709
O O13 0.457151 0.273119 0.868925
O O14 0.585177 0.505668 0.824375
O O15 0.256857 0.692396 0.292059
O O16 0.679148 0.822202 0.842027
#
# Coordination Sequence:
#
# PCOD9116725 Si02
#       8
#     2   2   2   2   2   2   2   2
#     4  11  23  40  68  96 133 173 213 274 329 386
#     4  10  25  42  64  96 134 168 226 270 320 404
#     4  11  23  41  69  97 134 168 216 274 327 387
#     4  10  22  40  63  99 131 165 221 276 335 381
#     4  10  26  44  61  97 136 182 213 263 330 402
#     4  11  22  40  65 103 130 164 220 275 326 379
#     4  10  23  45  64  92 135 172 219 271 325 397
#     4  11  22  38  68  96 129 176 214 285 328 384
#
# _framework density 21.760086000000001
#
# number of rings (size 3 to 8) (size 9 to 14) (size 15 to 20)
#    0.000    1.500    3.750    0.000    1.750    9.000 
#    0.000    0.000    0.000    0.000    0.000    0.000 
#    0.000    0.000    0.000    0.000    0.000    0.000 
#
# Total GULP energy -89323.472613 kJ/mol
# GULP energy per Si atom -5582.717038 kJ/mol
# Density = 2.171056 g / cm^3
# Si number density = 21.760086 Si / 1000 Ang^3
#
#
#
# Elastic Constant Matrix: (Units=GPa)
#
#
# Indices 1 2 3 4 5 6 
#
# 1 48.1726 26.9706 17.3150 0.0000 -3.7088 0.0000
# 2 26.9706 133.3485 45.9638 0.0000 7.9113 0.0000
# 3 17.3150 45.9638 99.9576 0.0000 8.4570 0.0000
# 4 0.0000 0.0000 0.0000 27.0752 0.0000 3.3536
# 5 -3.7088 7.9113 8.4570 0.0000 21.7082 0.0000
# 6 0.0000 0.0000 0.0000 3.3536 0.0000 7.0688
#
#
#
# Elastic Compliance Matrix: (Units=1/GPa)
#
#
# Indices 1 2 3 4 5 6 
#
# 1 0.024808 -0.004452 -0.002840 0.000000 0.006967 0.000000
# 2 -0.004452 0.009772 -0.003471 0.000000 -0.002970 0.000000
# 3 -0.002840 -0.003471 0.012436 0.000000 -0.004065 0.000000
# 4 0.000000 0.000000 0.000000 0.039240 0.000000 -0.018617
# 5 0.006967 -0.002970 -0.004065 0.000000 0.049922 0.000000
# 6 0.000000 0.000000 0.000000 -0.018617 0.000000 0.150300
#
#
# Mechanical properties :
#
#
# Convention : Reuss Voigt Hill
#
# Bulk Modulus (GPa) = 39.22957 51.33085 45.28021
# Shear Modulus (GPa) = 15.79773 23.91905 19.85839
#
# Velocity S-wave (km/s) = 2.69735 3.31904 3.02421
# Velocity P-wave (km/s) = 5.26957 6.19102 5.74878
#
# Compressibility (1/GPa) = 0.02549098
#
# Stress axis : x y z
#
# Youngs Moduli (GPa) = 40.30890 102.33009 80.41056
#
# Poissons Ratio (x) = 0.45560 0.22833
# Poissons Ratio (y) = 0.17947 0.27912
# Poissons Ratio (z) = 0.11446 0.35520
#
# Static dielectric constant tensor:
#      x y z
#    x 1.803490 0.000000 -0.019930 
#    y 0.000000 1.788870 0.000000 
#    z -0.019930 0.000000 1.842870 
# 
# From -- ./inp_files/4244.got.cif
#   From: 2010.05.17/outbox.cif.g08.bks.cpg/sg4_3_cif.got.tgz:4244.got - 2010.06.03 18:43:04.
