data_PCOD9116638
_publ_section_title
;
Structure prediction by ZEFSAII (Michael W. Deem and Ramdas Pophale) SiO2 
 PCOD9116638
Probable space group: P 21
;
_chemical_formula_sum "Si O2"
_cell_formula_units_Z 16
_cell_length_a 9.731367
_cell_length_b 8.568050
_cell_length_c 8.683563
_cell_angle_alpha 90.000000
_cell_angle_beta 120.133500
_cell_angle_gamma 90.000000
_cell_volume 626.179195
_symmetry_space_group_name_H-M "P 21"
_symmetry_group_IT_number 4
_symmetry_cell_setting 'monoclinic'
loop_
_space_group_symop_operation_xyz
x,y,z
-x,1/2+y,-z
loop_
_atom_site_type_symbol
_atom_site_label
_atom_site_fract_x
_atom_site_fract_y
_atom_site_fract_z
Si Si1 0.812884 0.068280 0.704131
Si Si2 0.608788 0.662124 0.443047
Si Si3 0.638508 0.331342 0.919623
Si Si4 0.885564 0.876948 0.464380
Si Si5 0.342328 0.306835 0.224675
Si Si6 0.635719 0.000402 0.074213
Si Si7 0.903435 0.546054 0.919210
Si Si8 0.187193 0.890872 0.439173
O O1 0.765564 0.235696 0.621730
O O2 0.909354 0.996017 0.617215
O O3 0.672184 0.953179 0.667676
O O4 0.922703 0.063507 0.915097
O O5 0.472165 0.750136 0.272947
O O6 0.774649 0.743339 0.476354
O O7 0.583129 0.680091 0.613354
O O8 0.655342 0.484557 0.424743
O O9 0.796694 0.416626 0.948371
O O10 0.662690 0.181076 0.043796
O O11 0.530590 0.468872 0.931966
O O12 0.059276 0.845106 0.495294
O O13 0.776115 0.946804 0.266913
O O14 0.377092 0.383282 0.079477
O O15 0.176797 0.214738 0.104329
O O16 0.899249 0.495706 0.739688
#
# Coordination Sequence:
#
# PCOD9116638 Si02
#       8
#     2   2   2   2   2   2   2   2
#     4  11  22  38  64  97 128 160 211 274 334 387
#     4   9  23  43  61  91 129 166 215 269 325 390
#     4  11  25  43  63  91 129 177 221 264 323 398
#     4  10  22  39  61  93 129 164 211 270 331 387
#     4  10  22  41  64  90 123 164 214 276 328 384
#     4  11  23  41  63  88 126 171 219 268 325 393
#     4  11  23  40  63  92 130 170 214 265 329 397
#     4  11  22  39  67  94 124 166 213 272 331 386
#
# _framework density 25.55179
#
# number of rings (size 3 to 8) (size 9 to 14) (size 15 to 20)
#    0.000    1.500    0.000    4.500    0.000   10.000 
#    0.000    5.000    0.000    0.000    0.000    0.000 
#    0.000    0.000    0.000    0.000    0.000    0.000 
#
# Total GULP energy -89515.996202 kJ/mol
# GULP energy per Si atom -5594.749763 kJ/mol
# Density = 2.549363 g / cm^3
# Si number density = 25.551790 Si / 1000 Ang^3
#
#
#
# Elastic Constant Matrix: (Units=GPa)
#
#
# Indices 1 2 3 4 5 6 
#
# 1 117.9201 12.7536 3.6937 0.0000 -4.9552 0.0000
# 2 12.7536 112.2730 -3.8217 0.0000 3.4048 0.0000
# 3 3.6937 -3.8217 73.9394 0.0000 -0.1881 0.0000
# 4 0.0000 0.0000 0.0000 41.6730 0.0000 -5.5074
# 5 -4.9552 3.4048 -0.1881 0.0000 37.6041 0.0000
# 6 0.0000 0.0000 0.0000 -5.5074 0.0000 21.8305
#
#
#
# Elastic Compliance Matrix: (Units=1/GPa)
#
#
# Indices 1 2 3 4 5 6 
#
# 1 0.008659 -0.001037 -0.000483 0.000000 0.001233 0.000000
# 2 -0.001037 0.009071 0.000518 0.000000 -0.000955 0.000000
# 3 -0.000483 0.000518 0.013575 0.000000 -0.000043 0.000000
# 4 0.000000 0.000000 0.000000 0.024824 0.000000 0.006263
# 5 0.001233 -0.000955 -0.000043 0.000000 0.026842 0.000000
# 6 0.000000 0.000000 0.000000 0.006263 0.000000 0.047387
#
#
# Mechanical properties :
#
#
# Convention : Reuss Voigt Hill
#
# Bulk Modulus (GPa) = 34.12786 36.59820 35.36303
# Shear Modulus (GPa) = 35.17881 39.65530 37.41706
#
# Velocity S-wave (km/s) = 3.71450 3.94376 3.83085
# Velocity P-wave (km/s) = 5.63756 5.92384 5.78247
#
# Compressibility (1/GPa) = 0.02930157
#
# Stress axis : x y z
#
# Youngs Moduli (GPa) = 115.48068 110.23742 73.66268
#
# Poissons Ratio (x) = 0.11437 0.03558
# Poissons Ratio (y) = 0.11981 -0.03818
# Poissons Ratio (z) = 0.05579 -0.05713
#
# Static dielectric constant tensor:
#      x y z
#    x 2.024620 0.000000 -0.015100 
#    y 0.000000 2.070790 0.000000 
#    z -0.015100 0.000000 1.983040 
# 
# From -- ./inp_files/8041.got.cif
#   From: 2010.05.17/outbox.cif.g08.bks.cpg/sg4_5_cif.got.tgz:8041.got - 2010.06.03 18:43:04.
