data_PCOD9116245
_publ_section_title
;
Structure prediction by ZEFSAII (Michael W. Deem and Ramdas Pophale) SiO2 
 PCOD9116245
Probable space group: P 21
;
_chemical_formula_sum "Si O2"
_cell_formula_units_Z 16
_cell_length_a 11.524175
_cell_length_b 8.689771
_cell_length_c 11.301186
_cell_angle_alpha 90.000000
_cell_angle_beta 141.178759
_cell_angle_gamma 90.000000
_cell_volume 709.472235
_symmetry_space_group_name_H-M "P 21"
_symmetry_group_IT_number 4
_symmetry_cell_setting 'monoclinic'
loop_
_space_group_symop_operation_xyz
x,y,z
-x,1/2+y,-z
loop_
_atom_site_type_symbol
_atom_site_label
_atom_site_fract_x
_atom_site_fract_y
_atom_site_fract_z
Si Si1 0.363751 0.816810 0.572910
Si Si2 0.101945 0.930698 0.179728
Si Si3 0.152439 0.998196 0.823664
Si Si4 0.525027 0.058626 0.852191
Si Si5 0.218876 0.194843 0.095450
Si Si6 0.439804 0.365470 0.901098
Si Si7 0.148147 0.602759 0.587560
Si Si8 0.091498 0.677413 0.818509
O O1 0.253441 0.821905 0.362427
O O2 0.568398 0.745141 0.723030
O O3 0.244043 0.726775 0.577243
O O4 0.401230 0.988923 0.652011
O O5 0.182645 0.044033 0.145448
O O6 0.038058 0.046652 0.233335
O O7 0.928410 0.830302 0.996295
O O8 0.040056 0.855419 0.793127
O O9 0.355299 0.927316 0.965296
O O10 0.043392 0.048595 0.620833
O O11 0.173260 0.141079 0.926333
O O12 0.432561 0.187313 0.862269
O O13 0.713637 0.139561 0.961676
O O14 0.583323 0.914010 0.980997
O O15 0.288064 0.459285 0.708082
O O16 0.122062 0.659498 0.701223
#
# Coordination Sequence:
#
# PCOD9116245 Si02
#       8
#     2   2   2   2   2   2   2   2
#     4  12  25  48  71 107 141 185 237 291 356 422
#     4  12  28  50  76 100 140 189 239 296 348 418
#     4  11  23  42  70 100 142 188 229 288 349 409
#     4  10  21  41  67 101 146 185 226 285 354 419
#     4  12  27  52  74  99 142 185 243 297 348 413
#     4  10  22  38  65 104 150 184 223 285 350 424
#     4  11  24  41  70 111 146 185 231 282 360 426
#     4  10  24  44  69 110 143 187 230 286 355 423
#
# _framework density 22.551977000000001
#
# number of rings (size 3 to 8) (size 9 to 14) (size 15 to 20)
#    0.000    1.000    3.750    3.000    5.250    1.000 
#    6.750    0.000    0.000    0.000    0.000    0.000 
#    0.000    0.000    0.000    0.000    0.000    0.000 
#
# Total GULP energy -89494.710099 kJ/mol
# GULP energy per Si atom -5593.419381 kJ/mol
# Density = 2.250065 g / cm^3
# Si number density = 22.551977 Si / 1000 Ang^3
#
#
#
# Elastic Constant Matrix: (Units=GPa)
#
#
# Indices 1 2 3 4 5 6 
#
# 1 39.7347 15.6734 33.9714 0.0000 2.0479 0.0000
# 2 15.6734 84.9599 16.7575 0.0000 5.8787 0.0000
# 3 33.9714 16.7575 110.3427 0.0000 16.6279 0.0000
# 4 0.0000 0.0000 0.0000 28.1550 0.0000 -0.8320
# 5 2.0479 5.8787 16.6279 0.0000 25.5237 0.0000
# 6 0.0000 0.0000 0.0000 -0.8320 0.0000 40.5510
#
#
#
# Elastic Compliance Matrix: (Units=1/GPa)
#
#
# Indices 1 2 3 4 5 6 
#
# 1 0.036497 -0.004883 -0.011336 0.000000 0.005581 0.000000
# 2 -0.004883 0.012859 -0.000069 0.000000 -0.002525 0.000000
# 3 -0.011336 -0.000069 0.013776 0.000000 -0.008049 0.000000
# 4 0.000000 0.000000 0.000000 0.035539 0.000000 0.000729
# 5 0.005581 -0.002525 -0.008049 0.000000 0.044557 0.000000
# 6 0.000000 0.000000 0.000000 0.000729 0.000000 0.024675
#
#
# Mechanical properties :
#
#
# Convention : Reuss Voigt Hill
#
# Bulk Modulus (GPa) = 32.72640 40.87132 36.79886
# Shear Modulus (GPa) = 23.73422 30.08826 26.91124
#
# Velocity S-wave (km/s) = 3.24763 3.65660 3.45816
# Velocity P-wave (km/s) = 5.34844 5.99918 5.68313
#
# Compressibility (1/GPa) = 0.03055637
#
# Stress axis : x y z
#
# Youngs Moduli (GPa) = 27.39934 77.76380 72.58915
#
# Poissons Ratio (x) = 0.37974 0.82287
# Poissons Ratio (y) = 0.13380 0.00501
# Poissons Ratio (z) = 0.31060 0.00537
#
# Static dielectric constant tensor:
#      x y z
#    x 1.868680 0.000000 0.008160 
#    y 0.000000 1.860780 0.000000 
#    z 0.008160 0.000000 1.805010 
# 
# From -- ./inp_files/11911.got.cif
#   From: 2010.05.17/outbox.cif.g08.bks.cpg/sg4_6_cif.got.tgz:11911.got - 2010.06.03 18:43:04.
