data_PCOD9116906
_publ_section_title
;
Structure prediction by ZEFSAII (Michael W. Deem and Ramdas Pophale) SiO2 
 PCOD9116906
Probable space group: P 21
;
_chemical_formula_sum "Si O2"
_cell_formula_units_Z 16
_cell_length_a 8.189359
_cell_length_b 7.777455
_cell_length_c 12.655598
_cell_angle_alpha 90.000000
_cell_angle_beta 120.503485
_cell_angle_gamma 90.000000
_cell_volume 694.504262
_symmetry_space_group_name_H-M "P 21"
_symmetry_group_IT_number 4
_symmetry_cell_setting 'monoclinic'
loop_
_space_group_symop_operation_xyz
x,y,z
-x,1/2+y,-z
loop_
_atom_site_type_symbol
_atom_site_label
_atom_site_fract_x
_atom_site_fract_y
_atom_site_fract_z
Si Si1 0.272979 0.971620 0.032223
Si Si2 0.981541 0.051075 0.753475
Si Si3 0.038023 0.185950 0.370813
Si Si4 0.372071 0.465470 0.242671
Si Si5 0.779888 0.104272 0.022610
Si Si6 0.664481 0.014772 0.203024
Si Si7 0.252850 0.177514 0.661049
Si Si8 0.808368 0.607330 0.785886
O O1 0.460287 0.087478 0.103762
O O2 0.222067 0.955684 0.139829
O O3 0.116379 0.045791 0.901652
O O4 0.332152 0.784409 0.008587
O O5 0.972451 0.865114 0.693924
O O6 0.763615 0.073159 0.720397
O O7 0.094599 0.155557 0.701004
O O8 0.145133 0.197388 0.515395
O O9 0.148278 0.065071 0.321759
O O10 0.821418 0.128054 0.312806
O O11 0.587695 0.530266 0.302004
O O12 0.341648 0.263840 0.260295
O O13 0.276667 0.501619 0.098310
O O14 0.994216 0.174913 0.098226
O O15 0.754842 0.987953 0.117073
O O16 0.639672 0.849201 0.267451
#
# Coordination Sequence:
#
# PCOD9116906 Si02
#       8
#     2   2   2   2   2   2   2   2
#     4  12  22  39  68 103 133 170 224 293 359 408
#     4  11  24  44  73 100 137 182 225 296 354 410
#     4  10  24  51  63  95 142 187 238 284 332 419
#     4  11  23  42  67 105 137 175 229 286 343 418
#     4  11  20  42  64 100 143 165 222 291 351 419
#     4  11  25  40  67 102 134 184 227 288 350 413
#     4  12  26  45  69  98 142 191 236 280 339 419
#     4  10  22  41  69  95 136 180 221 288 358 404
#
# _framework density 23.038012999999999
#
# number of rings (size 3 to 8) (size 9 to 14) (size 15 to 20)
#    0.000    1.000    6.250    1.500    3.500    2.000 
#    6.750    0.000    0.000    0.000    0.000    0.000 
#    0.000    0.000    0.000    0.000    0.000    0.000 
#
# Total GULP energy -89183.132090 kJ/mol
# GULP energy per Si atom -5573.945756 kJ/mol
# Density = 2.298558 g / cm^3
# Si number density = 23.038013 Si / 1000 Ang^3
#
#
#
# Elastic Constant Matrix: (Units=GPa)
#
#
# Indices 1 2 3 4 5 6 
#
# 1 68.5565 16.0945 33.8926 0.0000 -5.5031 0.0000
# 2 16.0945 33.3295 20.7547 0.0000 -2.2466 0.0000
# 3 33.8926 20.7547 135.9798 0.0000 -9.8002 0.0000
# 4 0.0000 0.0000 0.0000 20.9661 0.0000 -4.1589
# 5 -5.5031 -2.2466 -9.8002 0.0000 30.8302 0.0000
# 6 0.0000 0.0000 0.0000 -4.1589 0.0000 32.3292
#
#
#
# Elastic Compliance Matrix: (Units=1/GPa)
#
#
# Indices 1 2 3 4 5 6 
#
# 1 0.017890 -0.006437 -0.003357 0.000000 0.001657 0.000000
# 2 -0.006437 0.035491 -0.003796 0.000000 0.000231 0.000000
# 3 -0.003357 -0.003796 0.008911 0.000000 0.001957 0.000000
# 4 0.000000 0.000000 0.000000 0.048945 0.000000 0.006296
# 5 0.001657 0.000231 0.001957 0.000000 0.033370 0.000000
# 6 0.000000 0.000000 0.000000 0.006296 0.000000 0.031742
#
#
# Mechanical properties :
#
#
# Convention : Reuss Voigt Hill
#
# Bulk Modulus (GPa) = 28.47983 42.14991 35.31487
# Shear Modulus (GPa) = 23.23051 27.96671 25.59861
#
# Velocity S-wave (km/s) = 3.17891 3.48794 3.33700
# Velocity P-wave (km/s) = 5.08556 5.87848 5.49633
#
# Compressibility (1/GPa) = 0.03511256
#
# Stress axis : x y z
#
# Youngs Moduli (GPa) = 55.89596 28.17606 112.21778
#
# Poissons Ratio (x) = 0.18136 0.37674
# Poissons Ratio (y) = 0.35979 0.42599
# Poissons Ratio (z) = 0.18766 0.10696
#
# Static dielectric constant tensor:
#      x y z
#    x 2.072670 0.000000 -0.032020 
#    y 0.000000 1.971680 0.000000 
#    z -0.032020 0.000000 1.779380 
# 
# From -- ./inp_files/10902.got.cif
#   From: 2010.05.17/outbox.cif.g08.bks.cpg/sg4_6_cif.got.tgz:10902.got - 2010.06.03 18:43:04.
