data_PCOD9116675
_publ_section_title
;
Structure prediction by ZEFSAII (Michael W. Deem and Ramdas Pophale) SiO2 
 PCOD9116675
Probable space group: P 21
;
_chemical_formula_sum "Si O2"
_cell_formula_units_Z 16
_cell_length_a 5.291684
_cell_length_b 8.454326
_cell_length_c 14.274411
_cell_angle_alpha 90.000000
_cell_angle_beta 72.745705
_cell_angle_gamma 90.000000
_cell_volume 609.864593
_symmetry_space_group_name_H-M "P 21"
_symmetry_group_IT_number 4
_symmetry_cell_setting 'monoclinic'
loop_
_space_group_symop_operation_xyz
x,y,z
-x,1/2+y,-z
loop_
_atom_site_type_symbol
_atom_site_label
_atom_site_fract_x
_atom_site_fract_y
_atom_site_fract_z
Si Si1 0.673923 0.986400 0.164686
Si Si2 0.205863 0.838651 0.586066
Si Si3 0.212010 0.192980 0.497090
Si Si4 0.851546 0.829719 0.308961
Si Si5 0.475171 0.224660 0.059729
Si Si6 0.990021 0.430557 0.044432
Si Si7 0.319468 0.024537 0.751715
Si Si8 0.650956 0.175813 0.841958
O O1 0.571815 0.810905 0.152843
O O2 0.740070 0.981955 0.267292
O O3 0.461260 0.111209 0.150929
O O4 0.915493 0.004728 0.064377
O O5 0.193673 0.009713 0.532507
O O6 0.228580 0.886950 0.693216
O O7 0.482571 0.747683 0.539093
O O8 0.958286 0.734663 0.577001
O O9 0.085720 0.311988 0.589826
O O10 0.099877 0.774449 0.220307
O O11 0.655099 0.680468 0.315081
O O12 0.719623 0.340092 0.051858
O O13 0.209791 0.311688 0.060186
O O14 0.585732 0.132073 0.955821
O O15 0.901495 0.537026 0.142191
O O16 0.594159 0.028659 0.778753
#
# Coordination Sequence:
#
# PCOD9116675 Si02
#       8
#     2   2   2   2   2   2   2   2
#     4  10  23  40  61  95 137 176 230 275 333 408
#     4  11  26  50  75 108 139 186 237 301 364 428
#     4  11  26  48  78 104 144 180 240 300 365 427
#     4  10  22  42  72  98 127 186 228 279 337 421
#     4  11  25  40  61  96 145 179 219 284 338 388
#     4  11  25  41  63  99 134 184 225 279 336 401
#     4  10  25  42  72  95 134 180 237 272 340 426
#     4  10  22  39  68  95 128 189 234 270 327 411
#
# _framework density 26.235330999999999
#
# number of rings (size 3 to 8) (size 9 to 14) (size 15 to 20)
#    0.000    1.500    1.250    1.500   19.250    0.000 
#    6.750    0.000    0.000    0.000    0.000    0.000 
#    0.000    0.000    0.000    0.000    0.000    0.000 
#
# Total GULP energy -89384.043423 kJ/mol
# GULP energy per Si atom -5586.502714 kJ/mol
# Density = 2.617562 g / cm^3
# Si number density = 26.235331 Si / 1000 Ang^3
#
#
#
# Elastic Constant Matrix: (Units=GPa)
#
#
# Indices 1 2 3 4 5 6 
#
# 1 116.4239 29.7781 6.6934 0.0000 11.4171 0.0000
# 2 29.7781 57.1295 -5.7453 0.0000 -1.9834 0.0000
# 3 6.6934 -5.7453 53.0305 0.0000 9.4909 0.0000
# 4 0.0000 0.0000 0.0000 34.1166 0.0000 9.1882
# 5 11.4171 -1.9834 9.4909 0.0000 30.2853 0.0000
# 6 0.0000 0.0000 0.0000 9.1882 0.0000 37.4013
#
#
#
# Elastic Compliance Matrix: (Units=1/GPa)
#
#
# Indices 1 2 3 4 5 6 
#
# 1 0.010518 -0.005744 -0.001243 0.000000 -0.003952 0.000000
# 2 -0.005744 0.020844 0.002491 0.000000 0.002750 0.000000
# 3 -0.001243 0.002491 0.020310 0.000000 -0.005733 0.000000
# 4 0.000000 0.000000 0.000000 0.031388 0.000000 -0.007711
# 5 -0.003952 0.002750 -0.005733 0.000000 0.036486 0.000000
# 6 0.000000 0.000000 0.000000 -0.007711 0.000000 0.028631
#
#
# Mechanical properties :
#
#
# Convention : Reuss Voigt Hill
#
# Bulk Modulus (GPa) = 23.43014 32.00404 27.71709
# Shear Modulus (GPa) = 29.17237 33.41780 31.29509
#
# Velocity S-wave (km/s) = 3.33821 3.57286 3.45753
# Velocity P-wave (km/s) = 4.87938 5.40794 5.15044
#
# Compressibility (1/GPa) = 0.04268008
#
# Stress axis : x y z
#
# Youngs Moduli (GPa) = 95.07960 47.97492 49.23714
#
# Poissons Ratio (x) = 0.27558 0.06118
# Poissons Ratio (y) = 0.54616 -0.12266
# Poissons Ratio (z) = 0.11815 -0.11951
#
# Static dielectric constant tensor:
#      x y z
#    x 2.254260 0.000000 0.113160 
#    y 0.000000 2.103640 0.000000 
#    z 0.113160 0.000000 2.177590 
# 
# From -- ./inp_files/13252.got.cif
#   From: 2010.05.17/outbox.cif.g08.bks.cpg/sg4_7_cif.got.tgz:13252.got - 2010.06.03 18:43:04.
