data_PCOD9116735
_publ_section_title
;
Structure prediction by ZEFSAII (Michael W. Deem and Ramdas Pophale) SiO2 
 PCOD9116735
Probable space group: P 21
;
_chemical_formula_sum "Si O2"
_cell_formula_units_Z 16
_cell_length_a 18.312369
_cell_length_b 5.301528
_cell_length_c 6.976512
_cell_angle_alpha 90.000000
_cell_angle_beta 111.325567
_cell_angle_gamma 90.000000
_cell_volume 630.928775
_symmetry_space_group_name_H-M "P 21"
_symmetry_group_IT_number 4
_symmetry_cell_setting 'monoclinic'
loop_
_space_group_symop_operation_xyz
x,y,z
-x,1/2+y,-z
loop_
_atom_site_type_symbol
_atom_site_label
_atom_site_fract_x
_atom_site_fract_y
_atom_site_fract_z
Si Si1 0.457573 0.507420 0.393585
Si Si2 0.671653 0.365679 0.754525
Si Si3 0.834754 0.334677 0.397684
Si Si4 0.283449 0.207796 0.547526
Si Si5 0.874252 0.993178 0.749468
Si Si6 0.206793 0.512002 0.965104
Si Si7 0.635461 0.753013 0.001889
Si Si8 0.016088 0.905680 0.629508
O O1 0.487038 0.252729 0.525700
O O2 0.375407 0.630968 0.382414
O O3 0.434859 0.414851 0.157356
O O4 0.679140 0.571203 0.597964
O O5 0.754803 0.260771 0.901554
O O6 0.627452 0.474289 0.900837
O O7 0.757820 0.490656 0.363519
O O8 0.891609 0.471356 0.298486
O O9 0.869848 0.267747 0.640855
O O10 0.815902 0.076590 0.271387
O O11 0.208408 0.366168 0.398181
O O12 0.348755 0.303911 0.759859
O O13 0.957050 0.888619 0.751073
O O14 0.866763 0.962159 0.969473
O O15 0.280968 0.330613 0.016724
O O16 0.016569 0.631774 0.532223
#
# Coordination Sequence:
#
# PCOD9116735 Si02
#       8
#     2   2   2   2   2   2   2   2
#     4  11  24  48  78 100 141 192 214 268 345 410
#     4  11  23  40  72 105 138 173 230 276 341 408
#     4  11  22  39  62  95 138 183 231 293 347 403
#     4  12  22  40  68 104 136 176 228 292 340 394
#     4  11  22  39  62  95 138 183 231 293 347 403
#     4  11  22  38  62 102 133 176 230 294 341 406
#     4  11  23  40  72 105 138 173 230 276 341 408
#     4  10  22  40  64  92 132 192 236 282 352 418
#
# _framework density 25.359439999999999
#
# number of rings (size 3 to 8) (size 9 to 14) (size 15 to 20)
#    0.000    1.000    7.500    0.000    0.000    0.000 
#    0.000    7.500    5.500    0.000    0.000    0.000 
#    0.000    0.000    0.000    0.000    0.000    0.000 
#
# Total GULP energy -89221.986273 kJ/mol
# GULP energy per Si atom -5576.374142 kJ/mol
# Density = 2.530172 g / cm^3
# Si number density = 25.359440 Si / 1000 Ang^3
#
#
#
# Elastic Constant Matrix: (Units=GPa)
#
#
# Indices 1 2 3 4 5 6 
#
# 1 33.1374 -0.3863 -15.1779 0.0000 -10.2662 0.0000
# 2 -0.3863 76.5291 8.0438 0.0000 1.1145 0.0000
# 3 -15.1779 8.0438 68.3130 0.0000 -20.4284 0.0000
# 4 0.0000 0.0000 0.0000 30.3118 0.0000 4.3844
# 5 -10.2662 1.1145 -20.4284 0.0000 9.1760 0.0000
# 6 0.0000 0.0000 0.0000 4.3844 0.0000 34.7133
#
#
#
# Elastic Compliance Matrix: (Units=1/GPa)
#
#
# Indices 1 2 3 4 5 6 
#
# 1 -0.021538 0.005537 -0.038429 0.000000 -0.110323 0.000000
# 2 0.005537 0.012554 0.003436 0.000000 0.012320 0.000000
# 3 -0.038429 0.003436 -0.021799 0.000000 -0.091942 0.000000
# 4 0.000000 0.000000 0.000000 0.033604 0.000000 -0.004244
# 5 -0.110323 0.012320 -0.091942 0.000000 -0.220635 0.000000
# 6 0.000000 0.000000 0.000000 -0.004244 0.000000 0.029344
#
#
# Mechanical properties :
#
#
# Convention : Reuss Voigt Hill
#
# Bulk Modulus (GPa) = -11.14909 18.10429 3.47760
# Shear Modulus (GPa) = -31.35632 27.20688 -2.07472
#
# Velocity S-wave (km/s) = -3.52017 3.27899 -0.90548
# Velocity P-wave (km/s) = 4.57472 4.63576 0.53019
#
# Compressibility (1/GPa) = -0.08969338
#
# Stress axis : x y z
#
# Youngs Moduli (GPa) = -46.42866 79.65407 -45.87440
#
# Poissons Ratio (x) = -0.44105 -1.76289
# Poissons Ratio (y) = 0.25708 0.15763
# Poissons Ratio (z) = -1.78419 -0.27371
#
# Static dielectric constant tensor:
#      x y z
#    x 2.136590 0.000000 0.044000 
#    y 0.000000 2.100990 0.000000 
#    z 0.044000 0.000000 2.024720 
# 
# From -- ./inp_files/4326.got.cif
#   From: 2010.05.17/outbox.cif.g08.bks.cpg/sg4_3_cif.got.tgz:4326.got - 2010.06.03 18:43:04.
