data_PCOD9116299
_publ_section_title
;
Structure prediction by ZEFSAII (Michael W. Deem and Ramdas Pophale) SiO2 
 PCOD9116299
Probable space group: P 21
;
_chemical_formula_sum "Si O2"
_cell_formula_units_Z 14
_cell_length_a 11.074409
_cell_length_b 5.826492
_cell_length_c 16.328579
_cell_angle_alpha 90.000000
_cell_angle_beta 29.450740
_cell_angle_gamma 90.000000
_cell_volume 518.029285
_symmetry_space_group_name_H-M "P 21"
_symmetry_group_IT_number 4
_symmetry_cell_setting 'monoclinic'
loop_
_space_group_symop_operation_xyz
x,y,z
-x,1/2+y,-z
loop_
_atom_site_type_symbol
_atom_site_label
_atom_site_fract_x
_atom_site_fract_y
_atom_site_fract_z
Si Si1 0.840675 0.236780 0.565095
Si Si2 0.209108 0.457494 0.623501
Si Si3 0.230829 0.995662 0.238047
Si Si4 0.932318 0.754542 0.129845
Si Si5 0.215906 0.419668 0.073540
Si Si6 0.646915 0.568808 0.147422
Si Si7 0.769888 0.457615 0.449451
O O1 0.823886 0.281538 0.670055
O O2 0.640414 0.039087 0.667798
O O3 0.741998 0.436890 0.563531
O O4 0.099853 0.181211 0.373633
O O5 0.935069 0.462083 0.744170
O O6 0.178450 0.432679 0.739022
O O7 0.324088 0.705832 0.530954
O O8 0.315376 0.210539 0.529996
O O9 0.520883 0.034119 0.059508
O O10 0.762596 0.715220 0.153017
O O11 0.011173 0.533909 0.135166
O O12 0.196315 0.841487 0.944510
O O13 0.302179 0.201149 0.968443
O O14 0.054392 0.429264 0.251132
#
# Coordination Sequence:
#
# PCOD9116299 Si02
#       7
#     2   2   2   2   2   2   2
#     4  10  23  40  66 100 143 176 237 289 373 418
#     4  10  22  40  67  93 137 175 228 284 344 414
#     4  10  22  41  62 102 135 184 224 294 356 438
#     4  11  22  41  69  97 132 184 242 295 343 425
#     4  10  22  40  67  95 132 182 233 286 351 422
#     4  11  22  42  67  97 132 183 237 300 346 420
#     4  10  21  42  62  98 133 178 227 280 343 427
#
# _framework density 27.025500999999998
#
# number of rings (size 3 to 8) (size 9 to 14) (size 15 to 20)
#    0.000    1.714    2.857    0.857    2.000    4.571 
#    5.143    5.714    0.000    0.000    0.000    0.000 
#    0.000    0.000    0.000    0.000    0.000    0.000 
#
# Total GULP energy -78124.171843 kJ/mol
# GULP energy per Si atom -5580.297989 kJ/mol
# Density = 2.696399 g / cm^3
# Si number density = 27.025501 Si / 1000 Ang^3
#
#
#
# Elastic Constant Matrix: (Units=GPa)
#
#
# Indices 1 2 3 4 5 6 
#
# 1 120.6804 12.1961 30.6744 0.0000 15.1335 0.0000
# 2 12.1961 117.1509 11.3340 0.0000 0.4100 0.0000
# 3 30.6744 11.3340 99.0480 0.0000 -2.9197 0.0000
# 4 0.0000 0.0000 0.0000 34.1161 0.0000 5.7359
# 5 15.1335 0.4100 -2.9197 0.0000 41.4202 0.0000
# 6 0.0000 0.0000 0.0000 5.7359 0.0000 30.5552
#
#
#
# Elastic Compliance Matrix: (Units=1/GPa)
#
#
# Indices 1 2 3 4 5 6 
#
# 1 0.009583 -0.000695 -0.002998 0.000000 -0.003706 0.000000
# 2 -0.000695 0.008683 -0.000775 0.000000 0.000113 0.000000
# 3 -0.002998 -0.000775 0.011169 0.000000 0.001890 0.000000
# 4 0.000000 0.000000 0.000000 0.030267 0.000000 -0.005682
# 5 -0.003706 0.000113 0.001890 0.000000 0.025629 0.000000
# 6 0.000000 0.000000 0.000000 -0.005682 0.000000 0.033794
#
#
# Mechanical properties :
#
#
# Convention : Reuss Voigt Hill
#
# Bulk Modulus (GPa) = 48.77999 49.47647 49.12823
# Shear Modulus (GPa) = 37.06637 40.06329 38.56483
#
# Velocity S-wave (km/s) = 3.70744 3.85440 3.78164
# Velocity P-wave (km/s) = 6.03453 6.17703 6.10620
#
# Compressibility (1/GPa) = 0.02050021
#
# Stress axis : x y z
#
# Youngs Moduli (GPa) = 104.34940 115.16873 89.53465
#
# Poissons Ratio (x) = 0.08001 0.26839
# Poissons Ratio (y) = 0.07249 0.06940
# Poissons Ratio (z) = 0.31280 0.08927
#
# Static dielectric constant tensor:
#      x y z
#    x 2.118350 0.000000 -0.006870 
#    y 0.000000 2.339390 0.000000 
#    z -0.006870 0.000000 2.102600 
# 
# From -- ./inp_files/15018.got.cif
#   From: 2010.05.17/outbox.cif.g08.bks.cpg/sg4_8_cif.got.tgz:15018.got - 2010.06.03 18:43:04.
