data_PCOD9116656
_publ_section_title
;
Structure prediction by ZEFSAII (Michael W. Deem and Ramdas Pophale) SiO2 
 PCOD9116656
Probable space group: P 21
;
_chemical_formula_sum "Si O2"
_cell_formula_units_Z 16
_cell_length_a 24.412546
_cell_length_b 5.027848
_cell_length_c 14.542330
_cell_angle_alpha 90.000000
_cell_angle_beta 22.178285
_cell_angle_gamma 90.000000
_cell_volume 673.805414
_symmetry_space_group_name_H-M "P 21"
_symmetry_group_IT_number 4
_symmetry_cell_setting 'monoclinic'
loop_
_space_group_symop_operation_xyz
x,y,z
-x,1/2+y,-z
loop_
_atom_site_type_symbol
_atom_site_label
_atom_site_fract_x
_atom_site_fract_y
_atom_site_fract_z
Si Si1 0.158242 0.219680 0.560582
Si Si2 0.165852 0.476317 0.920107
Si Si3 0.461335 0.978586 0.113388
Si Si4 0.752884 0.077156 0.744145
Si Si5 0.905982 0.019110 0.161994
Si Si6 0.821575 0.254955 0.843076
Si Si7 0.406250 0.797357 0.656192
Si Si8 0.045818 0.245240 0.265986
O O1 0.200502 0.327002 0.392999
O O2 0.153610 0.455787 0.644809
O O3 0.292454 0.039992 0.387026
O O4 0.993873 0.112002 0.821513
O O5 0.137541 0.218470 0.029140
O O6 0.194244 0.437235 0.768507
O O7 0.290266 0.658669 0.769196
O O8 0.488549 0.669383 0.049672
O O9 0.579729 0.079430 0.002916
O O10 0.786946 0.143433 0.796717
O O11 0.875204 0.271597 0.510609
O O12 0.043685 0.821798 0.930621
O O13 0.922606 0.508877 0.710255
O O14 0.894994 0.010803 0.781091
O O15 0.672732 0.333371 0.123945
O O16 0.530643 0.576057 0.474156
#
# Coordination Sequence:
#
# PCOD9116656 Si02
#       8
#     2   2   2   2   2   2   2   2
#     4  10  22  43  66  96 128 170 218 263 318 389
#     4  10  22  42  69  93 127 173 212 269 324 369
#     4  10  23  40  60  89 123 163 210 254 311 381
#     4  11  22  40  65  93 133 171 202 265 328 368
#     4  10  22  39  64  97 125 160 220 269 312 378
#     4  11  25  41  64  97 126 165 218 258 312 394
#     4  11  24  43  63  91 125 161 209 262 317 381
#     4  11  22  40  65  96 127 165 215 260 310 384
#
# _framework density 23.745728
#
# number of rings (size 3 to 8) (size 9 to 14) (size 15 to 20)
#    0.000    1.500    0.000    5.250    0.000   12.000 
#    0.000    7.500    0.000    0.000    0.000    0.000 
#    0.000    0.000    0.000    0.000    0.000    0.000 
#
# Total GULP energy -89241.962641 kJ/mol
# GULP energy per Si atom -5577.622665 kJ/mol
# Density = 2.369168 g / cm^3
# Si number density = 23.745728 Si / 1000 Ang^3
#
#
#
# Elastic Constant Matrix: (Units=GPa)
#
#
# Indices 1 2 3 4 5 6 
#
# 1 124.6443 10.5781 22.8746 0.0000 -6.5132 0.0000
# 2 10.5781 76.0731 11.8843 0.0000 -3.2759 0.0000
# 3 22.8746 11.8843 111.6944 0.0000 -17.3791 0.0000
# 4 0.0000 0.0000 0.0000 35.1609 0.0000 -3.7054
# 5 -6.5132 -3.2759 -17.3791 0.0000 31.3450 0.0000
# 6 0.0000 0.0000 0.0000 -3.7054 0.0000 15.3255
#
#
#
# Elastic Compliance Matrix: (Units=1/GPa)
#
#
# Indices 1 2 3 4 5 6 
#
# 1 0.008418 -0.000901 -0.001500 0.000000 0.000823 0.000000
# 2 -0.000901 0.013477 -0.001159 0.000000 0.000578 0.000000
# 3 -0.001500 -0.001159 0.010196 0.000000 0.005220 0.000000
# 4 0.000000 0.000000 0.000000 0.029184 0.000000 0.007056
# 5 0.000823 0.000578 0.005220 0.000000 0.035029 0.000000
# 6 0.000000 0.000000 0.000000 0.007056 0.000000 0.066957
#
#
# Mechanical properties :
#
#
# Convention : Reuss Voigt Hill
#
# Bulk Modulus (GPa) = 40.04855 44.78731 42.41793
# Shear Modulus (GPa) = 27.97939 34.17127 31.07533
#
# Velocity S-wave (km/s) = 3.43635 3.79760 3.62148
# Velocity P-wave (km/s) = 5.71374 6.17504 5.94886
#
# Compressibility (1/GPa) = 0.02496969
#
# Stress axis : x y z
#
# Youngs Moduli (GPa) = 118.79924 74.20303 98.07989
#
# Poissons Ratio (x) = 0.06683 0.14711
# Poissons Ratio (y) = 0.10700 0.11372
# Poissons Ratio (z) = 0.17819 0.08603
#
# Static dielectric constant tensor:
#      x y z
#    x 2.029270 0.000000 0.025580 
#    y 0.000000 1.956330 0.000000 
#    z 0.025580 0.000000 1.940490 
# 
# From -- ./inp_files/14517.got.cif
#   From: 2010.05.17/outbox.cif.g08.bks.cpg/sg4_8_cif.got.tgz:14517.got - 2010.06.03 18:43:04.
