data_PCOD9116958
_publ_section_title
;
Structure prediction by ZEFSAII (Michael W. Deem and Ramdas Pophale) SiO2 
 PCOD9116958
Probable space group: P 21
;
_chemical_formula_sum "Si O2"
_cell_formula_units_Z 16
_cell_length_a 6.591945
_cell_length_b 8.413066
_cell_length_c 18.234696
_cell_angle_alpha 90.000000
_cell_angle_beta 42.842386
_cell_angle_gamma 90.000000
_cell_volume 687.646184
_symmetry_space_group_name_H-M "P 21"
_symmetry_group_IT_number 4
_symmetry_cell_setting 'monoclinic'
loop_
_space_group_symop_operation_xyz
x,y,z
-x,1/2+y,-z
loop_
_atom_site_type_symbol
_atom_site_label
_atom_site_fract_x
_atom_site_fract_y
_atom_site_fract_z
Si Si1 0.834772 0.209000 0.259385
Si Si2 0.421066 0.171951 0.857397
Si Si3 0.749670 0.078048 0.492735
Si Si4 0.369515 0.440382 0.072667
Si Si5 0.229610 0.885526 0.573531
Si Si6 0.228964 0.004004 0.243945
Si Si7 0.596494 0.939191 0.691199
Si Si8 0.739398 0.170541 0.030752
O O1 0.739062 0.275465 0.363808
O O2 0.560820 0.269357 0.281947
O O3 0.099277 0.321363 0.160378
O O4 0.988641 0.040677 0.240809
O O5 0.605571 0.334497 0.798203
O O6 0.586018 0.074083 0.877447
O O7 0.401033 0.067229 0.787687
O O8 0.073303 0.191198 0.971667
O O9 0.467210 0.021322 0.519618
O O10 0.707219 0.002718 0.583269
O O11 0.042880 0.029015 0.368665
O O12 0.731529 0.267941 0.504773
O O13 0.656986 0.328134 0.006727
O O14 0.311542 0.523760 0.011074
O O15 0.891187 0.936573 0.661806
O O16 0.489389 0.133414 0.158390
#
# Coordination Sequence:
#
# PCOD9116958 Si02
#       8
#     2   2   2   2   2   2   2   2
#     4   9  20  44  64  92 137 185 224 290 351 418
#     4  12  24  42  73 105 138 181 239 303 350 439
#     4  10  25  43  67 100 140 182 231 289 352 417
#     4  11  22  42  68  96 138 180 232 285 368 414
#     4  10  22  42  66  97 134 183 225 285 348 413
#     4  10  24  44  66 102 146 183 243 293 355 426
#     4  11  23  40  76 100 139 184 238 287 366 426
#     4  11  24  45  68 102 138 188 234 298 358 427
#
# _framework density 23.267778
#
# number of rings (size 3 to 8) (size 9 to 14) (size 15 to 20)
#    0.000    1.500    2.500    1.500    3.500    2.000 
#    2.250    8.750    0.000    0.000    0.000    0.000 
#    0.000    0.000    0.000    0.000    0.000    0.000 
#
# Total GULP energy -89287.143723 kJ/mol
# GULP energy per Si atom -5580.446483 kJ/mol
# Density = 2.321482 g / cm^3
# Si number density = 23.267778 Si / 1000 Ang^3
#
#
#
# Elastic Constant Matrix: (Units=GPa)
#
#
# Indices 1 2 3 4 5 6 
#
# 1 83.2661 24.1113 48.9055 0.0000 -2.9805 0.0000
# 2 24.1113 36.8075 1.7332 0.0000 2.0250 0.0000
# 3 48.9055 1.7332 87.5892 0.0000 -1.7568 0.0000
# 4 0.0000 0.0000 0.0000 32.0441 0.0000 -7.1357
# 5 -2.9805 2.0250 -1.7568 0.0000 41.0509 0.0000
# 6 0.0000 0.0000 0.0000 -7.1357 0.0000 45.1242
#
#
#
# Elastic Compliance Matrix: (Units=1/GPa)
#
#
# Indices 1 2 3 4 5 6 
#
# 1 0.024314 -0.015412 -0.013232 0.000000 0.001959 0.000000
# 2 -0.015412 0.037040 0.007820 0.000000 -0.002611 0.000000
# 3 -0.013232 0.007820 0.018639 0.000000 -0.000549 0.000000
# 4 0.000000 0.000000 0.000000 0.032346 0.000000 0.005115
# 5 0.001959 -0.002611 -0.000549 0.000000 0.024608 0.000000
# 6 0.000000 0.000000 0.000000 0.005115 0.000000 0.022970
#
#
# Mechanical properties :
#
#
# Convention : Reuss Voigt Hill
#
# Bulk Modulus (GPa) = 26.07853 39.68474 32.88163
# Shear Modulus (GPa) = 23.32686 32.50470 27.91578
#
# Velocity S-wave (km/s) = 3.16972 3.74168 3.46751
# Velocity P-wave (km/s) = 4.96272 5.97993 5.49491
#
# Compressibility (1/GPa) = 0.03834572
#
# Stress axis : x y z
#
# Youngs Moduli (GPa) = 41.12846 26.99808 53.65088
#
# Poissons Ratio (x) = 0.41610 0.70988
# Poissons Ratio (y) = 0.63387 -0.41955
# Poissons Ratio (z) = 0.54419 -0.21113
#
# Static dielectric constant tensor:
#      x y z
#    x 1.937490 0.000000 -0.038180 
#    y 0.000000 1.899180 0.000000 
#    z -0.038180 0.000000 1.936250 
# 
# From -- ./inp_files/3727.got.cif
#   From: 2010.05.17/outbox.cif.g08.bks.cpg/sg4_2_cif.got.tgz:3727.got - 2010.06.03 18:43:04.
