data_PCOD9116363
_publ_section_title
;
Structure prediction by ZEFSAII (Michael W. Deem and Ramdas Pophale) SiO2 
 PCOD9116363
Probable space group: P 21
;
_chemical_formula_sum "Si O2"
_cell_formula_units_Z 14
_cell_length_a 11.208541
_cell_length_b 10.615742
_cell_length_c 4.969028
_cell_angle_alpha 90.000000
_cell_angle_beta 115.079216
_cell_angle_gamma 90.000000
_cell_volume 535.508165
_symmetry_space_group_name_H-M "P 21"
_symmetry_group_IT_number 4
_symmetry_cell_setting 'monoclinic'
loop_
_space_group_symop_operation_xyz
x,y,z
-x,1/2+y,-z
loop_
_atom_site_type_symbol
_atom_site_label
_atom_site_fract_x
_atom_site_fract_y
_atom_site_fract_z
Si Si1 0.665569 0.464320 0.647239
Si Si2 0.854550 0.630696 0.556161
Si Si3 0.484794 0.625769 0.764633
Si Si4 0.852048 0.797388 0.088955
Si Si5 0.904063 0.181753 0.539004
Si Si6 0.262061 0.696015 0.130322
Si Si7 0.582210 0.891680 0.920988
O O1 0.757125 0.516320 0.500493
O O2 0.627612 0.580140 0.798457
O O3 0.737960 0.347314 0.844025
O O4 0.524168 0.421256 0.409893
O O5 0.795504 0.737327 0.309016
O O6 0.988105 0.599804 0.520218
O O7 0.869757 0.701735 0.856152
O O8 0.393995 0.654364 0.415126
O O9 0.517803 0.756610 0.952846
O O10 0.430957 0.506812 0.882726
O O11 0.006927 0.808903 0.325784
O O12 0.729589 0.891347 0.929797
O O13 0.850967 0.142445 0.778036
O O14 0.779802 0.181167 0.219571
#
# Coordination Sequence:
#
# PCOD9116363 Si02
#       7
#     2   2   2   2   2   2   2
#     4  11  26  42  74 106 149 203 253 322 389 455
#     4  10  21  44  73  98 144 193 251 303 381 450
#     4  11  27  46  77 112 154 207 257 328 393 464
#     4  10  21  42  74 101 145 194 248 308 374 453
#     4  10  22  48  68 103 150 196 253 311 380 455
#     4  11  26  46  72 108 152 194 256 316 381 457
#     4  11  25  46  76 112 154 203 260 322 392 464
#
# _framework density 26.143391000000001
#
# number of rings (size 3 to 8) (size 9 to 14) (size 15 to 20)
#    0.857    0.571    2.857    0.857    8.000    1.143 
#    5.143    0.000    0.000    0.000    0.000    0.000 
#    0.000    0.000    0.000    0.000    0.000    0.000 
#
# Total GULP energy -77997.816087 kJ/mol
# GULP energy per Si atom -5571.272578 kJ/mol
# Density = 2.608389 g / cm^3
# Si number density = 26.143391 Si / 1000 Ang^3
#
#
#
# Elastic Constant Matrix: (Units=GPa)
#
#
# Indices 1 2 3 4 5 6 
#
# 1 120.9714 41.4792 21.6234 0.0000 12.7448 0.0000
# 2 41.4792 92.0575 16.0341 0.0000 3.9409 0.0000
# 3 21.6234 16.0341 125.2520 0.0000 1.3928 0.0000
# 4 0.0000 0.0000 0.0000 24.0368 0.0000 1.9120
# 5 12.7448 3.9409 1.3928 0.0000 31.6678 0.0000
# 6 0.0000 0.0000 0.0000 1.9120 0.0000 43.9577
#
#
#
# Elastic Compliance Matrix: (Units=1/GPa)
#
#
# Indices 1 2 3 4 5 6 
#
# 1 0.010328 -0.004293 -0.001194 0.000000 -0.003570 0.000000
# 2 -0.004293 0.012950 -0.000918 0.000000 0.000156 0.000000
# 3 -0.001194 -0.000918 0.008305 0.000000 0.000229 0.000000
# 4 0.000000 0.000000 0.000000 0.041747 0.000000 -0.001816
# 5 -0.003570 0.000156 0.000229 0.000000 0.032985 0.000000
# 6 0.000000 0.000000 0.000000 -0.001816 0.000000 0.022828
#
#
# Mechanical properties :
#
#
# Convention : Reuss Voigt Hill
#
# Bulk Modulus (GPa) = 53.26759 55.17272 54.22016
# Shear Modulus (GPa) = 33.73565 37.20872 35.47218
#
# Velocity S-wave (km/s) = 3.59612 3.77670 3.68752
# Velocity P-wave (km/s) = 6.13695 6.33779 6.23818
#
# Compressibility (1/GPa) = 0.01877314
#
# Stress axis : x y z
#
# Youngs Moduli (GPa) = 96.82596 77.21841 120.40912
#
# Poissons Ratio (x) = 0.33148 0.14374
# Poissons Ratio (y) = 0.41565 0.11059
# Poissons Ratio (z) = 0.11559 0.07092
#
# Static dielectric constant tensor:
#      x y z
#    x 2.143170 0.000000 0.066440 
#    y 0.000000 2.186980 0.000000 
#    z 0.066440 0.000000 2.072020 
# 
# From -- ./inp_files/3105.got.cif
#   From: 2010.05.17/outbox.cif.g08.bks.cpg/sg4_2_cif.got.tgz:3105.got - 2010.06.03 18:43:04.
