data_PCOD9116419
_publ_section_title
;
Structure prediction by ZEFSAII (Michael W. Deem and Ramdas Pophale) SiO2 
 PCOD9116419
Probable space group: P 21
;
_chemical_formula_sum "Si O2"
_cell_formula_units_Z 16
_cell_length_a 8.398272
_cell_length_b 7.536343
_cell_length_c 11.067866
_cell_angle_alpha 90.000000
_cell_angle_beta 121.836965
_cell_angle_gamma 90.000000
_cell_volume 595.120253
_symmetry_space_group_name_H-M "P 21"
_symmetry_group_IT_number 4
_symmetry_cell_setting 'monoclinic'
loop_
_space_group_symop_operation_xyz
x,y,z
-x,1/2+y,-z
loop_
_atom_site_type_symbol
_atom_site_label
_atom_site_fract_x
_atom_site_fract_y
_atom_site_fract_z
Si Si1 0.969382 0.342330 0.686372
Si Si2 0.396884 0.750941 0.758634
Si Si3 0.587263 0.204462 0.605431
Si Si4 0.845110 0.266111 0.096927
Si Si5 0.744760 0.679200 0.046582
Si Si6 0.508147 0.149471 0.822292
Si Si7 0.095958 0.536281 0.506785
Si Si8 0.231124 0.319036 0.348024
O O1 0.753968 0.333011 0.634584
O O2 0.017786 0.163414 0.628767
O O3 0.092379 0.319957 0.856792
O O4 0.006212 0.485607 0.597948
O O5 0.265846 0.723882 0.823849
O O6 0.285839 0.644239 0.612879
O O7 0.419095 0.961075 0.750742
O O8 0.607689 0.697606 0.877907
O O9 0.502200 0.263625 0.699664
O O10 0.414686 0.204777 0.445072
O O11 0.688076 0.012323 0.660326
O O12 0.819810 0.478744 0.071362
O O13 0.066814 0.238186 0.200453
O O14 0.726376 0.159153 0.949888
O O15 0.606444 0.711695 0.106736
O O16 0.134611 0.367281 0.438127
#
# Coordination Sequence:
#
# PCOD9116419 Si02
#       8
#     2   2   2   2   2   2   2   2
#     4  11  25  44  69 104 139 183 240 299 350 424
#     4  10  24  40  73 105 130 180 236 291 350 416
#     4  11  26  46  66 103 143 188 234 290 363 430
#     4  10  21  46  67  99 139 176 237 298 335 427
#     4  10  21  43  68  98 135 175 237 292 344 416
#     4  10  24  43  71  99 138 184 229 290 360 420
#     4  11  24  43  71 102 138 187 241 298 352 421
#     4  11  25  47  65 100 144 187 236 294 354 426
#
# _framework density 26.885321000000001
#
# number of rings (size 3 to 8) (size 9 to 14) (size 15 to 20)
#    0.000    1.500    2.500    1.500   14.000    2.000 
#    2.250    0.000    0.000    0.000    0.000    0.000 
#    0.000    0.000    0.000    0.000    0.000    0.000 
#
# Total GULP energy -89601.432110 kJ/mol
# GULP energy per Si atom -5600.089507 kJ/mol
# Density = 2.682413 g / cm^3
# Si number density = 26.885321 Si / 1000 Ang^3
#
#
#
# Elastic Constant Matrix: (Units=GPa)
#
#
# Indices 1 2 3 4 5 6 
#
# 1 72.0858 12.3848 25.3133 0.0000 15.2821 0.0000
# 2 12.3848 69.1470 27.4381 0.0000 10.8424 0.0000
# 3 25.3133 27.4381 148.2698 0.0000 54.4367 0.0000
# 4 0.0000 0.0000 0.0000 47.8253 0.0000 13.9670
# 5 15.2821 10.8424 54.4367 0.0000 47.8916 0.0000
# 6 0.0000 0.0000 0.0000 13.9670 0.0000 33.8749
#
#
#
# Elastic Compliance Matrix: (Units=1/GPa)
#
#
# Indices 1 2 3 4 5 6 
#
# 1 0.015246 -0.001794 -0.001088 0.000000 -0.003222 0.000000
# 2 -0.001794 0.015824 -0.002603 0.000000 -0.000051 0.000000
# 3 -0.001088 -0.002603 0.012130 0.000000 -0.012852 0.000000
# 4 0.000000 0.000000 0.000000 0.023772 0.000000 -0.009801
# 5 -0.003222 -0.000051 -0.012852 0.000000 0.036528 0.000000
# 6 0.000000 0.000000 0.000000 -0.009801 0.000000 0.033562
#
#
# Mechanical properties :
#
#
# Convention : Reuss Voigt Hill
#
# Bulk Modulus (GPa) = 31.02663 46.64167 38.83415
# Shear Modulus (GPa) = 31.49104 40.87612 36.18358
#
# Velocity S-wave (km/s) = 3.42615 3.90345 3.67256
# Velocity P-wave (km/s) = 5.21697 6.14019 5.69731
#
# Compressibility (1/GPa) = 0.03223038
#
# Stress axis : x y z
#
# Youngs Moduli (GPa) = 65.59250 63.19412 82.43768
#
# Poissons Ratio (x) = 0.11335 0.08968
# Poissons Ratio (y) = 0.11765 0.21462
# Poissons Ratio (z) = 0.07135 0.16452
#
# Static dielectric constant tensor:
#      x y z
#    x 2.107690 0.000000 -0.001100 
#    y 0.000000 2.161340 0.000000 
#    z -0.001100 0.000000 2.064760 
# 
# From -- ./inp_files/11083.got.cif
#   From: 2010.05.17/outbox.cif.g08.bks.cpg/sg4_6_cif.got.tgz:11083.got - 2010.06.03 18:43:04.
