data_PCOD9116746
_publ_section_title
;
Structure prediction by ZEFSAII (Michael W. Deem and Ramdas Pophale) SiO2 
 PCOD9116746
Probable space group: P 21
;
_chemical_formula_sum "Si O2"
_cell_formula_units_Z 16
_cell_length_a 8.269725
_cell_length_b 12.028818
_cell_length_c 7.199593
_cell_angle_alpha 90.000000
_cell_angle_beta 72.297512
_cell_angle_gamma 90.000000
_cell_volume 682.267297
_symmetry_space_group_name_H-M "P 21"
_symmetry_group_IT_number 4
_symmetry_cell_setting 'monoclinic'
loop_
_space_group_symop_operation_xyz
x,y,z
-x,1/2+y,-z
loop_
_atom_site_type_symbol
_atom_site_label
_atom_site_fract_x
_atom_site_fract_y
_atom_site_fract_z
Si Si1 0.539315 0.366980 0.106511
Si Si2 0.146175 0.823573 0.575033
Si Si3 0.680824 0.537100 0.343005
Si Si4 0.848420 0.009029 0.359619
Si Si5 0.897610 0.321664 0.820741
Si Si6 0.574394 0.165553 0.337171
Si Si7 0.985997 0.615700 0.001670
Si Si8 0.826706 0.942411 0.795948
O O1 0.559672 0.452157 0.272955
O O2 0.528478 0.236739 0.171403
O O3 0.360325 0.401793 0.083085
O O4 0.718488 0.378827 0.936666
O O5 0.128327 0.776095 0.375763
O O6 0.291678 0.749743 0.615332
O O7 0.960752 0.841618 0.727579
O O8 0.215109 0.952158 0.559777
O O9 0.590217 0.634127 0.488074
O O10 0.801133 0.594399 0.148236
O O11 0.824686 0.998480 0.589073
O O12 0.935111 0.896213 0.259798
O O13 0.678541 0.049801 0.314540
O O14 0.987909 0.094490 0.225534
O O15 0.936166 0.230862 0.960146
O O16 0.096369 0.525768 0.080619
#
# Coordination Sequence:
#
# PCOD9116746 Si02
#       8
#     2   2   2   2   2   2   2   2
#     4  11  22  41  60  93 130 161 218 266 311 386
#     4   9  23  42  63  90 128 168 213 262 324 389
#     4  10  22  40  65  91 126 165 213 264 320 382
#     4  11  22  41  66  92 130 168 210 264 323 381
#     4  11  23  40  64  95 128 166 220 264 319 387
#     4  11  22  41  66  91 126 172 212 263 327 380
#     4  11  23  42  68  94 127 173 211 263 326 381
#     4  10  23  43  64  94 131 167 211 270 316 382
#
# _framework density 23.451218999999998
#
# number of rings (size 3 to 8) (size 9 to 14) (size 15 to 20)
#    0.000    1.500    3.750    0.750    3.500    1.000 
#    0.000    1.250    0.000    0.000    0.000    0.000 
#    0.000    0.000    0.000    0.000    0.000    0.000 
#
# Total GULP energy -89261.749875 kJ/mol
# GULP energy per Si atom -5578.859367 kJ/mol
# Density = 2.339784 g / cm^3
# Si number density = 23.451219 Si / 1000 Ang^3
#
#
#
# Elastic Constant Matrix: (Units=GPa)
#
#
# Indices 1 2 3 4 5 6 
#
# 1 71.5678 22.5601 13.7836 0.0000 -18.7331 0.0000
# 2 22.5601 48.6700 13.1351 0.0000 -7.3064 0.0000
# 3 13.7836 13.1351 88.7516 0.0000 -11.7263 0.0000
# 4 0.0000 0.0000 0.0000 32.6999 0.0000 -3.6725
# 5 -18.7331 -7.3064 -11.7263 0.0000 38.8933 0.0000
# 6 0.0000 0.0000 0.0000 -3.6725 0.0000 29.3056
#
#
#
# Elastic Compliance Matrix: (Units=1/GPa)
#
#
# Indices 1 2 3 4 5 6 
#
# 1 0.018278 -0.007168 -0.000825 0.000000 0.007208 0.000000
# 2 -0.007168 0.024600 -0.002472 0.000000 0.000424 0.000000
# 3 -0.000825 -0.002472 0.012131 0.000000 0.002796 0.000000
# 4 0.000000 0.000000 0.000000 0.031018 0.000000 0.003887
# 5 0.007208 0.000424 0.002796 0.000000 0.030106 0.000000
# 6 0.000000 0.000000 0.000000 0.003887 0.000000 0.034610
#
#
# Mechanical properties :
#
#
# Convention : Reuss Voigt Hill
#
# Bulk Modulus (GPa) = 29.34345 34.21631 31.77988
# Shear Modulus (GPa) = 27.31783 30.81381 29.06582
#
# Velocity S-wave (km/s) = 3.41673 3.62878 3.52435
# Velocity P-wave (km/s) = 5.30143 5.67270 5.49020
#
# Compressibility (1/GPa) = 0.03407916
#
# Stress axis : x y z
#
# Youngs Moduli (GPa) = 54.71081 40.65115 82.43512
#
# Poissons Ratio (x) = 0.29137 0.06805
# Poissons Ratio (y) = 0.39214 0.20374
# Poissons Ratio (z) = 0.04516 0.10047
#
# Static dielectric constant tensor:
#      x y z
#    x 1.886990 0.000000 -0.007470 
#    y 0.000000 1.974690 0.000000 
#    z -0.007470 0.000000 1.935740 
# 
# From -- ./inp_files/6044.got.cif
#   From: 2010.05.17/outbox.cif.g08.bks.cpg/sg4_4_cif.got.tgz:6044.got - 2010.06.03 18:43:04.
