data_PCOD9116774
_publ_section_title
;
Structure prediction by ZEFSAII (Michael W. Deem and Ramdas Pophale) SiO2 
 PCOD9116774
Probable space group: P 21
;
_chemical_formula_sum "Si O2"
_cell_formula_units_Z 12
_cell_length_a 5.953539
_cell_length_b 9.493314
_cell_length_c 8.593460
_cell_angle_alpha 90.000000
_cell_angle_beta 81.343512
_cell_angle_gamma 90.000000
_cell_volume 480.159402
_symmetry_space_group_name_H-M "P 21"
_symmetry_group_IT_number 4
_symmetry_cell_setting 'monoclinic'
loop_
_space_group_symop_operation_xyz
x,y,z
-x,1/2+y,-z
loop_
_atom_site_type_symbol
_atom_site_label
_atom_site_fract_x
_atom_site_fract_y
_atom_site_fract_z
Si Si1 0.690824 0.285620 0.511744
Si Si2 0.327247 0.683410 0.183129
Si Si3 0.997869 0.043031 0.030467
Si Si4 0.638937 0.004011 0.312039
Si Si5 0.363508 0.212486 0.132814
Si Si6 0.357197 0.947748 0.759290
O O1 0.803839 0.266975 0.669111
O O2 0.690918 0.136229 0.421026
O O3 0.460938 0.370454 0.587596
O O4 0.784023 0.397101 0.375034
O O5 0.509788 0.593119 0.263565
O O6 0.160440 0.592138 0.094613
O O7 0.492644 0.748994 0.036866
O O8 0.850126 0.970057 0.178280
O O9 0.111955 0.178529 0.102848
O O10 0.198199 0.958063 0.926941
O O11 0.454390 0.071783 0.210356
O O12 0.438929 0.335928 0.238543
#
# Coordination Sequence:
#
# PCOD9116774 Si02
#       6
#     2   2   2   2   2   2
#     4  11  22  46  69 102 145 185 226 307 355 408
#     4  10  22  40  67  97 137 182 233 288 352 410
#     4  10  23  46  70 106 130 196 242 284 345 450
#     4  10  23  46  71 100 145 187 239 287 364 415
#     4   9  22  43  69  98 136 182 231 295 344 422
#     4  10  22  45  70  95 143 182 237 295 352 413
#
# _framework density 24.991703999999999
#
# number of rings (size 3 to 8) (size 9 to 14) (size 15 to 20)
#    0.000    2.000    1.667    0.000    7.000    4.000 
#   12.000    6.667    0.000    0.000    0.000    0.000 
#    0.000    0.000    0.000    0.000    0.000    0.000 
#
# Total GULP energy -66947.426591 kJ/mol
# GULP energy per Si atom -5578.952216 kJ/mol
# Density = 2.493482 g / cm^3
# Si number density = 24.991704 Si / 1000 Ang^3
#
#
#
# Elastic Constant Matrix: (Units=GPa)
#
#
# Indices 1 2 3 4 5 6 
#
# 1 45.4031 23.6282 26.8940 0.0000 -12.9542 0.0000
# 2 23.6282 80.7762 33.5253 0.0000 1.4492 0.0000
# 3 26.8940 33.5253 177.1321 0.0000 -4.4517 0.0000
# 4 0.0000 0.0000 0.0000 43.1601 0.0000 8.0132
# 5 -12.9542 1.4492 -4.4517 0.0000 27.2437 0.0000
# 6 0.0000 0.0000 0.0000 8.0132 0.0000 28.8261
#
#
#
# Elastic Compliance Matrix: (Units=1/GPa)
#
#
# Indices 1 2 3 4 5 6 
#
# 1 0.032678 -0.008617 -0.002941 0.000000 0.015516 0.000000
# 2 -0.008617 0.015742 -0.001803 0.000000 -0.005229 0.000000
# 3 -0.002941 -0.001803 0.006427 0.000000 -0.000252 0.000000
# 4 0.000000 0.000000 0.000000 0.024430 0.000000 -0.006791
# 5 0.015516 -0.005229 -0.000252 0.000000 0.044320 0.000000
# 6 0.000000 0.000000 0.000000 -0.006791 0.000000 0.036579
#
#
# Mechanical properties :
#
#
# Convention : Reuss Voigt Hill
#
# Bulk Modulus (GPa) = 35.55288 52.37849 43.96569
# Shear Modulus (GPa) = 25.47481 34.46357 29.96919
#
# Velocity S-wave (km/s) = 3.19616 3.71752 3.46665
# Velocity P-wave (km/s) = 5.27990 6.27937 5.80120
#
# Compressibility (1/GPa) = 0.02812712
#
# Stress axis : x y z
#
# Youngs Moduli (GPa) = 30.60170 63.52284 155.59754
#
# Poissons Ratio (x) = 0.54735 0.45756
# Poissons Ratio (y) = 0.26368 0.28049
# Poissons Ratio (z) = 0.08999 0.11451
#
# Static dielectric constant tensor:
#      x y z
#    x 1.967240 0.000000 0.024190 
#    y 0.000000 2.059980 0.000000 
#    z 0.024190 0.000000 1.984340 
# 
# From -- ./inp_files/1413.got.cif
#   From: 2010.05.17/outbox.cif.g08.bks.cpg/sg4_1_cif.got.tgz:1413.got - 2010.06.03 18:43:04.
