data_PCOD9116509
_publ_section_title
;
Structure prediction by ZEFSAII (Michael W. Deem and Ramdas Pophale) SiO2 
 PCOD9116509
Probable space group: P 21
;
_chemical_formula_sum "Si O2"
_cell_formula_units_Z 16
_cell_length_a 11.428158
_cell_length_b 7.654152
_cell_length_c 7.811776
_cell_angle_alpha 90.000000
_cell_angle_beta 62.562985
_cell_angle_gamma 90.000000
_cell_volume 606.457287
_symmetry_space_group_name_H-M "P 21"
_symmetry_group_IT_number 4
_symmetry_cell_setting 'monoclinic'
loop_
_space_group_symop_operation_xyz
x,y,z
-x,1/2+y,-z
loop_
_atom_site_type_symbol
_atom_site_label
_atom_site_fract_x
_atom_site_fract_y
_atom_site_fract_z
Si Si1 0.644465 0.021430 0.152269
Si Si2 0.270063 0.879348 0.923728
Si Si3 0.765598 0.842118 0.794769
Si Si4 0.941259 0.335426 0.407719
Si Si5 0.992431 0.444773 0.745079
Si Si6 0.488530 0.551342 0.095552
Si Si7 0.462016 0.087958 0.579821
Si Si8 0.208988 0.163536 0.565085
O O1 0.753085 0.173399 0.066098
O O2 0.536575 0.095981 0.085727
O O3 0.577693 0.028856 0.379101
O O4 0.706628 0.846866 0.026398
O O5 0.371006 0.951556 0.001811
O O6 0.372779 0.923578 0.702445
O O7 0.128114 0.967417 0.041384
O O8 0.911783 0.913958 0.716126
O O9 0.649031 0.949489 0.782595
O O10 0.788591 0.690645 0.642462
O O11 0.924648 0.354058 0.623480
O O12 0.843938 0.466643 0.378728
O O13 0.947175 0.135098 0.341355
O O14 0.109212 0.308954 0.708179
O O15 0.491518 0.665714 0.268079
O O16 0.352233 0.189246 0.547147
#
# Coordination Sequence:
#
# PCOD9116509 Si02
#       8
#     2   2   2   2   2   2   2   2
#     4  10  21  45  77 107 157 203 256 325 398 475
#     4  10  23  45  68 109 155 194 266 319 389 474
#     4   9  20  41  75 111 149 200 260 321 391 468
#     4  11  22  40  76 118 143 208 265 314 394 472
#     4  11  23  42  74 113 155 200 266 321 387 469
#     4   8  22  41  72 114 145 209 259 320 400 469
#     4  10  24  48  72 116 156 205 259 326 397 475
#     4  11  23  44  78 106 164 203 257 326 394 464
#
# _framework density 26.382733999999999
#
# number of rings (size 3 to 8) (size 9 to 14) (size 15 to 20)
#    1.500    0.500    2.500    1.500    3.500    1.000 
#    6.750    2.500    2.750    0.000    0.000    0.000 
#    0.000    0.000    0.000    0.000    0.000    0.000 
#
# Total GULP energy -89138.572827 kJ/mol
# GULP energy per Si atom -5571.160802 kJ/mol
# Density = 2.632269 g / cm^3
# Si number density = 26.382734 Si / 1000 Ang^3
#
#
#
# Elastic Constant Matrix: (Units=GPa)
#
#
# Indices 1 2 3 4 5 6 
#
# 1 46.3941 5.6494 -11.7523 0.0000 -12.9996 0.0000
# 2 5.6494 106.9286 17.7667 0.0000 1.0109 0.0000
# 3 -11.7523 17.7667 120.1397 0.0000 -6.0582 0.0000
# 4 0.0000 0.0000 0.0000 33.1922 0.0000 -14.0844
# 5 -12.9996 1.0109 -6.0582 0.0000 27.7359 0.0000
# 6 0.0000 0.0000 0.0000 -14.0844 0.0000 35.3899
#
#
#
# Elastic Compliance Matrix: (Units=1/GPa)
#
#
# Indices 1 2 3 4 5 6 
#
# 1 0.026425 -0.002114 0.003565 0.000000 0.013241 0.000000
# 2 -0.002114 0.009769 -0.001738 0.000000 -0.001726 0.000000
# 3 0.003565 -0.001738 0.009117 0.000000 0.003726 0.000000
# 4 0.000000 0.000000 0.000000 0.036249 0.000000 0.014426
# 5 0.013241 -0.001726 0.003726 0.000000 0.043137 0.000000
# 6 0.000000 0.000000 0.000000 0.014426 0.000000 0.033998
#
#
# Mechanical properties :
#
#
# Convention : Reuss Voigt Hill
#
# Bulk Modulus (GPa) = 22.35260 32.97665 27.66462
# Shear Modulus (GPa) = 28.70558 36.71681 32.71120
#
# Velocity S-wave (km/s) = 3.30213 3.73459 3.52500
# Velocity P-wave (km/s) = 4.79891 5.57877 5.20348
#
# Compressibility (1/GPa) = 0.04473752
#
# Stress axis : x y z
#
# Youngs Moduli (GPa) = 37.84276 102.36579 109.68070
#
# Poissons Ratio (x) = 0.21637 -0.39104
# Poissons Ratio (y) = 0.07999 0.19068
# Poissons Ratio (z) = -0.13492 0.17796
#
# Static dielectric constant tensor:
#      x y z
#    x 2.049320 0.000000 0.069040 
#    y 0.000000 2.186560 0.000000 
#    z 0.069040 0.000000 2.103890 
# 
# From -- ./inp_files/7652.got.cif
#   From: 2010.05.17/outbox.cif.g08.bks.cpg/sg4_4_cif.got.tgz:7652.got - 2010.06.03 18:43:04.
