data_PCOD9116078
_publ_section_title
;
Structure prediction by ZEFSAII (Michael W. Deem and Ramdas Pophale) SiO2 
 PCOD9116078
Probable space group: P 21
;
_chemical_formula_sum "Si O2"
_cell_formula_units_Z 16
_cell_length_a 9.591538
_cell_length_b 5.197944
_cell_length_c 23.343144
_cell_angle_alpha 90.000000
_cell_angle_beta 145.066635
_cell_angle_gamma 90.000000
_cell_volume 666.420379
_symmetry_space_group_name_H-M "P 21"
_symmetry_group_IT_number 4
_symmetry_cell_setting 'monoclinic'
loop_
_space_group_symop_operation_xyz
x,y,z
-x,1/2+y,-z
loop_
_atom_site_type_symbol
_atom_site_label
_atom_site_fract_x
_atom_site_fract_y
_atom_site_fract_z
Si Si1 0.835419 0.356910 0.505405
Si Si2 0.081430 0.199859 0.870122
Si Si3 0.374136 0.140342 0.791431
Si Si4 0.956261 0.968380 0.256090
Si Si5 0.112832 0.798712 0.068494
Si Si6 0.606480 0.343306 0.087613
Si Si7 0.833254 0.354323 0.379443
Si Si8 0.386353 0.143297 0.466296
O O1 0.713153 0.379505 0.401521
O O2 0.653845 0.452615 0.492745
O O3 0.047315 0.574019 0.581509
O O4 0.960918 0.078494 0.551201
O O5 0.167201 0.917896 0.877430
O O6 0.950024 0.236222 0.886218
O O7 0.957792 0.329088 0.772979
O O8 0.354177 0.314496 0.970566
O O9 0.596955 0.307368 0.843099
O O10 0.438166 0.043924 0.876508
O O11 0.332171 0.917298 0.730704
O O12 0.114941 0.274561 0.717057
O O13 0.702403 0.099862 0.154525
O O14 0.145203 0.166310 0.346490
O O15 0.991479 0.061074 0.004638
O O16 0.544447 0.923016 0.487242
#
# Coordination Sequence:
#
# PCOD9116078 Si02
#       8
#     2   2   2   2   2   2   2   2
#     4  10  21  42  67  96 133 164 226 281 347 394
#     4  11  24  41  70 104 141 183 232 288 344 420
#     4  11  24  42  71  98 134 185 235 281 348 410
#     4  11  25  44  73 101 136 188 242 285 346 431
#     4  12  28  45  66 101 147 182 224 286 347 403
#     4  11  22  42  72 100 137 186 235 281 346 420
#     4  10  21  39  71  97 124 175 223 284 326 417
#     4  12  27  45  70 101 142 183 229 294 354 409
#
# _framework density 24.008869000000001
#
# number of rings (size 3 to 8) (size 9 to 14) (size 15 to 20)
#    0.000    1.000    3.750    2.250    7.000    1.000 
#    0.000    0.000    0.000    0.000    0.000    0.000 
#    0.000    0.000    0.000    0.000    0.000    0.000 
#
# Total GULP energy -89336.264832 kJ/mol
# GULP energy per Si atom -5583.516552 kJ/mol
# Density = 2.395422 g / cm^3
# Si number density = 24.008869 Si / 1000 Ang^3
#
#
#
# Elastic Constant Matrix: (Units=GPa)
#
#
# Indices 1 2 3 4 5 6 
#
# 1 51.8603 27.3494 13.5684 0.0000 -25.8400 0.0000
# 2 27.3494 74.5020 6.4602 0.0000 0.8401 0.0000
# 3 13.5684 6.4602 76.2867 0.0000 -17.3234 0.0000
# 4 0.0000 0.0000 0.0000 30.1151 0.0000 -0.9490
# 5 -25.8400 0.8401 -17.3234 0.0000 32.0104 0.0000
# 6 0.0000 0.0000 0.0000 -0.9490 0.0000 22.7891
#
#
#
# Elastic Compliance Matrix: (Units=1/GPa)
#
#
# Indices 1 2 3 4 5 6 
#
# 1 0.049221 -0.018730 0.002241 0.000000 0.041437 0.000000
# 2 -0.018730 0.020684 -0.002254 0.000000 -0.016882 0.000000
# 3 0.002241 -0.002254 0.015192 0.000000 0.010090 0.000000
# 4 0.000000 0.000000 0.000000 0.033250 0.000000 0.001385
# 5 0.041437 -0.016882 0.010090 0.000000 0.070593 0.000000
# 6 0.000000 0.000000 0.000000 0.001385 0.000000 0.043938
#
#
# Mechanical properties :
#
#
# Convention : Reuss Voigt Hill
#
# Bulk Modulus (GPa) = 21.00358 33.04501 27.02429
# Shear Modulus (GPa) = 17.46825 27.33432 22.40128
#
# Velocity S-wave (km/s) = 2.70029 3.37784 3.05789
# Velocity P-wave (km/s) = 4.29992 5.38578 4.87319
#
# Compressibility (1/GPa) = 0.04761094
#
# Stress axis : x y z
#
# Youngs Moduli (GPa) = 20.31673 48.34630 65.82445
#
# Poissons Ratio (x) = 0.90554 -0.14754
# Poissons Ratio (y) = 0.38054 0.14836
# Poissons Ratio (z) = -0.04554 0.10897
#
# Static dielectric constant tensor:
#      x y z
#    x 2.093680 0.000000 0.044660 
#    y 0.000000 2.099680 0.000000 
#    z 0.044660 0.000000 1.920570 
# 
# From -- ./inp_files/7418.got.cif
#   From: 2010.05.17/outbox.cif.g08.bks.cpg/sg4_4_cif.got.tgz:7418.got - 2010.06.03 18:43:04.
