data_PCOD9116864
_publ_section_title
;
Structure prediction by ZEFSAII (Michael W. Deem and Ramdas Pophale) SiO2 
 PCOD9116864
Probable space group: P 21
;
_chemical_formula_sum "Si O2"
_cell_formula_units_Z 14
_cell_length_a 11.230049
_cell_length_b 9.577523
_cell_length_c 10.424990
_cell_angle_alpha 90.000000
_cell_angle_beta 149.065500
_cell_angle_gamma 90.000000
_cell_volume 576.398024
_symmetry_space_group_name_H-M "P 21"
_symmetry_group_IT_number 4
_symmetry_cell_setting 'monoclinic'
loop_
_space_group_symop_operation_xyz
x,y,z
-x,1/2+y,-z
loop_
_atom_site_type_symbol
_atom_site_label
_atom_site_fract_x
_atom_site_fract_y
_atom_site_fract_z
Si Si1 0.183835 0.095100 0.038188
Si Si2 0.287583 0.030735 0.721267
Si Si3 0.389911 0.256216 0.636596
Si Si4 0.766234 0.160098 0.824388
Si Si5 0.483860 0.397033 0.494046
Si Si6 0.495284 0.236573 0.129551
Si Si7 0.130079 0.510952 0.486300
O O1 0.018070 0.136467 0.001784
O O2 0.315062 0.216234 0.080171
O O3 0.028699 0.017378 0.787630
O O4 0.376755 0.995966 0.277808
O O5 0.444685 0.894981 0.847848
O O6 0.041321 0.990859 0.553092
O O7 0.269142 0.116944 0.572899
O O8 0.396487 0.144712 0.919831
O O9 0.663550 0.223405 0.862878
O O10 0.310917 0.308313 0.423574
O O11 0.316106 0.386220 0.654597
O O12 0.660749 0.273170 0.622927
O O13 0.644573 0.007937 0.710755
O O14 0.733158 0.156065 0.382149
#
# Coordination Sequence:
#
# PCOD9116864 Si02
#       7
#     2   2   2   2   2   2   2
#     4  11  21  40  68  93 130 172 213 265 329 377
#     4  11  25  40  68  95 130 172 217 269 326 382
#     4  10  22  44  63  95 132 165 218 264 322 383
#     4  10  22  41  66  94 131 173 215 264 329 376
#     4  10  23  42  65  92 134 166 218 266 316 388
#     4  11  23  41  65  95 131 164 220 269 319 393
#     4  11  22  44  67  92 130 174 213 267 329 375
#
# _framework density 24.288772000000002
#
# number of rings (size 3 to 8) (size 9 to 14) (size 15 to 20)
#    0.857    0.571    2.857    1.714    2.000    6.857 
#    0.000    1.429    0.000    0.000    0.000    0.000 
#    0.000    0.000    0.000    0.000    0.000    0.000 
#
# Total GULP energy -78100.032771 kJ/mol
# GULP energy per Si atom -5578.573769 kJ/mol
# Density = 2.423349 g / cm^3
# Si number density = 24.288772 Si / 1000 Ang^3
#
#
#
# Elastic Constant Matrix: (Units=GPa)
#
#
# Indices 1 2 3 4 5 6 
#
# 1 138.9009 54.2197 39.9766 0.0000 46.4320 0.0000
# 2 54.2197 161.1943 29.2520 0.0000 9.6688 0.0000
# 3 39.9766 29.2520 46.3503 0.0000 5.4572 0.0000
# 4 0.0000 0.0000 0.0000 19.1439 0.0000 0.9860
# 5 46.4320 9.6688 5.4572 0.0000 28.7129 0.0000
# 6 0.0000 0.0000 0.0000 0.9860 0.0000 39.7729
#
#
#
# Elastic Compliance Matrix: (Units=1/GPa)
#
#
# Indices 1 2 3 4 5 6 
#
# 1 0.025225 -0.003522 -0.015211 0.000000 -0.036715 0.000000
# 2 -0.003522 0.007566 -0.002156 0.000000 0.003558 0.000000
# 3 -0.015211 -0.002156 0.033830 0.000000 0.018894 0.000000
# 4 0.000000 0.000000 0.000000 0.052303 0.000000 -0.001297
# 5 -0.036715 0.003558 0.018894 0.000000 0.089411 0.000000
# 6 0.000000 0.000000 0.000000 -0.001297 0.000000 0.025175
#
#
# Mechanical properties :
#
#
# Convention : Reuss Voigt Hill
#
# Bulk Modulus (GPa) = 40.25227 65.92691 53.08959
# Shear Modulus (GPa) = 17.63236 32.39243 25.01240
#
# Velocity S-wave (km/s) = 2.69726 3.65586 3.21252
# Velocity P-wave (km/s) = 5.12920 6.70987 5.97206
#
# Compressibility (1/GPa) = 0.02484332
#
# Stress axis : x y z
#
# Youngs Moduli (GPa) = 39.64295 132.16481 29.55936
#
# Poissons Ratio (x) = 0.46552 0.44962
# Poissons Ratio (y) = 0.13963 0.06373
# Poissons Ratio (z) = 0.60300 0.28497
#
# Static dielectric constant tensor:
#      x y z
#    x 2.007530 0.000000 -0.046650 
#    y 0.000000 1.938230 0.000000 
#    z -0.046650 0.000000 1.959600 
# 
# From -- ./inp_files/10262.got.cif
#   From: 2010.05.17/outbox.cif.g08.bks.cpg/sg4_6_cif.got.tgz:10262.got - 2010.06.03 18:43:04.
