data_PCOD9116464
_publ_section_title
;
Structure prediction by ZEFSAII (Michael W. Deem and Ramdas Pophale) SiO2 
 PCOD9116464
Probable space group: P 21
;
_chemical_formula_sum "Si O2"
_cell_formula_units_Z 10
_cell_length_a 8.413946
_cell_length_b 7.956782
_cell_length_c 8.119041
_cell_angle_alpha 90.000000
_cell_angle_beta 48.462652
_cell_angle_gamma 90.000000
_cell_volume 406.862284
_symmetry_space_group_name_H-M "P 21"
_symmetry_group_IT_number 4
_symmetry_cell_setting 'monoclinic'
loop_
_space_group_symop_operation_xyz
x,y,z
-x,1/2+y,-z
loop_
_atom_site_type_symbol
_atom_site_label
_atom_site_fract_x
_atom_site_fract_y
_atom_site_fract_z
Si Si1 0.617726 0.390060 0.985282
Si Si2 0.769312 0.889497 0.218872
Si Si3 0.799264 0.013272 0.867531
Si Si4 0.467378 0.589281 0.394112
Si Si5 0.964018 0.019250 0.401982
O O1 0.719480 0.205785 0.917103
O O2 0.789615 0.530225 0.809164
O O3 0.415461 0.404100 0.005867
O O4 0.530107 0.441882 0.224696
O O5 0.657578 0.716412 0.262304
O O6 0.580464 0.020600 0.391409
O O7 0.892608 0.887251 0.307578
O O8 0.896239 0.960247 0.976118
O O9 0.938256 0.976766 0.610729
O O10 0.230859 0.650500 0.497139
#
# Coordination Sequence:
#
# PCOD9116464 Si02
#       5
#     2   2   2   2   2
#     4  11  23  44  65  95 133 166 220 263 319 384
#     4  10  21  44  66  92 132 168 210 265 323 378
#     4  11  23  41  68  94 129 172 209 270 323 374
#     4   9  21  42  64  93 130 166 210 262 318 378
#     4   9  24  41  63  96 128 162 221 254 319 386
#
# _framework density 24.578344000000001
#
# number of rings (size 3 to 8) (size 9 to 14) (size 15 to 20)
#    1.200    0.800    0.000    3.600    0.000    6.400 
#    3.600    0.000    0.000    0.000    0.000    0.000 
#    0.000    0.000    0.000    0.000    0.000    0.000 
#
# Total GULP energy -55748.946856 kJ/mol
# GULP energy per Si atom -5574.894686 kJ/mol
# Density = 2.452240 g / cm^3
# Si number density = 24.578344 Si / 1000 Ang^3
#
#
#
# Elastic Constant Matrix: (Units=GPa)
#
#
# Indices 1 2 3 4 5 6 
#
# 1 33.9046 32.7479 50.9608 0.0000 5.6101 0.0000
# 2 32.7479 74.3903 14.5008 0.0000 8.0676 0.0000
# 3 50.9608 14.5008 141.1635 0.0000 28.5556 0.0000
# 4 0.0000 0.0000 0.0000 18.9761 0.0000 5.0938
# 5 5.6101 8.0676 28.5556 0.0000 49.6751 0.0000
# 6 0.0000 0.0000 0.0000 5.0938 0.0000 17.9451
#
#
#
# Elastic Compliance Matrix: (Units=1/GPa)
#
#
# Indices 1 2 3 4 5 6 
#
# 1 0.243168 -0.094383 -0.085588 0.000000 0.037066 0.000000
# 2 -0.094383 0.050465 0.032126 0.000000 -0.016004 0.000000
# 3 -0.085588 0.032126 0.038227 0.000000 -0.017526 0.000000
# 4 0.000000 0.000000 0.000000 0.057044 0.000000 -0.016192
# 5 0.037066 -0.016004 -0.017526 0.000000 0.028619 0.000000
# 6 0.000000 0.000000 0.000000 -0.016192 0.000000 0.060322
#
#
# Mechanical properties :
#
#
# Convention : Reuss Voigt Hill
#
# Bulk Modulus (GPa) = 27.64636 49.54192 38.59414
# Shear Modulus (GPa) = 6.36463 27.40251 16.88357
#
# Velocity S-wave (km/s) = 1.61095 3.34264 2.62378
# Velocity P-wave (km/s) = 3.83834 5.92437 4.99154
#
# Compressibility (1/GPa) = 0.03617113
#
# Stress axis : x y z
#
# Youngs Moduli (GPa) = 4.11238 19.81566 26.15967
#
# Poissons Ratio (x) = 1.87027 2.23894
# Poissons Ratio (y) = 0.38814 -0.84042
# Poissons Ratio (z) = 0.35197 -0.63661
#
# Static dielectric constant tensor:
#      x y z
#    x 2.027350 0.000000 0.041340 
#    y 0.000000 2.033980 0.000000 
#    z 0.041340 0.000000 1.939420 
# 
# From -- ./inp_files/7430.got.cif
#   From: 2010.05.17/outbox.cif.g08.bks.cpg/sg4_4_cif.got.tgz:7430.got - 2010.06.03 18:43:04.
