data_PCOD9116100
_publ_section_title
;
Structure prediction by ZEFSAII (Michael W. Deem and Ramdas Pophale) SiO2 
 PCOD9116100
Probable space group: P 21
;
_chemical_formula_sum "Si O2"
_cell_formula_units_Z 16
_cell_length_a 5.568316
_cell_length_b 11.799672
_cell_length_c 10.686294
_cell_angle_alpha 90.000000
_cell_angle_beta 84.658467
_cell_angle_gamma 90.000000
_cell_volume 699.086454
_symmetry_space_group_name_H-M "P 21"
_symmetry_group_IT_number 4
_symmetry_cell_setting 'monoclinic'
loop_
_space_group_symop_operation_xyz
x,y,z
-x,1/2+y,-z
loop_
_atom_site_type_symbol
_atom_site_label
_atom_site_fract_x
_atom_site_fract_y
_atom_site_fract_z
Si Si1 0.042334 0.024760 0.802106
Si Si2 0.944064 0.277964 0.821676
Si Si3 0.788529 0.997220 0.141847
Si Si4 0.338325 0.026726 0.547829
Si Si5 0.692846 0.465136 0.975017
Si Si6 0.689909 0.888869 0.675296
Si Si7 0.099844 0.805595 0.471301
Si Si8 0.400646 0.673112 0.647009
O O1 0.966786 0.147251 0.856827
O O2 0.132532 0.050043 0.657593
O O3 0.250562 0.975368 0.881234
O O4 0.844550 0.926942 0.787923
O O5 0.173273 0.362557 0.831983
O O6 0.738143 0.340732 0.913146
O O7 0.906017 0.282483 0.674617
O O8 0.569390 0.007105 0.053518
O O9 0.704333 0.076665 0.258757
O O10 0.066647 0.028612 0.093385
O O11 0.564172 0.000401 0.625837
O O12 0.283182 0.910457 0.479963
O O13 0.383292 0.120658 0.444157
O O14 0.500554 0.786999 0.707491
O O15 0.858917 0.847148 0.552552
O O16 0.203160 0.707682 0.554240
#
# Coordination Sequence:
#
# PCOD9116100 Si02
#       8
#     2   2   2   2   2   2   2   2
#     4  11  24  45  66 103 136 188 239 304 356 433
#     4  10  23  42  71  97 141 185 238 293 360 431
#     4  10  25  47  71 102 138 188 239 293 355 433
#     4  10  22  37  65  96 145 178 229 295 358 439
#     4  10  26  48  69 101 138 189 247 291 350 432
#     4  10  23  38  64 101 140 184 227 302 365 434
#     4  10  21  40  62 105 136 181 231 288 367 432
#     4  11  22  39  70 103 144 183 232 300 365 438
#
# _framework density 22.887013
#
# number of rings (size 3 to 8) (size 9 to 14) (size 15 to 20)
#    0.750    1.000    0.000    3.000    3.500    7.000 
#    4.500    0.000    0.000    0.000    0.000    0.000 
#    0.000    0.000    0.000    0.000    0.000    0.000 
#
# Total GULP energy -89256.263704 kJ/mol
# GULP energy per Si atom -5578.516481 kJ/mol
# Density = 2.283492 g / cm^3
# Si number density = 22.887013 Si / 1000 Ang^3
#
#
#
# Elastic Constant Matrix: (Units=GPa)
#
#
# Indices 1 2 3 4 5 6 
#
# 1 74.6188 13.8982 18.9310 0.0000 9.7805 0.0000
# 2 13.8982 71.5278 36.1854 0.0000 -6.8367 0.0000
# 3 18.9310 36.1854 92.2077 0.0000 5.3187 0.0000
# 4 0.0000 0.0000 0.0000 21.2065 0.0000 0.6102
# 5 9.7805 -6.8367 5.3187 0.0000 38.4561 0.0000
# 6 0.0000 0.0000 0.0000 0.6102 0.0000 17.6822
#
#
#
# Elastic Compliance Matrix: (Units=1/GPa)
#
#
# Indices 1 2 3 4 5 6 
#
# 1 0.014827 -0.002282 -0.001923 0.000000 -0.003911 0.000000
# 2 -0.002282 0.018454 -0.007052 0.000000 0.004836 0.000000
# 3 -0.001923 -0.007052 0.014165 0.000000 -0.002724 0.000000
# 4 0.000000 0.000000 0.000000 0.047202 0.000000 -0.001629
# 5 -0.003911 0.004836 -0.002724 0.000000 0.028235 0.000000
# 6 0.000000 0.000000 0.000000 -0.001629 0.000000 0.056610
#
#
# Mechanical properties :
#
#
# Convention : Reuss Voigt Hill
#
# Bulk Modulus (GPa) = 40.11100 41.82039 40.96569
# Shear Modulus (GPa) = 23.77352 26.75826 25.26589
#
# Velocity S-wave (km/s) = 3.22644 3.42299 3.32616
# Velocity P-wave (km/s) = 5.60746 5.82535 5.71744
#
# Compressibility (1/GPa) = 0.02493082
#
# Stress axis : x y z
#
# Youngs Moduli (GPa) = 67.44490 54.18874 70.59844
#
# Poissons Ratio (x) = 0.12365 0.13576
# Poissons Ratio (y) = 0.15390 0.49789
# Poissons Ratio (z) = 0.12970 0.38216
#
# Static dielectric constant tensor:
#      x y z
#    x 1.917020 0.000000 -0.023380 
#    y 0.000000 1.849880 0.000000 
#    z -0.023380 0.000000 1.863230 
# 
# From -- ./inp_files/2757.got.cif
#   From: 2010.05.17/outbox.cif.g08.bks.cpg/sg4_2_cif.got.tgz:2757.got - 2010.06.03 18:43:04.
