data_PCOD9116119
_publ_section_title
;
Structure prediction by ZEFSAII (Michael W. Deem and Ramdas Pophale) SiO2 
 PCOD9116119
Probable space group: P 21
;
_chemical_formula_sum "Si O2"
_cell_formula_units_Z 16
_cell_length_a 11.609355
_cell_length_b 8.153245
_cell_length_c 8.343352
_cell_angle_alpha 90.000000
_cell_angle_beta 127.008952
_cell_angle_gamma 90.000000
_cell_volume 630.632904
_symmetry_space_group_name_H-M "P 21"
_symmetry_group_IT_number 4
_symmetry_cell_setting 'monoclinic'
loop_
_space_group_symop_operation_xyz
x,y,z
-x,1/2+y,-z
loop_
_atom_site_type_symbol
_atom_site_label
_atom_site_fract_x
_atom_site_fract_y
_atom_site_fract_z
Si Si1 0.948189 0.039390 0.948844
Si Si2 0.792339 0.364278 0.739273
Si Si3 0.201820 0.789318 0.633694
Si Si4 0.066270 0.453052 0.438293
Si Si5 0.334649 0.401870 0.182445
Si Si6 0.489890 0.687782 0.470482
Si Si7 0.660632 0.755357 0.306442
Si Si8 0.523291 0.463964 0.032936
O O1 0.884867 0.222174 0.906234
O O2 0.941249 0.993667 0.755835
O O3 0.837413 0.921448 0.954752
O O4 0.111709 0.022690 0.145307
O O5 0.789040 0.332922 0.546555
O O6 0.628560 0.333324 0.654687
O O7 0.138364 0.607087 0.588506
O O8 0.357844 0.821285 0.839470
O O9 0.088299 0.908008 0.623312
O O10 0.174101 0.301260 0.553115
O O11 0.388998 0.528248 0.368123
O O12 0.414808 0.233715 0.296136
O O13 0.404848 0.461547 0.076359
O O14 0.605137 0.678720 0.424333
O O15 0.615659 0.628615 0.130250
O O16 0.566793 0.919405 0.198567
#
# Coordination Sequence:
#
# PCOD9116119 Si02
#       8
#     2   2   2   2   2   2   2   2
#     4  10  23  41  62  91 123 160 203 251 306 362
#     4  10  23  41  62  91 123 160 203 251 306 362
#     4  11  24  43  64  90 126 165 206 256 308 368
#     4  11  24  43  64  90 126 165 206 256 308 368
#     4  10  21  40  64  90 120 157 203 254 306 360
#     4  10  21  40  64  90 120 157 203 254 306 360
#     4  11  24  41  64  94 125 164 207 254 309 367
#     4  11  24  41  64  94 125 164 207 254 309 367
#
# _framework density 25.371338000000002
#
# number of rings (size 3 to 8) (size 9 to 14) (size 15 to 20)
#    0.000    1.500    2.500    1.500    3.500    4.000 
#    0.000    0.000    0.000    0.000    0.000    0.000 
#    0.000    0.000    0.000    0.000    0.000    0.000 
#
# Total GULP energy -89589.225101 kJ/mol
# GULP energy per Si atom -5599.326569 kJ/mol
# Density = 2.531359 g / cm^3
# Si number density = 25.371338 Si / 1000 Ang^3
#
#
#
# Elastic Constant Matrix: (Units=GPa)
#
#
# Indices 1 2 3 4 5 6 
#
# 1 108.7184 19.8389 17.4340 0.0000 32.9424 0.0000
# 2 19.8389 40.0006 -2.3204 0.0000 3.3499 0.0000
# 3 17.4340 -2.3204 61.2003 0.0000 25.5330 0.0000
# 4 0.0000 0.0000 0.0000 42.1792 0.0000 11.9871
# 5 32.9424 3.3499 25.5330 0.0000 37.7923 0.0000
# 6 0.0000 0.0000 0.0000 11.9871 0.0000 37.0067
#
#
#
# Elastic Compliance Matrix: (Units=1/GPa)
#
#
# Indices 1 2 3 4 5 6 
#
# 1 0.013773 -0.005764 0.000910 0.000000 -0.012110 0.000000
# 2 -0.005764 0.027906 0.002278 0.000000 0.001012 0.000000
# 3 0.000910 0.002278 0.023091 0.000000 -0.016596 0.000000
# 4 0.000000 0.000000 0.000000 0.026112 0.000000 -0.008458
# 5 -0.012110 0.001012 -0.016596 0.000000 0.048139 0.000000
# 6 0.000000 0.000000 0.000000 -0.008458 0.000000 0.029762
#
#
# Mechanical properties :
#
#
# Convention : Reuss Voigt Hill
#
# Bulk Modulus (GPa) = 16.77364 31.09160 23.93262
# Shear Modulus (GPa) = 25.79886 35.06011 30.42948
#
# Velocity S-wave (km/s) = 3.19227 3.72140 3.46694
# Velocity P-wave (km/s) = 4.49589 5.54493 5.04774
#
# Compressibility (1/GPa) = 0.05961735
#
# Stress axis : x y z
#
# Youngs Moduli (GPa) = 72.60428 35.83481 43.30769
#
# Poissons Ratio (x) = 0.20656 -0.03941
# Poissons Ratio (y) = 0.41850 -0.09865
# Poissons Ratio (z) = -0.06608 -0.08163
#
# Static dielectric constant tensor:
#      x y z
#    x 1.898620 0.000000 -0.014430 
#    y 0.000000 2.140640 0.000000 
#    z -0.014430 0.000000 1.952730 
# 
# From -- ./inp_files/5392.got.cif
#   From: 2010.05.17/outbox.cif.g08.bks.cpg/sg4_3_cif.got.tgz:5392.got - 2010.06.03 18:43:04.
