data_PCOD9116017
_publ_section_title
;
Structure prediction by ZEFSAII (Michael W. Deem and Ramdas Pophale) SiO2 
 PCOD9116017
Probable space group: P 21
;
_chemical_formula_sum "Si O2"
_cell_formula_units_Z 16
_cell_length_a 19.567070
_cell_length_b 5.525320
_cell_length_c 16.552145
_cell_angle_alpha 90.000000
_cell_angle_beta 20.775615
_cell_angle_gamma 90.000000
_cell_volume 634.760377
_symmetry_space_group_name_H-M "P 21"
_symmetry_group_IT_number 4
_symmetry_cell_setting 'monoclinic'
loop_
_space_group_symop_operation_xyz
x,y,z
-x,1/2+y,-z
loop_
_atom_site_type_symbol
_atom_site_label
_atom_site_fract_x
_atom_site_fract_y
_atom_site_fract_z
Si Si1 0.916734 0.451040 0.315809
Si Si2 0.739087 0.324593 0.790064
Si Si3 0.559350 0.876714 0.402749
Si Si4 0.798354 0.236586 0.907173
Si Si5 0.680447 0.822373 0.802636
Si Si6 0.697666 0.631168 0.103303
Si Si7 0.510393 0.824201 0.170417
Si Si8 0.980376 0.069722 0.973411
O O1 0.714334 0.342650 0.566873
O O2 0.989438 0.642798 0.301429
O O3 0.095196 0.259837 0.120760
O O4 0.901622 0.552405 0.241064
O O5 0.823490 0.325798 0.786429
O O6 0.788547 0.567598 0.686775
O O7 0.787609 0.078884 0.687490
O O8 0.501511 0.321049 0.056605
O O9 0.567252 0.619336 0.444008
O O10 0.548849 0.760268 0.325584
O O11 0.764414 0.998412 0.188982
O O12 0.744454 0.350522 0.056136
O O13 0.632037 0.038444 0.077735
O O14 0.575588 0.818769 0.006719
O O15 0.603822 0.606789 0.118082
O O16 0.029417 0.839199 0.977532
#
# Coordination Sequence:
#
# PCOD9116017 Si02
#       8
#     2   2   2   2   2   2   2   2
#     4  10  25  40  62  90 127 160 207 262 306 371
#     4   9  17  33  61  89 125 164 203 254 304 363
#     4  11  26  42  65  92 123 160 208 260 311 374
#     4  10  21  40  64  89 124 167 206 252 312 369
#     4   9  17  33  59  94 121 161 212 248 301 369
#     4  10  23  40  63  88 124 162 206 253 316 368
#     4  10  21  39  63  92 121 164 210 252 306 368
#     4  11  26  45  63  90 125 164 206 255 320 370
#
# _framework density 25.206363
#
# number of rings (size 3 to 8) (size 9 to 14) (size 15 to 20)
#    0.000    2.000    1.250    0.750   12.250    1.000 
#    0.000    0.000    2.750    0.000    0.000    0.000 
#    0.000    0.000    0.000    0.000    0.000    0.000 
#
# Total GULP energy -89136.695032 kJ/mol
# GULP energy per Si atom -5571.043440 kJ/mol
# Density = 2.514899 g / cm^3
# Si number density = 25.206363 Si / 1000 Ang^3
#
#
#
# Elastic Constant Matrix: (Units=GPa)
#
#
# Indices 1 2 3 4 5 6 
#
# 1 103.3377 8.4036 18.5945 0.0000 3.6311 0.0000
# 2 8.4036 121.6575 -2.4553 0.0000 10.2216 0.0000
# 3 18.5945 -2.4553 55.5195 0.0000 3.4577 0.0000
# 4 0.0000 0.0000 0.0000 7.6661 0.0000 14.4776
# 5 3.6311 10.2216 3.4577 0.0000 26.0014 0.0000
# 6 0.0000 0.0000 0.0000 14.4776 0.0000 35.1229
#
#
#
# Elastic Compliance Matrix: (Units=1/GPa)
#
#
# Indices 1 2 3 4 5 6 
#
# 1 0.010385 -0.000728 -0.003466 0.000000 -0.000703 0.000000
# 2 -0.000728 0.008571 0.000833 0.000000 -0.003378 0.000000
# 3 -0.003466 0.000833 0.019360 0.000000 -0.002418 0.000000
# 4 0.000000 0.000000 0.000000 0.588783 0.000000 -0.242696
# 5 -0.000703 -0.003378 -0.002418 0.000000 0.040207 0.000000
# 6 0.000000 0.000000 0.000000 -0.242696 0.000000 0.128511
#
#
# Mechanical properties :
#
#
# Convention : Reuss Voigt Hill
#
# Bulk Modulus (GPa) = 31.65269 36.62226 34.13748
# Shear Modulus (GPa) = 6.14953 30.82287 18.48620
#
# Velocity S-wave (km/s) = 1.56364 3.50068 2.71106
# Velocity P-wave (km/s) = 3.98053 5.55879 4.83450
#
# Compressibility (1/GPa) = 0.03159289
#
# Stress axis : x y z
#
# Youngs Moduli (GPa) = 96.29565 116.67558 51.65263
#
# Poissons Ratio (x) = 0.08497 0.17905
# Poissons Ratio (y) = 0.07013 -0.04304
# Poissons Ratio (z) = 0.33380 -0.09723
#
# Static dielectric constant tensor:
#      x y z
#    x 2.056250 0.000000 0.033340 
#    y 0.000000 2.294980 0.000000 
#    z 0.033340 0.000000 1.992770 
# 
# From -- ./inp_files/15366.got.cif
#   From: 2010.05.17/outbox.cif.g08.bks.cpg/sg4_8_cif.got.tgz:15366.got - 2010.06.03 18:43:04.
