data_PCOD9116673
_publ_section_title
;
Structure prediction by ZEFSAII (Michael W. Deem and Ramdas Pophale) SiO2 
 PCOD9116673
Probable space group: P 21
;
_chemical_formula_sum "Si O2"
_cell_formula_units_Z 16
_cell_length_a 5.788007
_cell_length_b 7.327087
_cell_length_c 16.538211
_cell_angle_alpha 90.000000
_cell_angle_beta 58.840191
_cell_angle_gamma 90.000000
_cell_volume 600.183949
_symmetry_space_group_name_H-M "P 21"
_symmetry_group_IT_number 4
_symmetry_cell_setting 'monoclinic'
loop_
_space_group_symop_operation_xyz
x,y,z
-x,1/2+y,-z
loop_
_atom_site_type_symbol
_atom_site_label
_atom_site_fract_x
_atom_site_fract_y
_atom_site_fract_z
Si Si1 0.052375 0.234090 0.378767
Si Si2 0.998169 0.533267 0.752200
Si Si3 0.180200 0.543217 0.891916
Si Si4 0.171985 0.112251 0.627563
Si Si5 0.701313 0.230285 0.603228
Si Si6 0.386408 0.883962 0.951966
Si Si7 0.553331 0.630893 0.588341
Si Si8 0.578413 0.254926 0.873551
O O1 0.193022 0.138560 0.274425
O O2 0.878312 0.396885 0.370060
O O3 0.870442 0.174491 0.491288
O O4 0.327316 0.290814 0.377793
O O5 0.098859 0.614139 0.817916
O O6 0.250103 0.555748 0.645920
O O7 0.867912 0.343297 0.801184
O O8 0.361413 0.359740 0.857444
O O9 0.329037 0.699248 0.914917
O O10 0.900126 0.487045 0.985246
O O11 0.387424 0.166047 0.657913
O O12 0.876659 0.183920 0.651058
O O13 0.349800 0.170877 0.518034
O O14 0.698698 0.450130 0.597651
O O15 0.572534 0.037049 0.876856
O O16 0.485949 0.824942 0.023109
#
# Coordination Sequence:
#
# PCOD9116673 Si02
#       8
#     2   2   2   2   2   2   2   2
#     4  10  22  40  66  90 136 181 228 284 355 415
#     4  11  24  42  64  94 144 180 220 280 364 418
#     4  11  23  42  71 104 134 178 223 286 347 418
#     4  10  22  39  68 101 128 180 247 297 340 410
#     4  10  22  39  68 101 128 180 247 297 340 410
#     4  11  22  42  76 102 132 172 236 274 340 428
#     4  10  22  40  66  90 136 181 228 284 355 415
#     4  11  23  42  71 104 134 178 223 286 347 418
#
# _framework density 26.658491000000001
#
# number of rings (size 3 to 8) (size 9 to 14) (size 15 to 20)
#    0.000    1.500    3.750    0.750    3.500    2.000 
#    0.000    5.000    0.000    0.000    0.000    0.000 
#    0.000    0.000    0.000    0.000    0.000    0.000 
#
# Total GULP energy -89308.646263 kJ/mol
# GULP energy per Si atom -5581.790391 kJ/mol
# Density = 2.659782 g / cm^3
# Si number density = 26.658491 Si / 1000 Ang^3
#
#
#
# Elastic Constant Matrix: (Units=GPa)
#
#
# Indices 1 2 3 4 5 6 
#
# 1 117.7060 11.1276 25.7394 0.0000 4.0292 0.0000
# 2 11.1276 83.1589 7.6793 0.0000 7.2982 0.0000
# 3 25.7394 7.6793 75.7498 0.0000 19.6770 0.0000
# 4 0.0000 0.0000 0.0000 27.4081 0.0000 -0.0259
# 5 4.0292 7.2982 19.6770 0.0000 48.0784 0.0000
# 6 0.0000 0.0000 0.0000 -0.0259 0.0000 51.4858
#
#
#
# Elastic Compliance Matrix: (Units=1/GPa)
#
#
# Indices 1 2 3 4 5 6 
#
# 1 0.009273 -0.001004 -0.003230 0.000000 0.000697 0.000000
# 2 -0.001004 0.012345 -0.000498 0.000000 -0.001586 0.000000
# 3 -0.003230 -0.000498 0.015956 0.000000 -0.006184 0.000000
# 4 0.000000 0.000000 0.000000 0.036486 0.000000 0.000018
# 5 0.000697 -0.001586 -0.006184 0.000000 0.023513 0.000000
# 6 0.000000 0.000000 0.000000 0.000018 0.000000 0.019423
#
#
# Mechanical properties :
#
#
# Convention : Reuss Voigt Hill
#
# Bulk Modulus (GPa) = 35.57633 40.63413 38.10523
# Shear Modulus (GPa) = 36.81091 40.86569 38.83830
#
# Velocity S-wave (km/s) = 3.71999 3.91952 3.82105
# Velocity P-wave (km/s) = 5.64139 5.97989 5.81310
#
# Compressibility (1/GPa) = 0.02810858
#
# Stress axis : x y z
#
# Youngs Moduli (GPa) = 107.83805 81.00655 62.67286
#
# Poissons Ratio (x) = 0.08131 0.20246
# Poissons Ratio (y) = 0.10824 0.03124
# Poissons Ratio (z) = 0.34835 0.04038
#
# Static dielectric constant tensor:
#      x y z
#    x 2.249380 0.000000 -0.063170 
#    y 0.000000 2.271140 0.000000 
#    z -0.063170 0.000000 2.084940 
# 
# From -- ./inp_files/14695.got.cif
#   From: 2010.05.17/outbox.cif.g08.bks.cpg/sg4_8_cif.got.tgz:14695.got - 2010.06.03 18:43:04.
