data_PCOD9116966
_publ_section_title
;
Structure prediction by ZEFSAII (Michael W. Deem and Ramdas Pophale) SiO2 
 PCOD9116966
Probable space group: P 21
;
_chemical_formula_sum "Si O2"
_cell_formula_units_Z 14
_cell_length_a 14.398808
_cell_length_b 7.111754
_cell_length_c 20.399083
_cell_angle_alpha 90.000000
_cell_angle_beta 16.873851
_cell_angle_gamma 90.000000
_cell_volume 606.330356
_symmetry_space_group_name_H-M "P 21"
_symmetry_group_IT_number 4
_symmetry_cell_setting 'monoclinic'
loop_
_space_group_symop_operation_xyz
x,y,z
-x,1/2+y,-z
loop_
_atom_site_type_symbol
_atom_site_label
_atom_site_fract_x
_atom_site_fract_y
_atom_site_fract_z
Si Si1 0.218411 0.167750 0.264003
Si Si2 0.325684 0.262705 0.727088
Si Si3 0.231613 0.972926 0.474651
Si Si4 0.866494 0.332096 0.156654
Si Si5 0.138162 0.834126 0.222454
Si Si6 0.673501 0.002016 0.067044
Si Si7 0.234183 0.264555 0.642411
O O1 0.392643 0.057233 0.205849
O O2 0.943946 0.326343 0.456783
O O3 0.093950 0.999866 0.303196
O O4 0.494417 0.285191 0.040087
O O5 0.627816 0.344353 0.562178
O O6 0.307778 0.338176 0.665063
O O7 0.292799 0.039311 0.738582
O O8 0.030882 0.304617 0.975546
O O9 0.518117 0.071048 0.240463
O O10 0.013881 0.139531 0.648882
O O11 0.559606 0.212718 0.384875
O O12 0.146475 0.318359 0.023335
O O13 0.967356 0.894400 0.270523
O O14 0.977414 0.101081 0.828999
#
# Coordination Sequence:
#
# PCOD9116966 Si02
#       7
#     2   2   2   2   2   2   2
#     4  11  23  45  68 101 136 188 238 285 354 417
#     4  10  24  41  67 102 135 180 234 282 360 415
#     4  11  24  45  70  99 144 184 235 299 339 419
#     4  10  22  42  67 101 138 180 227 293 350 420
#     4  11  24  42  70  99 140 185 235 291 350 417
#     4   9  24  43  66 105 134 181 240 283 348 415
#     4  10  23  40  70  99 137 182 227 287 355 407
#
# _framework density 23.089725000000001
#
# number of rings (size 3 to 8) (size 9 to 14) (size 15 to 20)
#    0.000    1.714    1.429    0.857   14.000    0.000 
#    0.000    2.857    0.000    0.000    0.000    0.000 
#    0.000    0.000    0.000    0.000    0.000    0.000 
#
# Total GULP energy -77981.833075 kJ/mol
# GULP energy per Si atom -5570.130934 kJ/mol
# Density = 2.303717 g / cm^3
# Si number density = 23.089725 Si / 1000 Ang^3
#
#
#
# Elastic Constant Matrix: (Units=GPa)
#
#
# Indices 1 2 3 4 5 6 
#
# 1 250.4405 106.9357 87.3632 0.0000 7.4470 0.0000
# 2 106.9357 136.1950 52.2353 0.0000 -0.1593 0.0000
# 3 87.3632 52.2353 115.2600 0.0000 3.9434 0.0000
# 4 0.0000 0.0000 0.0000 36.0035 0.0000 -2.3987
# 5 7.4470 -0.1593 3.9434 0.0000 28.2967 0.0000
# 6 0.0000 0.0000 0.0000 -2.3987 0.0000 20.1492
#
#
#
# Elastic Compliance Matrix: (Units=1/GPa)
#
#
# Indices 1 2 3 4 5 6 
#
# 1 0.007003 -0.004215 -0.003350 0.000000 -0.001400 0.000000
# 2 -0.004215 0.011435 -0.002037 0.000000 0.001458 0.000000
# 3 -0.003350 -0.002037 0.012166 0.000000 -0.000825 0.000000
# 4 0.000000 0.000000 0.000000 0.027997 0.000000 0.003333
# 5 -0.001400 0.001458 -0.000825 0.000000 0.035832 0.000000
# 6 0.000000 0.000000 0.000000 0.003333 0.000000 0.050026
#
#
# Mechanical properties :
#
#
# Convention : Reuss Voigt Hill
#
# Bulk Modulus (GPa) = 87.71807 110.55155 99.13481
# Shear Modulus (GPa) = 29.85705 33.91397 31.88551
#
# Velocity S-wave (km/s) = 3.59985 3.83664 3.72013
# Velocity P-wave (km/s) = 7.43984 8.22250 7.84094
#
# Compressibility (1/GPa) = 0.01140016
#
# Stress axis : x y z
#
# Youngs Moduli (GPa) = 142.79406 87.44884 82.19291
#
# Poissons Ratio (x) = 0.36864 0.27533
# Poissons Ratio (y) = 0.60194 0.16743
# Poissons Ratio (z) = 0.47833 0.17814
#
# Static dielectric constant tensor:
#      x y z
#    x 1.926080 0.000000 -0.045770 
#    y 0.000000 1.906460 0.000000 
#    z -0.045770 0.000000 1.906710 
# 
# From -- ./inp_files/15113.got.cif
#   From: 2010.05.17/outbox.cif.g08.bks.cpg/sg4_8_cif.got.tgz:15113.got - 2010.06.03 18:43:04.
