data_PCOD9116967
_publ_section_title
;
Structure prediction by ZEFSAII (Michael W. Deem and Ramdas Pophale) SiO2 
 PCOD9116967
Probable space group: P 21
;
_chemical_formula_sum "Si O2"
_cell_formula_units_Z 14
_cell_length_a 5.066621
_cell_length_b 10.128758
_cell_length_c 11.513782
_cell_angle_alpha 90.000000
_cell_angle_beta 80.190670
_cell_angle_gamma 90.000000
_cell_volume 582.232486
_symmetry_space_group_name_H-M "P 21"
_symmetry_group_IT_number 4
_symmetry_cell_setting 'monoclinic'
loop_
_space_group_symop_operation_xyz
x,y,z
-x,1/2+y,-z
loop_
_atom_site_type_symbol
_atom_site_label
_atom_site_fract_x
_atom_site_fract_y
_atom_site_fract_z
Si Si1 0.619238 0.829310 0.420302
Si Si2 0.010347 0.165416 0.210584
Si Si3 0.399812 0.976316 0.890911
Si Si4 0.839010 0.400742 0.704270
Si Si5 0.405114 0.247412 0.980571
Si Si6 0.123259 0.182728 0.785272
Si Si7 0.546921 0.789385 0.687828
O O1 0.905858 0.900769 0.401430
O O2 0.692506 0.694160 0.344278
O O3 0.504813 0.809722 0.555549
O O4 0.422597 0.911606 0.352687
O O5 0.160958 0.229662 0.090062
O O6 0.168457 0.221653 0.310741
O O7 0.700028 0.202955 0.242217
O O8 0.092024 0.012750 0.208704
O O9 0.399776 0.854988 0.979484
O O10 0.548898 0.921454 0.765864
O O11 0.137017 0.044095 0.851274
O O12 0.521953 0.100671 0.951099
O O13 0.857116 0.256603 0.764148
O O14 0.267644 0.279390 0.868207
#
# Coordination Sequence:
#
# PCOD9116967 Si02
#       7
#     2   2   2   2   2   2   2
#     4  10  22  43  67 101 138 181 239 297 360 424
#     4  11  24  41  69  99 139 181 242 292 364 425
#     4   9  21  43  68 103 140 189 235 299 354 432
#     4  10  22  42  67 102 131 188 229 295 356 433
#     4   9  21  43  68 104 142 188 237 300 358 432
#     4   8  22  41  64 107 130 190 227 295 354 429
#     4  11  24  45  65 106 138 189 239 302 356 433
#
# _framework density 24.045380000000002
#
# number of rings (size 3 to 8) (size 9 to 14) (size 15 to 20)
#    1.714    0.571    0.000    1.714    2.000    4.571 
#    7.714    2.857    0.000    0.000    0.000    0.000 
#    0.000    0.000    0.000    0.000    0.000    0.000 
#
# Total GULP energy -78020.006002 kJ/mol
# GULP energy per Si atom -5572.857572 kJ/mol
# Density = 2.399065 g / cm^3
# Si number density = 24.045380 Si / 1000 Ang^3
#
#
#
# Elastic Constant Matrix: (Units=GPa)
#
#
# Indices 1 2 3 4 5 6 
#
# 1 78.1466 16.1320 10.8869 0.0000 -5.1762 0.0000
# 2 16.1320 104.5017 35.7938 0.0000 3.6165 0.0000
# 3 10.8869 35.7938 129.1270 0.0000 -5.6269 0.0000
# 4 0.0000 0.0000 0.0000 20.7864 0.0000 2.6547
# 5 -5.1762 3.6165 -5.6269 0.0000 27.6608 0.0000
# 6 0.0000 0.0000 0.0000 2.6547 0.0000 22.5900
#
#
#
# Elastic Compliance Matrix: (Units=1/GPa)
#
#
# Indices 1 2 3 4 5 6 
#
# 1 0.013454 -0.002013 -0.000459 0.000000 0.002687 0.000000
# 2 -0.002013 0.010985 -0.002981 0.000000 -0.002419 0.000000
# 3 -0.000459 -0.002981 0.008700 0.000000 0.002073 0.000000
# 4 0.000000 0.000000 0.000000 0.048841 0.000000 -0.005740
# 5 0.002687 -0.002419 0.002073 0.000000 0.037393 0.000000
# 6 0.000000 0.000000 0.000000 -0.005740 0.000000 0.044942
#
#
# Mechanical properties :
#
#
# Convention : Reuss Voigt Hill
#
# Bulk Modulus (GPa) = 44.97813 48.60007 46.78910
# Shear Modulus (GPa) = 27.37765 30.80494 29.09130
#
# Velocity S-wave (km/s) = 3.37795 3.58315 3.48206
# Velocity P-wave (km/s) = 5.82754 6.11345 5.97221
#
# Compressibility (1/GPa) = 0.02223303
#
# Stress axis : x y z
#
# Youngs Moduli (GPa) = 74.32780 91.03702 114.94758
#
# Poissons Ratio (x) = 0.18322 0.05280
# Poissons Ratio (y) = 0.14959 0.34262
# Poissons Ratio (z) = 0.03414 0.27135
#
# Static dielectric constant tensor:
#      x y z
#    x 1.936480 0.000000 -0.031110 
#    y 0.000000 2.000580 0.000000 
#    z -0.031110 0.000000 1.897580 
# 
# From -- ./inp_files/10466.got.cif
#   From: 2010.05.17/outbox.cif.g08.bks.cpg/sg4_6_cif.got.tgz:10466.got - 2010.06.03 18:43:04.
