data_PCOD9116889
_publ_section_title
;
Structure prediction by ZEFSAII (Michael W. Deem and Ramdas Pophale) SiO2 
 PCOD9116889
Probable space group: P 21
;
_chemical_formula_sum "Si O2"
_cell_formula_units_Z 12
_cell_length_a 7.177152
_cell_length_b 9.251396
_cell_length_c 7.130453
_cell_angle_alpha 90.000000
_cell_angle_beta 74.754608
_cell_angle_gamma 90.000000
_cell_volume 456.791113
_symmetry_space_group_name_H-M "P 21"
_symmetry_group_IT_number 4
_symmetry_cell_setting 'monoclinic'
loop_
_space_group_symop_operation_xyz
x,y,z
-x,1/2+y,-z
loop_
_atom_site_type_symbol
_atom_site_label
_atom_site_fract_x
_atom_site_fract_y
_atom_site_fract_z
Si Si1 0.390231 0.942800 0.477308
Si Si2 0.876957 0.093679 0.163203
Si Si3 0.331870 0.444942 0.088792
Si Si4 0.772466 0.415900 0.078495
Si Si5 0.851097 0.188973 0.599527
Si Si6 0.280376 0.252556 0.424714
O O1 0.147720 0.619994 0.609712
O O2 0.750837 0.805509 0.780743
O O3 0.282174 0.830123 0.372767
O O4 0.396834 0.102982 0.395517
O O5 0.559960 0.432028 0.049397
O O6 0.080809 0.021459 0.061899
O O7 0.732669 0.978310 0.103465
O O8 0.841718 0.249468 0.073482
O O9 0.241382 0.574889 0.235540
O O10 0.747635 0.459513 0.302896
O O11 0.419573 0.366913 0.489961
O O12 0.072254 0.234512 0.574492
#
# Coordination Sequence:
#
# PCOD9116889 Si02
#       6
#     2   2   2   2   2   2
#     4  10  22  41  68 106 147 190 246 308 368 443
#     4  11  25  47  72 107 151 194 248 311 369 444
#     4  11  25  47  71 107 149 191 248 307 371 446
#     4  10  24  45  71 105 145 192 246 306 374 443
#     4  11  24  44  77 110 142 195 250 305 377 446
#     4  11  22  42  71 107 148 190 246 305 367 442
#
# _framework density 26.270209999999999
#
# number of rings (size 3 to 8) (size 9 to 14) (size 15 to 20)
#    0.000    1.333    0.000    6.000    0.000    9.333 
#    0.000   11.667    0.000    2.000    0.000    0.000 
#    0.000    0.000    0.000    0.000    0.000    0.000 
#
# Total GULP energy -67389.472839 kJ/mol
# GULP energy per Si atom -5615.789403 kJ/mol
# Density = 2.621042 g / cm^3
# Si number density = 26.270210 Si / 1000 Ang^3
#
#
#
# Elastic Constant Matrix: (Units=GPa)
#
#
# Indices 1 2 3 4 5 6 
#
# 1 152.2202 40.2626 23.9385 0.0000 6.5384 0.0000
# 2 40.2626 147.5691 66.1798 0.0000 -3.0124 0.0000
# 3 23.9385 66.1798 117.3823 0.0000 -20.0840 0.0000
# 4 0.0000 0.0000 0.0000 45.7872 0.0000 3.2832
# 5 6.5384 -3.0124 -20.0840 0.0000 37.3607 0.0000
# 6 0.0000 0.0000 0.0000 3.2832 0.0000 49.0590
#
#
#
# Elastic Compliance Matrix: (Units=1/GPa)
#
#
# Indices 1 2 3 4 5 6 
#
# 1 0.007214 -0.001611 -0.000883 0.000000 -0.001867 0.000000
# 2 -0.001611 0.009600 -0.005400 0.000000 -0.001847 0.000000
# 3 -0.000883 -0.005400 0.012880 0.000000 0.006643 0.000000
# 4 0.000000 0.000000 0.000000 0.021945 0.000000 -0.001469
# 5 -0.001867 -0.001847 0.006643 0.000000 0.030515 0.000000
# 6 0.000000 0.000000 0.000000 -0.001469 0.000000 0.020482
#
#
# Mechanical properties :
#
#
# Convention : Reuss Voigt Hill
#
# Bulk Modulus (GPa) = 71.90014 75.32594 73.61304
# Shear Modulus (GPa) = 40.63069 45.56077 43.09573
#
# Velocity S-wave (km/s) = 3.93701 4.16903 4.05468
# Velocity P-wave (km/s) = 6.93510 7.20487 7.07127
#
# Compressibility (1/GPa) = 0.01390818
#
# Stress axis : x y z
#
# Youngs Moduli (GPa) = 138.61071 104.16741 77.63802
#
# Poissons Ratio (x) = 0.16778 0.06853
# Poissons Ratio (y) = 0.22326 0.41924
# Poissons Ratio (z) = 0.12234 0.56250
#
# Static dielectric constant tensor:
#      x y z
#    x 2.079420 0.000000 -0.010850 
#    y 0.000000 2.025050 0.000000 
#    z -0.010850 0.000000 2.076210 
# 
# From -- ./inp_files/10371.got.cif
#   From: 2010.05.17/outbox.cif.g08.bks.cpg/sg4_6_cif.got.tgz:10371.got - 2010.06.03 18:43:04.
