data_PCOD9116607
_publ_section_title
;
Structure prediction by ZEFSAII (Michael W. Deem and Ramdas Pophale) SiO2 
 PCOD9116607
Probable space group: P 21
;
_chemical_formula_sum "Si O2"
_cell_formula_units_Z 16
_cell_length_a 20.203833
_cell_length_b 7.454601
_cell_length_c 14.332527
_cell_angle_alpha 90.000000
_cell_angle_beta 20.818069
_cell_angle_gamma 90.000000
_cell_volume 767.185718
_symmetry_space_group_name_H-M "P 21"
_symmetry_group_IT_number 4
_symmetry_cell_setting 'monoclinic'
loop_
_space_group_symop_operation_xyz
x,y,z
-x,1/2+y,-z
loop_
_atom_site_type_symbol
_atom_site_label
_atom_site_fract_x
_atom_site_fract_y
_atom_site_fract_z
Si Si1 0.628392 0.915770 0.662516
Si Si2 0.650605 0.128105 0.915991
Si Si3 0.571211 0.928013 0.522754
Si Si4 0.686501 0.715224 0.886810
Si Si5 0.324530 0.593463 0.796425
Si Si6 0.719501 0.738663 0.057704
Si Si7 0.079150 0.587144 0.594696
Si Si8 0.938692 0.225995 0.702505
O O1 0.648904 0.899616 0.524047
O O2 0.816572 0.976511 0.463469
O O3 0.540215 0.734106 0.819425
O O4 0.475263 0.069400 0.889712
O O5 0.781501 0.179214 0.832495
O O6 0.621513 0.914326 0.942263
O O7 0.768043 0.183686 0.670451
O O8 0.481094 0.746208 0.600917
O O9 0.699634 0.026213 0.277358
O O10 0.400528 0.065263 0.762004
O O11 0.861505 0.652853 0.594253
O O12 0.758564 0.750887 0.896637
O O13 0.386158 0.415344 0.770728
O O14 0.142936 0.659073 0.091772
O O15 0.920087 0.717825 0.841111
O O16 0.976776 0.438529 0.663855
#
# Coordination Sequence:
#
# PCOD9116607 Si02
#       8
#     2   2   2   2   2   2   2   2
#     4  11  25  44  59  93 144 167 205 262 326 385
#     4  11  22  39  64  91 129 170 206 260 312 376
#     4  11  23  42  67  94 125 164 219 276 310 371
#     4  10  22  38  62  98 125 166 213 258 317 379
#     4  12  22  39  69  98 117 168 219 273 318 356
#     4  11  20  38  66  91 125 162 216 262 309 379
#     4  11  25  39  61  99 133 170 207 256 323 398
#     4  11  21  39  64  96 122 163 219 261 305 376
#
# _framework density 20.855443999999999
#
# number of rings (size 3 to 8) (size 9 to 14) (size 15 to 20)
#    0.000    1.000    6.250    0.750    7.000    0.000 
#    2.250    1.250    0.000    0.000    0.000    0.000 
#    0.000    0.000    0.000    0.000    0.000    0.000 
#
# Total GULP energy -89371.033846 kJ/mol
# GULP energy per Si atom -5585.689615 kJ/mol
# Density = 2.080798 g / cm^3
# Si number density = 20.855444 Si / 1000 Ang^3
#
#
#
# Elastic Constant Matrix: (Units=GPa)
#
#
# Indices 1 2 3 4 5 6 
#
# 1 65.5270 18.0663 37.9368 0.0000 18.9215 0.0000
# 2 18.0663 80.1182 10.9644 0.0000 -1.6080 0.0000
# 3 37.9368 10.9644 53.8570 0.0000 21.0782 0.0000
# 4 0.0000 0.0000 0.0000 35.0350 0.0000 6.3751
# 5 18.9215 -1.6080 21.0782 0.0000 32.5345 0.0000
# 6 0.0000 0.0000 0.0000 6.3751 0.0000 19.1021
#
#
#
# Elastic Compliance Matrix: (Units=1/GPa)
#
#
# Indices 1 2 3 4 5 6 
#
# 1 0.027442 -0.004068 -0.016313 0.000000 -0.005592 0.000000
# 2 -0.004068 0.013683 -0.001488 0.000000 0.004006 0.000000
# 3 -0.016313 -0.001488 0.035739 0.000000 -0.013741 0.000000
# 4 0.000000 0.000000 0.000000 0.030388 0.000000 -0.010142
# 5 -0.005592 0.004006 -0.013741 0.000000 0.043089 0.000000
# 6 0.000000 0.000000 0.000000 -0.010142 0.000000 0.055735
#
#
# Mechanical properties :
#
#
# Convention : Reuss Voigt Hill
#
# Bulk Modulus (GPa) = 30.18823 37.04858 33.61841
# Shear Modulus (GPa) = 19.16765 26.16996 22.66880
#
# Velocity S-wave (km/s) = 3.03491 3.54620 3.30047
# Velocity P-wave (km/s) = 5.17565 5.87966 5.53885
#
# Compressibility (1/GPa) = 0.03312550
#
# Stress axis : x y z
#
# Youngs Moduli (GPa) = 36.44104 73.08406 27.98028
#
# Poissons Ratio (x) = 0.29728 0.45645
# Poissons Ratio (y) = 0.14823 0.04164
# Poissons Ratio (z) = 0.59447 0.10877
#
# Static dielectric constant tensor:
#      x y z
#    x 1.775790 0.000000 0.020890 
#    y 0.000000 1.794030 0.000000 
#    z 0.020890 0.000000 1.745770 
# 
# From -- ./inp_files/7568.got.cif
#   From: 2010.05.17/outbox.cif.g08.bks.cpg/sg4_4_cif.got.tgz:7568.got - 2010.06.03 18:43:04.
