data_PCOD9116695
_publ_section_title
;
Structure prediction by ZEFSAII (Michael W. Deem and Ramdas Pophale) SiO2 
 PCOD9116695
Probable space group: P 21
;
_chemical_formula_sum "Si O2"
_cell_formula_units_Z 16
_cell_length_a 4.811703
_cell_length_b 23.098688
_cell_length_c 5.565247
_cell_angle_alpha 90.000000
_cell_angle_beta 84.364114
_cell_angle_gamma 90.000000
_cell_volume 615.553971
_symmetry_space_group_name_H-M "P 21"
_symmetry_group_IT_number 4
_symmetry_cell_setting 'monoclinic'
loop_
_space_group_symop_operation_xyz
x,y,z
-x,1/2+y,-z
loop_
_atom_site_type_symbol
_atom_site_label
_atom_site_fract_x
_atom_site_fract_y
_atom_site_fract_z
Si Si1 0.495914 0.531540 0.747004
Si Si2 0.009479 0.094189 0.069649
Si Si3 0.241916 0.827744 0.906665
Si Si4 0.507196 0.718985 0.407623
Si Si5 0.970708 0.503060 0.326148
Si Si6 0.001033 0.801305 0.423437
Si Si7 0.523483 0.940826 0.860436
Si Si8 0.596269 0.192855 0.086182
O O1 0.204738 0.563520 0.719913
O O2 0.673574 0.576803 0.898327
O O3 0.730447 0.516406 0.536040
O O4 0.411834 0.473909 0.898523
O O5 0.885401 0.158041 0.066625
O O6 0.949356 0.060982 0.824777
O O7 0.085810 0.835925 0.175636
O O8 0.495222 0.872671 0.874436
O O9 0.348587 0.761811 0.909853
O O10 0.069758 0.831584 0.671157
O O11 0.692366 0.776842 0.411548
O O12 0.554613 0.682804 0.645475
O O13 0.190084 0.742487 0.419878
O O14 0.553844 0.684914 0.157023
O O15 0.252055 0.466563 0.347116
O O16 0.792311 0.461602 0.163774
#
# Coordination Sequence:
#
# PCOD9116695 Si02
#       8
#     2   2   2   2   2   2   2   2
#     4  10  22  43  65  95 127 175 224 282 337 400
#     4  10  23  40  65  96 130 171 227 277 341 402
#     4  10  23  43  66  99 136 174 224 273 344 408
#     4  10  22  40  62  88 131 173 217 260 323 393
#     4  10  22  43  66  93 131 170 228 279 341 394
#     4  10  22  40  62  88 131 174 214 263 319 399
#     4  10  23  40  65  98 126 173 222 281 335 408
#     4  10  23  43  65 101 134 178 222 279 338 414
#
# _framework density 25.992844000000002
#
# number of rings (size 3 to 8) (size 9 to 14) (size 15 to 20)
#    0.000    2.000    0.000    1.500    3.500    8.000 
#    2.250    0.000    0.000    0.000    0.000    0.000 
#    0.000    0.000    0.000    0.000    0.000    0.000 
#
# Total GULP energy -89430.726269 kJ/mol
# GULP energy per Si atom -5589.420392 kJ/mol
# Density = 2.593368 g / cm^3
# Si number density = 25.992844 Si / 1000 Ang^3
#
#
#
# Elastic Constant Matrix: (Units=GPa)
#
#
# Indices 1 2 3 4 5 6 
#
# 1 118.8040 9.0903 20.5784 0.0000 -13.4700 0.0000
# 2 9.0903 93.0443 7.9403 0.0000 -14.5615 0.0000
# 3 20.5784 7.9403 189.6666 0.0000 -2.3654 0.0000
# 4 0.0000 0.0000 0.0000 20.0769 0.0000 -9.4882
# 5 -13.4700 -14.5615 -2.3654 0.0000 40.6480 0.0000
# 6 0.0000 0.0000 0.0000 -9.4882 0.0000 31.8587
#
#
#
# Elastic Compliance Matrix: (Units=1/GPa)
#
#
# Indices 1 2 3 4 5 6 
#
# 1 0.008918 -0.000359 -0.000918 0.000000 0.002773 0.000000
# 2 -0.000359 0.011435 -0.000390 0.000000 0.003955 0.000000
# 3 -0.000918 -0.000390 0.005387 0.000000 -0.000131 0.000000
# 4 0.000000 0.000000 0.000000 0.057967 0.000000 0.017264
# 5 0.002773 0.003955 -0.000131 0.000000 0.026930 0.000000
# 6 0.000000 0.000000 0.000000 0.017264 0.000000 0.036530
#
#
# Mechanical properties :
#
#
# Convention : Reuss Voigt Hill
#
# Bulk Modulus (GPa) = 44.63288 52.97033 48.80161
# Shear Modulus (GPa) = 31.65160 42.77711 37.21436
#
# Velocity S-wave (km/s) = 3.49335 4.06116 3.78791
# Velocity P-wave (km/s) = 5.78617 6.51258 6.16009
#
# Compressibility (1/GPa) = 0.02240501
#
# Stress axis : x y z
#
# Youngs Moduli (GPa) = 112.13111 87.45183 185.64152
#
# Poissons Ratio (x) = 0.03139 0.17042
# Poissons Ratio (y) = 0.04025 0.07248
# Poissons Ratio (z) = 0.10293 0.03415
#
# Static dielectric constant tensor:
#      x y z
#    x 2.014770 0.000000 0.033000 
#    y 0.000000 2.060330 0.000000 
#    z 0.033000 0.000000 2.190660 
# 
# From -- ./inp_files/661.got.cif
#   From: 2010.05.17/outbox.cif.g08.bks.cpg/sg4_1_cif.got.tgz:661.got - 2010.06.03 18:43:04.
