data_PCOD9116588
_publ_section_title
;
Structure prediction by ZEFSAII (Michael W. Deem and Ramdas Pophale) SiO2 
 PCOD9116588
Probable space group: P 21
;
_chemical_formula_sum "Si O2"
_cell_formula_units_Z 16
_cell_length_a 12.149877
_cell_length_b 7.393333
_cell_length_c 7.659233
_cell_angle_alpha 90.000000
_cell_angle_beta 119.913523
_cell_angle_gamma 90.000000
_cell_volume 596.356348
_symmetry_space_group_name_H-M "P 21"
_symmetry_group_IT_number 4
_symmetry_cell_setting 'monoclinic'
loop_
_space_group_symop_operation_xyz
x,y,z
-x,1/2+y,-z
loop_
_atom_site_type_symbol
_atom_site_label
_atom_site_fract_x
_atom_site_fract_y
_atom_site_fract_z
Si Si1 0.414393 0.688770 0.589345
Si Si2 0.267721 0.351437 0.543292
Si Si3 0.525276 0.573616 0.305723
Si Si4 0.117422 0.032657 0.964968
Si Si5 0.816136 0.354935 0.468371
Si Si6 0.972068 0.001606 0.506452
Si Si7 0.140470 0.439790 0.061813
Si Si8 0.290899 0.760570 0.985361
O O1 0.375891 0.505466 0.658453
O O2 0.481138 0.626315 0.465716
O O3 0.276532 0.788172 0.453315
O O4 0.491562 0.858489 0.726883
O O5 0.333068 0.155301 0.603698
O O6 0.212653 0.401611 0.305680
O O7 0.156039 0.384458 0.593424
O O8 0.431686 0.685099 0.110319
O O9 0.054642 0.950198 0.740834
O O10 0.004978 0.995263 0.012563
O O11 0.250762 0.928445 0.076789
O O12 0.139793 0.244622 0.972457
O O13 0.921081 0.511786 0.558558
O O14 0.729526 0.332236 0.227050
O O15 0.918053 0.195611 0.514225
O O16 0.205139 0.594144 0.993676
#
# Coordination Sequence:
#
# PCOD9116588 Si02
#       8
#     2   2   2   2   2   2   2   2
#     4  11  23  44  66  96 130 170 224 264 324 388
#     4  10  23  42  67 100 128 172 224 266 323 399
#     4  12  24  43  71  94 131 179 220 270 324 385
#     4  10  22  37  64  97 133 171 218 277 328 390
#     4  10  24  44  66  97 134 170 215 279 330 400
#     4   9  22  43  64  97 132 167 218 266 338 404
#     4  11  20  38  65  98 131 173 219 273 336 374
#     4  11  24  43  61 101 133 166 228 271 325 402
#
# _framework density 26.829598000000001
#
# number of rings (size 3 to 8) (size 9 to 14) (size 15 to 20)
#    0.000    1.500    3.750    0.000    5.250    1.000 
#    4.500    0.000    0.000    0.000    0.000    0.000 
#    0.000    0.000    0.000    0.000    0.000    0.000 
#
# Total GULP energy -89432.143844 kJ/mol
# GULP energy per Si atom -5589.508990 kJ/mol
# Density = 2.676853 g / cm^3
# Si number density = 26.829598 Si / 1000 Ang^3
#
#
#
# Elastic Constant Matrix: (Units=GPa)
#
#
# Indices 1 2 3 4 5 6 
#
# 1 109.6642 -3.6335 24.1624 0.0000 1.9893 0.0000
# 2 -3.6335 135.5434 6.2759 0.0000 -9.0525 0.0000
# 3 24.1624 6.2759 76.5229 0.0000 -16.5217 0.0000
# 4 0.0000 0.0000 0.0000 30.8151 0.0000 7.0845
# 5 1.9893 -9.0525 -16.5217 0.0000 22.5459 0.0000
# 6 0.0000 0.0000 0.0000 7.0845 0.0000 52.1041
#
#
#
# Elastic Compliance Matrix: (Units=1/GPa)
#
#
# Indices 1 2 3 4 5 6 
#
# 1 0.010076 0.000206 -0.004006 0.000000 -0.003742 0.000000
# 2 0.000206 0.007585 -0.000040 0.000000 0.002998 0.000000
# 3 -0.004006 -0.000040 0.017117 0.000000 0.012881 0.000000
# 4 0.000000 0.000000 0.000000 0.033499 0.000000 -0.004555
# 5 -0.003742 0.002998 0.012881 0.000000 0.055328 0.000000
# 6 0.000000 0.000000 0.000000 -0.004555 0.000000 0.019812
#
#
# Mechanical properties :
#
#
# Convention : Reuss Voigt Hill
#
# Bulk Modulus (GPa) = 36.90310 41.70446 39.30378
# Shear Modulus (GPa) = 31.22451 40.75473 35.98962
#
# Velocity S-wave (km/s) = 3.41516 3.90169 3.66651
# Velocity P-wave (km/s) = 5.41624 5.98962 5.71013
#
# Compressibility (1/GPa) = 0.02709800
#
# Stress axis : x y z
#
# Youngs Moduli (GPa) = 99.24369 131.83375 58.41986
#
# Poissons Ratio (x) = -0.02711 0.23406
# Poissons Ratio (y) = -0.02041 0.00232
# Poissons Ratio (z) = 0.39762 0.00523
#
# Static dielectric constant tensor:
#      x y z
#    x 2.227960 0.000000 0.004810 
#    y 0.000000 2.213680 0.000000 
#    z 0.004810 0.000000 2.167760 
# 
# From -- ./inp_files/8030.got.cif
#   From: 2010.05.17/outbox.cif.g08.bks.cpg/sg4_5_cif.got.tgz:8030.got - 2010.06.03 18:43:04.
