data_PCOD9116742
_publ_section_title
;
Structure prediction by ZEFSAII (Michael W. Deem and Ramdas Pophale) SiO2 
 PCOD9116742
Probable space group: P 21
;
_chemical_formula_sum "Si O2"
_cell_formula_units_Z 16
_cell_length_a 20.339932
_cell_length_b 6.674008
_cell_length_c 7.645565
_cell_angle_alpha 90.000000
_cell_angle_beta 49.058861
_cell_angle_gamma 90.000000
_cell_volume 783.994661
_symmetry_space_group_name_H-M "P 21"
_symmetry_group_IT_number 4
_symmetry_cell_setting 'monoclinic'
loop_
_space_group_symop_operation_xyz
x,y,z
-x,1/2+y,-z
loop_
_atom_site_type_symbol
_atom_site_label
_atom_site_fract_x
_atom_site_fract_y
_atom_site_fract_z
Si Si1 0.978026 0.053990 0.285912
Si Si2 0.300490 0.255308 0.613292
Si Si3 0.588950 0.133548 0.487391
Si Si4 0.555874 0.387562 0.147000
Si Si5 0.707582 0.435536 0.068511
Si Si6 0.888909 0.886688 0.092432
Si Si7 0.108891 0.723017 0.211202
Si Si8 0.539195 0.515498 0.795881
O O1 0.923798 0.131294 0.548091
O O2 0.921960 0.981279 0.216920
O O3 0.036969 0.872028 0.255517
O O4 0.040257 0.230721 0.105791
O O5 0.340513 0.475413 0.565668
O O6 0.202415 0.274251 0.718056
O O7 0.369754 0.134549 0.377840
O O8 0.297199 0.131234 0.801781
O O9 0.642255 0.262300 0.253452
O O10 0.555836 0.306922 0.672357
O O11 0.503927 0.995617 0.601357
O O12 0.655349 0.463284 0.980006
O O13 0.533394 0.152973 0.169301
O O14 0.516747 0.468212 0.033034
O O15 0.803779 0.349178 0.903171
O O16 0.875284 0.053177 0.963930
#
# Coordination Sequence:
#
# PCOD9116742 Si02
#       8
#     2   2   2   2   2   2   2   2
#     4  12  26  45  77 102 138 191 228 292 361 425
#     4  10  23  43  66  95 134 174 222 285 338 418
#     4  10  22  40  65  89 128 176 217 274 334 396
#     4  11  23  41  63  92 132 180 225 276 341 405
#     4  11  25  41  67  96 133 178 225 285 345 410
#     4  12  24  47  73 101 140 187 233 284 363 422
#     4  12  25  48  69 105 144 175 241 295 346 429
#     4  10  22  43  62  92 133 175 225 281 332 409
#
# _framework density 20.408303
#
# number of rings (size 3 to 8) (size 9 to 14) (size 15 to 20)
#    0.000    1.000    6.250    0.000    5.250    1.000 
#    6.750    0.000    0.000    0.000    0.000    0.000 
#    0.000    0.000    0.000    0.000    0.000    0.000 
#
# Total GULP energy -89280.091729 kJ/mol
# GULP energy per Si atom -5580.005733 kJ/mol
# Density = 2.036185 g / cm^3
# Si number density = 20.408303 Si / 1000 Ang^3
#
#
#
# Elastic Constant Matrix: (Units=GPa)
#
#
# Indices 1 2 3 4 5 6 
#
# 1 119.2162 35.3154 43.0717 0.0000 -10.8860 0.0000
# 2 35.3154 92.2830 19.8311 0.0000 2.1033 0.0000
# 3 43.0717 19.8311 66.1412 0.0000 -4.1590 0.0000
# 4 0.0000 0.0000 0.0000 42.9944 0.0000 -0.7008
# 5 -10.8860 2.1033 -4.1590 0.0000 35.4710 0.0000
# 6 0.0000 0.0000 0.0000 -0.7008 0.0000 24.8929
#
#
#
# Elastic Compliance Matrix: (Units=1/GPa)
#
#
# Indices 1 2 3 4 5 6 
#
# 1 0.012045 -0.003246 -0.006675 0.000000 0.003106 0.000000
# 2 -0.003246 0.012500 -0.001756 0.000000 -0.001943 0.000000
# 3 -0.006675 -0.001756 0.020018 0.000000 0.000403 0.000000
# 4 0.000000 0.000000 0.000000 0.023270 0.000000 0.000655
# 5 0.003106 -0.001943 0.000403 0.000000 0.029308 0.000000
# 6 0.000000 0.000000 0.000000 0.000655 0.000000 0.040191
#
#
# Mechanical properties :
#
#
# Convention : Reuss Voigt Hill
#
# Bulk Modulus (GPa) = 47.15151 52.67521 49.91336
# Shear Modulus (GPa) = 29.80527 32.63312 31.21919
#
# Velocity S-wave (km/s) = 3.82573 4.00310 3.91542
# Velocity P-wave (km/s) = 6.53216 6.87264 6.70456
#
# Compressibility (1/GPa) = 0.02120823
#
# Stress axis : x y z
#
# Youngs Moduli (GPa) = 83.02204 79.99955 49.95469
#
# Poissons Ratio (x) = 0.25966 0.33346
# Poissons Ratio (y) = 0.26947 0.08774
# Poissons Ratio (z) = 0.55420 0.14051
#
# Static dielectric constant tensor:
#      x y z
#    x 1.895080 0.000000 0.038320 
#    y 0.000000 1.783710 0.000000 
#    z 0.038320 0.000000 1.713360 
# 
# From -- ./inp_files/9771.got.cif
#   From: 2010.05.17/outbox.cif.g08.bks.cpg/sg4_5_cif.got.tgz:9771.got - 2010.06.03 18:43:04.
