data_PCOD9116814
_publ_section_title
;
Structure prediction by ZEFSAII (Michael W. Deem and Ramdas Pophale) SiO2 
 PCOD9116814
Probable space group: P 21
;
_chemical_formula_sum "Si O2"
_cell_formula_units_Z 14
_cell_length_a 10.666605
_cell_length_b 9.048976
_cell_length_c 10.513536
_cell_angle_alpha 90.000000
_cell_angle_beta 39.858113
_cell_angle_gamma 90.000000
_cell_volume 650.364773
_symmetry_space_group_name_H-M "P 21"
_symmetry_group_IT_number 4
_symmetry_cell_setting 'monoclinic'
loop_
_space_group_symop_operation_xyz
x,y,z
-x,1/2+y,-z
loop_
_atom_site_type_symbol
_atom_site_label
_atom_site_fract_x
_atom_site_fract_y
_atom_site_fract_z
Si Si1 0.792286 0.841200 0.255610
Si Si2 0.194353 0.924344 0.072792
Si Si3 0.991635 0.238029 0.559881
Si Si4 0.936799 0.420089 0.368930
Si Si5 0.411929 0.279358 0.318265
Si Si6 0.508817 0.463307 0.687383
Si Si7 0.238312 0.246046 0.983412
O O1 0.671766 0.790527 0.472818
O O2 0.656682 0.964328 0.292437
O O3 0.006991 0.892282 0.128785
O O4 0.805511 0.720147 0.132531
O O5 0.142351 0.828109 0.236746
O O6 0.404386 0.882184 0.851556
O O7 0.207565 0.099029 0.085869
O O8 0.215125 0.301053 0.390369
O O9 0.917307 0.281519 0.479535
O O10 0.008827 0.068643 0.594226
O O11 0.727680 0.445345 0.467049
O O12 0.097494 0.375244 0.142186
O O13 0.489973 0.113787 0.236071
O O14 0.450932 0.320962 0.816493
#
# Coordination Sequence:
#
# PCOD9116814 Si02
#       7
#     2   2   2   2   2   2   2
#     4   9  24  35  60  94 121 159 202 231 307 358
#     4  11  23  39  63  91 126 159 199 250 297 360
#     4  10  24  42  64  92 113 165 204 247 308 353
#     4  11  22  44  65  84 127 153 204 260 295 356
#     4  10  22  41  62  87 127 157 199 253 296 357
#     4   9  23  38  61  90 118 161 200 241 306 350
#     4  10  24  37  61  94 118 162 202 240 307 354
#
# _framework density 21.526382000000002
#
# number of rings (size 3 to 8) (size 9 to 14) (size 15 to 20)
#    0.857    1.143    0.000    1.714    6.000    5.714 
#    0.000    0.000    0.000    0.000    0.000    0.000 
#    0.000    0.000    0.000    0.000    0.000    0.000 
#
# Total GULP energy -78036.949439 kJ/mol
# GULP energy per Si atom -5574.067817 kJ/mol
# Density = 2.147739 g / cm^3
# Si number density = 21.526382 Si / 1000 Ang^3
#
#
#
# Elastic Constant Matrix: (Units=GPa)
#
#
# Indices 1 2 3 4 5 6 
#
# 1 40.8632 -10.8252 26.5755 0.0000 -10.3457 0.0000
# 2 -10.8252 81.4265 39.9306 0.0000 -9.3616 0.0000
# 3 26.5755 39.9306 110.8626 0.0000 -18.1319 0.0000
# 4 0.0000 0.0000 0.0000 26.7716 0.0000 -0.5635
# 5 -10.3457 -9.3616 -18.1319 0.0000 18.9911 0.0000
# 6 0.0000 0.0000 0.0000 -0.5635 0.0000 22.9192
#
#
#
# Elastic Compliance Matrix: (Units=1/GPa)
#
#
# Indices 1 2 3 4 5 6 
#
# 1 0.039482 0.012731 -0.011265 0.000000 0.017029 0.000000
# 2 0.012731 0.019133 -0.008611 0.000000 0.008146 0.000000
# 3 -0.011265 -0.008611 0.015553 0.000000 0.004468 0.000000
# 4 0.000000 0.000000 0.000000 0.037372 0.000000 0.000919
# 5 0.017029 0.008146 0.004468 0.000000 0.070214 0.000000
# 6 0.000000 0.000000 0.000000 0.000919 0.000000 0.043654
#
#
# Mechanical properties :
#
#
# Convention : Reuss Voigt Hill
#
# Bulk Modulus (GPa) = 16.70068 38.27936 27.49002
# Shear Modulus (GPa) = 19.25624 25.56781 22.41202
#
# Velocity S-wave (km/s) = 2.99413 3.45010 3.23017
# Velocity P-wave (km/s) = 4.44164 5.80449 5.16819
#
# Compressibility (1/GPa) = 0.05987780
#
# Stress axis : x y z
#
# Youngs Moduli (GPa) = 25.32814 52.26679 64.29785
#
# Poissons Ratio (x) = -0.66540 0.72429
# Poissons Ratio (y) = -0.32245 0.55365
# Poissons Ratio (z) = 0.28531 0.45006
#
# Static dielectric constant tensor:
#      x y z
#    x 1.813700 0.000000 0.022180 
#    y 0.000000 1.815400 0.000000 
#    z 0.022180 0.000000 1.767960 
# 
# From -- ./inp_files/11945.got.cif
#   From: 2010.05.17/outbox.cif.g08.bks.cpg/sg4_6_cif.got.tgz:11945.got - 2010.06.03 18:43:04.
