data_PCOD9116719
_publ_section_title
;
Structure prediction by ZEFSAII (Michael W. Deem and Ramdas Pophale) SiO2 
 PCOD9116719
Probable space group: P 21
;
_chemical_formula_sum "Si O2"
_cell_formula_units_Z 16
_cell_length_a 5.214700
_cell_length_b 14.811078
_cell_length_c 8.883487
_cell_angle_alpha 90.000000
_cell_angle_beta 123.043358
_cell_angle_gamma 90.000000
_cell_volume 575.144893
_symmetry_space_group_name_H-M "P 21"
_symmetry_group_IT_number 4
_symmetry_cell_setting 'monoclinic'
loop_
_space_group_symop_operation_xyz
x,y,z
-x,1/2+y,-z
loop_
_atom_site_type_symbol
_atom_site_label
_atom_site_fract_x
_atom_site_fract_y
_atom_site_fract_z
Si Si1 0.140003 0.917780 0.444923
Si Si2 0.377367 0.651607 0.694796
Si Si3 0.465526 0.966262 0.849141
Si Si4 0.992632 0.826811 0.992991
Si Si5 0.710478 0.150745 0.975028
Si Si6 0.457054 0.975967 0.177887
Si Si7 0.863589 0.723029 0.368076
Si Si8 0.319905 0.312665 0.384945
O O1 0.220408 0.947707 0.641228
O O2 0.498592 0.903998 0.513393
O O3 0.828327 0.967296 0.297157
O O4 0.035812 0.814486 0.378511
O O5 0.603953 0.566604 0.747179
O O6 0.519687 0.746384 0.686891
O O7 0.096060 0.644666 0.488954
O O8 0.270608 0.652386 0.835838
O O9 0.690758 0.052308 0.892278
O O10 0.348041 0.995254 0.973971
O O11 0.686080 0.879249 0.943424
O O12 0.056210 0.720584 0.030466
O O13 0.268874 0.885605 0.150959
O O14 0.981755 0.836818 0.806352
O O15 0.384494 0.194804 0.829543
O O16 0.722285 0.753068 0.482636
#
# Coordination Sequence:
#
# PCOD9116719 Si02
#       8
#     2   2   2   2   2   2   2   2
#     4  10  22  40  63  95 128 168 217 266 326 384
#     4  10  24  43  65  94 134 170 216 272 329 386
#     4  10  25  43  63  96 135 167 219 274 327 385
#     4  11  23  40  66  95 129 171 217 268 324 391
#     4  11  23  43  68  95 130 173 218 271 324 390
#     4  11  23  41  66  93 126 174 218 268 325 390
#     4  11  21  41  66  96 127 171 217 268 322 395
#     4  10  23  41  67  92 133 174 210 269 329 385
#
# _framework density 27.81908
#
# number of rings (size 3 to 8) (size 9 to 14) (size 15 to 20)
#    0.000    1.500    2.500    1.500    7.000    0.000 
#    2.250    3.750    0.000    0.000    0.000    0.000 
#    0.000    0.000    0.000    0.000    0.000    0.000 
#
# Total GULP energy -89362.541755 kJ/mol
# GULP energy per Si atom -5585.158860 kJ/mol
# Density = 2.775576 g / cm^3
# Si number density = 27.819080 Si / 1000 Ang^3
#
#
#
# Elastic Constant Matrix: (Units=GPa)
#
#
# Indices 1 2 3 4 5 6 
#
# 1 68.3942 20.3310 16.3426 0.0000 4.1680 0.0000
# 2 20.3310 94.9622 15.5150 0.0000 -1.5078 0.0000
# 3 16.3426 15.5150 159.6439 0.0000 24.9450 0.0000
# 4 0.0000 0.0000 0.0000 52.1953 0.0000 13.5855
# 5 4.1680 -1.5078 24.9450 0.0000 35.3623 0.0000
# 6 0.0000 0.0000 0.0000 13.5855 0.0000 29.4550
#
#
#
# Elastic Compliance Matrix: (Units=1/GPa)
#
#
# Indices 1 2 3 4 5 6 
#
# 1 0.015929 -0.003246 -0.001124 0.000000 -0.001223 0.000000
# 2 -0.003246 0.011418 -0.001026 0.000000 0.001594 0.000000
# 3 -0.001124 -0.001026 0.007266 0.000000 -0.005037 0.000000
# 4 0.000000 0.000000 0.000000 0.021773 0.000000 -0.010042
# 5 -0.001223 0.001594 -0.005037 0.000000 0.032044 0.000000
# 6 0.000000 0.000000 0.000000 -0.010042 0.000000 0.038582
#
#
# Mechanical properties :
#
#
# Convention : Reuss Voigt Hill
#
# Bulk Modulus (GPa) = 41.98115 47.48639 44.73377
# Shear Modulus (GPa) = 34.30654 41.45663 37.88158
#
# Velocity S-wave (km/s) = 3.51551 3.86453 3.69414
# Velocity P-wave (km/s) = 5.62156 6.08437 5.85754
#
# Compressibility (1/GPa) = 0.02382021
#
# Stress axis : x y z
#
# Youngs Moduli (GPa) = 62.77780 87.57724 137.63184
#
# Poissons Ratio (x) = 0.28429 0.15471
# Poissons Ratio (y) = 0.20379 0.14126
# Poissons Ratio (z) = 0.07057 0.08989
#
# Static dielectric constant tensor:
#      x y z
#    x 2.330180 0.000000 0.051820 
#    y 0.000000 2.236830 0.000000 
#    z 0.051820 0.000000 2.199380 
# 
# From -- ./inp_files/1869.got.cif
#   From: 2010.05.17/outbox.cif.g08.bks.cpg/sg4_1_cif.got.tgz:1869.got - 2010.06.03 18:43:04.
