data_PCOD9116352
_publ_section_title
;
Structure prediction by ZEFSAII (Michael W. Deem and Ramdas Pophale) SiO2 
 PCOD9116352
Probable space group: P 21
;
_chemical_formula_sum "Si O2"
_cell_formula_units_Z 14
_cell_length_a 8.520776
_cell_length_b 9.318840
_cell_length_c 11.976443
_cell_angle_alpha 90.000000
_cell_angle_beta 139.908016
_cell_angle_gamma 90.000000
_cell_volume 612.443348
_symmetry_space_group_name_H-M "P 21"
_symmetry_group_IT_number 4
_symmetry_cell_setting 'monoclinic'
loop_
_space_group_symop_operation_xyz
x,y,z
-x,1/2+y,-z
loop_
_atom_site_type_symbol
_atom_site_label
_atom_site_fract_x
_atom_site_fract_y
_atom_site_fract_z
Si Si1 0.982351 0.725110 0.779981
Si Si2 0.995643 0.207687 0.780501
Si Si3 0.656439 0.468145 0.980001
Si Si4 0.144483 0.367800 0.651357
Si Si5 0.215698 0.089692 0.553936
Si Si6 0.838947 0.461339 0.825580
Si Si7 0.587929 0.969054 0.592495
O O1 0.922824 0.648204 0.631434
O O2 0.997985 0.599443 0.879329
O O3 0.750729 0.826218 0.684411
O O4 0.212501 0.829044 0.897192
O O5 0.983248 0.302621 0.662879
O O6 0.985289 0.316690 0.878209
O O7 0.772111 0.098554 0.666644
O O8 0.237497 0.111808 0.908380
O O9 0.369021 0.453867 0.825075
O O10 0.746334 0.469865 0.900426
O O11 0.255325 0.233118 0.645745
O O12 0.967725 0.475817 0.488361
O O13 0.451710 0.010106 0.633267
O O14 0.608693 0.458336 0.614588
#
# Coordination Sequence:
#
# PCOD9116352 Si02
#       7
#     2   2   2   2   2   2   2
#     4  10  22  42  68  95 132 173 232 276 334 389
#     4  11  24  43  68  97 136 175 223 280 340 398
#     4  11  26  40  65  95 140 177 213 277 341 417
#     4  12  27  45  65 102 138 181 224 279 349 408
#     4  11  26  43  70  98 135 179 233 281 339 397
#     4  11  20  41  68  97 127 173 235 274 327 392
#     4  10  21  42  70  96 126 176 228 291 322 389
#
# _framework density 22.859256999999999
#
# number of rings (size 3 to 8) (size 9 to 14) (size 15 to 20)
#    0.000    1.143    2.857    4.286    8.000    1.143 
#    0.000    2.857    0.000    0.000    0.000    0.000 
#    0.000    0.000    0.000    0.000    0.000    0.000 
#
# Total GULP energy -78367.185380 kJ/mol
# GULP energy per Si atom -5597.656099 kJ/mol
# Density = 2.280723 g / cm^3
# Si number density = 22.859257 Si / 1000 Ang^3
#
#
#
# Elastic Constant Matrix: (Units=GPa)
#
#
# Indices 1 2 3 4 5 6 
#
# 1 39.5818 11.2730 -0.0140 0.0000 6.0578 0.0000
# 2 11.2730 118.5635 16.7753 0.0000 14.7002 0.0000
# 3 -0.0140 16.7753 35.5791 0.0000 13.0469 0.0000
# 4 0.0000 0.0000 0.0000 28.3534 0.0000 -5.6349
# 5 6.0578 14.7002 13.0469 0.0000 34.2703 0.0000
# 6 0.0000 0.0000 0.0000 -5.6349 0.0000 31.4974
#
#
#
# Elastic Compliance Matrix: (Units=1/GPa)
#
#
# Indices 1 2 3 4 5 6 
#
# 1 0.026669 -0.002347 0.002879 0.000000 -0.004803 0.000000
# 2 -0.002347 0.009451 -0.003629 0.000000 -0.002257 0.000000
# 3 0.002879 -0.003629 0.034210 0.000000 -0.011976 0.000000
# 4 0.000000 0.000000 0.000000 0.036569 0.000000 0.006542
# 5 -0.004803 -0.002257 -0.011976 0.000000 0.035556 0.000000
# 6 0.000000 0.000000 0.000000 0.006542 0.000000 0.032919
#
#
# Mechanical properties :
#
#
# Convention : Reuss Voigt Hill
#
# Bulk Modulus (GPa) = 15.59237 27.75480 21.67359
# Shear Modulus (GPa) = 24.63675 29.87023 27.25349
#
# Velocity S-wave (km/s) = 3.28648 3.61875 3.45661
# Velocity P-wave (km/s) = 4.60838 5.44320 5.04310
#
# Compressibility (1/GPa) = 0.06413392
#
# Stress axis : x y z
#
# Youngs Moduli (GPa) = 37.49704 105.81051 29.23092
#
# Poissons Ratio (x) = 0.24838 -0.08414
# Poissons Ratio (y) = 0.08802 0.10608
# Poissons Ratio (z) = -0.10794 0.38401
#
# Static dielectric constant tensor:
#      x y z
#    x 1.839970 0.000000 0.010020 
#    y 0.000000 1.858640 0.000000 
#    z 0.010020 0.000000 1.844780 
# 
# From -- ./inp_files/5358.got.cif
#   From: 2010.05.17/outbox.cif.g08.bks.cpg/sg4_3_cif.got.tgz:5358.got - 2010.06.03 18:43:04.
