data_PCOD9116213
_publ_section_title
;
Structure prediction by ZEFSAII (Michael W. Deem and Ramdas Pophale) SiO2 
 PCOD9116213
Probable space group: P 21
;
_chemical_formula_sum "Si O2"
_cell_formula_units_Z 12
_cell_length_a 5.904669
_cell_length_b 9.672736
_cell_length_c 7.902630
_cell_angle_alpha 90.000000
_cell_angle_beta 91.350266
_cell_angle_gamma 90.000000
_cell_volume 451.227884
_symmetry_space_group_name_H-M "P 21"
_symmetry_group_IT_number 4
_symmetry_cell_setting 'monoclinic'
loop_
_space_group_symop_operation_xyz
x,y,z
-x,1/2+y,-z
loop_
_atom_site_type_symbol
_atom_site_label
_atom_site_fract_x
_atom_site_fract_y
_atom_site_fract_z
Si Si1 0.724451 0.430850 0.167152
Si Si2 0.155322 0.752253 0.297005
Si Si3 0.470271 0.395379 0.491702
Si Si4 0.147159 0.486393 0.757284
Si Si5 0.558961 0.150417 0.983701
Si Si6 0.087696 0.242584 0.344341
O O1 0.617701 0.463665 0.350198
O O2 0.677708 0.576996 0.073345
O O3 0.963425 0.360898 0.228977
O O4 0.593207 0.305691 0.062630
O O5 0.371142 0.843382 0.356612
O O6 0.268222 0.643922 0.173992
O O7 0.038728 0.725992 0.476244
O O8 0.967849 0.843001 0.196750
O O9 0.262919 0.472881 0.575009
O O10 0.346545 0.270775 0.391067
O O11 0.950743 0.598736 0.746376
O O12 0.335469 0.546885 0.879556
#
# Coordination Sequence:
#
# PCOD9116213 Si02
#       6
#     2   2   2   2   2   2
#     4  10  23  41  65  94 130 167 212 261 317 377
#     4  10  22  40  64  92 125 165 211 262 318 376
#     4  10  21  41  64  90 123 169 215 260 308 375
#     4  10  22  40  61  91 128 166 213 260 315 379
#     4  11  23  42  65  97 131 167 207 263 326 375
#     4   9  21  40  65  92 121 168 218 260 308 374
#
# _framework density 26.594099
#
# number of rings (size 3 to 8) (size 9 to 14) (size 15 to 20)
#    0.000    2.000    0.000    2.000    0.000   12.000 
#    0.000   11.667    0.000    0.000    0.000    0.000 
#    0.000    0.000    0.000    0.000    0.000    0.000 
#
# Total GULP energy -67067.299403 kJ/mol
# GULP energy per Si atom -5588.941617 kJ/mol
# Density = 2.653357 g / cm^3
# Si number density = 26.594099 Si / 1000 Ang^3
#
#
#
# Elastic Constant Matrix: (Units=GPa)
#
#
# Indices 1 2 3 4 5 6 
#
# 1 43.8213 30.7899 14.1916 0.0000 -8.3360 0.0000
# 2 30.7899 89.3078 26.2444 0.0000 13.2733 0.0000
# 3 14.1916 26.2444 98.0091 0.0000 -11.6495 0.0000
# 4 0.0000 0.0000 0.0000 42.6465 0.0000 21.8624
# 5 -8.3360 13.2733 -11.6495 0.0000 29.2844 0.0000
# 6 0.0000 0.0000 0.0000 21.8624 0.0000 34.1571
#
#
#
# Elastic Compliance Matrix: (Units=1/GPa)
#
#
# Indices 1 2 3 4 5 6 
#
# 1 0.036980 -0.015727 0.001003 0.000000 0.018054 0.000000
# 2 -0.015727 0.020453 -0.005074 0.000000 -0.015766 0.000000
# 3 0.001003 -0.005074 0.012306 0.000000 0.007480 0.000000
# 4 0.000000 0.000000 0.000000 0.034900 0.000000 -0.022338
# 5 0.018054 -0.015766 0.007480 0.000000 0.049409 0.000000
# 6 0.000000 0.000000 0.000000 -0.022338 0.000000 0.043574
#
#
# Mechanical properties :
#
#
# Convention : Reuss Voigt Hill
#
# Bulk Modulus (GPa) = 33.17550 41.51002 37.34276
# Shear Modulus (GPa) = 20.22120 31.87842 26.04981
#
# Velocity S-wave (km/s) = 2.76046 3.46598 3.13315
# Velocity P-wave (km/s) = 4.76047 5.62672 5.21162
#
# Compressibility (1/GPa) = 0.03014272
#
# Stress axis : x y z
#
# Youngs Moduli (GPa) = 27.04179 48.89152 81.26343
#
# Poissons Ratio (x) = 0.76892 -0.08147
# Poissons Ratio (y) = 0.42529 0.41230
# Poissons Ratio (z) = -0.02711 0.24806
#
# Static dielectric constant tensor:
#      x y z
#    x 2.021300 0.000000 -0.013610 
#    y 0.000000 2.083640 0.000000 
#    z -0.013610 0.000000 2.069630 
# 
# From -- ./inp_files/1094.got.cif
#   From: 2010.05.17/outbox.cif.g08.bks.cpg/sg4_1_cif.got.tgz:1094.got - 2010.06.03 18:43:04.
