data_PCOD9116655
_publ_section_title
;
Structure prediction by ZEFSAII (Michael W. Deem and Ramdas Pophale) SiO2 
 PCOD9116655
Probable space group: P 21
;
_chemical_formula_sum "Si O2"
_cell_formula_units_Z 16
_cell_length_a 13.500215
_cell_length_b 5.094845
_cell_length_c 18.573958
_cell_angle_alpha 90.000000
_cell_angle_beta 34.538513
_cell_angle_gamma 90.000000
_cell_volume 724.316857
_symmetry_space_group_name_H-M "P 21"
_symmetry_group_IT_number 4
_symmetry_cell_setting 'monoclinic'
loop_
_space_group_symop_operation_xyz
x,y,z
-x,1/2+y,-z
loop_
_atom_site_type_symbol
_atom_site_label
_atom_site_fract_x
_atom_site_fract_y
_atom_site_fract_z
Si Si1 0.277868 0.871880 0.627216
Si Si2 0.736299 0.884059 0.445093
Si Si3 0.768934 0.577056 0.194195
Si Si4 0.403269 0.132132 0.084011
Si Si5 0.146015 0.792295 0.005285
Si Si6 0.072875 0.117060 0.188888
Si Si7 0.565922 0.179311 0.678424
Si Si8 0.519609 0.658920 0.796917
O O1 0.657602 0.084305 0.432796
O O2 0.312054 0.927826 0.689553
O O3 0.066279 0.840023 0.747905
O O4 0.321637 0.093720 0.542121
O O5 0.944483 0.910451 0.306314
O O6 0.688222 0.025302 0.548466
O O7 0.612426 0.752351 0.257400
O O8 0.945821 0.702138 0.117820
O O9 0.818153 0.401946 0.096180
O O10 0.402994 0.146113 0.170012
O O11 0.454465 0.840138 0.028997
O O12 0.223941 0.203020 0.151702
O O13 0.309405 0.600019 0.924277
O O14 0.146724 0.996926 0.070834
O O15 0.615552 0.447599 0.688393
O O16 0.530601 0.953591 0.759051
#
# Coordination Sequence:
#
# PCOD9116655 Si02
#       8
#     2   2   2   2   2   2   2   2
#     4  10  22  39  64  93 129 168 224 263 327 385
#     4  10  23  43  65  92 131 178 220 282 313 392
#     4  11  22  36  65  96 132 180 213 269 334 404
#     4  12  26  42  72 102 134 171 214 275 345 408
#     4  11  21  40  62 102 138 175 217 280 343 411
#     4  10  24  42  67 100 130 175 217 282 334 406
#     4  11  25  45  65  93 139 174 229 270 330 385
#     4  11  25  43  66 100 133 175 214 283 334 409
#
# _framework density 22.089777999999999
#
# number of rings (size 3 to 8) (size 9 to 14) (size 15 to 20)
#    0.750    0.500    2.500    3.000    5.250    4.000 
#    0.000    1.250    0.000    0.000    0.000    0.000 
#    0.000    0.000    0.000    0.000    0.000    0.000 
#
# Total GULP energy -89308.651367 kJ/mol
# GULP energy per Si atom -5581.790710 kJ/mol
# Density = 2.203950 g / cm^3
# Si number density = 22.089778 Si / 1000 Ang^3
#
#
#
# Elastic Constant Matrix: (Units=GPa)
#
#
# Indices 1 2 3 4 5 6 
#
# 1 142.3651 14.5647 28.5604 0.0000 18.3231 0.0000
# 2 14.5647 65.5739 8.3402 0.0000 5.7799 0.0000
# 3 28.5604 8.3402 85.6564 0.0000 13.5054 0.0000
# 4 0.0000 0.0000 0.0000 38.2198 0.0000 6.6809
# 5 18.3231 5.7799 13.5054 0.0000 27.5776 0.0000
# 6 0.0000 0.0000 0.0000 6.6809 0.0000 22.0549
#
#
#
# Elastic Compliance Matrix: (Units=1/GPa)
#
#
# Indices 1 2 3 4 5 6 
#
# 1 0.008067 -0.001180 -0.001917 0.000000 -0.004174 0.000000
# 2 -0.001180 0.015803 -0.000809 0.000000 -0.002132 0.000000
# 3 -0.001917 -0.000809 0.013183 0.000000 -0.005013 0.000000
# 4 0.000000 0.000000 0.000000 0.027627 0.000000 -0.008369
# 5 -0.004174 -0.002132 -0.005013 0.000000 0.041936 0.000000
# 6 0.000000 0.000000 0.000000 -0.008369 0.000000 0.047877
#
#
# Mechanical properties :
#
#
# Convention : Reuss Voigt Hill
#
# Bulk Modulus (GPa) = 34.19900 44.05844 39.12872
# Shear Modulus (GPa) = 29.06115 33.71244 31.38680
#
# Velocity S-wave (km/s) = 3.63105 3.91084 3.77354
# Velocity P-wave (km/s) = 5.75280 6.35463 6.06119
#
# Compressibility (1/GPa) = 0.02924062
#
# Stress axis : x y z
#
# Youngs Moduli (GPa) = 123.96795 63.27956 75.85641
#
# Poissons Ratio (x) = 0.07467 0.14539
# Poissons Ratio (y) = 0.14629 0.06138
# Poissons Ratio (z) = 0.23761 0.05120
#
# Static dielectric constant tensor:
#      x y z
#    x 1.785860 0.000000 -0.017890 
#    y 0.000000 1.838400 0.000000 
#    z -0.017890 0.000000 1.882920 
# 
# From -- ./inp_files/15026.got.cif
#   From: 2010.05.17/outbox.cif.g08.bks.cpg/sg4_8_cif.got.tgz:15026.got - 2010.06.03 18:43:04.
