data_PCOD9116364
_publ_section_title
;
Structure prediction by ZEFSAII (Michael W. Deem and Ramdas Pophale) SiO2 
 PCOD9116364
Probable space group: P 21
;
_chemical_formula_sum "Si O2"
_cell_formula_units_Z 10
_cell_length_a 9.562213
_cell_length_b 5.117886
_cell_length_c 8.354907
_cell_angle_alpha 90.000000
_cell_angle_beta 56.261015
_cell_angle_gamma 90.000000
_cell_volume 340.010868
_symmetry_space_group_name_H-M "P 21"
_symmetry_group_IT_number 4
_symmetry_cell_setting 'monoclinic'
loop_
_space_group_symop_operation_xyz
x,y,z
-x,1/2+y,-z
loop_
_atom_site_type_symbol
_atom_site_label
_atom_site_fract_x
_atom_site_fract_y
_atom_site_fract_z
Si Si1 0.243825 0.328580 0.734571
Si Si2 0.858832 0.485629 0.918885
Si Si3 0.353748 0.717235 0.225622
Si Si4 0.503952 0.211263 0.281325
Si Si5 0.028700 0.827672 0.574611
O O1 0.371105 0.238851 0.513297
O O2 0.322962 0.597488 0.751779
O O3 0.043723 0.367049 0.833421
O O4 0.241711 0.094393 0.865998
O O5 0.753515 0.298828 0.864757
O O6 0.910393 0.755454 0.794524
O O7 0.450595 0.451171 0.198379
O O8 0.216095 0.719837 0.458920
O O9 0.465119 0.964040 0.193590
O O10 0.956885 0.625819 0.486291
#
# Coordination Sequence:
#
# PCOD9116364 Si02
#       5
#     2   2   2   2   2
#     4  12  30  52  87 140 186 235 297 394 462 538
#     4  11  28  49  89 136 178 226 321 373 439 529
#     4  11  25  52  89 122 171 248 305 358 441 564
#     4  12  28  55  86 124 187 245 288 361 487 542
#     4  10  21  42  75 118 158 216 287 356 415 509
#
# _framework density 29.410820999999999
#
# number of rings (size 3 to 8) (size 9 to 14) (size 15 to 20)
#    0.000    0.800    2.000    3.600    8.400    3.200 
#    0.000    8.000    0.000    0.000    0.000    0.000 
#    0.000    0.000    0.000    0.000    0.000    0.000 
#
# Total GULP energy -55979.543891 kJ/mol
# GULP energy per Si atom -5597.954389 kJ/mol
# Density = 2.934388 g / cm^3
# Si number density = 29.410821 Si / 1000 Ang^3
#
#
#
# Elastic Constant Matrix: (Units=GPa)
#
#
# Indices 1 2 3 4 5 6 
#
# 1 226.2451 105.5877 54.0380 0.0000 -13.5353 0.0000
# 2 105.5877 232.7954 58.2474 0.0000 16.6647 0.0000
# 3 54.0380 58.2474 181.0761 0.0000 16.3088 0.0000
# 4 0.0000 0.0000 0.0000 26.4490 0.0000 -7.6522
# 5 -13.5353 16.6647 16.3088 0.0000 51.6938 0.0000
# 6 0.0000 0.0000 0.0000 -7.6522 0.0000 57.7224
#
#
#
# Elastic Compliance Matrix: (Units=1/GPa)
#
#
# Indices 1 2 3 4 5 6 
#
# 1 0.006135 -0.002680 -0.001226 0.000000 0.002857 0.000000
# 2 -0.002680 0.005900 -0.000889 0.000000 -0.002323 0.000000
# 3 -0.001226 -0.000889 0.006358 0.000000 -0.002040 0.000000
# 4 0.000000 0.000000 0.000000 0.039317 0.000000 0.005212
# 5 0.002857 -0.002323 -0.002040 0.000000 0.021485 0.000000
# 6 0.000000 0.000000 0.000000 0.005212 0.000000 0.018015
#
#
# Mechanical properties :
#
#
# Convention : Reuss Voigt Hill
#
# Bulk Modulus (GPa) = 113.59967 119.54032 116.57000
# Shear Modulus (GPa) = 45.56482 55.32261 50.44371
#
# Velocity S-wave (km/s) = 3.94033 4.34179 4.14592
# Velocity P-wave (km/s) = 7.70782 8.11592 7.91450
#
# Compressibility (1/GPa) = 0.00880284
#
# Stress axis : x y z
#
# Youngs Moduli (GPa) = 163.01116 169.49278 157.28128
#
# Poissons Ratio (x) = 0.45428 0.19281
# Poissons Ratio (y) = 0.43690 0.13979
# Poissons Ratio (z) = 0.19983 0.15064
#
# Static dielectric constant tensor:
#      x y z
#    x 2.424610 0.000000 -0.004820 
#    y 0.000000 2.298300 0.000000 
#    z -0.004820 0.000000 2.473310 
# 
# From -- ./inp_files/5050.got.cif
#   From: 2010.05.17/outbox.cif.g08.bks.cpg/sg4_3_cif.got.tgz:5050.got - 2010.06.03 18:43:04.
