data_PCOD9116913
_publ_section_title
;
Structure prediction by ZEFSAII (Michael W. Deem and Ramdas Pophale) SiO2 
 PCOD9116913
Probable space group: P 21
;
_chemical_formula_sum "Si O2"
_cell_formula_units_Z 10
_cell_length_a 15.180118
_cell_length_b 5.068575
_cell_length_c 15.383567
_cell_angle_alpha 90.000000
_cell_angle_beta 161.385169
_cell_angle_gamma 90.000000
_cell_volume 377.822008
_symmetry_space_group_name_H-M "P 21"
_symmetry_group_IT_number 4
_symmetry_cell_setting 'monoclinic'
loop_
_space_group_symop_operation_xyz
x,y,z
-x,1/2+y,-z
loop_
_atom_site_type_symbol
_atom_site_label
_atom_site_fract_x
_atom_site_fract_y
_atom_site_fract_z
Si Si1 0.023542 0.614380 0.965102
Si Si2 0.588393 0.636100 0.885987
Si Si3 0.324535 0.576205 0.808708
Si Si4 0.049012 0.642849 0.718067
Si Si5 0.411042 0.993337 0.587406
O O1 0.794727 0.503135 0.685582
O O2 0.309286 0.629354 0.180833
O O3 0.056791 0.396667 0.071600
O O4 0.327840 0.615173 0.708438
O O5 0.487066 0.702944 0.694624
O O6 0.786096 0.393093 0.091305
O O7 0.773984 0.890303 0.085036
O O8 0.064048 0.632541 0.626974
O O9 0.454999 0.294059 0.952174
O O10 0.751926 0.625015 0.484507
#
# Coordination Sequence:
#
# PCOD9116913 Si02
#       5
#     2   2   2   2   2
#     4  12  30  52  78 108 146 188 248 322 396 462
#     4  10  22  41  70 109 151 201 249 303 361 444
#     4   8  16  36  62  98 150 198 244 294 356 420
#     4  10  22  41  70 109 151 201 249 303 361 444
#     4  12  26  50  80 110 148 196 252 310 384 456
#
# _framework density 26.467490999999999
#
# number of rings (size 3 to 8) (size 9 to 14) (size 15 to 20)
#    0.000    1.600    2.000    1.200    2.800    4.800 
#    0.000   12.000    0.000    0.000    0.000    0.000 
#    0.000    0.000    0.000    0.000    0.000    0.000 
#
# Total GULP energy -56130.021673 kJ/mol
# GULP energy per Si atom -5613.002167 kJ/mol
# Density = 2.640725 g / cm^3
# Si number density = 26.467491 Si / 1000 Ang^3
#
#
#
# Elastic Constant Matrix: (Units=GPa)
#
#
# Indices 1 2 3 4 5 6 
#
# 1 130.8608 25.1912 32.4751 0.0000 35.9808 0.0000
# 2 25.1912 158.5909 45.9445 0.0000 12.7983 0.0000
# 3 32.4751 45.9445 104.2740 0.0000 7.2103 0.0000
# 4 0.0000 0.0000 0.0000 30.1265 0.0000 0.7660
# 5 35.9808 12.7983 7.2103 0.0000 53.1275 0.0000
# 6 0.0000 0.0000 0.0000 0.7660 0.0000 37.0040
#
#
#
# Elastic Compliance Matrix: (Units=1/GPa)
#
#
# Indices 1 2 3 4 5 6 
#
# 1 0.010105 -0.000349 -0.002550 0.000000 -0.006414 0.000000
# 2 -0.000349 0.007333 -0.003045 0.000000 -0.001117 0.000000
# 3 -0.002550 -0.003045 0.011665 0.000000 0.000877 0.000000
# 4 0.000000 0.000000 0.000000 0.033211 0.000000 -0.000687
# 5 -0.006414 -0.001117 0.000877 0.000000 0.023316 0.000000
# 6 0.000000 0.000000 0.000000 -0.000687 0.000000 0.027038
#
#
# Mechanical properties :
#
#
# Convention : Reuss Voigt Hill
#
# Bulk Modulus (GPa) = 58.08641 66.77191 62.42916
# Shear Modulus (GPa) = 38.37416 43.39259 40.88338
#
# Velocity S-wave (km/s) = 3.81183 4.05343 3.93448
# Velocity P-wave (km/s) = 6.43175 6.86947 6.65421
#
# Compressibility (1/GPa) = 0.01721573
#
# Stress axis : x y z
#
# Youngs Moduli (GPa) = 98.95973 136.36392 85.72366
#
# Poissons Ratio (x) = 0.04757 0.21859
# Poissons Ratio (y) = 0.03452 0.26105
# Poissons Ratio (z) = 0.25234 0.41527
#
# Static dielectric constant tensor:
#      x y z
#    x 2.092930 0.000000 -0.017660 
#    y 0.000000 2.080590 0.000000 
#    z -0.017660 0.000000 2.021010 
# 
# From -- ./inp_files/3347.got.cif
#   From: 2010.05.17/outbox.cif.g08.bks.cpg/sg4_2_cif.got.tgz:3347.got - 2010.06.03 18:43:04.
