data_PCOD9116632
_publ_section_title
;
Structure prediction by ZEFSAII (Michael W. Deem and Ramdas Pophale) SiO2 
 PCOD9116632
Probable space group: P 21
;
_chemical_formula_sum "Si O2"
_cell_formula_units_Z 14
_cell_length_a 12.194103
_cell_length_b 5.173998
_cell_length_c 19.533661
_cell_angle_alpha 90.000000
_cell_angle_beta 153.178912
_cell_angle_gamma 90.000000
_cell_volume 556.076648
_symmetry_space_group_name_H-M "P 21"
_symmetry_group_IT_number 4
_symmetry_cell_setting 'monoclinic'
loop_
_space_group_symop_operation_xyz
x,y,z
-x,1/2+y,-z
loop_
_atom_site_type_symbol
_atom_site_label
_atom_site_fract_x
_atom_site_fract_y
_atom_site_fract_z
Si Si1 0.191212 0.915900 0.320523
Si Si2 0.824436 0.367071 0.299280
Si Si3 0.734875 0.018465 0.363083
Si Si4 0.338191 0.944015 0.926474
Si Si5 0.410285 0.517648 0.213634
Si Si6 0.278280 0.590086 0.001343
Si Si7 0.615000 0.921580 0.646370
O O1 0.325905 0.945128 0.468356
O O2 0.264325 0.636543 0.334174
O O3 0.905008 0.949130 0.152361
O O4 0.297720 0.140493 0.329884
O O5 0.879337 0.408091 0.249572
O O6 0.020194 0.504816 0.456272
O O7 0.801026 0.081955 0.320386
O O8 0.555283 0.490116 0.154813
O O9 0.580908 0.766588 0.295940
O O10 0.571786 0.261542 0.293743
O O11 0.276089 0.881473 0.970633
O O12 0.511896 0.701696 0.002702
O O13 0.321299 0.495660 0.241195
O O14 0.209343 0.545110 0.041836
#
# Coordination Sequence:
#
# PCOD9116632 Si02
#       7
#     2   2   2   2   2   2   2
#     4  10  23  43  67  91 125 162 210 264 328 381
#     4  10  22  42  61  95 136 172 217 258 311 380
#     4  11  23  39  64  94 131 176 208 258 310 376
#     4  10  22  39  59  87 131 170 206 260 312 370
#     4  11  24  41  67  95 128 165 218 261 318 378
#     4  10  23  41  63  98 125 166 212 263 314 378
#     4  10  23  45  65  92 124 163 209 268 323 389
#
# _framework density 25.176386999999998
#
# number of rings (size 3 to 8) (size 9 to 14) (size 15 to 20)
#    0.000    1.714    0.000    3.429    2.000    9.143 
#    5.143    0.000    0.000    0.000    0.000    0.000 
#    0.000    0.000    0.000    0.000    0.000    0.000 
#
# Total GULP energy -78271.839600 kJ/mol
# GULP energy per Si atom -5590.845686 kJ/mol
# Density = 2.511908 g / cm^3
# Si number density = 25.176387 Si / 1000 Ang^3
#
#
#
# Elastic Constant Matrix: (Units=GPa)
#
#
# Indices 1 2 3 4 5 6 
#
# 1 53.6957 5.2837 16.3679 0.0000 -30.2092 0.0000
# 2 5.2837 130.4118 16.2020 0.0000 9.4083 0.0000
# 3 16.3679 16.2020 141.5196 0.0000 -7.9493 0.0000
# 4 0.0000 0.0000 0.0000 40.4264 0.0000 -0.2211
# 5 -30.2092 9.4083 -7.9493 0.0000 48.1669 0.0000
# 6 0.0000 0.0000 0.0000 -0.2211 0.0000 36.2078
#
#
#
# Elastic Compliance Matrix: (Units=1/GPa)
#
#
# Indices 1 2 3 4 5 6 
#
# 1 0.030235 -0.002332 -0.002159 0.000000 0.019062 0.000000
# 2 -0.002332 0.008096 -0.000836 0.000000 -0.003182 0.000000
# 3 -0.002159 -0.000836 0.007413 0.000000 0.000033 0.000000
# 4 0.000000 0.000000 0.000000 0.024737 0.000000 0.000151
# 5 0.019062 -0.003182 0.000033 0.000000 0.033343 0.000000
# 6 0.000000 0.000000 0.000000 0.000151 0.000000 0.027619
#
#
# Mechanical properties :
#
#
# Convention : Reuss Voigt Hill
#
# Bulk Modulus (GPa) = 28.49771 44.59272 36.54521
# Shear Modulus (GPa) = 32.51069 44.14512 38.32791
#
# Velocity S-wave (km/s) = 3.59739 4.19194 3.90600
# Velocity P-wave (km/s) = 5.34778 6.41720 5.90674
#
# Compressibility (1/GPa) = 0.03509054
#
# Stress axis : x y z
#
# Youngs Moduli (GPa) = 33.07377 123.51939 134.89051
#
# Poissons Ratio (x) = 0.28804 0.29127
# Poissons Ratio (y) = 0.07713 0.11275
# Poissons Ratio (z) = 0.07142 0.10325
#
# Static dielectric constant tensor:
#      x y z
#    x 2.223630 0.000000 -0.061140 
#    y 0.000000 2.012980 0.000000 
#    z -0.061140 0.000000 2.038580 
# 
# From -- ./inp_files/15753.got.cif
#   From: 2010.05.17/outbox.cif.g08.bks.cpg/sg4_8_cif.got.tgz:15753.got - 2010.06.03 18:43:04.
