data_PCOD9116061
_publ_section_title
;
Structure prediction by ZEFSAII (Michael W. Deem and Ramdas Pophale) SiO2 
 PCOD9116061
Probable space group: P 21
;
_chemical_formula_sum "Si O2"
_cell_formula_units_Z 16
_cell_length_a 7.766676
_cell_length_b 11.470245
_cell_length_c 10.474476
_cell_angle_alpha 90.000000
_cell_angle_beta 45.534882
_cell_angle_gamma 90.000000
_cell_volume 665.950440
_symmetry_space_group_name_H-M "P 21"
_symmetry_group_IT_number 4
_symmetry_cell_setting 'monoclinic'
loop_
_space_group_symop_operation_xyz
x,y,z
-x,1/2+y,-z
loop_
_atom_site_type_symbol
_atom_site_label
_atom_site_fract_x
_atom_site_fract_y
_atom_site_fract_z
Si Si1 0.320039 0.857420 0.850271
Si Si2 0.203107 0.363573 0.544208
Si Si3 0.891530 0.999631 0.006099
Si Si4 0.782803 0.106022 0.335231
Si Si5 0.261287 0.159775 0.694091
Si Si6 0.975089 0.202376 0.472115
Si Si7 0.508191 0.611101 0.162818
Si Si8 0.523654 0.627066 0.863896
O O1 0.510664 0.853697 0.634597
O O2 0.366137 0.738633 0.900884
O O3 0.043871 0.883989 0.957683
O O4 0.416655 0.975100 0.868142
O O5 0.148278 0.491999 0.618735
O O6 0.158669 0.273291 0.680676
O O7 0.049597 0.322539 0.502174
O O8 0.057606 0.063313 0.815440
O O9 0.874181 0.076366 0.146608
O O10 0.623372 0.009061 0.089615
O O11 0.493369 0.116700 0.492985
O O12 0.886247 0.209123 0.370891
O O13 0.358780 0.174184 0.788141
O O14 0.226474 0.133213 0.340259
O O15 0.770064 0.138280 0.660871
O O16 0.570798 0.646543 0.988248
#
# Coordination Sequence:
#
# PCOD9116061 Si02
#       8
#     2   2   2   2   2   2   2   2
#     4  10  22  45  68  92 135 175 218 269 333 388
#     4  11  21  42  71  94 130 178 213 270 331 390
#     4  11  23  41  67  96 132 174 215 275 323 389
#     4  11  22  43  67  95 139 169 217 277 325 392
#     4  10  22  43  67  96 128 170 222 269 326 388
#     4  10  21  39  67  97 127 173 218 262 333 383
#     4  10  21  45  66  94 135 169 212 282 322 384
#     4  11  24  42  67  98 132 174 219 270 329 394
#
# _framework density 24.025812999999999
#
# number of rings (size 3 to 8) (size 9 to 14) (size 15 to 20)
#    0.000    1.500    3.750    3.750    3.500    0.000 
#    2.250   11.250    0.000    0.000    0.000    0.000 
#    0.000    0.000    0.000    0.000    0.000    0.000 
#
# Total GULP energy -89416.751654 kJ/mol
# GULP energy per Si atom -5588.546978 kJ/mol
# Density = 2.397113 g / cm^3
# Si number density = 24.025813 Si / 1000 Ang^3
#
#
#
# Elastic Constant Matrix: (Units=GPa)
#
#
# Indices 1 2 3 4 5 6 
#
# 1 36.9354 -2.4227 2.8323 0.0000 10.3546 0.0000
# 2 -2.4227 50.6691 1.5126 0.0000 11.3878 0.0000
# 3 2.8323 1.5126 84.4515 0.0000 -11.3931 0.0000
# 4 0.0000 0.0000 0.0000 34.8552 0.0000 1.6239
# 5 10.3546 11.3878 -11.3931 0.0000 45.1940 0.0000
# 6 0.0000 0.0000 0.0000 1.6239 0.0000 38.9574
#
#
#
# Elastic Compliance Matrix: (Units=1/GPa)
#
#
# Indices 1 2 3 4 5 6 
#
# 1 0.029758 0.003331 -0.002164 0.000000 -0.008203 0.000000
# 2 0.003331 0.021397 -0.001372 0.000000 -0.006501 0.000000
# 3 -0.002164 -0.001372 0.012476 0.000000 0.003987 0.000000
# 4 0.000000 0.000000 0.000000 0.028746 0.000000 -0.001198
# 5 -0.008203 -0.006501 0.003987 0.000000 0.026649 0.000000
# 6 0.000000 0.000000 0.000000 -0.001198 0.000000 0.025719
#
#
# Mechanical properties :
#
#
# Convention : Reuss Voigt Hill
#
# Bulk Modulus (GPa) = 15.81744 19.54449 17.68097
# Shear Modulus (GPa) = 30.07882 35.14359 32.61120
#
# Velocity S-wave (km/s) = 3.54211 3.82873 3.68821
# Velocity P-wave (km/s) = 4.82976 5.26289 5.05097
#
# Compressibility (1/GPa) = 0.06322134
#
# Stress axis : x y z
#
# Youngs Moduli (GPa) = 33.60393 46.73527 80.15321
#
# Poissons Ratio (x) = -0.15568 0.17348
# Poissons Ratio (y) = -0.11194 0.10996
# Poissons Ratio (z) = 0.07273 0.06412
#
# Static dielectric constant tensor:
#      x y z
#    x 1.967470 0.000000 -0.022900 
#    y 0.000000 1.917310 0.000000 
#    z -0.022900 0.000000 1.915590 
# 
# From -- ./inp_files/11140.got.cif
#   From: 2010.05.17/outbox.cif.g08.bks.cpg/sg4_6_cif.got.tgz:11140.got - 2010.06.03 18:43:04.
