data_PCOD9116823
_publ_section_title
;
Structure prediction by ZEFSAII (Michael W. Deem and Ramdas Pophale) SiO2 
 PCOD9116823
Probable space group: P 21
;
_chemical_formula_sum "Si O2"
_cell_formula_units_Z 16
_cell_length_a 9.990275
_cell_length_b 7.874094
_cell_length_c 18.520901
_cell_angle_alpha 90.000000
_cell_angle_beta 28.909274
_cell_angle_gamma 90.000000
_cell_volume 704.317418
_symmetry_space_group_name_H-M "P 21"
_symmetry_group_IT_number 4
_symmetry_cell_setting 'monoclinic'
loop_
_space_group_symop_operation_xyz
x,y,z
-x,1/2+y,-z
loop_
_atom_site_type_symbol
_atom_site_label
_atom_site_fract_x
_atom_site_fract_y
_atom_site_fract_z
Si Si1 0.329500 0.861980 0.024044
Si Si2 0.794496 0.863135 0.013412
Si Si3 0.755235 0.478107 0.089122
Si Si4 0.309061 0.597238 0.399614
Si Si5 0.797473 0.363460 0.669112
Si Si6 0.580060 0.061728 0.494159
Si Si7 0.923406 0.713312 0.329985
Si Si8 0.120095 0.230795 0.177670
O O1 0.149877 0.739455 0.160406
O O2 0.257934 0.051011 0.087389
O O3 0.242220 0.857812 0.981663
O O4 0.653456 0.820282 0.878733
O O5 0.766079 0.668928 0.053900
O O6 0.482889 0.932312 0.162428
O O7 0.909970 0.847851 0.878758
O O8 0.990528 0.952279 0.977614
O O9 0.478661 0.469955 0.267573
O O10 0.269775 0.771122 0.374366
O O11 0.470604 0.614129 0.398778
O O12 0.016746 0.512123 0.555762
O O13 0.923019 0.223954 0.665643
O O14 0.298022 0.068372 0.581883
O O15 0.824573 0.182389 0.349087
O O16 0.723275 0.878401 0.423957
#
# Coordination Sequence:
#
# PCOD9116823 Si02
#       8
#     2   2   2   2   2   2   2   2
#     4  10  22  41  63  91 121 157 206 251 300 364
#     4  10  22  43  61  91 123 160 205 253 298 360
#     4  10  24  40  62  91 124 158 205 247 305 364
#     4  10  24  42  60  92 124 162 204 244 308 368
#     4  10  22  42  62  90 126 162 202 252 300 362
#     4  10  24  40  62  91 124 158 205 247 305 364
#     4  10  22  43  61  91 123 160 205 253 298 360
#     4  10  22  41  63  91 121 157 206 251 300 364
#
# _framework density 22.717030000000001
#
# number of rings (size 3 to 8) (size 9 to 14) (size 15 to 20)
#    0.000    2.000    1.250    0.000    8.750    4.000 
#    2.250    0.000    0.000    0.000    0.000    0.000 
#    0.000    0.000    0.000    0.000    0.000    0.000 
#
# Total GULP energy -89499.415986 kJ/mol
# GULP energy per Si atom -5593.713499 kJ/mol
# Density = 2.266533 g / cm^3
# Si number density = 22.717030 Si / 1000 Ang^3
#
#
#
# Elastic Constant Matrix: (Units=GPa)
#
#
# Indices 1 2 3 4 5 6 
#
# 1 79.9542 0.1286 21.9926 0.0000 -5.6647 0.0000
# 2 0.1286 31.9603 5.3682 0.0000 3.3748 0.0000
# 3 21.9926 5.3682 66.1795 0.0000 3.5243 0.0000
# 4 0.0000 0.0000 0.0000 19.3857 0.0000 -12.1926
# 5 -5.6647 3.3748 3.5243 0.0000 35.9648 0.0000
# 6 0.0000 0.0000 0.0000 -12.1926 0.0000 24.6601
#
#
#
# Elastic Compliance Matrix: (Units=1/GPa)
#
#
# Indices 1 2 3 4 5 6 
#
# 1 0.014025 0.000478 -0.004840 0.000000 0.002638 0.000000
# 2 0.000478 0.032008 -0.002613 0.000000 -0.002672 0.000000
# 3 -0.004840 -0.002613 0.017047 0.000000 -0.002188 0.000000
# 4 0.000000 0.000000 0.000000 0.074865 0.000000 0.037015
# 5 0.002638 -0.002672 -0.002188 0.000000 0.028686 0.000000
# 6 0.000000 0.000000 0.000000 0.037015 0.000000 0.058853
#
#
# Mechanical properties :
#
#
# Convention : Reuss Voigt Hill
#
# Bulk Modulus (GPa) = 20.35410 25.89695 23.12553
# Shear Modulus (GPa) = 19.54576 26.04243 22.79410
#
# Velocity S-wave (km/s) = 2.93644 3.38950 3.17107
# Velocity P-wave (km/s) = 4.52507 5.17135 4.85896
#
# Compressibility (1/GPa) = 0.04913016
#
# Stress axis : x y z
#
# Youngs Moduli (GPa) = 71.30324 31.24222 58.66057
#
# Poissons Ratio (x) = -0.01493 0.28391
# Poissons Ratio (y) = -0.03408 0.15327
# Poissons Ratio (z) = 0.34510 0.08163
#
# Static dielectric constant tensor:
#      x y z
#    x 1.826720 0.000000 0.008620 
#    y 0.000000 1.881150 0.000000 
#    z 0.008620 0.000000 1.824290 
# 
# From -- ./inp_files/5391.got.cif
#   From: 2010.05.17/outbox.cif.g08.bks.cpg/sg4_3_cif.got.tgz:5391.got - 2010.06.03 18:43:04.
