data_PCOD9116033
_publ_section_title
;
Structure prediction by ZEFSAII (Michael W. Deem and Ramdas Pophale) SiO2 
 PCOD9116033
Probable space group: P 21
;
_chemical_formula_sum "Si O2"
_cell_formula_units_Z 14
_cell_length_a 9.357091
_cell_length_b 6.393987
_cell_length_c 20.460555
_cell_angle_alpha 90.000000
_cell_angle_beta 30.658343
_cell_angle_gamma 90.000000
_cell_volume 624.209014
_symmetry_space_group_name_H-M "P 21"
_symmetry_group_IT_number 4
_symmetry_cell_setting 'monoclinic'
loop_
_space_group_symop_operation_xyz
x,y,z
-x,1/2+y,-z
loop_
_atom_site_type_symbol
_atom_site_label
_atom_site_fract_x
_atom_site_fract_y
_atom_site_fract_z
Si Si1 0.761797 0.391420 0.961580
Si Si2 0.503332 0.273719 0.188000
Si Si3 0.816576 0.154729 0.293050
Si Si4 0.418328 0.025046 0.343385
Si Si5 0.826686 0.153427 0.617148
Si Si6 0.840122 0.049821 0.837421
Si Si7 0.893834 0.424568 0.714726
O O1 0.731476 0.382518 0.051588
O O2 0.448496 0.424513 0.056684
O O3 0.865342 0.166550 0.896183
O O4 0.954043 0.561166 0.849282
O O5 0.585106 0.142391 0.220066
O O6 0.302918 0.455464 0.294690
O O7 0.335153 0.106134 0.208917
O O8 0.533937 0.096915 0.367398
O O9 0.901067 0.393384 0.272437
O O10 0.852669 0.035459 0.347310
O O11 0.405698 0.778142 0.333541
O O12 0.092702 0.091178 0.469814
O O13 0.933258 0.313240 0.630569
O O14 0.813620 0.236237 0.795116
#
# Coordination Sequence:
#
# PCOD9116033 Si02
#       7
#     2   2   2   2   2   2   2
#     4  11  20  36  63  98 130 174 210 264 336 398
#     4  11  22  42  69  94 128 179 225 261 334 412
#     4  11  24  41  62 105 132 167 221 282 324 399
#     4  11  26  45  65  95 130 174 227 276 338 392
#     4  11  22  46  71  87 126 184 219 279 336 399
#     4  11  19  37  67  94 139 171 209 270 332 391
#     4  10  21  39  65 101 125 171 221 268 332 389
#
# _framework density 22.428383
#
# number of rings (size 3 to 8) (size 9 to 14) (size 15 to 20)
#    0.000    1.143    5.714    0.857    0.000    2.286 
#   10.286    0.000    0.000    0.000    0.000    0.000 
#    0.000    0.000    0.000    0.000    0.000    0.000 
#
# Total GULP energy -78148.710229 kJ/mol
# GULP energy per Si atom -5582.050731 kJ/mol
# Density = 2.237733 g / cm^3
# Si number density = 22.428383 Si / 1000 Ang^3
#
#
#
# Elastic Constant Matrix: (Units=GPa)
#
#
# Indices 1 2 3 4 5 6 
#
# 1 67.5505 28.1736 -10.1571 0.0000 -7.4364 0.0000
# 2 28.1736 122.4098 18.9800 0.0000 -0.7431 0.0000
# 3 -10.1571 18.9800 39.6613 0.0000 12.4722 0.0000
# 4 0.0000 0.0000 0.0000 31.8359 0.0000 13.8758
# 5 -7.4364 -0.7431 12.4722 0.0000 25.0374 0.0000
# 6 0.0000 0.0000 0.0000 13.8758 0.0000 24.9705
#
#
#
# Elastic Compliance Matrix: (Units=1/GPa)
#
#
# Indices 1 2 3 4 5 6 
#
# 1 0.018159 -0.005175 0.006497 0.000000 0.002004 0.000000
# 2 -0.005175 0.010468 -0.007054 0.000000 0.002288 0.000000
# 3 0.006497 -0.007054 0.035231 0.000000 -0.015830 0.000000
# 4 0.000000 0.000000 0.000000 0.041450 0.000000 -0.023033
# 5 0.002004 0.002288 -0.015830 0.000000 0.048489 0.000000
# 6 0.000000 0.000000 0.000000 -0.023033 0.000000 0.052847
#
#
# Mechanical properties :
#
#
# Convention : Reuss Voigt Hill
#
# Bulk Modulus (GPa) = 19.08597 33.73496 26.41046
# Shear Modulus (GPa) = 21.22485 29.21042 25.21764
#
# Velocity S-wave (km/s) = 3.07960 3.61277 3.35679
# Velocity P-wave (km/s) = 4.60146 5.69883 5.17929
#
# Compressibility (1/GPa) = 0.05239450
#
# Stress axis : x y z
#
# Youngs Moduli (GPa) = 55.06777 95.52983 28.38405
#
# Poissons Ratio (x) = 0.49434 -0.18441
# Poissons Ratio (y) = 0.28496 0.20022
# Poissons Ratio (z) = -0.35777 0.67388
#
# Static dielectric constant tensor:
#      x y z
#    x 1.847110 0.000000 -0.006140 
#    y 0.000000 1.877170 0.000000 
#    z -0.006140 0.000000 1.830170 
# 
# From -- ./inp_files/15547.got.cif
#   From: 2010.05.17/outbox.cif.g08.bks.cpg/sg4_8_cif.got.tgz:15547.got - 2010.06.03 18:43:04.
