data_PCOD9116714
_publ_section_title
;
Structure prediction by ZEFSAII (Michael W. Deem and Ramdas Pophale) SiO2 
 PCOD9116714
Probable space group: P 21
;
_chemical_formula_sum "Si O2"
_cell_formula_units_Z 14
_cell_length_a 8.389493
_cell_length_b 9.304993
_cell_length_c 11.248322
_cell_angle_alpha 90.000000
_cell_angle_beta 129.407150
_cell_angle_gamma 90.000000
_cell_volume 678.460809
_symmetry_space_group_name_H-M "P 21"
_symmetry_group_IT_number 4
_symmetry_cell_setting 'monoclinic'
loop_
_space_group_symop_operation_xyz
x,y,z
-x,1/2+y,-z
loop_
_atom_site_type_symbol
_atom_site_label
_atom_site_fract_x
_atom_site_fract_y
_atom_site_fract_z
Si Si1 0.353312 0.060570 0.046836
Si Si2 0.416998 0.769217 0.987052
Si Si3 0.839539 0.835670 0.312467
Si Si4 0.977621 0.095017 0.219499
Si Si5 0.681320 0.391493 0.729386
Si Si6 0.926228 0.143492 0.756372
Si Si7 0.227424 0.359143 0.439934
O O1 0.510785 0.189211 0.098443
O O2 0.381687 0.965765 0.177102
O O3 0.128757 0.128082 0.932503
O O4 0.371817 0.938413 0.952927
O O5 0.211011 0.684411 0.929198
O O6 0.622183 0.765026 0.166510
O O7 0.841197 0.853727 0.454204
O O8 0.013515 0.736793 0.332516
O O9 0.872023 0.991431 0.267645
O O10 0.138939 0.211430 0.345566
O O11 0.119984 0.985875 0.213312
O O12 0.759945 0.228403 0.755747
O O13 0.473104 0.386899 0.553656
O O14 0.865119 0.988801 0.679703
#
# Coordination Sequence:
#
# PCOD9116714 Si02
#       7
#     2   2   2   2   2   2   2
#     4  11  23  41  67  88 125 160 206 262 308 361
#     4  11  20  42  62  92 117 160 208 260 303 363
#     4  10  22  40  63  92 123 158 204 264 305 361
#     4  11  23  39  63  90 125 163 206 254 310 369
#     4  11  25  42  58  90 130 164 201 255 311 366
#     4  10  24  40  62  93 124 160 207 251 309 371
#     4  12  21  40  63  85 124 167 210 246 304 363
#
# _framework density 20.634943
#
# number of rings (size 3 to 8) (size 9 to 14) (size 15 to 20)
#    0.000    1.143    4.286    1.714    2.000    0.000 
#    0.000    1.429    0.000    0.000    0.000    0.000 
#    0.000    0.000    0.000    0.000    0.000    0.000 
#
# Total GULP energy -78029.067808 kJ/mol
# GULP energy per Si atom -5573.504843 kJ/mol
# Density = 2.058798 g / cm^3
# Si number density = 20.634943 Si / 1000 Ang^3
#
#
#
# Elastic Constant Matrix: (Units=GPa)
#
#
# Indices 1 2 3 4 5 6 
#
# 1 39.5409 -3.3395 10.3164 0.0000 6.2686 0.0000
# 2 -3.3395 77.5205 -0.9150 0.0000 -2.6988 0.0000
# 3 10.3164 -0.9150 41.5030 0.0000 13.8566 0.0000
# 4 0.0000 0.0000 0.0000 27.8755 0.0000 10.3312
# 5 6.2686 -2.6988 13.8566 0.0000 31.7018 0.0000
# 6 0.0000 0.0000 0.0000 10.3312 0.0000 47.4723
#
#
#
# Elastic Compliance Matrix: (Units=1/GPa)
#
#
# Indices 1 2 3 4 5 6 
#
# 1 0.027340 0.001013 -0.005851 0.000000 -0.002762 0.000000
# 2 0.001013 0.012976 -0.000313 0.000000 0.001041 0.000000
# 3 -0.005851 -0.000313 0.029465 0.000000 -0.011748 0.000000
# 4 0.000000 0.000000 0.000000 0.039021 0.000000 -0.008492
# 5 -0.002762 0.001041 -0.011748 0.000000 0.037314 0.000000
# 6 0.000000 0.000000 0.000000 -0.008492 0.000000 0.022913
#
#
# Mechanical properties :
#
#
# Convention : Reuss Voigt Hill
#
# Bulk Modulus (GPa) = 16.81331 18.96537 17.88934
# Shear Modulus (GPa) = 25.10559 31.57675 28.34117
#
# Velocity S-wave (km/s) = 3.49184 3.91609 3.71004
# Velocity P-wave (km/s) = 4.94196 5.44597 5.20007
#
# Compressibility (1/GPa) = 0.05947669
#
# Stress axis : x y z
#
# Youngs Moduli (GPa) = 36.57600 77.06546 33.93901
#
# Poissons Ratio (x) = -0.07803 0.19859
# Poissons Ratio (y) = -0.03704 0.01063
# Poissons Ratio (z) = 0.21402 0.02415
#
# Static dielectric constant tensor:
#      x y z
#    x 1.806350 0.000000 -0.001120 
#    y 0.000000 1.711030 0.000000 
#    z -0.001120 0.000000 1.732980 
# 
# From -- ./inp_files/5359.got.cif
#   From: 2010.05.17/outbox.cif.g08.bks.cpg/sg4_3_cif.got.tgz:5359.got - 2010.06.03 18:43:04.
