data_PCOD9116327
_publ_section_title
;
Structure prediction by ZEFSAII (Michael W. Deem and Ramdas Pophale) SiO2 
 PCOD9116327
Probable space group: P 21
;
_chemical_formula_sum "Si O2"
_cell_formula_units_Z 14
_cell_length_a 9.122285
_cell_length_b 7.058976
_cell_length_c 11.355836
_cell_angle_alpha 90.000000
_cell_angle_beta 77.412716
_cell_angle_gamma 90.000000
_cell_volume 713.672175
_symmetry_space_group_name_H-M "P 21"
_symmetry_group_IT_number 4
_symmetry_cell_setting 'monoclinic'
loop_
_space_group_symop_operation_xyz
x,y,z
-x,1/2+y,-z
loop_
_atom_site_type_symbol
_atom_site_label
_atom_site_fract_x
_atom_site_fract_y
_atom_site_fract_z
Si Si1 0.397456 0.762700 0.056425
Si Si2 0.623199 0.214848 0.217227
Si Si3 0.827032 0.979421 0.780427
Si Si4 0.621830 0.978609 0.618129
Si Si5 0.596001 0.822103 0.359039
Si Si6 0.840573 0.545696 0.205211
Si Si7 0.270426 0.160154 0.026321
O O1 0.301934 0.620349 0.150283
O O2 0.328150 0.970069 0.078779
O O3 0.378116 0.706819 0.923122
O O4 0.574657 0.751904 0.049960
O O5 0.488312 0.351625 0.281647
O O6 0.772620 0.332752 0.226538
O O7 0.601673 0.011619 0.279717
O O8 0.783419 0.959057 0.651539
O O9 0.992018 0.055843 0.776278
O O10 0.806976 0.793909 0.865191
O O11 0.553323 0.191553 0.626166
O O12 0.614209 0.891581 0.489626
O O13 0.730766 0.684717 0.295642
O O14 0.829150 0.606726 0.069591
#
# Coordination Sequence:
#
# PCOD9116327 Si02
#       7
#     2   2   2   2   2   2   2
#     4  11  21  38  65  97 121 164 211 261 316 365
#     4  10  21  42  67  94 124 161 215 262 316 374
#     4  12  25  41  62  99 131 162 212 252 319 398
#     4  11  23  41  69  97 117 164 225 265 314 361
#     4  11  22  44  68  90 125 168 216 274 307 365
#     4  10  26  41  60  96 132 171 203 250 331 388
#     4  11  22  39  65  93 128 162 206 264 309 375
#
# _framework density 19.616851
#
# number of rings (size 3 to 8) (size 9 to 14) (size 15 to 20)
#    0.000    1.143    4.286    2.571    6.000    1.143 
#    2.571    0.000    0.000    0.000    0.000    0.000 
#    0.000    0.000    0.000    0.000    0.000    0.000 
#
# Total GULP energy -78255.950922 kJ/mol
# GULP energy per Si atom -5589.710780 kJ/mol
# Density = 1.957220 g / cm^3
# Si number density = 19.616851 Si / 1000 Ang^3
#
#
#
# Elastic Constant Matrix: (Units=GPa)
#
#
# Indices 1 2 3 4 5 6 
#
# 1 93.5203 25.3205 31.4126 0.0000 33.6748 0.0000
# 2 25.3205 114.0761 29.2936 0.0000 7.5572 0.0000
# 3 31.4126 29.2936 66.3431 0.0000 18.3694 0.0000
# 4 0.0000 0.0000 0.0000 37.8809 0.0000 -2.7107
# 5 33.6748 7.5572 18.3694 0.0000 24.6623 0.0000
# 6 0.0000 0.0000 0.0000 -2.7107 0.0000 17.5389
#
#
#
# Elastic Compliance Matrix: (Units=1/GPa)
#
#
# Indices 1 2 3 4 5 6 
#
# 1 0.022067 -0.002653 -0.001461 0.000000 -0.028230 0.000000
# 2 -0.002653 0.010208 -0.004268 0.000000 0.003673 0.000000
# 3 -0.001461 -0.004268 0.021083 0.000000 -0.012401 0.000000
# 4 0.000000 0.000000 0.000000 0.026694 0.000000 0.004126
# 5 -0.028230 0.003673 -0.012401 0.000000 0.087205 0.000000
# 6 0.000000 0.000000 0.000000 0.004126 0.000000 0.057654
#
#
# Mechanical properties :
#
#
# Convention : Reuss Voigt Hill
#
# Bulk Modulus (GPa) = 27.32671 49.55477 38.44074
# Shear Modulus (GPa) = 19.69506 28.54395 24.11951
#
# Velocity S-wave (km/s) = 3.17201 3.81868 3.51027
# Velocity P-wave (km/s) = 5.23221 6.69024 6.00563
#
# Compressibility (1/GPa) = 0.03659424
#
# Stress axis : x y z
#
# Youngs Moduli (GPa) = 45.31725 97.96660 47.43155
#
# Poissons Ratio (x) = 0.25988 0.06928
# Poissons Ratio (y) = 0.12022 0.20245
# Poissons Ratio (z) = 0.06619 0.41814
#
# Static dielectric constant tensor:
#      x y z
#    x 1.678520 0.000000 0.021680 
#    y 0.000000 1.712040 0.000000 
#    z 0.021680 0.000000 1.698250 
# 
# From -- ./inp_files/6104.got.cif
#   From: 2010.05.17/outbox.cif.g08.bks.cpg/sg4_4_cif.got.tgz:6104.got - 2010.06.03 18:43:04.
