data_PCOD9116838
_publ_section_title
;
Structure prediction by ZEFSAII (Michael W. Deem and Ramdas Pophale) SiO2 
 PCOD9116838
Probable space group: P 21
;
_chemical_formula_sum "Si O2"
_cell_formula_units_Z 14
_cell_length_a 9.748250
_cell_length_b 5.557751
_cell_length_c 20.957359
_cell_angle_alpha 90.000000
_cell_angle_beta 26.360087
_cell_angle_gamma 90.000000
_cell_volume 504.145774
_symmetry_space_group_name_H-M "P 21"
_symmetry_group_IT_number 4
_symmetry_cell_setting 'monoclinic'
loop_
_space_group_symop_operation_xyz
x,y,z
-x,1/2+y,-z
loop_
_atom_site_type_symbol
_atom_site_label
_atom_site_fract_x
_atom_site_fract_y
_atom_site_fract_z
Si Si1 0.189262 0.376710 0.837515
Si Si2 0.434905 0.291190 0.439355
Si Si3 0.878454 0.930021 0.813315
Si Si4 0.695842 0.762421 0.656098
Si Si5 0.322797 0.770836 0.467673
Si Si6 0.657271 0.631583 0.109511
Si Si7 0.662488 0.436238 0.856298
O O1 0.467858 0.535270 0.750289
O O2 0.347013 0.276803 0.708032
O O3 0.119249 0.194388 0.923997
O O4 0.874381 0.523561 0.963323
O O5 0.339346 0.319020 0.404478
O O6 0.301157 0.539743 0.522189
O O7 0.798528 0.323919 0.296023
O O8 0.318107 0.026717 0.505144
O O9 0.767726 0.714818 0.812158
O O10 0.877067 0.207136 0.788476
O O11 0.625726 0.935161 0.974740
O O12 0.050491 0.752846 0.529176
O O13 0.566582 0.951432 0.760657
O O14 0.466234 0.844204 0.157250
#
# Coordination Sequence:
#
# PCOD9116838 Si02
#       7
#     2   2   2   2   2   2   2
#     4  11  24  39  61 102 140 175 214 268 357 407
#     4  11  21  40  66  95 127 165 230 275 314 397
#     4  10  22  41  64  92 124 180 226 272 318 386
#     4  11  24  40  63 102 132 179 210 274 345 410
#     4  11  24  40  67  98 133 176 221 265 332 418
#     4  12  24  40  64 101 141 171 211 286 349 402
#     4  10  23  40  63  92 131 174 224 270 329 390
#
# _framework density 27.769745
#
# number of rings (size 3 to 8) (size 9 to 14) (size 15 to 20)
#    0.000    1.143    2.857    4.286    4.000    2.286 
#    0.000    0.000    0.000    3.429    0.000    0.000 
#    0.000    0.000    0.000    0.000    0.000    0.000 
#
# Total GULP energy -78349.042511 kJ/mol
# GULP energy per Si atom -5596.360179 kJ/mol
# Density = 2.770654 g / cm^3
# Si number density = 27.769745 Si / 1000 Ang^3
#
#
#
# Elastic Constant Matrix: (Units=GPa)
#
#
# Indices 1 2 3 4 5 6 
#
# 1 94.5068 33.5405 9.4510 0.0000 -13.7642 0.0000
# 2 33.5405 183.3582 18.3613 0.0000 -7.6897 0.0000
# 3 9.4510 18.3613 76.6868 0.0000 -6.4789 0.0000
# 4 0.0000 0.0000 0.0000 35.0240 0.0000 -4.7391
# 5 -13.7642 -7.6897 -6.4789 0.0000 50.9687 0.0000
# 6 0.0000 0.0000 0.0000 -4.7391 0.0000 45.4604
#
#
#
# Elastic Compliance Matrix: (Units=1/GPa)
#
#
# Indices 1 2 3 4 5 6 
#
# 1 0.011757 -0.001959 -0.000745 0.000000 0.002785 0.000000
# 2 -0.001959 0.005938 -0.001162 0.000000 0.000219 0.000000
# 3 -0.000745 -0.001162 0.013523 0.000000 0.001343 0.000000
# 4 0.000000 0.000000 0.000000 0.028960 0.000000 0.003019
# 5 0.002785 0.000219 0.001343 0.000000 0.020576 0.000000
# 6 0.000000 0.000000 0.000000 0.003019 0.000000 0.022312
#
#
# Mechanical properties :
#
#
# Convention : Reuss Voigt Hill
#
# Bulk Modulus (GPa) = 42.57714 53.02858 47.80286
# Shear Modulus (GPa) = 42.14948 45.83722 43.99335
#
# Velocity S-wave (km/s) = 3.90015 4.06719 3.98454
# Velocity P-wave (km/s) = 5.97051 6.41820 6.19840
#
# Compressibility (1/GPa) = 0.02348678
#
# Stress axis : x y z
#
# Youngs Moduli (GPa) = 85.05865 168.41505 73.94585
#
# Poissons Ratio (x) = 0.32996 0.05506
# Poissons Ratio (y) = 0.16665 0.08590
# Poissons Ratio (z) = 0.06333 0.19565
#
# Static dielectric constant tensor:
#      x y z
#    x 2.109240 0.000000 0.001090 
#    y 0.000000 2.365630 0.000000 
#    z 0.001090 0.000000 2.154150 
# 
# From -- ./inp_files/16348.got.cif
#   From: 2010.05.17/outbox.cif.g08.bks.cpg/sg4_9_cif.got.tgz:16348.got - 2010.06.03 18:43:04.
