data_PCOD9116233
_publ_section_title
;
Structure prediction by ZEFSAII (Michael W. Deem and Ramdas Pophale) SiO2 
 PCOD9116233
Probable space group: P 21
;
_chemical_formula_sum "Si O2"
_cell_formula_units_Z 16
_cell_length_a 5.294695
_cell_length_b 12.493933
_cell_length_c 11.747963
_cell_angle_alpha 90.000000
_cell_angle_beta 109.722036
_cell_angle_gamma 90.000000
_cell_volume 731.559385
_symmetry_space_group_name_H-M "P 21"
_symmetry_group_IT_number 4
_symmetry_cell_setting 'monoclinic'
loop_
_space_group_symop_operation_xyz
x,y,z
-x,1/2+y,-z
loop_
_atom_site_type_symbol
_atom_site_label
_atom_site_fract_x
_atom_site_fract_y
_atom_site_fract_z
Si Si1 0.959556 0.748190 0.887600
Si Si2 0.856969 0.793002 0.327866
Si Si3 0.593551 0.097200 0.042255
Si Si4 0.192618 0.064840 0.785823
Si Si5 0.557125 0.393579 0.560015
Si Si6 0.102830 0.387261 0.909808
Si Si7 0.652520 0.942004 0.722859
Si Si8 0.346010 0.036139 0.225440
O O1 0.827041 0.840623 0.792284
O O2 0.845076 0.637937 0.819823
O O3 0.270556 0.713527 0.945732
O O4 0.885874 0.790456 0.001308
O O5 0.811489 0.668874 0.294725
O O6 0.662328 0.831122 0.398191
O O7 0.796489 0.851610 0.198382
O O8 0.162763 0.828590 0.400882
O O9 0.575837 0.070437 0.173491
O O10 0.753659 0.993383 0.020236
O O11 0.321336 0.090382 0.928739
O O12 0.393148 0.977826 0.757827
O O13 0.883994 0.031769 0.754333
O O14 0.454287 0.416948 0.418973
O O15 0.593919 0.504450 0.636751
O O16 0.800762 0.430671 0.846175
#
# Coordination Sequence:
#
# PCOD9116233 Si02
#       8
#     2   2   2   2   2   2   2   2
#     4  11  25  40  69 102 143 181 232 289 364 427
#     4  11  24  44  76 101 133 188 239 283 355 419
#     4  11  23  41  70 101 141 182 231 294 358 427
#     4  12  27  44  73 107 141 180 236 300 361 421
#     4  11  25  49  72  98 141 190 238 291 342 426
#     4  10  21  41  66 103 140 178 228 296 353 427
#     4  12  28  49  67 105 147 188 235 296 353 419
#     4  10  23  40  67 101 134 185 235 285 352 428
#
# _framework density 21.871086999999999
#
# number of rings (size 3 to 8) (size 9 to 14) (size 15 to 20)
#    0.000    1.000    2.500    3.000    8.750    4.000 
#    2.250    0.000    0.000    0.000    0.000    0.000 
#    0.000    0.000    0.000    0.000    0.000    0.000 
#
# Total GULP energy -89297.196534 kJ/mol
# GULP energy per Si atom -5581.074783 kJ/mol
# Density = 2.182131 g / cm^3
# Si number density = 21.871087 Si / 1000 Ang^3
#
#
#
# Elastic Constant Matrix: (Units=GPa)
#
#
# Indices 1 2 3 4 5 6 
#
# 1 77.8331 8.1788 7.9992 0.0000 6.8492 0.0000
# 2 8.1788 69.3762 19.3800 0.0000 3.8109 0.0000
# 3 7.9992 19.3800 125.0334 0.0000 5.1253 0.0000
# 4 0.0000 0.0000 0.0000 17.9296 0.0000 -1.8633
# 5 6.8492 3.8109 5.1253 0.0000 27.3244 0.0000
# 6 0.0000 0.0000 0.0000 -1.8633 0.0000 23.2705
#
#
#
# Elastic Compliance Matrix: (Units=1/GPa)
#
#
# Indices 1 2 3 4 5 6 
#
# 1 0.013303 -0.001252 -0.000532 0.000000 -0.003060 0.000000
# 2 -0.001252 0.015261 -0.002228 0.000000 -0.001397 0.000000
# 3 -0.000532 -0.002228 0.008424 0.000000 -0.001136 0.000000
# 4 0.000000 0.000000 0.000000 0.056242 0.000000 0.004503
# 5 -0.003060 -0.001397 -0.001136 0.000000 0.037772 0.000000
# 6 0.000000 0.000000 0.000000 0.004503 0.000000 0.043333
#
#
# Mechanical properties :
#
#
# Convention : Reuss Voigt Hill
#
# Bulk Modulus (GPa) = 34.52417 38.15099 36.33758
# Shear Modulus (GPa) = 26.03982 29.48387 27.76185
#
# Velocity S-wave (km/s) = 3.45426 3.67560 3.56664
# Velocity P-wave (km/s) = 5.63283 5.95775 5.79757
#
# Compressibility (1/GPa) = 0.02896522
#
# Stress axis : x y z
#
# Youngs Moduli (GPa) = 75.16822 65.52708 118.71137
#
# Poissons Ratio (x) = 0.08202 0.06311
# Poissons Ratio (y) = 0.09409 0.26450
# Poissons Ratio (z) = 0.03996 0.14600
#
# Static dielectric constant tensor:
#      x y z
#    x 1.864930 0.000000 0.022900 
#    y 0.000000 1.828580 0.000000 
#    z 0.022900 0.000000 1.790540 
# 
# From -- ./inp_files/2845.got.cif
#   From: 2010.05.17/outbox.cif.g08.bks.cpg/sg4_2_cif.got.tgz:2845.got - 2010.06.03 18:43:04.
