data_PCOD9116313
_publ_section_title
;
Structure prediction by ZEFSAII (Michael W. Deem and Ramdas Pophale) SiO2 
 PCOD9116313
Probable space group: P 21
;
_chemical_formula_sum "Si O2"
_cell_formula_units_Z 16
_cell_length_a 8.363496
_cell_length_b 11.691696
_cell_length_c 8.859682
_cell_angle_alpha 90.000000
_cell_angle_beta 58.953410
_cell_angle_gamma 90.000000
_cell_volume 742.226934
_symmetry_space_group_name_H-M "P 21"
_symmetry_group_IT_number 4
_symmetry_cell_setting 'monoclinic'
loop_
_space_group_symop_operation_xyz
x,y,z
-x,1/2+y,-z
loop_
_atom_site_type_symbol
_atom_site_label
_atom_site_fract_x
_atom_site_fract_y
_atom_site_fract_z
Si Si1 0.694991 0.992260 0.812725
Si Si2 0.958106 0.222308 0.057173
Si Si3 0.688326 0.246769 0.707576
Si Si4 0.691113 0.762569 0.292458
Si Si5 0.630951 0.668378 0.653808
Si Si6 0.359322 0.845648 0.947573
Si Si7 0.311815 0.507468 0.824170
Si Si8 0.949151 0.780596 0.651956
O O1 0.835962 0.897774 0.678523
O O2 0.737283 0.120013 0.742507
O O3 0.484426 0.957746 0.865896
O O4 0.704225 0.982651 0.989761
O O5 0.827394 0.111901 0.142452
O O6 0.044329 0.257606 0.173854
O O7 0.825657 0.324019 0.058857
O O8 0.124164 0.199961 0.858567
O O9 0.486858 0.242158 0.727648
O O10 0.684782 0.327290 0.855685
O O11 0.844484 0.285728 0.514363
O O12 0.641969 0.726323 0.484941
O O13 0.732230 0.897282 0.253530
O O14 0.524045 0.548957 0.691412
O O15 0.833732 0.678625 0.628178
O O16 0.497904 0.742603 0.829480
#
# Coordination Sequence:
#
# PCOD9116313 Si02
#       8
#     2   2   2   2   2   2   2   2
#     4  11  23  46  72  97 140 185 228 280 354 400
#     4  11  23  43  68 102 143 177 234 283 341 413
#     4  12  23  43  71  99 138 179 229 285 340 406
#     4  12  25  45  70 105 139 180 232 290 338 412
#     4  10  23  42  68  98 139 173 231 284 339 408
#     4  10  21  42  66 100 133 177 223 284 335 409
#     4  11  23  46  72  98 137 187 225 285 352 403
#     4  11  25  45  67 105 141 180 232 287 335 417
#
# _framework density 21.556750999999998
#
# number of rings (size 3 to 8) (size 9 to 14) (size 15 to 20)
#    0.000    1.000    5.000    3.000    0.000    6.000 
#    0.000    0.000    0.000    0.000    0.000    0.000 
#    0.000    0.000    0.000    0.000    0.000    0.000 
#
# Total GULP energy -89491.590662 kJ/mol
# GULP energy per Si atom -5593.224416 kJ/mol
# Density = 2.150769 g / cm^3
# Si number density = 21.556751 Si / 1000 Ang^3
#
#
#
# Elastic Constant Matrix: (Units=GPa)
#
#
# Indices 1 2 3 4 5 6 
#
# 1 89.1689 11.3984 5.7447 0.0000 -1.4432 0.0000
# 2 11.3984 63.4289 12.4755 0.0000 -10.0234 0.0000
# 3 5.7447 12.4755 71.8620 0.0000 -6.8609 0.0000
# 4 0.0000 0.0000 0.0000 30.1155 0.0000 -2.8632
# 5 -1.4432 -10.0234 -6.8609 0.0000 39.7255 0.0000
# 6 0.0000 0.0000 0.0000 -2.8632 0.0000 25.4906
#
#
#
# Elastic Compliance Matrix: (Units=1/GPa)
#
#
# Indices 1 2 3 4 5 6 
#
# 1 0.011503 -0.001979 -0.000593 0.000000 -0.000184 0.000000
# 2 -0.001979 0.017214 -0.002463 0.000000 0.003846 0.000000
# 3 -0.000593 -0.002463 0.014569 0.000000 0.001873 0.000000
# 4 0.000000 0.000000 0.000000 0.033564 0.000000 0.003770
# 5 -0.000184 0.003846 0.001873 0.000000 0.026460 0.000000
# 6 0.000000 0.000000 0.000000 0.003770 0.000000 0.039654
#
#
# Mechanical properties :
#
#
# Convention : Reuss Voigt Hill
#
# Bulk Modulus (GPa) = 30.10758 31.52189 30.81474
# Shear Modulus (GPa) = 30.46799 32.05573 31.26186
#
# Velocity S-wave (km/s) = 3.76358 3.86040 3.81230
# Velocity P-wave (km/s) = 5.73437 5.87577 5.80550
#
# Compressibility (1/GPa) = 0.03321422
#
# Stress axis : x y z
#
# Youngs Moduli (GPa) = 86.93411 58.09364 68.63686
#
# Poissons Ratio (x) = 0.11500 0.04073
# Poissons Ratio (y) = 0.17208 0.16905
# Poissons Ratio (z) = 0.05159 0.14308
#
# Static dielectric constant tensor:
#      x y z
#    x 1.785430 0.000000 -0.027030 
#    y 0.000000 1.813630 0.000000 
#    z -0.027030 0.000000 1.741610 
# 
# From -- ./inp_files/6062.got.cif
#   From: 2010.05.17/outbox.cif.g08.bks.cpg/sg4_4_cif.got.tgz:6062.got - 2010.06.03 18:43:04.
