data_PCOD9116894
_publ_section_title
;
Structure prediction by ZEFSAII (Michael W. Deem and Ramdas Pophale) SiO2 
 PCOD9116894
Probable space group: P 21
;
_chemical_formula_sum "Si O2"
_cell_formula_units_Z 16
_cell_length_a 14.495283
_cell_length_b 5.390728
_cell_length_c 14.885846
_cell_angle_alpha 90.000000
_cell_angle_beta 40.315546
_cell_angle_gamma 90.000000
_cell_volume 752.574846
_symmetry_space_group_name_H-M "P 21"
_symmetry_group_IT_number 4
_symmetry_cell_setting 'monoclinic'
loop_
_space_group_symop_operation_xyz
x,y,z
-x,1/2+y,-z
loop_
_atom_site_type_symbol
_atom_site_label
_atom_site_fract_x
_atom_site_fract_y
_atom_site_fract_z
Si Si1 0.805528 0.981660 0.354413
Si Si2 0.590211 0.666976 0.939045
Si Si3 0.176479 0.841687 0.296143
Si Si4 0.514641 0.751258 0.543329
Si Si5 0.086090 0.656304 0.547911
Si Si6 0.215212 0.827833 0.805595
Si Si7 0.164246 0.431313 0.165914
Si Si8 0.016355 0.648005 0.112590
O O1 0.673632 0.794009 0.460169
O O2 0.957223 0.851517 0.225402
O O3 0.814207 0.126911 0.440273
O O4 0.787011 0.148355 0.279705
O O5 0.710043 0.565723 0.780887
O O6 0.698507 0.751726 0.938093
O O7 0.491568 0.422454 0.027091
O O8 0.173937 0.713030 0.394047
O O9 0.215297 0.679974 0.179452
O O10 0.013336 0.922284 0.401250
O O11 0.500141 0.464315 0.523937
O O12 0.382530 0.836027 0.703758
O O13 0.963251 0.844388 0.673294
O O14 0.125620 0.733500 0.956092
O O15 0.126226 0.061680 0.834475
O O16 0.095159 0.455791 0.119183
#
# Coordination Sequence:
#
# PCOD9116894 Si02
#       8
#     2   2   2   2   2   2   2   2
#     4  11  22  39  67  99 139 179 227 285 350 417
#     4  11  24  47  73  96 140 199 230 278 360 426
#     4  11  22  39  70 104 138 179 229 296 349 415
#     4  10  22  41  68  96 138 183 221 278 351 410
#     4  11  22  38  67 107 134 172 233 290 352 411
#     4  11  23  40  66  99 138 177 231 287 345 413
#     4  11  23  40  70 104 140 176 232 296 347 414
#     4  12  22  40  67 105 135 179 239 288 350 414
#
# _framework density 21.260342999999999
#
# number of rings (size 3 to 8) (size 9 to 14) (size 15 to 20)
#    0.000    1.000    7.500    0.000    0.000    0.000 
#    0.000    2.500   11.000    0.000    0.000    0.000 
#    0.000    0.000    0.000    0.000    0.000    0.000 
#
# Total GULP energy -89123.102281 kJ/mol
# GULP energy per Si atom -5570.193893 kJ/mol
# Density = 2.121195 g / cm^3
# Si number density = 21.260343 Si / 1000 Ang^3
#
#
#
# Elastic Constant Matrix: (Units=GPa)
#
#
# Indices 1 2 3 4 5 6 
#
# 1 65.5308 17.9351 34.0593 0.0000 0.8962 0.0000
# 2 17.9351 61.0494 9.4223 0.0000 0.0776 0.0000
# 3 34.0593 9.4223 93.2421 0.0000 -7.9703 0.0000
# 4 0.0000 0.0000 0.0000 25.2888 0.0000 0.2382
# 5 0.8962 0.0776 -7.9703 0.0000 31.3873 0.0000
# 6 0.0000 0.0000 0.0000 0.2382 0.0000 22.0668
#
#
#
# Elastic Compliance Matrix: (Units=1/GPa)
#
#
# Indices 1 2 3 4 5 6 
#
# 1 0.020336 -0.004869 -0.007140 0.000000 -0.002382 0.000000
# 2 -0.004869 0.017813 -0.000014 0.000000 0.000092 0.000000
# 3 -0.007140 -0.000014 0.013648 0.000000 0.003670 0.000000
# 4 0.000000 0.000000 0.000000 0.039547 0.000000 -0.000427
# 5 -0.002382 0.000092 0.003670 0.000000 0.032860 0.000000
# 6 0.000000 0.000000 0.000000 -0.000427 0.000000 0.045321
#
#
# Mechanical properties :
#
#
# Convention : Reuss Voigt Hill
#
# Bulk Modulus (GPa) = 36.03453 38.07287 37.05370
# Shear Modulus (GPa) = 24.65229 26.30897 25.48063
#
# Velocity S-wave (km/s) = 3.40890 3.52158 3.46570
# Velocity P-wave (km/s) = 5.69913 5.87215 5.78629
#
# Compressibility (1/GPa) = 0.02775116
#
# Stress axis : x y z
#
# Youngs Moduli (GPa) = 49.17335 56.13982 73.27157
#
# Poissons Ratio (x) = 0.27337 0.52315
# Poissons Ratio (y) = 0.23944 0.00099
# Poissons Ratio (z) = 0.35109 0.00076
#
# Static dielectric constant tensor:
#      x y z
#    x 1.796180 0.000000 -0.043760 
#    y 0.000000 1.912300 0.000000 
#    z -0.043760 0.000000 1.760970 
# 
# From -- ./inp_files/14129.got.cif
#   From: 2010.05.17/outbox.cif.g08.bks.cpg/sg4_8_cif.got.tgz:14129.got - 2010.06.03 18:43:04.
