data_PCOD9116526
_publ_section_title
;
Structure prediction by ZEFSAII (Michael W. Deem and Ramdas Pophale) SiO2 
 PCOD9116526
Probable space group: P 21
;
_chemical_formula_sum "Si O2"
_cell_formula_units_Z 14
_cell_length_a 4.901734
_cell_length_b 5.364873
_cell_length_c 18.164858
_cell_angle_alpha 90.000000
_cell_angle_beta 96.518524
_cell_angle_gamma 90.000000
_cell_volume 474.596415
_symmetry_space_group_name_H-M "P 21"
_symmetry_group_IT_number 4
_symmetry_cell_setting 'monoclinic'
loop_
_space_group_symop_operation_xyz
x,y,z
-x,1/2+y,-z
loop_
_atom_site_type_symbol
_atom_site_label
_atom_site_fract_x
_atom_site_fract_y
_atom_site_fract_z
Si Si1 0.597596 0.286410 0.178746
Si Si2 0.624030 0.467600 0.637548
Si Si3 0.741149 0.295344 0.790433
Si Si4 0.827013 0.471309 0.487243
Si Si5 0.833474 0.948958 0.078814
Si Si6 0.861577 0.291363 0.338254
Si Si7 0.689492 0.085174 0.919688
O O1 0.859140 0.152086 0.143456
O O2 0.791194 0.379416 0.255455
O O3 0.439154 0.309250 0.088874
O O4 0.430108 0.044480 0.205502
O O5 0.768795 0.288021 0.703507
O O6 0.631600 0.408533 0.550551
O O7 0.316737 0.540885 0.650125
O O8 0.821796 0.711057 0.649257
O O9 0.591380 0.051475 0.816923
O O10 0.924095 0.265007 0.876965
O O11 0.748469 0.471654 0.398928
O O12 0.971971 0.732623 0.505780
O O13 0.563753 0.777309 0.073273
O O14 0.873259 0.061143 0.999861
#
# Coordination Sequence:
#
# PCOD9116526 Si02
#       7
#     2   2   2   2   2   2   2
#     4  11  22  45  68  97 146 187 246 312 370 458
#     4  10  21  46  72 105 150 187 247 312 371 456
#     4   9  22  44  63 102 135 184 249 293 375 447
#     4  10  24  49  76 114 151 200 253 316 385 469
#     4  10  22  43  65  97 146 179 249 304 380 444
#     4  10  22  45  73 107 144 196 244 304 385 450
#     4  10  23  42  65 104 132 195 238 307 378 448
#
# _framework density 29.498747000000002
#
# number of rings (size 3 to 8) (size 9 to 14) (size 15 to 20)
#    0.857    1.143    1.429    0.857    2.000    4.571 
#   28.286    0.000    0.000    0.000    0.000    0.000 
#    0.000    0.000    0.000    0.000    0.000    0.000 
#
# Total GULP energy -78075.533365 kJ/mol
# GULP energy per Si atom -5576.823812 kJ/mol
# Density = 2.943161 g / cm^3
# Si number density = 29.498747 Si / 1000 Ang^3
#
#
#
# Elastic Constant Matrix: (Units=GPa)
#
#
# Indices 1 2 3 4 5 6 
#
# 1 95.8641 28.7504 14.7993 0.0000 11.1514 0.0000
# 2 28.7504 124.0850 6.9386 0.0000 6.2883 0.0000
# 3 14.7993 6.9386 161.3544 0.0000 13.2697 0.0000
# 4 0.0000 0.0000 0.0000 28.7637 0.0000 11.4553
# 5 11.1514 6.2883 13.2697 0.0000 40.1624 0.0000
# 6 0.0000 0.0000 0.0000 11.4553 0.0000 34.5122
#
#
#
# Elastic Compliance Matrix: (Units=1/GPa)
#
#
# Indices 1 2 3 4 5 6 
#
# 1 0.011601 -0.002516 -0.000744 0.000000 -0.002582 0.000000
# 2 -0.002516 0.008679 -0.000091 0.000000 -0.000630 0.000000
# 3 -0.000744 -0.000091 0.006426 0.000000 -0.001903 0.000000
# 4 0.000000 0.000000 0.000000 0.040062 0.000000 -0.013297
# 5 -0.002582 -0.000630 -0.001903 0.000000 0.026343 0.000000
# 6 0.000000 0.000000 0.000000 -0.013297 0.000000 0.033389
#
#
# Mechanical properties :
#
#
# Convention : Reuss Voigt Hill
#
# Bulk Modulus (GPa) = 49.98382 53.58666 51.78524
# Shear Modulus (GPa) = 35.74801 42.74201 39.24501
#
# Velocity S-wave (km/s) = 3.48494 3.81063 3.65142
# Velocity P-wave (km/s) = 5.75971 6.12914 5.94729
#
# Compressibility (1/GPa) = 0.02000647
#
# Stress axis : x y z
#
# Youngs Moduli (GPa) = 86.19985 115.22256 155.61549
#
# Poissons Ratio (x) = 0.28985 0.11571
# Poissons Ratio (y) = 0.21684 0.01410
# Poissons Ratio (z) = 0.06409 0.01044
#
# Static dielectric constant tensor:
#      x y z
#    x 2.514870 0.000000 -0.044410 
#    y 0.000000 2.223860 0.000000 
#    z -0.044410 0.000000 2.597130 
# 
# From -- ./inp_files/3898.got.cif
#   From: 2010.05.17/outbox.cif.g08.bks.cpg/sg4_2_cif.got.tgz:3898.got - 2010.06.03 18:43:04.
