data_PCOD9116412
_publ_section_title
;
Structure prediction by ZEFSAII (Michael W. Deem and Ramdas Pophale) SiO2 
 PCOD9116412
Probable space group: P 21
;
_chemical_formula_sum "Si O2"
_cell_formula_units_Z 16
_cell_length_a 17.492300
_cell_length_b 7.551922
_cell_length_c 6.231795
_cell_angle_alpha 90.000000
_cell_angle_beta 125.886607
_cell_angle_gamma 90.000000
_cell_volume 666.957843
_symmetry_space_group_name_H-M "P 21"
_symmetry_group_IT_number 4
_symmetry_cell_setting 'monoclinic'
loop_
_space_group_symop_operation_xyz
x,y,z
-x,1/2+y,-z
loop_
_atom_site_type_symbol
_atom_site_label
_atom_site_fract_x
_atom_site_fract_y
_atom_site_fract_z
Si Si1 0.135651 0.501990 0.806043
Si Si2 0.699590 0.221893 0.071187
Si Si3 0.916695 0.710220 0.958532
Si Si4 0.614863 0.693448 0.966847
Si Si5 0.976843 0.352944 0.232907
Si Si6 0.222418 0.015307 0.540702
Si Si7 0.465862 0.522733 0.999559
Si Si8 0.631682 0.504205 0.604481
O O1 0.242305 0.552978 0.916505
O O2 0.071187 0.400698 0.523686
O O3 0.084005 0.691304 0.771087
O O4 0.135256 0.371685 0.010397
O O5 0.774234 0.323053 0.347904
O O6 0.607747 0.175118 0.060540
O O7 0.661093 0.345539 0.814499
O O8 0.006330 0.798181 0.988920
O O9 0.869783 0.616682 0.675595
O O10 0.928176 0.546584 0.140232
O O11 0.717949 0.624575 0.190597
O O12 0.529927 0.563053 0.901647
O O13 0.614304 0.684541 0.710631
O O14 0.598114 0.850519 0.105390
O O15 0.284471 0.015202 0.426999
O O16 0.536784 0.478528 0.312406
#
# Coordination Sequence:
#
# PCOD9116412 Si02
#       8
#     2   2   2   2   2   2   2   2
#     4  12  28  48  75 108 145 191 244 301 371 438
#     4  11  26  43  71 106 141 188 242 299 359 434
#     4  12  27  48  74 106 145 190 239 301 371 440
#     4  10  22  40  63  94 136 183 230 286 353 416
#     4  12  27  48  75 105 144 189 241 302 369 443
#     4  10  25  43  69 101 143 179 231 302 350 426
#     4  11  22  41  64  97 138 187 235 290 356 422
#     4  10  21  43  67  97 140 187 232 293 351 421
#
# _framework density 23.989521
#
# number of rings (size 3 to 8) (size 9 to 14) (size 15 to 20)
#    0.000    1.000    2.500    3.750    7.000    3.000 
#    2.250    0.000    0.000    0.000    0.000    0.000 
#    0.000    0.000    0.000    0.000    0.000    0.000 
#
# Total GULP energy -89322.542004 kJ/mol
# GULP energy per Si atom -5582.658875 kJ/mol
# Density = 2.393492 g / cm^3
# Si number density = 23.989521 Si / 1000 Ang^3
#
#
#
# Elastic Constant Matrix: (Units=GPa)
#
#
# Indices 1 2 3 4 5 6 
#
# 1 50.1170 31.4666 21.5417 0.0000 2.6955 0.0000
# 2 31.4666 108.4791 5.5244 0.0000 -6.4212 0.0000
# 3 21.5417 5.5244 52.2215 0.0000 -6.4299 0.0000
# 4 0.0000 0.0000 0.0000 28.2514 0.0000 -4.7769
# 5 2.6955 -6.4212 -6.4299 0.0000 26.8041 0.0000
# 6 0.0000 0.0000 0.0000 -4.7769 0.0000 45.8670
#
#
#
# Elastic Compliance Matrix: (Units=1/GPa)
#
#
# Indices 1 2 3 4 5 6 
#
# 1 0.031764 -0.009046 -0.013196 0.000000 -0.008527 0.000000
# 2 -0.009046 0.011955 0.003021 0.000000 0.004498 0.000000
# 3 -0.013196 0.003021 0.025272 0.000000 0.008113 0.000000
# 4 0.000000 0.000000 0.000000 0.036031 0.000000 0.003752
# 5 -0.008527 0.004498 0.008113 0.000000 0.041189 0.000000
# 6 0.000000 0.000000 0.000000 0.003752 0.000000 0.022193
#
#
# Mechanical properties :
#
#
# Convention : Reuss Voigt Hill
#
# Bulk Modulus (GPa) = 32.73524 36.43144 34.58334
# Shear Modulus (GPa) = 23.03847 30.33683 26.68765
#
# Velocity S-wave (km/s) = 3.10232 3.55996 3.33899
# Velocity P-wave (km/s) = 5.14857 5.66720 5.41410
#
# Compressibility (1/GPa) = 0.03054812
#
# Stress axis : x y z
#
# Youngs Moduli (GPa) = 31.48251 83.64766 39.56981
#
# Poissons Ratio (x) = 0.75671 0.52215
# Poissons Ratio (y) = 0.28480 -0.11954
# Poissons Ratio (z) = 0.41543 -0.25269
#
# Static dielectric constant tensor:
#      x y z
#    x 1.931050 0.000000 0.051730 
#    y 0.000000 2.097370 0.000000 
#    z 0.051730 0.000000 1.944900 
# 
# From -- ./inp_files/4114.got.cif
#   From: 2010.05.17/outbox.cif.g08.bks.cpg/sg4_3_cif.got.tgz:4114.got - 2010.06.03 18:43:04.
