data_PCOD9116815
_publ_section_title
;
Structure prediction by ZEFSAII (Michael W. Deem and Ramdas Pophale) SiO2 
 PCOD9116815
Probable space group: P 21
;
_chemical_formula_sum "Si O2"
_cell_formula_units_Z 14
_cell_length_a 12.379510
_cell_length_b 9.114917
_cell_length_c 9.124726
_cell_angle_alpha 90.000000
_cell_angle_beta 145.477149
_cell_angle_gamma 90.000000
_cell_volume 583.520265
_symmetry_space_group_name_H-M "P 21"
_symmetry_group_IT_number 4
_symmetry_cell_setting 'monoclinic'
loop_
_space_group_symop_operation_xyz
x,y,z
-x,1/2+y,-z
loop_
_atom_site_type_symbol
_atom_site_label
_atom_site_fract_x
_atom_site_fract_y
_atom_site_fract_z
Si Si1 0.182942 0.817810 0.357631
Si Si2 0.487129 0.490408 0.379352
Si Si3 0.067436 0.803032 0.618056
Si Si4 0.800733 0.753734 0.040306
Si Si5 0.831125 0.573830 0.415234
Si Si6 0.503207 0.234854 0.849018
Si Si7 0.444958 0.548503 0.657769
O O1 0.316959 0.895495 0.385896
O O2 0.299178 0.675367 0.539977
O O3 0.962650 0.770172 0.095182
O O4 0.185593 0.944856 0.483597
O O5 0.514620 0.641582 0.321654
O O6 0.395218 0.510622 0.434304
O O7 0.340557 0.392482 0.122022
O O8 0.924321 0.760507 0.326299
O O9 0.964821 0.704371 0.625974
O O10 0.082995 0.977264 0.622378
O O11 0.280852 0.744502 0.856965
O O12 0.657094 0.617481 0.876437
O O13 0.624349 0.648148 0.175793
O O14 0.440118 0.401915 0.748511
#
# Coordination Sequence:
#
# PCOD9116815 Si02
#       7
#     2   2   2   2   2   2   2
#     4   9  21  42  64  89 125 165 207 255 308 362
#     4  10  22  43  64  90 127 165 206 256 305 365
#     4  11  23  41  64  91 124 163 206 258 310 363
#     4  10  22  41  62  88 124 163 207 256 306 362
#     4  10  24  40  61  91 126 163 206 256 309 369
#     4  11  23  39  64  95 125 162 208 253 310 372
#     4  11  23  40  65  94 127 165 206 254 310 369
#
# _framework density 23.992308999999999
#
# number of rings (size 3 to 8) (size 9 to 14) (size 15 to 20)
#    0.000    1.714    0.000    4.286    0.000   13.714 
#    0.000    5.714    0.000    0.000    0.000    0.000 
#    0.000    0.000    0.000    0.000    0.000    0.000 
#
# Total GULP energy -78112.877757 kJ/mol
# GULP energy per Si atom -5579.491268 kJ/mol
# Density = 2.393770 g / cm^3
# Si number density = 23.992309 Si / 1000 Ang^3
#
#
#
# Elastic Constant Matrix: (Units=GPa)
#
#
# Indices 1 2 3 4 5 6 
#
# 1 39.9123 36.3023 3.1410 0.0000 15.4134 0.0000
# 2 36.3023 177.3572 55.0163 0.0000 20.2609 0.0000
# 3 3.1410 55.0163 54.8730 0.0000 28.3200 0.0000
# 4 0.0000 0.0000 0.0000 40.4130 0.0000 21.5236
# 5 15.4134 20.2609 28.3200 0.0000 40.6541 0.0000
# 6 0.0000 0.0000 0.0000 21.5236 0.0000 38.9243
#
#
#
# Elastic Compliance Matrix: (Units=1/GPa)
#
#
# Indices 1 2 3 4 5 6 
#
# 1 0.048312 -0.015125 0.028045 0.000000 -0.030315 0.000000
# 2 -0.015125 0.013092 -0.018506 0.000000 0.012101 0.000000
# 3 0.028045 -0.018506 0.056053 0.000000 -0.040457 0.000000
# 4 0.000000 0.000000 0.000000 0.035074 0.000000 -0.019394
# 5 -0.030315 0.012101 -0.040457 0.000000 0.058243 0.000000
# 6 0.000000 0.000000 0.000000 -0.019394 0.000000 0.036415
#
#
# Mechanical properties :
#
#
# Convention : Reuss Voigt Hill
#
# Bulk Modulus (GPa) = 9.40871 51.22905 30.31888
# Shear Modulus (GPa) = 17.01891 35.84380 26.43135
#
# Velocity S-wave (km/s) = 2.66625 3.86938 3.32273
# Velocity P-wave (km/s) = 3.66177 6.43129 5.23307
#
# Compressibility (1/GPa) = 0.10628447
#
# Stress axis : x y z
#
# Youngs Moduli (GPa) = 20.69876 76.37984 17.84024
#
# Poissons Ratio (x) = 1.15525 -0.50033
# Poissons Ratio (y) = 0.31307 0.33016
# Poissons Ratio (z) = -0.58049 1.41351
#
# Static dielectric constant tensor:
#      x y z
#    x 2.137090 0.000000 0.018590 
#    y 0.000000 2.015990 0.000000 
#    z 0.018590 0.000000 1.916700 
# 
# From -- ./inp_files/12575.got.cif
#   From: 2010.05.17/outbox.cif.g08.bks.cpg/sg4_7_cif.got.tgz:12575.got - 2010.06.03 18:43:04.
