data_PCOD9116807
_publ_section_title
;
Structure prediction by ZEFSAII (Michael W. Deem and Ramdas Pophale) SiO2 
 PCOD9116807
Probable space group: P 21
;
_chemical_formula_sum "Si O2"
_cell_formula_units_Z 16
_cell_length_a 6.552723
_cell_length_b 8.041776
_cell_length_c 17.763242
_cell_angle_alpha 90.000000
_cell_angle_beta 133.803170
_cell_angle_gamma 90.000000
_cell_volume 675.563096
_symmetry_space_group_name_H-M "P 21"
_symmetry_group_IT_number 4
_symmetry_cell_setting 'monoclinic'
loop_
_space_group_symop_operation_xyz
x,y,z
-x,1/2+y,-z
loop_
_atom_site_type_symbol
_atom_site_label
_atom_site_fract_x
_atom_site_fract_y
_atom_site_fract_z
Si Si1 0.290583 0.808680 0.263780
Si Si2 0.356792 0.796902 0.616164
Si Si3 0.932771 0.592678 0.901925
Si Si4 0.152285 0.100832 0.330475
Si Si5 0.769161 0.638214 0.479347
Si Si6 0.620223 0.317210 0.056253
Si Si7 0.386050 0.806295 0.786147
Si Si8 0.073596 0.110098 0.931394
O O1 0.589047 0.752308 0.375976
O O2 0.147429 0.642616 0.192097
O O3 0.236027 0.937397 0.179223
O O4 0.162823 0.912841 0.301897
O O5 0.652834 0.704957 0.678175
O O6 0.319016 0.880982 0.688783
O O7 0.099572 0.666994 0.545499
O O8 0.316352 0.947635 0.550733
O O9 0.696931 0.733884 0.855743
O O10 0.179426 0.659370 0.910639
O O11 0.055513 0.584281 0.018567
O O12 0.276848 0.160569 0.442931
O O13 0.827791 0.152660 0.256213
O O14 0.664590 0.400906 0.149573
O O15 0.725199 0.450818 0.024515
O O16 0.297187 0.260740 0.976487
#
# Coordination Sequence:
#
# PCOD9116807 Si02
#       8
#     2   2   2   2   2   2   2   2
#     4  12  24  46  72 102 138 184 232 282 350 408
#     4  11  23  47  67 100 141 177 229 288 343 411
#     4  11  23  46  72  97 139 183 229 288 343 408
#     4  11  23  46  72  97 139 183 229 288 343 408
#     4  11  27  43  71 105 137 182 235 282 348 417
#     4  11  23  47  67 100 141 177 229 288 343 411
#     4  10  22  40  74  92 136 182 222 280 354 394
#     4  11  27  43  71 105 137 182 235 282 348 417
#
# _framework density 23.683944
#
# number of rings (size 3 to 8) (size 9 to 14) (size 15 to 20)
#    0.000    1.000    2.500    3.000    7.000    2.000 
#    4.500    0.000    0.000    0.000    0.000    0.000 
#    0.000    0.000    0.000    0.000    0.000    0.000 
#
# Total GULP energy -89182.958316 kJ/mol
# GULP energy per Si atom -5573.934895 kJ/mol
# Density = 2.363004 g / cm^3
# Si number density = 23.683944 Si / 1000 Ang^3
#
#
#
# Elastic Constant Matrix: (Units=GPa)
#
#
# Indices 1 2 3 4 5 6 
#
# 1 117.6528 7.6436 49.8524 0.0000 -8.6074 0.0000
# 2 7.6436 52.5002 4.3434 0.0000 0.3054 0.0000
# 3 49.8524 4.3434 95.3543 0.0000 -7.0330 0.0000
# 4 0.0000 0.0000 0.0000 42.7132 0.0000 -1.6996
# 5 -8.6074 0.3054 -7.0330 0.0000 33.3230 0.0000
# 6 0.0000 0.0000 0.0000 -1.6996 0.0000 33.1424
#
#
#
# Elastic Compliance Matrix: (Units=1/GPa)
#
#
# Indices 1 2 3 4 5 6 
#
# 1 0.011077 -0.001158 -0.005614 0.000000 0.001687 0.000000
# 2 -0.001158 0.019245 -0.000311 0.000000 -0.000541 0.000000
# 3 -0.005614 -0.000311 0.013540 0.000000 0.001411 0.000000
# 4 0.000000 0.000000 0.000000 0.023460 0.000000 0.001203
# 5 0.001687 -0.000541 0.001411 0.000000 0.030748 0.000000
# 6 0.000000 0.000000 0.000000 0.001203 0.000000 0.030235
#
#
# Mechanical properties :
#
#
# Convention : Reuss Voigt Hill
#
# Bulk Modulus (GPa) = 33.67437 43.24291 38.45864
# Shear Modulus (GPa) = 32.81493 35.41360 34.11426
#
# Velocity S-wave (km/s) = 3.72632 3.87105 3.79937
# Velocity P-wave (km/s) = 5.72390 6.18692 5.95991
#
# Compressibility (1/GPa) = 0.02969618
#
# Stress axis : x y z
#
# Youngs Moduli (GPa) = 90.27677 51.96148 73.85258
#
# Poissons Ratio (x) = 0.06018 0.41461
# Poissons Ratio (y) = 0.10455 0.02297
# Poissons Ratio (z) = 0.50682 0.01616
#
# Static dielectric constant tensor:
#      x y z
#    x 1.818120 0.000000 -0.028460 
#    y 0.000000 1.937530 0.000000 
#    z -0.028460 0.000000 2.000350 
# 
# From -- ./inp_files/4086.got.cif
#   From: 2010.05.17/outbox.cif.g08.bks.cpg/sg4_3_cif.got.tgz:4086.got - 2010.06.03 18:43:04.
