data_PCOD9116792
_publ_section_title
;
Structure prediction by ZEFSAII (Michael W. Deem and Ramdas Pophale) SiO2 
 PCOD9116792
Probable space group: P 21
;
_chemical_formula_sum "Si O2"
_cell_formula_units_Z 14
_cell_length_a 9.400697
_cell_length_b 5.273068
_cell_length_c 12.870093
_cell_angle_alpha 90.000000
_cell_angle_beta 75.038608
_cell_angle_gamma 90.000000
_cell_volume 616.349713
_symmetry_space_group_name_H-M "P 21"
_symmetry_group_IT_number 4
_symmetry_cell_setting 'monoclinic'
loop_
_space_group_symop_operation_xyz
x,y,z
-x,1/2+y,-z
loop_
_atom_site_type_symbol
_atom_site_label
_atom_site_fract_x
_atom_site_fract_y
_atom_site_fract_z
Si Si1 0.884448 0.475130 0.137546
Si Si2 0.820754 0.348767 0.554733
Si Si3 0.350031 0.255887 0.292836
Si Si4 0.187076 0.470034 0.950184
Si Si5 0.433023 0.242956 0.047044
Si Si6 0.966675 0.016709 0.669180
Si Si7 0.560812 0.033888 0.542180
O O1 0.803932 0.738098 0.131365
O O2 0.943571 0.474446 0.243549
O O3 0.795717 0.229113 0.116895
O O4 0.028365 0.481367 0.035807
O O5 0.933069 0.440862 0.447278
O O6 0.733086 0.115205 0.517384
O O7 0.912271 0.293796 0.642929
O O8 0.693842 0.536131 0.618423
O O9 0.416016 0.178132 0.171051
O O10 0.459500 0.443559 0.334468
O O11 0.190935 0.377985 0.296412
O O12 0.297660 0.396462 0.021258
O O13 0.447350 0.968311 0.989906
O O14 0.474975 0.285024 0.520129
#
# Coordination Sequence:
#
# PCOD9116792 Si02
#       7
#     2   2   2   2   2   2   2
#     4  10  22  40  70  95 138 174 219 287 355 406
#     4  11  24  42  74 110 144 186 241 287 363 440
#     4  11  25  47  74 102 143 192 237 302 356 422
#     4  10  22  44  64  99 131 179 226 284 349 402
#     4  12  28  48  73 100 139 188 247 293 345 431
#     4  11  23  41  71 110 140 183 231 294 362 429
#     4  11  24  48  70 100 147 196 235 289 352 426
#
# _framework density 22.714375
#
# number of rings (size 3 to 8) (size 9 to 14) (size 15 to 20)
#    0.000    1.143    4.286    0.857    6.000    1.143 
#    7.714    0.000    0.000    0.000    0.000    0.000 
#    0.000    0.000    0.000    0.000    0.000    0.000 
#
# Total GULP energy -78079.185883 kJ/mol
# GULP energy per Si atom -5577.084706 kJ/mol
# Density = 2.266268 g / cm^3
# Si number density = 22.714375 Si / 1000 Ang^3
#
#
#
# Elastic Constant Matrix: (Units=GPa)
#
#
# Indices 1 2 3 4 5 6 
#
# 1 43.6346 12.9649 11.5531 0.0000 25.2638 0.0000
# 2 12.9649 96.7426 33.6483 0.0000 8.6467 0.0000
# 3 11.5531 33.6483 95.7325 0.0000 12.1140 0.0000
# 4 0.0000 0.0000 0.0000 23.8839 0.0000 13.6783
# 5 25.2638 8.6467 12.1140 0.0000 37.7506 0.0000
# 6 0.0000 0.0000 0.0000 13.6783 0.0000 41.7272
#
#
#
# Elastic Compliance Matrix: (Units=1/GPa)
#
#
# Indices 1 2 3 4 5 6 
#
# 1 0.038214 -0.002726 -0.000517 0.000000 -0.024783 0.000000
# 2 -0.002726 0.012045 -0.003947 0.000000 0.000332 0.000000
# 3 -0.000517 -0.003947 0.012234 0.000000 -0.002676 0.000000
# 4 0.000000 0.000000 0.000000 0.051546 0.000000 -0.016897
# 5 -0.024783 0.000332 -0.002676 0.000000 0.043858 0.000000
# 6 0.000000 0.000000 0.000000 -0.016897 0.000000 0.029504
#
#
# Mechanical properties :
#
#
# Convention : Reuss Voigt Hill
#
# Bulk Modulus (GPa) = 20.78467 39.16025 29.97246
# Shear Modulus (GPa) = 22.95489 32.53524 27.74506
#
# Velocity S-wave (km/s) = 3.18242 3.78876 3.49875
# Velocity P-wave (km/s) = 4.76173 6.03468 5.43560
#
# Compressibility (1/GPa) = 0.04811238
#
# Stress axis : x y z
#
# Youngs Moduli (GPa) = 26.16862 83.02150 81.73968
#
# Poissons Ratio (x) = 0.22633 0.04229
# Poissons Ratio (y) = 0.07134 0.32260
# Poissons Ratio (z) = 0.01354 0.32766
#
# Static dielectric constant tensor:
#      x y z
#    x 1.938380 0.000000 -0.022260 
#    y 0.000000 1.930060 0.000000 
#    z -0.022260 0.000000 1.800050 
# 
# From -- ./inp_files/9953.got.cif
#   From: 2010.05.17/outbox.cif.g08.bks.cpg/sg4_5_cif.got.tgz:9953.got - 2010.06.03 18:43:04.
