data_PCOD9116079
_publ_section_title
;
Structure prediction by ZEFSAII (Michael W. Deem and Ramdas Pophale) SiO2 
 PCOD9116079
Probable space group: P 21
;
_chemical_formula_sum "Si O2"
_cell_formula_units_Z 16
_cell_length_a 28.445968
_cell_length_b 5.755922
_cell_length_c 9.053140
_cell_angle_alpha 90.000000
_cell_angle_beta 152.644568
_cell_angle_gamma 90.000000
_cell_volume 681.128298
_symmetry_space_group_name_H-M "P 21"
_symmetry_group_IT_number 4
_symmetry_cell_setting 'monoclinic'
loop_
_space_group_symop_operation_xyz
x,y,z
-x,1/2+y,-z
loop_
_atom_site_type_symbol
_atom_site_label
_atom_site_fract_x
_atom_site_fract_y
_atom_site_fract_z
Si Si1 0.632162 0.773850 0.699301
Si Si2 0.921704 0.676140 0.147001
Si Si3 0.552009 0.166078 0.258908
Si Si4 0.036708 0.606338 0.164262
Si Si5 0.561214 0.040045 0.945378
Si Si6 0.886272 0.177319 0.125393
Si Si7 0.733213 0.376436 0.910410
Si Si8 0.278661 0.605634 0.828539
O O1 0.530381 0.616014 0.420412
O O2 0.737711 0.651765 0.939975
O O3 0.598693 0.956805 0.482287
O O4 0.660669 0.887871 0.932724
O O5 0.865232 0.425584 0.987174
O O6 0.994786 0.667201 0.209481
O O7 0.993479 0.672523 0.494469
O O8 0.864709 0.926557 0.991976
O O9 0.451343 0.264614 0.058517
O O10 0.640897 0.353218 0.536771
O O11 0.542545 0.131696 0.059593
O O12 0.157971 0.573791 0.483560
O O13 0.990746 0.349753 0.997122
O O14 0.665596 0.138066 0.170990
O O15 0.821631 0.217767 0.093930
O O16 0.705746 0.296469 0.999381
#
# Coordination Sequence:
#
# PCOD9116079 Si02
#       8
#     2   2   2   2   2   2   2   2
#     4  10  24  42  72 105 143 187 238 302 367 447
#     4  10  22  40  68 101 134 181 244 301 365 426
#     4  10  22  42  65 102 144 184 229 296 364 441
#     4  12  28  51  73 105 152 200 248 317 383 441
#     4  11  23  44  70 103 149 193 237 301 374 446
#     4  10  21  39  72  99 133 182 236 307 355 427
#     4  10  23  42  70 106 137 185 242 303 361 448
#     4  11  27  44  74 105 144 194 254 301 375 456
#
# _framework density 23.490435000000002
#
# number of rings (size 3 to 8) (size 9 to 14) (size 15 to 20)
#    0.000    1.500    2.500    0.750   10.500    3.000 
#    0.000    0.000    0.000    0.000    0.000    0.000 
#    0.000    0.000    0.000    0.000    0.000    0.000 
#
# Total GULP energy -89110.934146 kJ/mol
# GULP energy per Si atom -5569.433384 kJ/mol
# Density = 2.343697 g / cm^3
# Si number density = 23.490435 Si / 1000 Ang^3
#
#
#
# Elastic Constant Matrix: (Units=GPa)
#
#
# Indices 1 2 3 4 5 6 
#
# 1 120.1914 55.3166 28.5040 0.0000 18.7980 0.0000
# 2 55.3166 132.0200 27.9681 0.0000 10.7223 0.0000
# 3 28.5040 27.9681 63.7983 0.0000 -1.4127 0.0000
# 4 0.0000 0.0000 0.0000 20.0897 0.0000 3.8972
# 5 18.7980 10.7223 -1.4127 0.0000 20.4785 0.0000
# 6 0.0000 0.0000 0.0000 3.8972 0.0000 33.1929
#
#
#
# Elastic Compliance Matrix: (Units=1/GPa)
#
#
# Indices 1 2 3 4 5 6 
#
# 1 0.012509 -0.003532 -0.004260 0.000000 -0.009926 0.000000
# 2 -0.003532 0.009811 -0.002769 0.000000 -0.002085 0.000000
# 3 -0.004260 -0.002769 0.018939 0.000000 0.006666 0.000000
# 4 0.000000 0.000000 0.000000 0.050937 0.000000 -0.005981
# 5 -0.009926 -0.002085 0.006666 0.000000 0.059495 0.000000
# 6 0.000000 0.000000 0.000000 -0.005981 0.000000 0.030829
#
#
# Mechanical properties :
#
#
# Convention : Reuss Voigt Hill
#
# Bulk Modulus (GPa) = 49.66208 59.95412 54.80810
# Shear Modulus (GPa) = 23.76951 28.36696 26.06823
#
# Velocity S-wave (km/s) = 3.18446 3.47882 3.33489
# Velocity P-wave (km/s) = 5.89138 6.45867 6.18154
#
# Compressibility (1/GPa) = 0.02013609
#
# Stress axis : x y z
#
# Youngs Moduli (GPa) = 79.94519 101.93035 52.80111
#
# Poissons Ratio (x) = 0.36007 0.22492
# Poissons Ratio (y) = 0.28240 0.14619
# Poissons Ratio (z) = 0.34055 0.28222
#
# Static dielectric constant tensor:
#      x y z
#    x 1.915930 0.000000 0.042180 
#    y 0.000000 2.111610 0.000000 
#    z 0.042180 0.000000 1.905090 
# 
# From -- ./inp_files/9037.got.cif
#   From: 2010.05.17/outbox.cif.g08.bks.cpg/sg4_5_cif.got.tgz:9037.got - 2010.06.03 18:43:04.
