data_PCOD9116138
_publ_section_title
;
Structure prediction by ZEFSAII (Michael W. Deem and Ramdas Pophale) SiO2 
 PCOD9116138
Probable space group: P 21
;
_chemical_formula_sum "Si O2"
_cell_formula_units_Z 16
_cell_length_a 12.565077
_cell_length_b 10.320119
_cell_length_c 6.081117
_cell_angle_alpha 90.000000
_cell_angle_beta 126.725457
_cell_angle_gamma 90.000000
_cell_volume 632.036534
_symmetry_space_group_name_H-M "P 21"
_symmetry_group_IT_number 4
_symmetry_cell_setting 'monoclinic'
loop_
_space_group_symop_operation_xyz
x,y,z
-x,1/2+y,-z
loop_
_atom_site_type_symbol
_atom_site_label
_atom_site_fract_x
_atom_site_fract_y
_atom_site_fract_z
Si Si1 0.451407 0.448720 0.834352
Si Si2 0.064805 0.082899 0.523339
Si Si3 0.913765 0.864863 0.579617
Si Si4 0.289010 0.024526 0.107083
Si Si5 0.094582 0.871866 0.170227
Si Si6 0.281495 0.644831 0.335704
Si Si7 0.441240 0.232038 0.525680
Si Si8 0.696468 0.935446 0.965900
O O1 0.590866 0.477136 0.893573
O O2 0.344147 0.542757 0.584484
O O3 0.440517 0.295667 0.764039
O O4 0.435806 0.481267 0.068994
O O5 0.019910 0.227426 0.406963
O O6 0.090780 0.980999 0.354865
O O7 0.197874 0.103630 0.828202
O O8 0.974464 0.000173 0.574444
O O9 0.780666 0.874276 0.269015
O O10 0.946326 0.859798 0.881782
O O11 0.355406 0.104687 0.384660
O O12 0.192015 0.920899 0.096674
O O13 0.168201 0.734548 0.305123
O O14 0.412435 0.717681 0.400137
O O15 0.234132 0.555184 0.072441
O O16 0.358317 0.335463 0.277993
#
# Coordination Sequence:
#
# PCOD9116138 Si02
#       8
#     2   2   2   2   2   2   2   2
#     4  10  23  38  70 103 138 188 215 284 348 422
#     4  11  26  46  75  97 143 183 235 297 354 412
#     4  11  26  48  68 108 134 187 237 293 344 432
#     4  10  22  41  64 106 137 174 230 276 348 420
#     4  11  25  43  73  98 139 182 229 290 345 413
#     4  10  23  42  62 102 142 180 228 286 336 425
#     4  10  21  40  65  98 142 172 229 282 337 418
#     4  11  24  42  69  98 143 184 229 284 352 416
#
# _framework density 25.314993000000001
#
# number of rings (size 3 to 8) (size 9 to 14) (size 15 to 20)
#    0.000    1.500    2.500    0.750    3.500   10.000 
#    0.000    0.000    0.000    0.000    0.000    0.000 
#    0.000    0.000    0.000    0.000    0.000    0.000 
#
# Total GULP energy -89298.791641 kJ/mol
# GULP energy per Si atom -5581.174478 kJ/mol
# Density = 2.525738 g / cm^3
# Si number density = 25.314993 Si / 1000 Ang^3
#
#
#
# Elastic Constant Matrix: (Units=GPa)
#
#
# Indices 1 2 3 4 5 6 
#
# 1 42.3793 28.4316 -1.3432 0.0000 1.4244 0.0000
# 2 28.4316 101.8987 15.6378 0.0000 13.2917 0.0000
# 3 -1.3432 15.6378 64.1705 0.0000 26.1365 0.0000
# 4 0.0000 0.0000 0.0000 32.6082 0.0000 1.1393
# 5 1.4244 13.2917 26.1365 0.0000 19.8922 0.0000
# 6 0.0000 0.0000 0.0000 1.1393 0.0000 36.2508
#
#
#
# Elastic Compliance Matrix: (Units=1/GPa)
#
#
# Indices 1 2 3 4 5 6 
#
# 1 0.029482 -0.008658 0.002647 0.000000 0.000196 0.000000
# 2 -0.008658 0.013306 -0.000118 0.000000 -0.008115 0.000000
# 3 0.002647 -0.000118 0.033802 0.000000 -0.044523 0.000000
# 4 0.000000 0.000000 0.000000 0.030701 0.000000 -0.000965
# 5 0.000196 -0.008115 -0.044523 0.000000 0.114178 0.000000
# 6 0.000000 0.000000 0.000000 -0.000965 0.000000 0.027616
#
#
# Mechanical properties :
#
#
# Convention : Reuss Voigt Hill
#
# Bulk Modulus (GPa) = 15.54436 32.65564 24.10000
# Shear Modulus (GPa) = 17.68115 28.79841 23.23978
#
# Velocity S-wave (km/s) = 2.64568 3.37650 3.03318
# Velocity P-wave (km/s) = 3.93529 5.30365 4.66986
#
# Compressibility (1/GPa) = 0.06433200
#
# Stress axis : x y z
#
# Youngs Moduli (GPa) = 33.91877 75.15338 29.58426
#
# Poissons Ratio (x) = 0.65067 -0.07832
# Poissons Ratio (y) = 0.29366 0.00350
# Poissons Ratio (z) = -0.08979 0.00890
#
# Static dielectric constant tensor:
#      x y z
#    x 2.042260 0.000000 0.072880 
#    y 0.000000 2.036450 0.000000 
#    z 0.072880 0.000000 2.066120 
# 
# From -- ./inp_files/3819.got.cif
#   From: 2010.05.17/outbox.cif.g08.bks.cpg/sg4_2_cif.got.tgz:3819.got - 2010.06.03 18:43:04.
