data_PCOD9116028
_publ_section_title
;
Structure prediction by ZEFSAII (Michael W. Deem and Ramdas Pophale) SiO2 
 PCOD9116028
Probable space group: P 21
;
_chemical_formula_sum "Si O2"
_cell_formula_units_Z 12
_cell_length_a 13.138071
_cell_length_b 5.460762
_cell_length_c 11.751590
_cell_angle_alpha 90.000000
_cell_angle_beta 145.226083
_cell_angle_gamma 90.000000
_cell_volume 480.856047
_symmetry_space_group_name_H-M "P 21"
_symmetry_group_IT_number 4
_symmetry_cell_setting 'monoclinic'
loop_
_space_group_symop_operation_xyz
x,y,z
-x,1/2+y,-z
loop_
_atom_site_type_symbol
_atom_site_label
_atom_site_fract_x
_atom_site_fract_y
_atom_site_fract_z
Si Si1 0.125095 0.471640 0.026530
Si Si2 0.057031 0.475400 0.487791
Si Si3 0.294827 0.971389 0.393627
Si Si4 0.528740 0.968638 0.098330
Si Si5 0.802234 0.471734 0.040003
Si Si6 0.378254 0.471465 0.479311
O O1 0.226732 0.471633 0.240177
O O2 0.179849 0.223983 0.012607
O O3 0.909989 0.471277 0.832441
O O4 0.179083 0.719613 0.011911
O O5 0.268580 0.471624 0.675560
O O6 0.998341 0.227751 0.499905
O O7 0.959050 0.472752 0.277140
O O8 0.345031 0.728102 0.507953
O O9 0.432200 0.971372 0.412344
O O10 0.344955 0.214784 0.507824
O O11 0.500842 0.716919 0.001978
O O12 0.384444 0.970628 0.065947
#
# Coordination Sequence:
#
# PCOD9116028 Si02
#       6
#     2   2   2   2   2   2
#     4  12  24  39  60  92 134 156 204 260 320 369
#     4  12  23  43  68  89 121 162 215 265 313 380
#     4  10  21  39  64  89 120 167 211 247 301 372
#     4  12  23  43  68  89 121 162 215 265 313 380
#     4  12  26  39  62  96 124 166 204 264 326 373
#     4  10  21  39  64  89 120 167 211 247 301 372
#
# _framework density 24.955494999999999
#
# number of rings (size 3 to 8) (size 9 to 14) (size 15 to 20)
#    0.000    0.667    3.333    5.000    0.000    2.667 
#    0.000    0.000    0.000    0.000    0.000    0.000 
#    0.000    0.000    0.000    0.000    0.000    0.000 
#
# Total GULP energy -67354.512227 kJ/mol
# GULP energy per Si atom -5612.876019 kJ/mol
# Density = 2.489869 g / cm^3
# Si number density = 24.955495 Si / 1000 Ang^3
#
#
#
# Elastic Constant Matrix: (Units=GPa)
#
#
# Indices 1 2 3 4 5 6 
#
# 1 -48.4721 -209.0737 -121.2565 0.0000 8.2840 0.0000
# 2 -209.0737 -307.5072 -284.1421 0.0000 -47.7234 0.0000
# 3 -121.2565 -284.1421 -11.0647 0.0000 10.3349 0.0000
# 4 0.0000 0.0000 0.0000 39.9833 0.0000 7.5636
# 5 8.2840 -47.7234 10.3349 0.0000 61.5711 0.0000
# 6 0.0000 0.0000 0.0000 7.5636 0.0000 52.3605
#
#
#
# Elastic Compliance Matrix: (Units=1/GPa)
#
#
# Indices 1 2 3 4 5 6 
#
# 1 0.016120 -0.007017 -0.003076 0.000000 -0.007092 0.000000
# 2 -0.007017 0.003233 -0.002505 0.000000 0.003870 0.000000
# 3 -0.003076 -0.002505 0.005382 0.000000 -0.002431 0.000000
# 4 0.000000 0.000000 0.000000 0.025713 0.000000 -0.003714
# 5 -0.007092 0.003870 -0.002431 0.000000 0.020604 0.000000
# 6 0.000000 0.000000 0.000000 -0.003714 0.000000 0.019635
#
#
# Mechanical properties :
#
#
# Convention : Reuss Voigt Hill
#
# Bulk Modulus (GPa) = -2171.40196 -177.33208 -1174.36702
# Shear Modulus (GPa) = 43.20400 47.27818 45.24109
#
# Velocity S-wave (km/s) = 4.16533 4.35731 4.26240
# Velocity P-wave (km/s) = 29.13529 6.77486 21.15141
#
# Compressibility (1/GPa) = -0.00046053
#
# Stress axis : x y z
#
# Youngs Moduli (GPa) = 62.03312 309.30977 185.79508
#
# Poissons Ratio (x) = 2.17058 0.57148
# Poissons Ratio (y) = 0.43532 0.46537
# Poissons Ratio (z) = 0.19080 0.77475
#
# Static dielectric constant tensor:
#      x y z
#    x 1.955550 0.000000 -0.006170 
#    y 0.000000 2.167330 0.000000 
#    z -0.006170 0.000000 1.929300 
# 
# From -- ./inp_files/14083.got.cif
#   From: 2010.05.17/outbox.cif.g08.bks.cpg/sg4_8_cif.got.tgz:14083.got - 2010.06.03 18:43:04.
