data_PCOD9116289
_publ_section_title
;
Structure prediction by ZEFSAII (Michael W. Deem and Ramdas Pophale) SiO2 
 PCOD9116289
Probable space group: P 21
;
_chemical_formula_sum "Si O2"
_cell_formula_units_Z 16
_cell_length_a 11.244231
_cell_length_b 15.156956
_cell_length_c 5.205206
_cell_angle_alpha 90.000000
_cell_angle_beta 134.975579
_cell_angle_gamma 90.000000
_cell_volume 627.551977
_symmetry_space_group_name_H-M "P 21"
_symmetry_group_IT_number 4
_symmetry_cell_setting 'monoclinic'
loop_
_space_group_symop_operation_xyz
x,y,z
-x,1/2+y,-z
loop_
_atom_site_type_symbol
_atom_site_label
_atom_site_fract_x
_atom_site_fract_y
_atom_site_fract_z
Si Si1 0.780970 0.704070 0.260347
Si Si2 0.847373 0.062124 0.003746
Si Si3 0.637702 0.429313 0.687185
Si Si4 0.429995 0.504826 0.758189
Si Si5 0.418155 0.689758 0.907341
Si Si6 0.849152 0.591368 0.864402
Si Si7 0.260231 0.397805 0.874637
Si Si8 0.259304 0.742955 0.160178
O O1 0.817327 0.664883 0.597710
O O2 0.579355 0.712083 0.982063
O O3 0.831071 0.636341 0.113649
O O4 0.829067 0.803701 0.260385
O O5 0.656675 0.054905 0.610859
O O6 0.859167 0.163021 0.124465
O O7 0.857132 0.976425 0.196259
O O8 0.970337 0.055257 0.948868
O O9 0.602002 0.465311 0.919676
O O10 0.719782 0.510224 0.661632
O O11 0.450421 0.400929 0.295784
O O12 0.764081 0.347323 0.879751
O O13 0.424331 0.584067 0.951463
O O14 0.311878 0.425593 0.665929
O O15 0.275171 0.720950 0.488799
O O16 0.406859 0.733322 0.168531
#
# Coordination Sequence:
#
# PCOD9116289 Si02
#       8
#     2   2   2   2   2   2   2   2
#     4  12  26  43  71 102 141 177 234 288 346 405
#     4  10  26  45  68  98 144 186 227 276 350 419
#     4  11  24  42  69 107 133 181 232 297 342 407
#     4  10  21  41  72  96 134 179 228 288 346 401
#     4  11  20  40  68 101 133 170 221 294 342 392
#     4  12  29  46  67 102 148 186 227 282 347 417
#     4  11  23  43  75 101 132 181 236 291 346 406
#     4  11  23  40  70  99 137 174 231 282 347 403
#
# _framework density 25.495895999999998
#
# number of rings (size 3 to 8) (size 9 to 14) (size 15 to 20)
#    0.000    1.000    3.750    2.250    7.000    1.000 
#    0.000    0.000    0.000    0.000    0.000    0.000 
#    0.000    0.000    0.000    0.000    0.000    0.000 
#
# Total GULP energy -89264.118890 kJ/mol
# GULP energy per Si atom -5579.007431 kJ/mol
# Density = 2.543787 g / cm^3
# Si number density = 25.495896 Si / 1000 Ang^3
#
#
#
# Elastic Constant Matrix: (Units=GPa)
#
#
# Indices 1 2 3 4 5 6 
#
# 1 110.7993 25.4705 13.5476 0.0000 -17.4509 0.0000
# 2 25.4705 154.1914 26.5082 0.0000 4.1948 0.0000
# 3 13.5476 26.5082 68.2619 0.0000 -21.0592 0.0000
# 4 0.0000 0.0000 0.0000 22.8489 0.0000 -10.9327
# 5 -17.4509 4.1948 -21.0592 0.0000 26.4705 0.0000
# 6 0.0000 0.0000 0.0000 -10.9327 0.0000 33.6392
#
#
#
# Elastic Compliance Matrix: (Units=1/GPa)
#
#
# Indices 1 2 3 4 5 6 
#
# 1 0.010711 -0.002235 0.001365 0.000000 0.008502 0.000000
# 2 -0.002235 0.007807 -0.004538 0.000000 -0.006321 0.000000
# 3 0.001365 -0.004538 0.022053 0.000000 0.019164 0.000000
# 4 0.000000 0.000000 0.000000 0.051825 0.000000 0.016843
# 5 0.008502 -0.006321 0.019164 0.000000 0.059631 0.000000
# 6 0.000000 0.000000 0.000000 0.016843 0.000000 0.035201
#
#
# Mechanical properties :
#
#
# Convention : Reuss Voigt Hill
#
# Bulk Modulus (GPa) = 33.60855 51.58948 42.59902
# Shear Modulus (GPa) = 24.04273 34.44013 29.24143
#
# Velocity S-wave (km/s) = 3.07417 3.67932 3.39028
# Velocity P-wave (km/s) = 5.08048 6.19098 5.66302
#
# Compressibility (1/GPa) = 0.02975434
#
# Stress axis : x y z
#
# Youngs Moduli (GPa) = 93.35924 128.09245 45.34527
#
# Poissons Ratio (x) = 0.28633 -0.06190
# Poissons Ratio (y) = 0.20869 0.20578
# Poissons Ratio (z) = -0.12744 0.58130
#
# Static dielectric constant tensor:
#      x y z
#    x 2.057180 0.000000 0.081930 
#    y 0.000000 2.106670 0.000000 
#    z 0.081930 0.000000 2.134360 
# 
# From -- ./inp_files/3199.got.cif
#   From: 2010.05.17/outbox.cif.g08.bks.cpg/sg4_2_cif.got.tgz:3199.got - 2010.06.03 18:43:04.
