data_PCOD9116430
_publ_section_title
;
Structure prediction by ZEFSAII (Michael W. Deem and Ramdas Pophale) SiO2 
 PCOD9116430
Probable space group: P 21
;
_chemical_formula_sum "Si O2"
_cell_formula_units_Z 16
_cell_length_a 5.267881
_cell_length_b 22.025662
_cell_length_c 5.134875
_cell_angle_alpha 90.000000
_cell_angle_beta 91.055919
_cell_angle_gamma 90.000000
_cell_volume 595.691011
_symmetry_space_group_name_H-M "P 21"
_symmetry_group_IT_number 4
_symmetry_cell_setting 'monoclinic'
loop_
_space_group_symop_operation_xyz
x,y,z
-x,1/2+y,-z
loop_
_atom_site_type_symbol
_atom_site_label
_atom_site_fract_x
_atom_site_fract_y
_atom_site_fract_z
Si Si1 0.295036 0.698810 0.532929
Si Si2 0.295660 0.900901 0.546219
Si Si3 0.222242 0.357082 0.188222
Si Si4 0.284268 0.024209 0.795479
Si Si5 0.307211 0.574961 0.795899
Si Si6 0.073933 0.142340 0.813549
Si Si7 0.923389 0.956247 0.151769
Si Si8 0.562788 0.736788 0.022538
O O1 0.355432 0.627098 0.583820
O O2 0.022739 0.692396 0.391783
O O3 0.458013 0.731583 0.312419
O O4 0.338178 0.732152 0.805481
O O5 0.555306 0.864022 0.591373
O O6 0.061536 0.870109 0.707117
O O7 0.145368 0.915406 0.278901
O O8 0.382835 0.969263 0.627552
O O9 0.274660 0.409246 0.971936
O O10 0.265343 0.293599 0.047316
O O11 0.196226 0.086233 0.663419
O O12 0.462806 0.046255 0.034374
O O13 0.038926 0.992677 0.913771
O O14 0.173585 0.513524 0.683101
O O15 0.138753 0.612808 0.004373
O O16 0.272513 0.175795 0.002261
#
# Coordination Sequence:
#
# PCOD9116430 Si02
#       8
#     2   2   2   2   2   2   2   2
#     4  12  26  47  73 108 147 197 257 316 389 461
#     4  11  25  46  75 107 146 198 253 320 390 462
#     4  11  28  48  72 108 149 202 268 316 388 460
#     4  10  21  43  70 106 149 186 251 318 398 465
#     4  11  22  44  74 113 155 194 254 327 397 474
#     4  11  24  45  72 106 150 198 250 318 396 459
#     4  10  24  43  74 109 148 197 251 329 395 469
#     4  12  30  48  74 107 154 204 262 324 379 472
#
# _framework density 26.859563000000001
#
# number of rings (size 3 to 8) (size 9 to 14) (size 15 to 20)
#    0.000    1.000    3.750    0.750    7.000    3.000 
#    0.000    0.000    0.000    0.000    0.000    0.000 
#    0.000    0.000    0.000    0.000    0.000    0.000 
#
# Total GULP energy -89460.576037 kJ/mol
# GULP energy per Si atom -5591.286002 kJ/mol
# Density = 2.679843 g / cm^3
# Si number density = 26.859563 Si / 1000 Ang^3
#
#
#
# Elastic Constant Matrix: (Units=GPa)
#
#
# Indices 1 2 3 4 5 6 
#
# 1 61.5029 10.7420 20.4334 0.0000 26.8334 0.0000
# 2 10.7420 90.2026 11.5219 0.0000 12.0673 0.0000
# 3 20.4334 11.5219 102.6380 0.0000 14.6608 0.0000
# 4 0.0000 0.0000 0.0000 28.2664 0.0000 10.9096
# 5 26.8334 12.0673 14.6608 0.0000 37.4119 0.0000
# 6 0.0000 0.0000 0.0000 10.9096 0.0000 30.5004
#
#
#
# Elastic Compliance Matrix: (Units=1/GPa)
#
#
# Indices 1 2 3 4 5 6 
#
# 1 0.024261 -0.000393 -0.002456 0.000000 -0.016312 0.000000
# 2 -0.000393 0.011657 -0.000777 0.000000 -0.003173 0.000000
# 3 -0.002456 -0.000777 0.010627 0.000000 -0.002152 0.000000
# 4 0.000000 0.000000 0.000000 0.041044 0.000000 -0.014681
# 5 -0.016312 -0.003173 -0.002152 0.000000 0.040296 0.000000
# 6 0.000000 0.000000 0.000000 -0.014681 0.000000 0.038038
#
#
# Mechanical properties :
#
#
# Convention : Reuss Voigt Hill
#
# Bulk Modulus (GPa) = 25.45056 37.74866 31.59961
# Shear Modulus (GPa) = 26.84266 33.34547 30.09407
#
# Velocity S-wave (km/s) = 3.16471 3.52728 3.35090
# Velocity P-wave (km/s) = 4.78015 5.53837 5.17317
#
# Compressibility (1/GPa) = 0.03929187
#
# Stress axis : x y z
#
# Youngs Moduli (GPa) = 41.21903 85.78709 94.10402
#
# Poissons Ratio (x) = 0.03374 0.23110
# Poissons Ratio (y) = 0.01621 0.07312
# Poissons Ratio (z) = 0.10122 0.06665
#
# Static dielectric constant tensor:
#      x y z
#    x 2.199300 0.000000 -0.027460 
#    y 0.000000 2.110720 0.000000 
#    z -0.027460 0.000000 2.131260 
# 
# From -- ./inp_files/615.got.cif
#   From: 2010.05.17/outbox.cif.g08.bks.cpg/sg4_1_cif.got.tgz:615.got - 2010.06.03 18:43:04.
