data_PCOD9116253
_publ_section_title
;
Structure prediction by ZEFSAII (Michael W. Deem and Ramdas Pophale) SiO2 
 PCOD9116253
Probable space group: P 21
;
_chemical_formula_sum "Si O2"
_cell_formula_units_Z 16
_cell_length_a 6.085831
_cell_length_b 16.630846
_cell_length_c 6.908595
_cell_angle_alpha 90.000000
_cell_angle_beta 114.006931
_cell_angle_gamma 90.000000
_cell_volume 638.749734
_symmetry_space_group_name_H-M "P 21"
_symmetry_group_IT_number 4
_symmetry_cell_setting 'monoclinic'
loop_
_space_group_symop_operation_xyz
x,y,z
-x,1/2+y,-z
loop_
_atom_site_type_symbol
_atom_site_label
_atom_site_fract_x
_atom_site_fract_y
_atom_site_fract_z
Si Si1 0.438867 0.093720 0.672009
Si Si2 0.626087 0.220787 0.221728
Si Si3 0.622674 0.847225 0.579106
Si Si4 0.126814 0.473105 0.070224
Si Si5 0.823447 0.451626 0.605599
Si Si6 0.985956 0.796865 0.430428
Si Si7 0.196579 0.721906 0.136176
Si Si8 0.231490 0.108142 0.995912
O O1 0.616218 0.165822 0.676186
O O2 0.275220 0.126562 0.786631
O O3 0.262068 0.041362 0.476075
O O4 0.636278 0.029381 0.827313
O O5 0.479911 0.284507 0.299870
O O6 0.886577 0.225181 0.408825
O O7 0.671378 0.247277 0.014332
O O8 0.484490 0.136331 0.175567
O O9 0.425689 0.908999 0.422627
O O10 0.725840 0.803181 0.428204
O O11 0.812149 0.898307 0.772903
O O12 0.055364 0.453329 0.825976
O O13 0.882010 0.520023 0.041714
O O14 0.903615 0.385297 0.475969
O O15 0.065701 0.782657 0.236906
O O16 0.977216 0.664041 0.993610
#
# Coordination Sequence:
#
# PCOD9116253 Si02
#       8
#     2   2   2   2   2   2   2   2
#     4   9  21  44  63  96 135 171 227 284 328 403
#     4  10  23  42  66  95 136 179 225 279 344 397
#     4  10  23  45  67  97 141 173 227 289 328 405
#     4  10  22  41  68  98 130 180 227 280 339 400
#     4  10  23  41  66 100 131 181 225 274 344 403
#     4  11  24  41  64 102 135 174 229 281 335 407
#     4  10  23  43  67  97 136 179 222 278 342 402
#     4  10  21  41  67  95 130 179 222 281 338 395
#
# _framework density 25.048933999999999
#
# number of rings (size 3 to 8) (size 9 to 14) (size 15 to 20)
#    0.000    2.000    0.000    1.500    5.250    5.000 
#    6.750    0.000    0.000    0.000    0.000    0.000 
#    0.000    0.000    0.000    0.000    0.000    0.000 
#
# Total GULP energy -89212.850366 kJ/mol
# GULP energy per Si atom -5575.803148 kJ/mol
# Density = 2.499192 g / cm^3
# Si number density = 25.048934 Si / 1000 Ang^3
#
#
#
# Elastic Constant Matrix: (Units=GPa)
#
#
# Indices 1 2 3 4 5 6 
#
# 1 83.5424 34.7280 24.5976 0.0000 -27.9053 0.0000
# 2 34.7280 64.8989 28.2181 0.0000 -10.8926 0.0000
# 3 24.5976 28.2181 75.5605 0.0000 7.7607 0.0000
# 4 0.0000 0.0000 0.0000 35.7163 0.0000 3.9299
# 5 -27.9053 -10.8926 7.7607 0.0000 50.5032 0.0000
# 6 0.0000 0.0000 0.0000 3.9299 0.0000 32.4202
#
#
#
# Elastic Compliance Matrix: (Units=1/GPa)
#
#
# Indices 1 2 3 4 5 6 
#
# 1 0.019562 -0.006619 -0.004938 0.000000 0.010140 0.000000
# 2 -0.006619 0.022028 -0.006283 0.000000 0.002059 0.000000
# 3 -0.004938 -0.006283 0.017890 0.000000 -0.006833 0.000000
# 4 0.000000 0.000000 0.000000 0.028377 0.000000 -0.003440
# 5 0.010140 0.002059 -0.006833 0.000000 0.026898 0.000000
# 6 0.000000 0.000000 0.000000 -0.003440 0.000000 0.031262
#
#
# Mechanical properties :
#
#
# Convention : Reuss Voigt Hill
#
# Bulk Modulus (GPa) = 42.01608 44.34323 43.17966
# Shear Modulus (GPa) = 26.36701 32.82515 29.59608
#
# Velocity S-wave (km/s) = 3.24793 3.62393 3.44107
# Velocity P-wave (km/s) = 5.55657 5.93730 5.75009
#
# Compressibility (1/GPa) = 0.02380041
#
# Stress axis : x y z
#
# Youngs Moduli (GPa) = 51.11833 45.39662 55.89683
#
# Poissons Ratio (x) = 0.30049 0.27601
# Poissons Ratio (y) = 0.33836 0.35121
# Poissons Ratio (z) = 0.25241 0.28523
#
# Static dielectric constant tensor:
#      x y z
#    x 1.997720 0.000000 0.012510 
#    y 0.000000 2.045150 0.000000 
#    z 0.012510 0.000000 2.067200 
# 
# From -- ./inp_files/608.got.cif
#   From: 2010.05.17/outbox.cif.g08.bks.cpg/sg4_1_cif.got.tgz:608.got - 2010.06.03 18:43:04.
