data_PCOD9116736
_publ_section_title
;
Structure prediction by ZEFSAII (Michael W. Deem and Ramdas Pophale) SiO2 
 PCOD9116736
Probable space group: P 21
;
_chemical_formula_sum "Si O2"
_cell_formula_units_Z 16
_cell_length_a 19.890167
_cell_length_b 4.978631
_cell_length_c 18.188426
_cell_angle_alpha 90.000000
_cell_angle_beta 20.259381
_cell_angle_gamma 90.000000
_cell_volume 623.676217
_symmetry_space_group_name_H-M "P 21"
_symmetry_group_IT_number 4
_symmetry_cell_setting 'monoclinic'
loop_
_space_group_symop_operation_xyz
x,y,z
-x,1/2+y,-z
loop_
_atom_site_type_symbol
_atom_site_label
_atom_site_fract_x
_atom_site_fract_y
_atom_site_fract_z
Si Si1 0.164220 0.326090 0.487212
Si Si2 0.085110 0.488823 0.876770
Si Si3 0.436991 0.613988 0.440329
Si Si4 0.140067 0.149207 0.031767
Si Si5 0.050540 0.139113 0.396450
Si Si6 0.176349 0.635907 0.094627
Si Si7 0.601636 0.607757 0.620534
Si Si8 0.523154 0.457336 0.022880
O O1 0.242757 0.251835 0.487089
O O2 0.076439 0.605980 0.547362
O O3 0.965236 0.150804 0.690431
O O4 0.360591 0.309978 0.238693
O O5 0.306535 0.590102 0.646609
O O6 0.041812 0.184169 0.941975
O O7 0.014401 0.538819 0.866490
O O8 0.661528 0.691995 0.217878
O O9 0.438665 0.318958 0.402826
O O10 0.356484 0.827603 0.462770
O O11 0.097324 0.425910 0.115953
O O12 0.174576 0.930237 0.059715
O O13 0.276510 0.068295 0.148439
O O14 0.973207 0.904280 0.530763
O O15 0.402657 0.563891 0.871446
O O16 0.428058 0.723483 0.085228
#
# Coordination Sequence:
#
# PCOD9116736 Si02
#       8
#     2   2   2   2   2   2   2   2
#     4  12  24  41  70  90 132 156 220 260 330 378
#     4  12  24  37  60  94 126 166 214 246 302 374
#     4  10  22  42  63  88 129 163 205 260 316 362
#     4  10  22  42  63  88 129 163 205 260 316 362
#     4  12  25  45  64  92 126 170 211 256 321 390
#     4  10  22  40  64  94 118 161 211 264 318 376
#     4  10  22  40  64  94 118 161 211 264 318 376
#     4  12  25  45  64  92 126 170 211 256 321 390
#
# _framework density 25.654339
#
# number of rings (size 3 to 8) (size 9 to 14) (size 15 to 20)
#    0.000    1.000    2.500    3.750    0.000    5.000 
#    0.000    5.000    0.000    0.000    0.000    0.000 
#    0.000    0.000    0.000    0.000    0.000    0.000 
#
# Total GULP energy -89452.750009 kJ/mol
# GULP energy per Si atom -5590.796876 kJ/mol
# Density = 2.559595 g / cm^3
# Si number density = 25.654339 Si / 1000 Ang^3
#
#
#
# Elastic Constant Matrix: (Units=GPa)
#
#
# Indices 1 2 3 4 5 6 
#
# 1 33.7375 -7.6811 -1.6806 0.0000 -8.3697 0.0000
# 2 -7.6811 101.9027 6.7114 0.0000 11.9879 0.0000
# 3 -1.6806 6.7114 147.0773 0.0000 9.5519 0.0000
# 4 0.0000 0.0000 0.0000 32.1671 0.0000 6.8194
# 5 -8.3697 11.9879 9.5519 0.0000 24.2355 0.0000
# 6 0.0000 0.0000 0.0000 6.8194 0.0000 23.9051
#
#
#
# Elastic Compliance Matrix: (Units=1/GPa)
#
#
# Indices 1 2 3 4 5 6 
#
# 1 0.032577 0.001210 -0.000385 0.000000 0.010804 0.000000
# 2 0.001210 0.010468 -0.000159 0.000000 -0.004697 0.000000
# 3 -0.000385 -0.000159 0.006984 0.000000 -0.002807 0.000000
# 4 0.000000 0.000000 0.000000 0.033089 0.000000 -0.009439
# 5 0.010804 -0.004697 -0.002807 0.000000 0.048423 0.000000
# 6 0.000000 0.000000 0.000000 -0.009439 0.000000 0.044525
#
#
# Mechanical properties :
#
#
# Convention : Reuss Voigt Hill
#
# Bulk Modulus (GPa) = 19.46962 30.82411 25.14687
# Shear Modulus (GPa) = 26.06167 35.08606 30.57386
#
# Velocity S-wave (km/s) = 3.19074 3.70218 3.45594
# Velocity P-wave (km/s) = 4.60219 5.50601 5.07426
#
# Compressibility (1/GPa) = 0.05136208
#
# Stress axis : x y z
#
# Youngs Moduli (GPa) = 30.69641 95.53352 143.17844
#
# Poissons Ratio (x) = -0.11559 0.05507
# Poissons Ratio (y) = -0.03714 0.02273
# Poissons Ratio (z) = 0.01181 0.01517
#
# Static dielectric constant tensor:
#      x y z
#    x 2.020210 0.000000 -0.002450 
#    y 0.000000 1.937760 0.000000 
#    z -0.002450 0.000000 2.108980 
# 
# From -- ./inp_files/15371.got.cif
#   From: 2010.05.17/outbox.cif.g08.bks.cpg/sg4_8_cif.got.tgz:15371.got - 2010.06.03 18:43:04.
