data_PCOD9116674
_publ_section_title
;
Structure prediction by ZEFSAII (Michael W. Deem and Ramdas Pophale) SiO2 
 PCOD9116674
Probable space group: P 21
;
_chemical_formula_sum "Si O2"
_cell_formula_units_Z 12
_cell_length_a 15.470057
_cell_length_b 5.220576
_cell_length_c 13.474804
_cell_angle_alpha 90.000000
_cell_angle_beta 27.366781
_cell_angle_gamma 90.000000
_cell_volume 500.256910
_symmetry_space_group_name_H-M "P 21"
_symmetry_group_IT_number 4
_symmetry_cell_setting 'monoclinic'
loop_
_space_group_symop_operation_xyz
x,y,z
-x,1/2+y,-z
loop_
_atom_site_type_symbol
_atom_site_label
_atom_site_fract_x
_atom_site_fract_y
_atom_site_fract_z
Si Si1 0.386561 0.750000 0.090874
Si Si2 0.097548 0.245912 0.067127
Si Si3 0.550510 0.838984 0.726099
Si Si4 0.793259 0.332753 0.531355
Si Si5 0.187263 0.885791 0.804123
Si Si6 0.578021 0.062032 0.324351
O O1 0.216411 0.806400 0.339226
O O2 0.454819 0.457032 0.034854
O O3 0.384408 0.808545 0.976760
O O4 0.993302 0.267099 0.278266
O O5 0.953221 0.403618 0.143275
O O6 0.308570 0.353901 0.855219
O O7 0.106456 0.990430 0.990293
O O8 0.701166 0.606979 0.594517
O O9 0.461889 0.792456 0.709980
O O10 0.654838 0.108353 0.632377
O O11 0.274177 0.609812 0.738418
O O12 0.378579 0.021483 0.577052
#
# Coordination Sequence:
#
# PCOD9116674 Si02
#       6
#     2   2   2   2   2   2
#     4   8  16  36  62  94 122 162 206 256 318 382
#     4  12  26  41  63  91 128 170 217 264 320 379
#     4  10  22  39  68  95 127 166 214 261 319 381
#     4  10  22  39  68  95 127 166 214 261 319 381
#     4  12  26  42  60  90 128 168 216 264 320 376
#     4  12  26  41  63  91 128 170 217 264 320 379
#
# _framework density 23.987673999999998
#
# number of rings (size 3 to 8) (size 9 to 14) (size 15 to 20)
#    0.000    1.333    5.000    0.000    9.333    0.000 
#    0.000    0.000    3.667    0.000    0.000    0.000 
#    0.000    0.000    0.000    0.000    0.000    0.000 
#
# Total GULP energy -66929.470245 kJ/mol
# GULP energy per Si atom -5577.455854 kJ/mol
# Density = 2.393308 g / cm^3
# Si number density = 23.987674 Si / 1000 Ang^3
#
#
#
# Elastic Constant Matrix: (Units=GPa)
#
#
# Indices 1 2 3 4 5 6 
#
# 1 23.0479 -1.1698 28.6061 0.0000 -0.8458 0.0000
# 2 -1.1698 88.1328 30.9150 0.0000 -13.8448 0.0000
# 3 28.6061 30.9150 149.5830 0.0000 19.4111 0.0000
# 4 0.0000 0.0000 0.0000 30.2710 0.0000 -1.5980
# 5 -0.8458 -13.8448 19.4111 0.0000 27.9282 0.0000
# 6 0.0000 0.0000 0.0000 -1.5980 0.0000 24.1220
#
#
#
# Elastic Compliance Matrix: (Units=1/GPa)
#
#
# Indices 1 2 3 4 5 6 
#
# 1 0.065656 0.009759 -0.016991 0.000000 0.018636 0.000000
# 2 0.009759 0.015903 -0.006830 0.000000 0.012926 0.000000
# 3 -0.016991 -0.006830 0.013027 0.000000 -0.012955 0.000000
# 4 0.000000 0.000000 0.000000 0.033151 0.000000 0.002196
# 5 0.018636 0.012926 -0.012955 0.000000 0.051783 0.000000
# 6 0.000000 0.000000 0.000000 0.002196 0.000000 0.041601
#
#
# Mechanical properties :
#
#
# Convention : Reuss Voigt Hill
#
# Bulk Modulus (GPa) = 15.04646 41.94071 28.49358
# Shear Modulus (GPa) = 18.42302 29.95840 24.19071
#
# Velocity S-wave (km/s) = 2.77432 3.53782 3.17908
# Velocity P-wave (km/s) = 4.06801 5.84897 5.03782
#
# Compressibility (1/GPa) = 0.06646081
#
# Stress axis : x y z
#
# Youngs Moduli (GPa) = 15.23093 62.88292 76.76085
#
# Poissons Ratio (x) = -0.61368 1.30426
# Poissons Ratio (y) = -0.14864 0.52431
# Poissons Ratio (z) = 0.25879 0.42951
#
# Static dielectric constant tensor:
#      x y z
#    x 1.877520 0.000000 0.034310 
#    y 0.000000 2.076810 0.000000 
#    z 0.034310 0.000000 1.989380 
# 
# From -- ./inp_files/14427.got.cif
#   From: 2010.05.17/outbox.cif.g08.bks.cpg/sg4_8_cif.got.tgz:14427.got - 2010.06.03 18:43:04.
