data_PCOD9116715
_publ_section_title
;
Structure prediction by ZEFSAII (Michael W. Deem and Ramdas Pophale) SiO2 
 PCOD9116715
Probable space group: P 21
;
_chemical_formula_sum "Si O2"
_cell_formula_units_Z 16
_cell_length_a 7.383937
_cell_length_b 16.717686
_cell_length_c 5.167860
_cell_angle_alpha 90.000000
_cell_angle_beta 111.185802
_cell_angle_gamma 90.000000
_cell_volume 594.817018
_symmetry_space_group_name_H-M "P 21"
_symmetry_group_IT_number 4
_symmetry_cell_setting 'monoclinic'
loop_
_space_group_symop_operation_xyz
x,y,z
-x,1/2+y,-z
loop_
_atom_site_type_symbol
_atom_site_label
_atom_site_fract_x
_atom_site_fract_y
_atom_site_fract_z
Si Si1 0.822739 0.266480 0.297060
Si Si2 0.538772 0.628209 0.531066
Si Si3 0.325079 0.600409 0.916124
Si Si4 0.897317 0.880289 0.830325
Si Si5 0.459501 0.302516 0.615365
Si Si6 0.048129 0.028874 0.564087
Si Si7 0.167509 0.188353 0.684517
Si Si8 0.219984 0.901980 0.363142
O O1 0.713877 0.195683 0.101666
O O2 0.730289 0.343655 0.375551
O O3 0.988296 0.301085 0.196704
O O4 0.957825 0.226213 0.585885
O O5 0.486305 0.590072 0.775612
O O6 0.466639 0.722306 0.494715
O O7 0.756618 0.650625 0.551885
O O8 0.414886 0.584056 0.242397
O O9 0.130374 0.559526 0.708371
O O10 0.681308 0.856048 0.639148
O O11 0.965746 0.957435 0.701017
O O12 0.994043 0.894558 0.159110
O O13 0.326850 0.260478 0.777755
O O14 0.632493 0.364714 0.771578
O O15 0.127343 0.101123 0.786822
O O16 0.220127 0.990263 0.477447
#
# Coordination Sequence:
#
# PCOD9116715 Si02
#       8
#     2   2   2   2   2   2   2   2
#     4   9  18  38  61  92 128 170 226 279 333 403
#     4  10  22  40  67  99 125 172 233 286 332 401
#     4  11  22  41  68  94 135 175 231 281 347 400
#     4  10  22  40  63  94 140 176 227 281 354 411
#     4   9  20  43  64 101 124 179 238 289 335 415
#     4  10  24  42  58  96 138 182 224 282 354 424
#     4   8  19  42  60  93 130 170 231 284 334 409
#     4  11  21  40  65  95 134 186 222 290 353 419
#
# _framework density 26.899025000000002
#
# number of rings (size 3 to 8) (size 9 to 14) (size 15 to 20)
#    0.750    1.500    1.250    0.750    1.750    2.000 
#    4.500    0.000    0.000    0.000    0.000    0.000 
#    0.000    0.000    0.000    0.000    0.000    0.000 
#
# Total GULP energy -89078.811037 kJ/mol
# GULP energy per Si atom -5567.425690 kJ/mol
# Density = 2.683780 g / cm^3
# Si number density = 26.899025 Si / 1000 Ang^3
#
#
#
# Elastic Constant Matrix: (Units=GPa)
#
#
# Indices 1 2 3 4 5 6 
#
# 1 92.8977 20.2550 25.5748 0.0000 30.5795 0.0000
# 2 20.2550 107.6940 35.5980 0.0000 2.9681 0.0000
# 3 25.5748 35.5980 111.5217 0.0000 19.9418 0.0000
# 4 0.0000 0.0000 0.0000 18.7195 0.0000 13.1418
# 5 30.5795 2.9681 19.9418 0.0000 40.0250 0.0000
# 6 0.0000 0.0000 0.0000 13.1418 0.0000 41.4792
#
#
#
# Elastic Compliance Matrix: (Units=1/GPa)
#
#
# Indices 1 2 3 4 5 6 
#
# 1 0.015086 -0.002281 -0.000769 0.000000 -0.010973 0.000000
# 2 -0.002281 0.010760 -0.003382 0.000000 0.002629 0.000000
# 3 -0.000769 -0.003382 0.011058 0.000000 -0.004671 0.000000
# 4 0.000000 0.000000 0.000000 0.068701 0.000000 -0.021766
# 5 -0.010973 0.002629 -0.004671 0.000000 0.035500 0.000000
# 6 0.000000 0.000000 0.000000 -0.021766 0.000000 0.031005
#
#
# Mechanical properties :
#
#
# Convention : Reuss Voigt Hill
#
# Bulk Modulus (GPa) = 41.59718 52.77433 47.18575
# Shear Modulus (GPa) = 25.90857 35.42377 30.66617
#
# Velocity S-wave (km/s) = 3.10688 3.63287 3.38012
# Velocity P-wave (km/s) = 5.32616 6.10402 5.72831
#
# Compressibility (1/GPa) = 0.02404009
#
# Stress axis : x y z
#
# Youngs Moduli (GPa) = 66.28823 92.93804 90.43229
#
# Poissons Ratio (x) = 0.21195 0.06958
# Poissons Ratio (y) = 0.15117 0.30582
# Poissons Ratio (z) = 0.05100 0.31429
#
# Static dielectric constant tensor:
#      x y z
#    x 2.211940 0.000000 0.009270 
#    y 0.000000 2.228440 0.000000 
#    z 0.009270 0.000000 2.212920 
# 
# From -- ./inp_files/2078.got.cif
#   From: 2010.05.17/outbox.cif.g08.bks.cpg/sg4_2_cif.got.tgz:2078.got - 2010.06.03 18:43:04.
