data_PCOD9116545
_publ_section_title
;
Structure prediction by ZEFSAII (Michael W. Deem and Ramdas Pophale) SiO2 
 PCOD9116545
Probable space group: P 21
;
_chemical_formula_sum "Si O2"
_cell_formula_units_Z 14
_cell_length_a 6.161863
_cell_length_b 9.458930
_cell_length_c 13.943527
_cell_angle_alpha 90.000000
_cell_angle_beta 50.139336
_cell_angle_gamma 90.000000
_cell_volume 623.827746
_symmetry_space_group_name_H-M "P 21"
_symmetry_group_IT_number 4
_symmetry_cell_setting 'monoclinic'
loop_
_space_group_symop_operation_xyz
x,y,z
-x,1/2+y,-z
loop_
_atom_site_type_symbol
_atom_site_label
_atom_site_fract_x
_atom_site_fract_y
_atom_site_fract_z
Si Si1 0.740946 0.177230 0.232072
Si Si2 0.773199 0.918215 0.098097
Si Si3 0.380103 0.288110 0.038893
Si Si4 0.944106 0.136306 0.903474
Si Si5 0.673460 0.908455 0.742110
Si Si6 0.318828 0.820340 0.554874
Si Si7 0.554977 0.586274 0.359041
O O1 0.536227 0.286269 0.236609
O O2 0.690696 0.203760 0.357668
O O3 0.067835 0.220081 0.121534
O O4 0.677246 0.023495 0.208227
O O5 0.920600 0.782494 0.099979
O O6 0.552973 0.862197 0.081362
O O7 0.978276 0.013598 0.972689
O O8 0.370025 0.397247 0.130858
O O9 0.615136 0.171198 0.989864
O O10 0.112820 0.093921 0.760978
O O11 0.996720 0.867270 0.627416
O O12 0.591785 0.043733 0.700581
O O13 0.452534 0.735543 0.428891
O O14 0.476548 0.956328 0.556800
#
# Coordination Sequence:
#
# PCOD9116545 Si02
#       7
#     2   2   2   2   2   2   2
#     4  10  22  44  65  99 138 180 228 285 341 415
#     4  12  24  42  66 105 144 178 233 287 341 432
#     4  11  22  41  70 103 141 182 221 286 361 416
#     4  12  26  42  70 105 143 185 227 290 355 419
#     4  10  21  47  72  99 139 183 230 287 355 404
#     4  10  25  47  78  95 142 186 235 290 353 402
#     4  11  26  49  71 106 137 184 240 293 340 426
#
# _framework density 22.44209
#
# number of rings (size 3 to 8) (size 9 to 14) (size 15 to 20)
#    0.000    1.143    2.857    3.429    4.000    4.571 
#    2.571    0.000    0.000    0.000    0.000    0.000 
#    0.000    0.000    0.000    0.000    0.000    0.000 
#
# Total GULP energy -78251.654317 kJ/mol
# GULP energy per Si atom -5589.403880 kJ/mol
# Density = 2.239101 g / cm^3
# Si number density = 22.442090 Si / 1000 Ang^3
#
#
#
# Elastic Constant Matrix: (Units=GPa)
#
#
# Indices 1 2 3 4 5 6 
#
# 1 88.4186 15.4011 15.8936 0.0000 3.0784 0.0000
# 2 15.4011 110.3307 23.8949 0.0000 12.3524 0.0000
# 3 15.8936 23.8949 54.4237 0.0000 -0.6559 0.0000
# 4 0.0000 0.0000 0.0000 54.2446 0.0000 16.0604
# 5 3.0784 12.3524 -0.6559 0.0000 18.7855 0.0000
# 6 0.0000 0.0000 0.0000 16.0604 0.0000 30.0394
#
#
#
# Elastic Compliance Matrix: (Units=1/GPa)
#
#
# Indices 1 2 3 4 5 6 
#
# 1 0.012080 -0.000823 -0.003185 0.000000 -0.001550 0.000000
# 2 -0.000823 0.011005 -0.004679 0.000000 -0.007265 0.000000
# 3 -0.003185 -0.004679 0.021411 0.000000 0.004346 0.000000
# 4 0.000000 0.000000 0.000000 0.021902 0.000000 -0.011710
# 5 -0.001550 -0.007265 0.004346 0.000000 0.058415 0.000000
# 6 0.000000 0.000000 0.000000 -0.011710 0.000000 0.039550
#
#
# Mechanical properties :
#
#
# Convention : Reuss Voigt Hill
#
# Bulk Modulus (GPa) = 36.87041 40.39468 38.63255
# Shear Modulus (GPa) = 26.20840 33.81280 30.01060
#
# Velocity S-wave (km/s) = 3.42105 3.88579 3.66081
# Velocity P-wave (km/s) = 5.66300 6.17828 5.92624
#
# Compressibility (1/GPa) = 0.02712202
#
# Stress axis : x y z
#
# Youngs Moduli (GPa) = 82.78383 90.86537 46.70437
#
# Poissons Ratio (x) = 0.07477 0.14876
# Poissons Ratio (y) = 0.06812 0.21854
# Poissons Ratio (z) = 0.26367 0.42517
#
# Static dielectric constant tensor:
#      x y z
#    x 1.850610 0.000000 0.026510 
#    y 0.000000 1.833340 0.000000 
#    z 0.026510 0.000000 1.842300 
# 
# From -- ./inp_files/2520.got.cif
#   From: 2010.05.17/outbox.cif.g08.bks.cpg/sg4_2_cif.got.tgz:2520.got - 2010.06.03 18:43:04.
