data_PCOD9116796
_publ_section_title
;
Structure prediction by ZEFSAII (Michael W. Deem and Ramdas Pophale) SiO2 
 PCOD9116796
Probable space group: P 21
;
_chemical_formula_sum "Si O2"
_cell_formula_units_Z 16
_cell_length_a 20.654922
_cell_length_b 5.559839
_cell_length_c 9.283310
_cell_angle_alpha 90.000000
_cell_angle_beta 139.687604
_cell_angle_gamma 90.000000
_cell_volume 689.703685
_symmetry_space_group_name_H-M "P 21"
_symmetry_group_IT_number 4
_symmetry_cell_setting 'monoclinic'
loop_
_space_group_symop_operation_xyz
x,y,z
-x,1/2+y,-z
loop_
_atom_site_type_symbol
_atom_site_label
_atom_site_fract_x
_atom_site_fract_y
_atom_site_fract_z
Si Si1 0.889306 0.778230 0.394965
Si Si2 0.656788 0.394715 0.679827
Si Si3 0.724726 0.985397 0.910281
Si Si4 0.442410 0.247805 0.922965
Si Si5 0.560798 0.738581 0.758346
Si Si6 0.727764 0.764778 0.597718
Si Si7 0.953153 0.860971 0.971143
Si Si8 0.052118 0.779920 0.432654
O O1 0.878733 0.517983 0.450187
O O2 0.994897 0.762872 0.488286
O O3 0.896015 0.020822 0.501697
O O4 0.803225 0.836299 0.133718
O O5 0.606412 0.571817 0.711216
O O6 0.557896 0.255654 0.456346
O O7 0.708703 0.497690 0.625775
O O8 0.744428 0.264647 0.918899
O O9 0.619517 0.982588 0.817621
O O10 0.714131 0.902826 0.726890
O O11 0.353583 0.308321 0.662090
O O12 0.502648 0.502437 0.038286
O O13 0.410490 0.177168 0.030664
O O14 0.838655 0.818695 0.736007
O O15 0.013646 0.634093 0.006853
O O16 0.970121 0.823834 0.170472
#
# Coordination Sequence:
#
# PCOD9116796 Si02
#       8
#     2   2   2   2   2   2   2   2
#     4  10  22  40  71 101 132 182 229 306 357 429
#     4  11  23  43  73 105 148 188 251 303 370 437
#     4  11  24  42  74 105 140 189 247 304 363 443
#     4  12  28  47  73 107 152 202 244 301 365 449
#     4  11  24  41  68 107 145 188 239 303 358 431
#     4  11  27  48  74 106 145 206 250 300 381 450
#     4  12  28  48  76 106 148 198 248 311 366 452
#     4  10  22  43  67 101 140 175 238 294 370 419
#
# _framework density 23.198367000000001
#
# number of rings (size 3 to 8) (size 9 to 14) (size 15 to 20)
#    0.000    1.000    3.750    1.500    8.750    3.000 
#    0.000    0.000    0.000    0.000    0.000    0.000 
#    0.000    0.000    0.000    0.000    0.000    0.000 
#
# Total GULP energy -89228.070790 kJ/mol
# GULP energy per Si atom -5576.754424 kJ/mol
# Density = 2.314557 g / cm^3
# Si number density = 23.198367 Si / 1000 Ang^3
#
#
#
# Elastic Constant Matrix: (Units=GPa)
#
#
# Indices 1 2 3 4 5 6 
#
# 1 46.7080 1.4206 12.8685 0.0000 6.3282 0.0000
# 2 1.4206 80.3170 17.7340 0.0000 13.5626 0.0000
# 3 12.8685 17.7340 118.4417 0.0000 6.2239 0.0000
# 4 0.0000 0.0000 0.0000 36.5673 0.0000 -5.7697
# 5 6.3282 13.5626 6.2239 0.0000 34.1245 0.0000
# 6 0.0000 0.0000 0.0000 -5.7697 0.0000 20.1868
#
#
#
# Elastic Compliance Matrix: (Units=1/GPa)
#
#
# Indices 1 2 3 4 5 6 
#
# 1 0.022588 0.000811 -0.002361 0.000000 -0.004081 0.000000
# 2 0.000811 0.013739 -0.001868 0.000000 -0.005270 0.000000
# 3 -0.002361 -0.001868 0.009004 0.000000 -0.000462 0.000000
# 4 0.000000 0.000000 0.000000 0.028638 0.000000 0.008185
# 5 -0.004081 -0.005270 -0.000462 0.000000 0.032240 0.000000
# 6 0.000000 0.000000 0.000000 0.008185 0.000000 0.051877
#
#
# Mechanical properties :
#
#
# Convention : Reuss Voigt Hill
#
# Bulk Modulus (GPa) = 25.97844 34.39034 30.18439
# Shear Modulus (GPa) = 28.12878 32.40530 30.26704
#
# Velocity S-wave (km/s) = 3.48592 3.74154 3.61599
# Velocity P-wave (km/s) = 5.23688 5.78983 5.52028
#
# Compressibility (1/GPa) = 0.03849345
#
# Stress axis : x y z
#
# Youngs Moduli (GPa) = 44.27069 72.78686 111.06789
#
# Poissons Ratio (x) = -0.05902 0.26225
# Poissons Ratio (y) = -0.03590 0.20750
# Poissons Ratio (z) = 0.10453 0.13598
#
# Static dielectric constant tensor:
#      x y z
#    x 1.863990 0.000000 0.019360 
#    y 0.000000 2.203430 0.000000 
#    z 0.019360 0.000000 1.887100 
# 
# From -- ./inp_files/9849.got.cif
#   From: 2010.05.17/outbox.cif.g08.bks.cpg/sg4_5_cif.got.tgz:9849.got - 2010.06.03 18:43:04.
