data_PCOD9116446
_publ_section_title
;
Structure prediction by ZEFSAII (Michael W. Deem and Ramdas Pophale) SiO2 
 PCOD9116446
Probable space group: P 21
;
_chemical_formula_sum "Si O2"
_cell_formula_units_Z 14
_cell_length_a 7.914028
_cell_length_b 17.263274
_cell_length_c 6.005335
_cell_angle_alpha 90.000000
_cell_angle_beta 41.116952
_cell_angle_gamma 90.000000
_cell_volume 539.533708
_symmetry_space_group_name_H-M "P 21"
_symmetry_group_IT_number 4
_symmetry_cell_setting 'monoclinic'
loop_
_space_group_symop_operation_xyz
x,y,z
-x,1/2+y,-z
loop_
_atom_site_type_symbol
_atom_site_label
_atom_site_fract_x
_atom_site_fract_y
_atom_site_fract_z
Si Si1 0.482625 0.511050 0.790102
Si Si2 0.130133 0.895332 0.509059
Si Si3 0.542074 0.774397 0.633488
Si Si4 0.963289 0.377267 0.914430
Si Si5 0.014548 0.102097 0.691669
Si Si6 0.649325 0.119698 0.410177
Si Si7 0.238630 0.727297 0.318901
O O1 0.575810 0.426697 0.762099
O O2 0.467840 0.536928 0.542663
O O3 0.722324 0.563152 0.633191
O O4 0.218874 0.544286 0.146916
O O5 0.111319 0.802671 0.549017
O O6 0.043599 0.911933 0.335428
O O7 0.018744 0.923690 0.864874
O O8 0.798603 0.818590 0.322062
O O9 0.499063 0.688639 0.574923
O O10 0.485226 0.760704 0.948443
O O11 0.303546 0.829919 0.804388
O O12 0.963913 0.185903 0.641144
O O13 0.940148 0.113520 0.024773
O O14 0.667441 0.156769 0.627654
#
# Coordination Sequence:
#
# PCOD9116446 Si02
#       7
#     2   2   2   2   2   2   2
#     4  10  24  45  67  97 147 181 237 288 371 413
#     4  11  26  46  73 106 146 190 236 301 357 424
#     4  10  23  41  65 104 132 180 232 296 335 415
#     4  11  26  44  70 102 143 178 238 287 355 412
#     4   9  23  45  64  99 136 185 234 287 352 427
#     4   9  21  40  69  94 138 175 237 283 348 419
#     4  10  21  43  74 104 134 191 244 296 346 428
#
# _framework density 25.948332000000001
#
# number of rings (size 3 to 8) (size 9 to 14) (size 15 to 20)
#    0.857    1.143    1.429    0.000    8.000    4.571 
#    7.714    0.000    0.000    0.000    0.000    0.000 
#    0.000    0.000    0.000    0.000    0.000    0.000 
#
# Total GULP energy -78015.000607 kJ/mol
# GULP energy per Si atom -5572.500043 kJ/mol
# Density = 2.588927 g / cm^3
# Si number density = 25.948332 Si / 1000 Ang^3
#
#
#
# Elastic Constant Matrix: (Units=GPa)
#
#
# Indices 1 2 3 4 5 6 
#
# 1 79.2824 35.5792 64.5153 0.0000 3.7010 0.0000
# 2 35.5792 98.2105 30.6512 0.0000 1.6604 0.0000
# 3 64.5153 30.6512 87.2297 0.0000 5.9241 0.0000
# 4 0.0000 0.0000 0.0000 43.6743 0.0000 -5.5611
# 5 3.7010 1.6604 5.9241 0.0000 58.6970 0.0000
# 6 0.0000 0.0000 0.0000 -5.5611 0.0000 52.4316
#
#
#
# Elastic Compliance Matrix: (Units=1/GPa)
#
#
# Indices 1 2 3 4 5 6 
#
# 1 0.033722 -0.004977 -0.023216 0.000000 0.000358 0.000000
# 2 -0.004977 0.012171 -0.000598 0.000000 0.000030 0.000000
# 3 -0.023216 -0.000598 0.028943 0.000000 -0.001440 0.000000
# 4 0.000000 0.000000 0.000000 0.023210 0.000000 0.002462
# 5 0.000358 0.000030 -0.001440 0.000000 0.017159 0.000000
# 6 0.000000 0.000000 0.000000 0.002462 0.000000 0.019334
#
#
# Mechanical properties :
#
#
# Convention : Reuss Voigt Hill
#
# Bulk Modulus (GPa) = 57.95844 58.46822 58.21333
# Shear Modulus (GPa) = 25.26884 39.89236 32.58060
#
# Velocity S-wave (km/s) = 3.12398 3.92519 3.54728
# Velocity P-wave (km/s) = 5.94953 6.56691 6.26583
#
# Compressibility (1/GPa) = 0.01725374
#
# Stress axis : x y z
#
# Youngs Moduli (GPa) = 29.65421 82.16031 34.55095
#
# Poissons Ratio (x) = 0.40890 0.80215
# Poissons Ratio (y) = 0.14759 0.02066
# Poissons Ratio (z) = 0.68846 0.04912
#
# Static dielectric constant tensor:
#      x y z
#    x 2.179380 0.000000 0.058810 
#    y 0.000000 2.048500 0.000000 
#    z 0.058810 0.000000 2.077820 
# 
# From -- ./inp_files/2211.got.cif
#   From: 2010.05.17/outbox.cif.g08.bks.cpg/sg4_2_cif.got.tgz:2211.got - 2010.06.03 18:43:04.
