data_PCOD9116858
_publ_section_title
;
Structure prediction by ZEFSAII (Michael W. Deem and Ramdas Pophale) SiO2 
 PCOD9116858
Probable space group: P 21
;
_chemical_formula_sum "Si O2"
_cell_formula_units_Z 16
_cell_length_a 11.403887
_cell_length_b 8.372648
_cell_length_c 15.161644
_cell_angle_alpha 90.000000
_cell_angle_beta 154.174730
_cell_angle_gamma 90.000000
_cell_volume 630.634836
_symmetry_space_group_name_H-M "P 21"
_symmetry_group_IT_number 4
_symmetry_cell_setting 'monoclinic'
loop_
_space_group_symop_operation_xyz
x,y,z
-x,1/2+y,-z
loop_
_atom_site_type_symbol
_atom_site_label
_atom_site_fract_x
_atom_site_fract_y
_atom_site_fract_z
Si Si1 0.250834 0.282640 0.471320
Si Si2 0.356034 0.549161 0.793194
Si Si3 0.557010 0.186948 0.334426
Si Si4 0.211499 0.415034 0.265827
Si Si5 0.823486 0.448000 0.839884
Si Si6 0.796974 0.272170 0.659152
Si Si7 0.267260 0.911142 0.804589
Si Si8 0.256345 0.999494 0.612532
O O1 0.135804 0.291112 0.293426
O O2 0.555602 0.340228 0.667250
O O3 0.045439 0.398004 0.382409
O O4 0.270109 0.129344 0.545389
O O5 0.442247 0.569870 0.749854
O O6 0.331353 0.730515 0.814472
O O7 0.064841 0.464612 0.600541
O O8 0.563938 0.458211 0.995837
O O9 0.826671 0.217301 0.577416
O O10 0.546315 0.358320 0.281585
O O11 0.319219 0.118714 0.236618
O O12 0.521407 0.372659 0.459644
O O13 0.205430 0.598316 0.296684
O O14 0.025852 0.414593 0.055351
O O15 0.943303 0.393451 0.826050
O O16 0.320339 0.031123 0.758812
#
# Coordination Sequence:
#
# PCOD9116858 Si02
#       8
#     2   2   2   2   2   2   2   2
#     4  10  22  43  67  98 136 185 221 293 343 410
#     4  10  23  43  68 103 138 186 232 288 343 422
#     4  11  23  46  69 102 140 186 230 285 353 400
#     4  11  26  47  69 100 135 179 234 286 356 411
#     4  11  25  44  72 100 133 185 231 291 347 422
#     4  11  25  47  70 100 138 178 229 291 342 417
#     4  10  22  41  66 100 138 180 232 286 348 406
#     4  10  24  41  67  99 142 181 231 286 344 416
#
# _framework density 25.371259999999999
#
# number of rings (size 3 to 8) (size 9 to 14) (size 15 to 20)
#    0.000    1.500    2.500    1.500    5.250    7.000 
#    4.500    1.250    0.000    0.000    0.000    0.000 
#    0.000    0.000    0.000    0.000    0.000    0.000 
#
# Total GULP energy -89247.312159 kJ/mol
# GULP energy per Si atom -5577.957010 kJ/mol
# Density = 2.531351 g / cm^3
# Si number density = 25.371260 Si / 1000 Ang^3
#
#
#
# Elastic Constant Matrix: (Units=GPa)
#
#
# Indices 1 2 3 4 5 6 
#
# 1 107.7791 46.3853 47.6653 0.0000 -40.8220 0.0000
# 2 46.3853 62.9932 24.9665 0.0000 -9.0023 0.0000
# 3 47.6653 24.9665 171.4385 0.0000 -44.8927 0.0000
# 4 0.0000 0.0000 0.0000 30.8630 0.0000 -6.1470
# 5 -40.8220 -9.0023 -44.8927 0.0000 48.6189 0.0000
# 6 0.0000 0.0000 0.0000 -6.1470 0.0000 32.7794
#
#
#
# Elastic Compliance Matrix: (Units=1/GPa)
#
#
# Indices 1 2 3 4 5 6 
#
# 1 0.020442 -0.012967 0.000093 0.000000 0.014849 0.000000
# 2 -0.012967 0.025120 -0.002224 0.000000 -0.008290 0.000000
# 3 0.000093 -0.002224 0.007971 0.000000 0.007027 0.000000
# 4 0.000000 0.000000 0.000000 0.033658 0.000000 0.006312
# 5 0.014849 -0.008290 0.007027 0.000000 0.037989 0.000000
# 6 0.000000 0.000000 0.000000 0.006312 0.000000 0.031691
#
#
# Mechanical properties :
#
#
# Convention : Reuss Voigt Hill
#
# Bulk Modulus (GPa) = 42.85031 64.47167 53.66099
# Shear Modulus (GPa) = 25.66142 37.33182 31.49662
#
# Velocity S-wave (km/s) = 3.18376 3.84007 3.52721
# Velocity P-wave (km/s) = 5.51734 6.71774 6.14691
#
# Compressibility (1/GPa) = 0.02333706
#
# Stress axis : x y z
#
# Youngs Moduli (GPa) = 48.91915 39.80905 125.45697
#
# Poissons Ratio (x) = 0.51622 -0.01169
# Poissons Ratio (y) = 0.63435 0.27897
# Poissons Ratio (z) = -0.00456 0.08852
#
# Static dielectric constant tensor:
#      x y z
#    x 2.141220 0.000000 -0.022360 
#    y 0.000000 2.096980 0.000000 
#    z -0.022360 0.000000 2.006920 
# 
# From -- ./inp_files/13912.got.cif
#   From: 2010.05.17/outbox.cif.g08.bks.cpg/sg4_7_cif.got.tgz:13912.got - 2010.06.03 18:43:04.
