data_PCOD9116808
_publ_section_title
;
Structure prediction by ZEFSAII (Michael W. Deem and Ramdas Pophale) SiO2 
 PCOD9116808
Probable space group: P 21
;
_chemical_formula_sum "Si O2"
_cell_formula_units_Z 16
_cell_length_a 9.346994
_cell_length_b 10.119853
_cell_length_c 9.482058
_cell_angle_alpha 90.000000
_cell_angle_beta 48.018067
_cell_angle_gamma 90.000000
_cell_volume 666.723097
_symmetry_space_group_name_H-M "P 21"
_symmetry_group_IT_number 4
_symmetry_cell_setting 'monoclinic'
loop_
_space_group_symop_operation_xyz
x,y,z
-x,1/2+y,-z
loop_
_atom_site_type_symbol
_atom_site_label
_atom_site_fract_x
_atom_site_fract_y
_atom_site_fract_z
Si Si1 0.183150 0.561170 0.872810
Si Si2 0.486002 0.714582 0.203354
Si Si3 0.476321 0.417177 0.239523
Si Si4 0.188952 0.303336 0.217961
Si Si5 0.774259 0.228664 0.898199
Si Si6 0.805103 0.703155 0.488987
Si Si7 0.429401 0.951814 0.460384
Si Si8 0.093140 0.847507 0.828702
O O1 0.999525 0.354370 0.266668
O O2 0.263948 0.603343 0.974319
O O3 0.032658 0.444356 0.993331
O O4 0.361035 0.515164 0.662378
O O5 0.491617 0.569840 0.266470
O O6 0.324179 0.720757 0.188837
O O7 0.455747 0.829675 0.336064
O O8 0.684105 0.737840 0.988016
O O9 0.325624 0.411059 0.202942
O O10 0.355402 0.317540 0.418643
O O11 0.668437 0.349043 0.049035
O O12 0.145359 0.204996 0.376395
O O13 0.003085 0.234440 0.724628
O O14 0.091651 0.696174 0.876954
O O15 0.704995 0.567931 0.512342
O O16 0.310580 0.898445 0.671907
#
# Coordination Sequence:
#
# PCOD9116808 Si02
#       8
#     2   2   2   2   2   2   2   2
#     4  12  27  52  72 102 144 195 243 297 342 424
#     4  11  22  39  75 106 146 179 221 307 366 419
#     4   9  22  39  64 111 142 177 221 289 357 426
#     4   9  21  42  69 106 142 180 237 286 361 426
#     4  11  22  42  73 101 144 184 230 292 357 420
#     4  10  22  40  75 104 141 181 227 294 372 424
#     4  12  25  49  74 103 147 183 237 306 361 417
#     4  12  27  51  76  97 146 197 242 293 348 422
#
# _framework density 23.997966000000002
#
# number of rings (size 3 to 8) (size 9 to 14) (size 15 to 20)
#    0.750    0.500    3.750    1.500    5.250    2.000 
#    6.750    0.000    0.000    0.000    0.000    0.000 
#    0.000    0.000    0.000    0.000    0.000    0.000 
#
# Total GULP energy -89549.870757 kJ/mol
# GULP energy per Si atom -5596.866922 kJ/mol
# Density = 2.394335 g / cm^3
# Si number density = 23.997966 Si / 1000 Ang^3
#
#
#
# Elastic Constant Matrix: (Units=GPa)
#
#
# Indices 1 2 3 4 5 6 
#
# 1 57.6626 43.7696 39.1511 0.0000 -15.1074 0.0000
# 2 43.7696 184.0373 73.8722 0.0000 -10.2939 0.0000
# 3 39.1511 73.8722 173.3545 0.0000 -19.7765 0.0000
# 4 0.0000 0.0000 0.0000 34.6830 0.0000 5.5461
# 5 -15.1074 -10.2939 -19.7765 0.0000 38.9444 0.0000
# 6 0.0000 0.0000 0.0000 5.5461 0.0000 38.9286
#
#
#
# Elastic Compliance Matrix: (Units=1/GPa)
#
#
# Indices 1 2 3 4 5 6 
#
# 1 0.024323 -0.004235 -0.002908 0.000000 0.006839 0.000000
# 2 -0.004235 0.007296 -0.002251 0.000000 -0.000857 0.000000
# 3 -0.002908 -0.002251 0.007630 0.000000 0.002151 0.000000
# 4 0.000000 0.000000 0.000000 0.029505 0.000000 -0.004203
# 5 0.006839 -0.000857 0.002151 0.000000 0.029197 0.000000
# 6 0.000000 0.000000 0.000000 -0.004203 0.000000 0.026287
#
#
# Mechanical properties :
#
#
# Convention : Reuss Voigt Hill
#
# Bulk Modulus (GPa) = 48.87146 80.96001 64.91574
# Shear Modulus (GPa) = 33.36756 39.72865 36.54810
#
# Velocity S-wave (km/s) = 3.73290 4.07320 3.90675
# Velocity P-wave (km/s) = 6.24407 7.47868 6.88909
#
# Compressibility (1/GPa) = 0.02046184
#
# Stress axis : x y z
#
# Youngs Moduli (GPa) = 41.11268 137.05609 131.06408
#
# Poissons Ratio (x) = 0.58041 0.38119
# Poissons Ratio (y) = 0.17411 0.29497
# Poissons Ratio (z) = 0.11957 0.30845
#
# Static dielectric constant tensor:
#      x y z
#    x 2.022650 0.000000 0.015570 
#    y 0.000000 1.857180 0.000000 
#    z 0.015570 0.000000 1.872580 
# 
# From -- ./inp_files/11246.got.cif
#   From: 2010.05.17/outbox.cif.g08.bks.cpg/sg4_6_cif.got.tgz:11246.got - 2010.06.03 18:43:04.
