data_PCOD9116176
_publ_section_title
;
Structure prediction by ZEFSAII (Michael W. Deem and Ramdas Pophale) SiO2 
 PCOD9116176
Probable space group: P 21
;
_chemical_formula_sum "Si O2"
_cell_formula_units_Z 16
_cell_length_a 5.603725
_cell_length_b 13.407958
_cell_length_c 8.981019
_cell_angle_alpha 90.000000
_cell_angle_beta 80.769829
_cell_angle_gamma 90.000000
_cell_volume 666.047306
_symmetry_space_group_name_H-M "P 21"
_symmetry_group_IT_number 4
_symmetry_cell_setting 'monoclinic'
loop_
_space_group_symop_operation_xyz
x,y,z
-x,1/2+y,-z
loop_
_atom_site_type_symbol
_atom_site_label
_atom_site_fract_x
_atom_site_fract_y
_atom_site_fract_z
Si Si1 0.077978 0.156340 0.547119
Si Si2 0.232766 0.622201 0.678943
Si Si3 0.380917 0.641207 0.202191
Si Si4 0.237408 0.267990 0.798023
Si Si5 0.547296 0.498536 0.433889
Si Si6 0.946985 0.869418 0.919181
Si Si7 0.522371 0.307919 0.240081
Si Si8 0.053349 0.590258 0.012428
O O1 0.945821 0.185294 0.409607
O O2 0.867255 0.136129 0.685950
O O3 0.207155 0.244914 0.626793
O O4 0.219878 0.051970 0.516588
O O5 0.335735 0.531924 0.568265
O O6 0.456714 0.694795 0.700928
O O7 0.075504 0.588422 0.834304
O O8 0.479870 0.752516 0.203599
O O9 0.530833 0.563015 0.282473
O O10 0.326622 0.614986 0.039880
O O11 0.130256 0.358122 0.899393
O O12 0.124066 0.177098 0.911910
O O13 0.533468 0.386533 0.376649
O O14 0.715240 0.833915 0.839333
O O15 0.209741 0.819899 0.863862
O O16 0.995296 0.986604 0.901350
#
# Coordination Sequence:
#
# PCOD9116176 Si02
#       8
#     2   2   2   2   2   2   2   2
#     4   9  21  41  65  96 140 185 230 284 359 421
#     4  11  25  44  69 106 147 190 235 301 357 437
#     4   9  17  38  67  90 131 176 232 285 352 409
#     4  10  21  40  70  99 137 185 232 293 359 427
#     4  10  22  44  69  98 137 198 231 290 362 430
#     4  12  26  45  74 109 137 191 244 309 354 429
#     4  12  26  48  75 106 143 190 249 294 366 431
#     4  11  22  42  67 102 138 177 239 302 349 420
#
# _framework density 24.022320000000001
#
# number of rings (size 3 to 8) (size 9 to 14) (size 15 to 20)
#    0.000    1.500    2.500    3.000    5.250    1.000 
#    9.000    0.000    0.000    0.000    0.000    0.000 
#    0.000    0.000    0.000    0.000    0.000    0.000 
#
# Total GULP energy -89140.183276 kJ/mol
# GULP energy per Si atom -5571.261455 kJ/mol
# Density = 2.396764 g / cm^3
# Si number density = 24.022320 Si / 1000 Ang^3
#
#
#
# Elastic Constant Matrix: (Units=GPa)
#
#
# Indices 1 2 3 4 5 6 
#
# 1 80.4454 3.5160 28.8705 0.0000 -0.9636 0.0000
# 2 3.5160 54.6716 2.2422 0.0000 -0.1941 0.0000
# 3 28.8705 2.2422 106.3819 0.0000 8.8877 0.0000
# 4 0.0000 0.0000 0.0000 39.1219 0.0000 -9.7745
# 5 -0.9636 -0.1941 8.8877 0.0000 29.2902 0.0000
# 6 0.0000 0.0000 0.0000 -9.7745 0.0000 26.3367
#
#
#
# Elastic Compliance Matrix: (Units=1/GPa)
#
#
# Indices 1 2 3 4 5 6 
#
# 1 0.013877 -0.000727 -0.003887 0.000000 0.001631 0.000000
# 2 -0.000727 0.018347 -0.000203 0.000000 0.000159 0.000000
# 3 -0.003887 -0.000203 0.010742 0.000000 -0.003389 0.000000
# 4 0.000000 0.000000 0.000000 0.028174 0.000000 0.010456
# 5 0.001631 0.000159 -0.003389 0.000000 0.035224 0.000000
# 6 0.000000 0.000000 0.000000 0.010456 0.000000 0.041851
#
#
# Mechanical properties :
#
#
# Convention : Reuss Voigt Hill
#
# Bulk Modulus (GPa) = 30.00083 34.52849 32.26466
# Shear Modulus (GPa) = 29.59299 32.74109 31.16704
#
# Velocity S-wave (km/s) = 3.51364 3.69581 3.60588
# Velocity P-wave (km/s) = 5.38301 5.71111 5.54948
#
# Compressibility (1/GPa) = 0.03333241
#
# Stress axis : x y z
#
# Youngs Moduli (GPa) = 72.06125 54.50576 93.08939
#
# Poissons Ratio (x) = 0.03964 0.36184
# Poissons Ratio (y) = 0.05241 0.01886
# Poissons Ratio (z) = 0.28010 0.01104
#
# Static dielectric constant tensor:
#      x y z
#    x 2.112720 0.000000 0.045170 
#    y 0.000000 1.994050 0.000000 
#    z 0.045170 0.000000 1.946240 
# 
# From -- ./inp_files/1657.got.cif
#   From: 2010.05.17/outbox.cif.g08.bks.cpg/sg4_1_cif.got.tgz:1657.got - 2010.06.03 18:43:04.
