data_PCOD9116088
_publ_section_title
;
Structure prediction by ZEFSAII (Michael W. Deem and Ramdas Pophale) SiO2 
 PCOD9116088
Probable space group: P 21
;
_chemical_formula_sum "Si O2"
_cell_formula_units_Z 16
_cell_length_a 8.356999
_cell_length_b 8.045893
_cell_length_c 9.669737
_cell_angle_alpha 90.000000
_cell_angle_beta 93.016750
_cell_angle_gamma 90.000000
_cell_volume 649.287436
_symmetry_space_group_name_H-M "P 21"
_symmetry_group_IT_number 4
_symmetry_cell_setting 'monoclinic'
loop_
_space_group_symop_operation_xyz
x,y,z
-x,1/2+y,-z
loop_
_atom_site_type_symbol
_atom_site_label
_atom_site_fract_x
_atom_site_fract_y
_atom_site_fract_z
Si Si1 0.115458 0.446640 0.083337
Si Si2 0.949680 0.753583 0.169607
Si Si3 0.452985 0.280584 0.168515
Si Si4 0.621229 0.115052 0.403028
Si Si5 0.857138 0.619111 0.442491
Si Si6 0.944808 0.265178 0.317152
Si Si7 0.386923 0.087076 0.915723
Si Si8 0.516252 0.737082 0.351515
O O1 0.293476 0.382866 0.125671
O O2 0.094013 0.635069 0.131175
O O3 0.001944 0.325796 0.170001
O O4 0.064628 0.419494 0.921175
O O5 0.931032 0.750199 0.333521
O O6 0.792774 0.651183 0.110511
O O7 0.486190 0.230699 0.325683
O O8 0.596411 0.398364 0.126795
O O9 0.446403 0.119035 0.072341
O O10 0.785544 0.155668 0.331057
O O11 0.630637 0.173048 0.562643
O O12 0.565711 0.926494 0.381003
O O13 0.914963 0.438733 0.397264
O O14 0.667445 0.628292 0.412119
O O15 0.914080 0.668934 0.596265
O O16 0.489383 0.195531 0.810532
#
# Coordination Sequence:
#
# PCOD9116088 Si02
#       8
#     2   2   2   2   2   2   2   2
#     4  10  22  38  60  87 118 153 194 241 292 353
#     4   9  21  39  58  85 118 153 194 243 291 347
#     4  11  22  39  62  91 123 158 200 247 301 363
#     4  12  24  40  62  88 120 160 201 252 309 364
#     4  10  21  40  60  87 120 154 202 250 300 361
#     4  11  23  39  61  89 121 159 200 250 302 360
#     4  10  22  40  61  88 123 157 200 251 300 362
#     4  11  23  41  62  87 119 158 203 254 307 364
#
# _framework density 24.642401
#
# number of rings (size 3 to 8) (size 9 to 14) (size 15 to 20)
#    0.000    1.500    0.000    6.000    0.000    9.000 
#    0.000    1.250    0.000    0.000    0.000    0.000 
#    0.000    0.000    0.000    0.000    0.000    0.000 
#
# Total GULP energy -89551.294579 kJ/mol
# GULP energy per Si atom -5596.955911 kJ/mol
# Density = 2.458631 g / cm^3
# Si number density = 24.642401 Si / 1000 Ang^3
#
#
#
# Elastic Constant Matrix: (Units=GPa)
#
#
# Indices 1 2 3 4 5 6 
#
# 1 55.4773 -0.9357 2.7312 0.0000 -4.5464 0.0000
# 2 -0.9357 52.2016 -17.7553 0.0000 8.6462 0.0000
# 3 2.7312 -17.7553 66.4162 0.0000 5.4283 0.0000
# 4 0.0000 0.0000 0.0000 35.3956 0.0000 -1.7338
# 5 -4.5464 8.6462 5.4283 0.0000 19.1956 0.0000
# 6 0.0000 0.0000 0.0000 -1.7338 0.0000 24.3830
#
#
#
# Elastic Compliance Matrix: (Units=1/GPa)
#
#
# Indices 1 2 3 4 5 6 
#
# 1 0.018512 -0.001041 -0.001470 0.000000 0.005269 0.000000
# 2 -0.001041 0.023858 0.007492 0.000000 -0.013112 0.000000
# 3 -0.001470 0.007492 0.017837 0.000000 -0.008767 0.000000
# 4 0.000000 0.000000 0.000000 0.028351 0.000000 0.002016
# 5 0.005269 -0.013112 -0.008767 0.000000 0.061728 0.000000
# 6 0.000000 0.000000 0.000000 0.002016 0.000000 0.041156
#
#
# Mechanical properties :
#
#
# Convention : Reuss Voigt Hill
#
# Bulk Modulus (GPa) = 14.25129 15.79729 15.02429
# Shear Modulus (GPa) = 24.40594 28.46517 26.43556
#
# Velocity S-wave (km/s) = 3.15048 3.40241 3.27887
# Velocity P-wave (km/s) = 4.36232 4.67544 4.52159
#
# Compressibility (1/GPa) = 0.07016908
#
# Stress axis : x y z
#
# Youngs Moduli (GPa) = 54.01895 41.91477 56.06471
#
# Poissons Ratio (x) = 0.04363 0.08243
# Poissons Ratio (y) = 0.05623 -0.42006
# Poissons Ratio (z) = 0.07942 -0.31404
#
# Static dielectric constant tensor:
#      x y z
#    x 1.965920 0.000000 -0.018910 
#    y 0.000000 1.933190 0.000000 
#    z -0.018910 0.000000 1.921790 
# 
# From -- ./inp_files/5666.got.cif
#   From: 2010.05.17/outbox.cif.g08.bks.cpg/sg4_3_cif.got.tgz:5666.got - 2010.06.03 18:43:04.
