data_PCOD9116215
_publ_section_title
;
Structure prediction by ZEFSAII (Michael W. Deem and Ramdas Pophale) SiO2 
 PCOD9116215
Probable space group: P 21
;
_chemical_formula_sum "Si O2"
_cell_formula_units_Z 16
_cell_length_a 28.295447
_cell_length_b 4.872363
_cell_length_c 6.031251
_cell_angle_alpha 90.000000
_cell_angle_beta 133.354788
_cell_angle_gamma 90.000000
_cell_volume 604.599345
_symmetry_space_group_name_H-M "P 21"
_symmetry_group_IT_number 4
_symmetry_cell_setting 'monoclinic'
loop_
_space_group_symop_operation_xyz
x,y,z
-x,1/2+y,-z
loop_
_atom_site_type_symbol
_atom_site_label
_atom_site_fract_x
_atom_site_fract_y
_atom_site_fract_z
Si Si1 0.762597 0.811470 0.480879
Si Si2 0.893038 0.702665 0.730520
Si Si3 0.602689 0.315912 0.449048
Si Si4 0.482222 0.131000 0.318611
Si Si5 0.731480 0.316360 0.099815
Si Si6 0.363202 0.319997 0.692485
Si Si7 0.861575 0.202129 0.327514
Si Si8 0.962304 0.027520 0.307554
O O1 0.836099 0.707035 0.735016
O O2 0.734643 0.626861 0.190881
O O3 0.712724 0.770373 0.518397
O O4 0.757133 0.124260 0.382141
O O5 0.895704 0.413585 0.612746
O O6 0.866879 0.907426 0.459369
O O7 0.950727 0.857206 0.044595
O O8 0.530704 0.232680 0.283751
O O9 0.611128 0.635332 0.426715
O O10 0.623135 0.137514 0.302924
O O11 0.658526 0.238007 0.803881
O O12 0.507224 0.312564 0.604455
O O13 0.408380 0.211491 0.035845
O O14 0.785416 0.278288 0.080640
O O15 0.899642 0.170070 0.220078
O O16 0.010471 0.287009 0.443008
#
# Coordination Sequence:
#
# PCOD9116215 Si02
#       8
#     2   2   2   2   2   2   2   2
#     4  10  21  41  64  92 127 169 217 262 329 397
#     4  10  23  44  69  99 138 180 226 286 339 409
#     4  12  24  39  61  96 127 164 212 273 325 381
#     4  12  24  42  64  84 126 176 216 262 318 388
#     4  10  21  41  64  92 127 169 217 262 329 397
#     4  12  24  39  61  96 127 164 212 273 325 381
#     4  10  23  44  69  99 138 180 226 286 339 409
#     4  12  26  44  70 106 138 182 234 284 346 428
#
# _framework density 26.463802999999999
#
# number of rings (size 3 to 8) (size 9 to 14) (size 15 to 20)
#    0.000    1.000    0.000    6.750    1.750    2.000 
#    2.250    0.000    0.000    0.000    0.000    0.000 
#    0.000    0.000    0.000    0.000    0.000    0.000 
#
# Total GULP energy -89580.262056 kJ/mol
# GULP energy per Si atom -5598.766379 kJ/mol
# Density = 2.640357 g / cm^3
# Si number density = 26.463803 Si / 1000 Ang^3
#
#
#
# Elastic Constant Matrix: (Units=GPa)
#
#
# Indices 1 2 3 4 5 6 
#
# 1 113.0416 17.1181 -2.2828 0.0000 17.1286 0.0000
# 2 17.1181 117.7559 20.4616 0.0000 5.7900 0.0000
# 3 -2.2828 20.4616 57.3357 0.0000 5.4062 0.0000
# 4 0.0000 0.0000 0.0000 47.2411 0.0000 -3.7373
# 5 17.1286 5.7900 5.4062 0.0000 20.4756 0.0000
# 6 0.0000 0.0000 0.0000 -3.7373 0.0000 37.7567
#
#
#
# Elastic Compliance Matrix: (Units=1/GPa)
#
#
# Indices 1 2 3 4 5 6 
#
# 1 0.010422 -0.001385 0.001738 0.000000 -0.008786 0.000000
# 2 -0.001385 0.009299 -0.003318 0.000000 -0.000595 0.000000
# 3 0.001738 -0.003318 0.019221 0.000000 -0.005591 0.000000
# 4 0.000000 0.000000 0.000000 0.021335 0.000000 0.002112
# 5 -0.008786 -0.000595 -0.005591 0.000000 0.057833 0.000000
# 6 0.000000 0.000000 0.000000 0.002112 0.000000 0.026694
#
#
# Mechanical properties :
#
#
# Convention : Reuss Voigt Hill
#
# Bulk Modulus (GPa) = 30.29113 39.85854 35.07484
# Shear Modulus (GPa) = 30.91387 37.95042 34.43215
#
# Velocity S-wave (km/s) = 3.42154 3.79099 3.61099
# Velocity P-wave (km/s) = 5.20388 5.85290 5.53790
#
# Compressibility (1/GPa) = 0.03301296
#
# Stress axis : x y z
#
# Youngs Moduli (GPa) = 95.94712 107.53568 52.02515
#
# Poissons Ratio (x) = 0.14894 -0.09040
# Poissons Ratio (y) = 0.13289 0.17260
# Poissons Ratio (z) = -0.16673 0.35677
#
# Static dielectric constant tensor:
#      x y z
#    x 2.128080 0.000000 0.001740 
#    y 0.000000 1.952710 0.000000 
#    z 0.001740 0.000000 2.090320 
# 
# From -- ./inp_files/4454.got.cif
#   From: 2010.05.17/outbox.cif.g08.bks.cpg/sg4_3_cif.got.tgz:4454.got - 2010.06.03 18:43:04.
