data_PCOD9116315
_publ_section_title
;
Structure prediction by ZEFSAII (Michael W. Deem and Ramdas Pophale) SiO2 
 PCOD9116315
Probable space group: P 21
;
_chemical_formula_sum "Si O2"
_cell_formula_units_Z 16
_cell_length_a 15.012716
_cell_length_b 11.007253
_cell_length_c 9.056277
_cell_angle_alpha 90.000000
_cell_angle_beta 30.961229
_cell_angle_gamma 90.000000
_cell_volume 769.906133
_symmetry_space_group_name_H-M "P 21"
_symmetry_group_IT_number 4
_symmetry_cell_setting 'monoclinic'
loop_
_space_group_symop_operation_xyz
x,y,z
-x,1/2+y,-z
loop_
_atom_site_type_symbol
_atom_site_label
_atom_site_fract_x
_atom_site_fract_y
_atom_site_fract_z
Si Si1 0.396376 0.123540 0.872476
Si Si2 0.031024 0.684606 0.216036
Si Si3 0.451488 0.779933 0.085522
Si Si4 0.846174 0.139869 0.623981
Si Si5 0.188918 0.977154 0.400391
Si Si6 0.726567 0.010263 0.302021
Si Si7 0.192525 0.409425 0.497144
Si Si8 0.120532 0.302882 0.121597
O O1 0.514117 0.192895 0.825612
O O2 0.524380 0.046749 0.586757
O O3 0.274664 0.229673 0.981369
O O4 0.277797 0.026421 0.126654
O O5 0.079142 0.670522 0.320985
O O6 0.867463 0.594681 0.428251
O O7 0.970058 0.819105 0.265974
O O8 0.177820 0.624545 0.908278
O O9 0.339892 0.703576 0.126872
O O10 0.325587 0.894386 0.292746
O O11 0.633409 0.830727 0.770914
O O12 0.976945 0.194913 0.313100
O O13 0.823492 0.999773 0.617901
O O14 0.014097 0.901230 0.617001
O O15 0.783512 0.986768 0.388939
O O16 0.787047 0.886690 0.132780
#
# Coordination Sequence:
#
# PCOD9116315 Si02
#       8
#     2   2   2   2   2   2   2   2
#     4  12  22  47  67 107 140 182 226 295 349 410
#     4  11  26  43  73 102 142 185 239 281 348 424
#     4  11  22  38  74 102 135 176 235 287 337 417
#     4  11  24  44  74 104 133 188 239 279 342 426
#     4  10  21  42  66 102 132 181 233 279 332 424
#     4  11  27  46  67 108 147 175 231 297 360 401
#     4  12  25  44  73 102 143 183 225 294 352 406
#     4  10  25  44  72  95 146 180 234 282 342 420
#
# _framework density 20.781752999999998
#
# number of rings (size 3 to 8) (size 9 to 14) (size 15 to 20)
#    0.000    1.000    5.000    0.000   10.500    2.000 
#    2.250    1.250    0.000    0.000    0.000    0.000 
#    0.000    0.000    0.000    0.000    0.000    0.000 
#
# Total GULP energy -89221.624035 kJ/mol
# GULP energy per Si atom -5576.351502 kJ/mol
# Density = 2.073445 g / cm^3
# Si number density = 20.781753 Si / 1000 Ang^3
#
#
#
# Elastic Constant Matrix: (Units=GPa)
#
#
# Indices 1 2 3 4 5 6 
#
# 1 77.1531 38.7489 23.3545 0.0000 -15.5884 0.0000
# 2 38.7489 96.1324 36.5455 0.0000 -8.9715 0.0000
# 3 23.3545 36.5455 125.6043 0.0000 -7.3826 0.0000
# 4 0.0000 0.0000 0.0000 46.5242 0.0000 -10.4798
# 5 -15.5884 -8.9715 -7.3826 0.0000 17.9471 0.0000
# 6 0.0000 0.0000 0.0000 -10.4798 0.0000 34.5089
#
#
#
# Elastic Compliance Matrix: (Units=1/GPa)
#
#
# Indices 1 2 3 4 5 6 
#
# 1 0.018922 -0.006034 -0.000998 0.000000 0.013008 0.000000
# 2 -0.006034 0.013995 -0.002918 0.000000 0.000555 0.000000
# 3 -0.000998 -0.002918 0.009079 0.000000 0.001409 0.000000
# 4 0.000000 0.000000 0.000000 0.023073 0.000000 0.007007
# 5 0.013008 0.000555 0.001409 0.000000 0.067875 0.000000
# 6 0.000000 0.000000 0.000000 0.007007 0.000000 0.031106
#
#
# Mechanical properties :
#
#
# Convention : Reuss Voigt Hill
#
# Bulk Modulus (GPa) = 45.25400 55.13196 50.19298
# Shear Modulus (GPa) = 26.13501 33.14542 29.64022
#
# Velocity S-wave (km/s) = 3.55010 3.99799 3.78068
# Velocity P-wave (km/s) = 6.21510 6.92087 6.57746
#
# Compressibility (1/GPa) = 0.02209749
#
# Stress axis : x y z
#
# Youngs Moduli (GPa) = 52.84868 71.45272 110.14652
#
# Poissons Ratio (x) = 0.43111 0.10995
# Poissons Ratio (y) = 0.31887 0.32136
# Poissons Ratio (z) = 0.05275 0.20847
#
# Static dielectric constant tensor:
#      x y z
#    x 1.744190 0.000000 -0.014510 
#    y 0.000000 1.803250 0.000000 
#    z -0.014510 0.000000 1.767320 
# 
# From -- ./inp_files/9298.got.cif
#   From: 2010.05.17/outbox.cif.g08.bks.cpg/sg4_5_cif.got.tgz:9298.got - 2010.06.03 18:43:04.
