data_PCOD9116782
_publ_section_title
;
Structure prediction by ZEFSAII (Michael W. Deem and Ramdas Pophale) SiO2 
 PCOD9116782
Probable space group: P 21
;
_chemical_formula_sum "Si O2"
_cell_formula_units_Z 14
_cell_length_a 9.393922
_cell_length_b 12.619975
_cell_length_c 7.116579
_cell_angle_alpha 90.000000
_cell_angle_beta 53.066137
_cell_angle_gamma 90.000000
_cell_volume 674.376839
_symmetry_space_group_name_H-M "P 21"
_symmetry_group_IT_number 4
_symmetry_cell_setting 'monoclinic'
loop_
_space_group_symop_operation_xyz
x,y,z
-x,1/2+y,-z
loop_
_atom_site_type_symbol
_atom_site_label
_atom_site_fract_x
_atom_site_fract_y
_atom_site_fract_z
Si Si1 0.505147 0.027830 0.558609
Si Si2 0.313712 0.683748 0.865771
Si Si3 0.208519 0.983990 0.305208
Si Si4 0.470919 0.151647 0.933369
Si Si5 0.097721 0.492114 0.147316
Si Si6 0.164206 0.908940 0.929628
Si Si7 0.439371 0.377703 0.800685
O O1 0.552389 0.120770 0.376478
O O2 0.563515 0.067471 0.717824
O O3 0.298166 0.000487 0.750741
O O4 0.582040 0.923488 0.394125
O O5 0.257374 0.795927 0.829502
O O6 0.404015 0.691613 0.998115
O O7 0.144223 0.607178 0.027384
O O8 0.042681 0.998619 0.574013
O O9 0.366989 0.917613 0.280786
O O10 0.304083 0.092216 0.161217
O O11 0.144129 0.925937 0.167318
O O12 0.421167 0.253497 0.848326
O O13 0.010781 0.420846 0.053375
O O14 0.287741 0.438398 0.040547
#
# Coordination Sequence:
#
# PCOD9116782 Si02
#       7
#     2   2   2   2   2   2   2
#     4  10  22  40  68  97 130 175 222 281 329 400
#     4  11  23  42  69  98 136 184 228 274 348 407
#     4  11  23  45  64  98 139 173 226 283 327 412
#     4  11  22  42  72  98 133 188 226 271 349 404
#     4  11  25  43  64 100 139 169 228 289 328 411
#     4  11  23  41  69  97 137 178 224 285 340 394
#     4  11  22  45  68  98 136 177 230 275 339 406
#
# _framework density 20.759905
#
# number of rings (size 3 to 8) (size 9 to 14) (size 15 to 20)
#    0.000    1.143    5.714    0.857    0.000    5.714 
#    0.000    1.429    0.000    0.000    0.000    0.000 
#    0.000    0.000    0.000    0.000    0.000    0.000 
#
# Total GULP energy -78149.641852 kJ/mol
# GULP energy per Si atom -5582.117275 kJ/mol
# Density = 2.071265 g / cm^3
# Si number density = 20.759905 Si / 1000 Ang^3
#
#
#
# Elastic Constant Matrix: (Units=GPa)
#
#
# Indices 1 2 3 4 5 6 
#
# 1 38.9913 18.2917 43.1147 0.0000 6.1210 0.0000
# 2 18.2917 91.1384 36.8095 0.0000 -2.5615 0.0000
# 3 43.1147 36.8095 142.0082 0.0000 -9.9022 0.0000
# 4 0.0000 0.0000 0.0000 20.7437 0.0000 4.6232
# 5 6.1210 -2.5615 -9.9022 0.0000 24.9158 0.0000
# 6 0.0000 0.0000 0.0000 4.6232 0.0000 31.3485
#
#
#
# Elastic Compliance Matrix: (Units=1/GPa)
#
#
# Indices 1 2 3 4 5 6 
#
# 1 0.045783 -0.003992 -0.014068 0.000000 -0.017249 0.000000
# 2 -0.003992 0.012603 -0.001950 0.000000 0.001501 0.000000
# 3 -0.014068 -0.001950 0.012389 0.000000 0.008179 0.000000
# 4 0.000000 0.000000 0.000000 0.049846 0.000000 -0.007351
# 5 -0.017249 0.001501 0.008179 0.000000 0.047778 0.000000
# 6 0.000000 0.000000 0.000000 -0.007351 0.000000 0.032984
#
#
# Mechanical properties :
#
#
# Convention : Reuss Voigt Hill
#
# Bulk Modulus (GPa) = 32.51495 52.06330 42.28912
# Shear Modulus (GPa) = 19.86856 26.99641 23.43248
#
# Velocity S-wave (km/s) = 3.09700 3.61003 3.36331
# Velocity P-wave (km/s) = 5.33713 6.51994 5.95796
#
# Compressibility (1/GPa) = 0.03075508
#
# Stress axis : x y z
#
# Youngs Moduli (GPa) = 21.84220 79.34406 80.71734
#
# Poissons Ratio (x) = 0.31671 1.13554
# Poissons Ratio (y) = 0.08719 0.15742
# Poissons Ratio (z) = 0.30728 0.15475
#
# Static dielectric constant tensor:
#      x y z
#    x 1.751230 0.000000 0.019500 
#    y 0.000000 1.756860 0.000000 
#    z 0.019500 0.000000 1.760830 
# 
# From -- ./inp_files/1808.got.cif
#   From: 2010.05.17/outbox.cif.g08.bks.cpg/sg4_1_cif.got.tgz:1808.got - 2010.06.03 18:43:04.
