data_PCOD9116346
_publ_section_title
;
Structure prediction by ZEFSAII (Michael W. Deem and Ramdas Pophale) SiO2 
 PCOD9116346
Probable space group: P 21
;
_chemical_formula_sum "Si O2"
_cell_formula_units_Z 16
_cell_length_a 5.009221
_cell_length_b 10.924297
_cell_length_c 12.210422
_cell_angle_alpha 90.000000
_cell_angle_beta 66.646200
_cell_angle_gamma 90.000000
_cell_volume 613.440324
_symmetry_space_group_name_H-M "P 21"
_symmetry_group_IT_number 4
_symmetry_cell_setting 'monoclinic'
loop_
_space_group_symop_operation_xyz
x,y,z
-x,1/2+y,-z
loop_
_atom_site_type_symbol
_atom_site_label
_atom_site_fract_x
_atom_site_fract_y
_atom_site_fract_z
Si Si1 0.351329 0.671760 0.913724
Si Si2 0.787487 0.122483 0.637725
Si Si3 0.354004 0.230060 0.521763
Si Si4 0.782094 0.404207 0.503382
Si Si5 0.929251 0.731771 0.703846
Si Si6 0.481924 0.033352 0.907959
Si Si7 0.369606 0.549500 0.698552
Si Si8 0.977635 0.872688 0.908478
O O1 0.296011 0.559950 0.838616
O O2 0.074091 0.759660 0.969442
O O3 0.601457 0.734174 0.798616
O O4 0.497940 0.636466 0.003021
O O5 0.543447 0.165297 0.590405
O O6 0.651378 0.075811 0.772146
O O7 0.024939 0.230235 0.618710
O O8 0.008907 0.017349 0.558626
O O9 0.490840 0.364889 0.481714
O O10 0.441244 0.150341 0.401378
O O11 0.986409 0.293824 0.423677
O O12 0.586386 0.435590 0.642699
O O13 0.059797 0.594202 0.695705
O O14 0.071727 0.819139 0.774180
O O15 0.173779 0.985473 0.916524
O O16 0.657177 0.923965 0.941033
#
# Coordination Sequence:
#
# PCOD9116346 Si02
#       8
#     2   2   2   2   2   2   2   2
#     4  11  25  47  71 106 146 182 240 294 350 424
#     4  11  23  44  65 102 134 179 236 281 349 412
#     4  10  24  41  66 100 137 175 226 290 346 412
#     4  10  21  42  69  97 136 178 228 283 351 414
#     4  10  21  44  70 100 137 185 234 286 347 420
#     4  12  26  44  75 102 140 191 235 291 343 428
#     4   9  23  40  66 102 135 178 229 284 351 412
#     4  11  23  46  70 103 129 188 240 275 351 412
#
# _framework density 26.082405000000001
#
# number of rings (size 3 to 8) (size 9 to 14) (size 15 to 20)
#    0.000    1.500    2.500    0.750   12.250    2.000 
#    4.500    0.000    0.000    0.000    0.000    0.000 
#    0.000    0.000    0.000    0.000    0.000    0.000 
#
# Total GULP energy -89070.331441 kJ/mol
# GULP energy per Si atom -5566.895715 kJ/mol
# Density = 2.602304 g / cm^3
# Si number density = 26.082405 Si / 1000 Ang^3
#
#
#
# Elastic Constant Matrix: (Units=GPa)
#
#
# Indices 1 2 3 4 5 6 
#
# 1 94.0618 24.0339 14.7641 0.0000 -5.1315 0.0000
# 2 24.0339 55.7526 15.0056 0.0000 7.5252 0.0000
# 3 14.7641 15.0056 90.3684 0.0000 16.6509 0.0000
# 4 0.0000 0.0000 0.0000 36.3712 0.0000 -2.9237
# 5 -5.1315 7.5252 16.6509 0.0000 28.0037 0.0000
# 6 0.0000 0.0000 0.0000 -2.9237 0.0000 52.3047
#
#
#
# Elastic Compliance Matrix: (Units=1/GPa)
#
#
# Indices 1 2 3 4 5 6 
#
# 1 0.012658 -0.005581 -0.002072 0.000000 0.005051 0.000000
# 2 -0.005581 0.021562 -0.001586 0.000000 -0.005874 0.000000
# 3 -0.002072 -0.001586 0.013094 0.000000 -0.007739 0.000000
# 4 0.000000 0.000000 0.000000 0.027618 0.000000 0.001544
# 5 0.005051 -0.005874 -0.007739 0.000000 0.042815 0.000000
# 6 0.000000 0.000000 0.000000 0.001544 0.000000 0.019205
#
#
# Mechanical properties :
#
#
# Convention : Reuss Voigt Hill
#
# Bulk Modulus (GPa) = 34.67972 38.64333 36.66152
# Shear Modulus (GPa) = 30.29530 35.76120 33.02825
#
# Velocity S-wave (km/s) = 3.41181 3.70683 3.56238
# Velocity P-wave (km/s) = 5.37082 5.75924 5.56842
#
# Compressibility (1/GPa) = 0.02883530
#
# Stress axis : x y z
#
# Youngs Moduli (GPa) = 79.00115 46.37823 76.37271
#
# Poissons Ratio (x) = 0.25882 0.15825
# Poissons Ratio (y) = 0.44088 0.12115
# Poissons Ratio (z) = 0.16370 0.07357
#
# Static dielectric constant tensor:
#      x y z
#    x 2.333040 0.000000 0.080720 
#    y 0.000000 2.471990 0.000000 
#    z 0.080720 0.000000 1.975020 
# 
# From -- ./inp_files/10411.got.cif
#   From: 2010.05.17/outbox.cif.g08.bks.cpg/sg4_6_cif.got.tgz:10411.got - 2010.06.03 18:43:04.
