data_PCOD9116151
_publ_section_title
;
Structure prediction by ZEFSAII (Michael W. Deem and Ramdas Pophale) SiO2 
 PCOD9116151
Probable space group: P 21
;
_chemical_formula_sum "Si O2"
_cell_formula_units_Z 16
_cell_length_a 17.138893
_cell_length_b 5.682730
_cell_length_c 14.206215
_cell_angle_alpha 90.000000
_cell_angle_beta 27.153789
_cell_angle_gamma 90.000000
_cell_volume 631.459047
_symmetry_space_group_name_H-M "P 21"
_symmetry_group_IT_number 4
_symmetry_cell_setting 'monoclinic'
loop_
_space_group_symop_operation_xyz
x,y,z
-x,1/2+y,-z
loop_
_atom_site_type_symbol
_atom_site_label
_atom_site_fract_x
_atom_site_fract_y
_atom_site_fract_z
Si Si1 0.387012 0.299500 0.734327
Si Si2 0.259836 0.333178 0.235514
Si Si3 0.413844 0.810984 0.742005
Si Si4 0.565089 0.633130 0.123281
Si Si5 0.790260 0.143763 0.538697
Si Si6 0.020287 0.541670 0.368536
Si Si7 0.096481 0.259944 0.888892
Si Si8 0.990229 0.311370 0.814263
O O1 0.472809 0.556126 0.644906
O O2 0.325356 0.261128 0.910398
O O3 0.240833 0.294224 0.812433
O O4 0.488805 0.050633 0.613870
O O5 0.295790 0.451103 0.297416
O O6 0.205589 0.520580 0.215152
O O7 0.086065 0.202718 0.447369
O O8 0.371569 0.160219 0.051374
O O9 0.441156 0.872936 0.823032
O O10 0.208701 0.820337 0.940646
O O11 0.377595 0.749277 0.328620
O O12 0.903815 0.313004 0.478998
O O13 0.919618 0.043110 0.322928
O O14 0.022622 0.652418 0.263816
O O15 0.121441 0.213135 0.750847
O O16 0.006335 0.518996 0.976369
#
# Coordination Sequence:
#
# PCOD9116151 Si02
#       8
#     2   2   2   2   2   2   2   2
#     4  10  21  40  67 102 133 174 223 282 332 407
#     4  11  23  41  66  96 131 177 232 284 343 404
#     4  10  21  40  70  96 132 172 222 276 342 384
#     4  10  25  41  67  95 139 183 229 276 339 416
#     4  11  26  44  61  99 137 184 231 276 350 410
#     4  11  24  41  65  96 132 178 224 294 340 405
#     4  12  22  39  71 110 135 172 232 287 345 402
#     4  11  24  40  69  98 139 170 227 291 345 398
#
# _framework density 25.338141
#
# number of rings (size 3 to 8) (size 9 to 14) (size 15 to 20)
#    0.750    0.500    3.750    1.500    7.000    3.000 
#    0.000    0.000    5.500    0.000    0.000    0.000 
#    0.000    0.000    0.000    0.000    0.000    0.000 
#
# Total GULP energy -89091.380237 kJ/mol
# GULP energy per Si atom -5568.211265 kJ/mol
# Density = 2.528047 g / cm^3
# Si number density = 25.338141 Si / 1000 Ang^3
#
#
#
# Elastic Constant Matrix: (Units=GPa)
#
#
# Indices 1 2 3 4 5 6 
#
# 1 -5527.2872-2623.7802 867.2704 0.0000 -688.0176 0.0000
# 2 -2623.7802-1116.1928 403.7737 0.0000 -319.0835 0.0000
# 3 867.2704 403.7737 -92.8401 0.0000 109.9969 0.0000
# 4 0.0000 0.0000 0.0000 -3.6291 0.0000 -15.6242
# 5 -688.0176 -319.0835 109.9969 0.0000 -54.8166 0.0000
# 6 0.0000 0.0000 0.0000 -15.6242 0.0000 -13.5935
#
#
#
# Elastic Compliance Matrix: (Units=1/GPa)
#
#
# Indices 1 2 3 4 5 6 
#
# 1 0.002304 -0.003275 0.003192 0.000000 -0.003451 0.000000
# 2 -0.003275 0.007947 0.001551 0.000000 -0.002040 0.000000
# 3 0.003192 0.001551 0.023502 0.000000 -0.001935 0.000000
# 4 0.000000 0.000000 0.000000 0.069788 0.000000 -0.080213
# 5 -0.003451 -0.002040 -0.001935 0.000000 0.033066 0.000000
# 6 0.000000 0.000000 0.000000 -0.080213 0.000000 0.018631
#
#
# Mechanical properties :
#
#
# Convention : Reuss Voigt Hill
#
# Bulk Modulus (GPa) = 27.25577 -1049.08802 -510.91613
# Shear Modulus (GPa) = 30.38916 -373.31343 -171.46214
#
# Velocity S-wave (km/s) = 3.46691 -12.15123 -8.23508
# Velocity P-wave (km/s) = 5.17746 24.73467 17.10260
#
# Compressibility (1/GPa) = 0.03668948
#
# Stress axis : x y z
#
# Youngs Moduli (GPa) = 433.98814 125.83007 42.55016
#
# Poissons Ratio (x) = 0.41211 -0.13582
# Poissons Ratio (y) = 1.42137 -0.06600
# Poissons Ratio (z) = -1.38533 -0.19519
#
# Static dielectric constant tensor:
#      x y z
#    x 2.106740 0.000000 0.028340 
#    y 0.000000 2.378830 0.000000 
#    z 0.028340 0.000000 2.030910 
# 
# From -- ./inp_files/14270.got.cif
#   From: 2010.05.17/outbox.cif.g08.bks.cpg/sg4_8_cif.got.tgz:14270.got - 2010.06.03 18:43:04.
