data_PCOD9116761
_publ_section_title
;
Structure prediction by ZEFSAII (Michael W. Deem and Ramdas Pophale) SiO2 
 PCOD9116761
Probable space group: P 21
;
_chemical_formula_sum "Si O2"
_cell_formula_units_Z 16
_cell_length_a 12.063953
_cell_length_b 4.913272
_cell_length_c 19.492644
_cell_angle_alpha 90.000000
_cell_angle_beta 34.234032
_cell_angle_gamma 90.000000
_cell_volume 649.996876
_symmetry_space_group_name_H-M "P 21"
_symmetry_group_IT_number 4
_symmetry_cell_setting 'monoclinic'
loop_
_space_group_symop_operation_xyz
x,y,z
-x,1/2+y,-z
loop_
_atom_site_type_symbol
_atom_site_label
_atom_site_fract_x
_atom_site_fract_y
_atom_site_fract_z
Si Si1 0.728271 0.881940 0.639883
Si Si2 0.722001 0.692890 0.842171
Si Si3 0.273580 0.697120 0.069572
Si Si4 0.853875 0.384772 0.648987
Si Si5 0.093360 0.553367 0.915921
Si Si6 0.094994 0.909275 0.790592
Si Si7 0.559954 0.721174 0.303408
Si Si8 0.390069 0.926325 0.527295
O O1 0.717357 0.574049 0.670383
O O2 0.555185 0.009466 0.684391
O O3 0.926777 0.892866 0.493155
O O4 0.770937 0.081056 0.682967
O O5 0.745877 0.002926 0.852948
O O6 0.857274 0.541657 0.718657
O O7 0.743366 0.509834 0.899898
O O8 0.497106 0.653374 0.931083
O O9 0.101748 0.585818 0.110102
O O10 0.061920 0.644251 0.853372
O O11 0.313066 0.434345 0.805455
O O12 0.051386 0.820700 0.982198
O O13 0.272802 0.064824 0.738031
O O14 0.180312 0.866230 0.670183
O O15 0.417812 0.860512 0.432991
O O16 0.456371 0.233677 0.509515
#
# Coordination Sequence:
#
# PCOD9116761 Si02
#       8
#     2   2   2   2   2   2   2   2
#     4  10  24  41  69  98 132 178 226 279 337 414
#     4  10  22  45  66  97 130 169 227 282 341 392
#     4  10  24  41  70  98 128 173 224 281 338 413
#     4  10  22  45  67  98 134 175 227 282 342 394
#     4  12  26  46  67  96 146 193 230 280 340 430
#     4  11  25  46  69 106 142 180 236 282 360 422
#     4  11  25  46  68 106 144 180 237 283 358 426
#     4  10  22  40  66  95 138 178 219 285 342 407
#
# _framework density 24.615501999999999
#
# number of rings (size 3 to 8) (size 9 to 14) (size 15 to 20)
#    0.000    1.500    2.500    0.750    5.250    1.000 
#    6.750    0.000    0.000    0.000    0.000    0.000 
#    0.000    0.000    0.000    0.000    0.000    0.000 
#
# Total GULP energy -89552.541226 kJ/mol
# GULP energy per Si atom -5597.033827 kJ/mol
# Density = 2.455948 g / cm^3
# Si number density = 24.615502 Si / 1000 Ang^3
#
#
#
# Elastic Constant Matrix: (Units=GPa)
#
#
# Indices 1 2 3 4 5 6 
#
# 1 43.8866 -0.3858 21.2054 0.0000 -30.6586 0.0000
# 2 -0.3858 104.1097 25.3771 0.0000 -4.6837 0.0000
# 3 21.2054 25.3771 79.9542 0.0000 10.6880 0.0000
# 4 0.0000 0.0000 0.0000 30.1061 0.0000 2.7236
# 5 -30.6586 -4.6837 10.6880 0.0000 38.9308 0.0000
# 6 0.0000 0.0000 0.0000 2.7236 0.0000 29.2431
#
#
#
# Elastic Compliance Matrix: (Units=1/GPa)
#
#
# Indices 1 2 3 4 5 6 
#
# 1 0.162008 0.024613 -0.070830 0.000000 0.149991 0.000000
# 2 0.024613 0.014342 -0.014431 0.000000 0.025071 0.000000
# 3 -0.070830 -0.014431 0.045221 0.000000 -0.069931 0.000000
# 4 0.000000 0.000000 0.000000 0.033498 0.000000 -0.003120
# 5 0.149991 0.025071 -0.069931 0.000000 0.166022 0.000000
# 6 0.000000 0.000000 0.000000 -0.003120 0.000000 0.034487
#
#
# Mechanical properties :
#
#
# Convention : Reuss Voigt Hill
#
# Bulk Modulus (GPa) = 9.97254 35.59375 22.78315
# Shear Modulus (GPa) = 8.19270 31.77291 19.98281
#
# Velocity S-wave (km/s) = 1.82633 3.59662 2.85230
# Velocity P-wave (km/s) = 2.91675 5.63373 4.48589
#
# Compressibility (1/GPa) = 0.10027535
#
# Stress axis : x y z
#
# Youngs Moduli (GPa) = 6.17253 69.72494 22.11355
#
# Poissons Ratio (x) = -1.71616 1.56630
# Poissons Ratio (y) = -0.15193 0.31913
# Poissons Ratio (z) = 0.43720 1.00623
#
# Static dielectric constant tensor:
#      x y z
#    x 1.994370 0.000000 0.032500 
#    y 0.000000 1.913760 0.000000 
#    z 0.032500 0.000000 1.954450 
# 
# From -- ./inp_files/12456.got.cif
#   From: 2010.05.17/outbox.cif.g08.bks.cpg/sg4_7_cif.got.tgz:12456.got - 2010.06.03 18:43:04.
