data_PCOD9116248
_publ_section_title
;
Structure prediction by ZEFSAII (Michael W. Deem and Ramdas Pophale) SiO2 
 PCOD9116248
Probable space group: P 21
;
_chemical_formula_sum "Si O2"
_cell_formula_units_Z 16
_cell_length_a 6.655883
_cell_length_b 18.017975
_cell_length_c 6.655831
_cell_angle_alpha 90.000000
_cell_angle_beta 116.571946
_cell_angle_gamma 90.000000
_cell_volume 713.892475
_symmetry_space_group_name_H-M "P 21"
_symmetry_group_IT_number 4
_symmetry_cell_setting 'monoclinic'
loop_
_space_group_symop_operation_xyz
x,y,z
-x,1/2+y,-z
loop_
_atom_site_type_symbol
_atom_site_label
_atom_site_fract_x
_atom_site_fract_y
_atom_site_fract_z
Si Si1 0.085643 0.886780 0.804396
Si Si2 0.695600 0.851842 0.414358
Si Si3 0.553698 0.624103 0.316286
Si Si4 0.380501 0.756619 0.999952
Si Si5 0.816274 0.614519 0.053692
Si Si6 0.500051 0.982003 0.119496
Si Si7 0.213247 0.506616 0.115241
Si Si8 0.384759 0.232008 0.286743
O O1 0.169048 0.809890 0.939159
O O2 0.960684 0.869310 0.539312
O O3 0.308684 0.937591 0.906147
O O4 0.899187 0.933705 0.842133
O O5 0.560843 0.928734 0.330950
O O6 0.657858 0.804918 0.600816
O O7 0.593846 0.801033 0.191314
O O8 0.443372 0.544012 0.297485
O O9 0.581550 0.668834 0.531492
O O10 0.390005 0.676649 0.107386
O O11 0.775915 0.619308 0.275917
O O12 0.413264 0.747410 0.776830
O O13 0.607369 0.561976 0.890000
O O14 0.797478 0.694614 0.943391
O O15 0.031472 0.569789 0.081519
O O16 0.723167 0.991210 0.086726
#
# Coordination Sequence:
#
# PCOD9116248 Si02
#       8
#     2   2   2   2   2   2   2   2
#     4  10  22  39  64  95 123 170 216 256 316 380
#     4  10  22  39  64  95 123 170 216 256 316 380
#     4   9  20  41  64  91 127 165 212 266 318 379
#     4   9  21  44  59  92 135 158 217 274 305 380
#     4   9  20  41  64  91 127 165 212 266 318 379
#     4   9  21  44  59  92 135 158 217 274 305 380
#     4  10  21  41  67  91 128 172 205 266 324 367
#     4  10  21  41  67  91 128 172 205 266 324 367
#
# _framework density 22.412338999999999
#
# number of rings (size 3 to 8) (size 9 to 14) (size 15 to 20)
#    0.000    2.500    0.000    0.000    7.000    0.000 
#   22.500    0.000    0.000    0.000    0.000    0.000 
#    0.000    0.000    0.000    0.000    0.000    0.000 
#
# Total GULP energy -89151.705965 kJ/mol
# GULP energy per Si atom -5571.981623 kJ/mol
# Density = 2.236133 g / cm^3
# Si number density = 22.412339 Si / 1000 Ang^3
#
#
#
# Elastic Constant Matrix: (Units=GPa)
#
#
# Indices 1 2 3 4 5 6 
#
# 1 98.8324 42.2182 46.1646 0.0000 -15.4161 0.0000
# 2 42.2182 96.9315 31.0418 0.0000 -15.3582 0.0000
# 3 46.1646 31.0418 82.5999 0.0000 -6.8744 0.0000
# 4 0.0000 0.0000 0.0000 41.0919 0.0000 7.7550
# 5 -15.4161 -15.3582 -6.8744 0.0000 32.4513 0.0000
# 6 0.0000 0.0000 0.0000 7.7550 0.0000 35.4451
#
#
#
# Elastic Compliance Matrix: (Units=1/GPa)
#
#
# Indices 1 2 3 4 5 6 
#
# 1 0.015693 -0.003961 -0.006940 0.000000 0.004110 0.000000
# 2 -0.003961 0.013477 -0.002521 0.000000 0.003962 0.000000
# 3 -0.006940 -0.002521 0.016856 0.000000 -0.000919 0.000000
# 4 0.000000 0.000000 0.000000 0.025384 0.000000 -0.005554
# 5 0.004110 0.003962 -0.000919 0.000000 0.034449 0.000000
# 6 0.000000 0.000000 0.000000 -0.005554 0.000000 0.029428
#
#
# Mechanical properties :
#
#
# Convention : Reuss Voigt Hill
#
# Bulk Modulus (GPa) = 52.13341 57.46810 54.80075
# Shear Modulus (GPa) = 29.66919 32.39362 31.03140
#
# Velocity S-wave (km/s) = 3.64234 3.80590 3.72501
# Velocity P-wave (km/s) = 6.40315 6.70896 6.55784
#
# Compressibility (1/GPa) = 0.01918156
#
# Stress axis : x y z
#
# Youngs Moduli (GPa) = 63.72241 74.20006 59.32537
#
# Poissons Ratio (x) = 0.29393 0.41172
# Poissons Ratio (y) = 0.25243 0.14956
# Poissons Ratio (z) = 0.44223 0.18706
#
# Static dielectric constant tensor:
#      x y z
#    x 1.849730 0.000000 0.001950 
#    y 0.000000 1.877680 0.000000 
#    z 0.001950 0.000000 1.851150 
# 
# From -- ./inp_files/637.got.cif
#   From: 2010.05.17/outbox.cif.g08.bks.cpg/sg4_1_cif.got.tgz:637.got - 2010.06.03 18:43:04.
