data_PCOD9116397
_publ_section_title
;
Structure prediction by ZEFSAII (Michael W. Deem and Ramdas Pophale) SiO2 
 PCOD9116397
Probable space group: P 21
;
_chemical_formula_sum "Si O2"
_cell_formula_units_Z 14
_cell_length_a 10.678667
_cell_length_b 9.711275
_cell_length_c 5.274888
_cell_angle_alpha 90.000000
_cell_angle_beta 82.155107
_cell_angle_gamma 90.000000
_cell_volume 541.904709
_symmetry_space_group_name_H-M "P 21"
_symmetry_group_IT_number 4
_symmetry_cell_setting 'monoclinic'
loop_
_space_group_symop_operation_xyz
x,y,z
-x,1/2+y,-z
loop_
_atom_site_type_symbol
_atom_site_label
_atom_site_fract_x
_atom_site_fract_y
_atom_site_fract_z
Si Si1 0.793033 0.506240 0.420087
Si Si2 0.541674 0.536780 0.230245
Si Si3 0.829510 0.226524 0.620727
Si Si4 0.019259 0.585338 0.044724
Si Si5 0.798908 0.964799 0.372020
Si Si6 0.889149 0.749169 0.696412
Si Si7 0.451305 0.368202 0.759220
O O1 0.692214 0.521456 0.226988
O O2 0.769981 0.373473 0.599185
O O3 0.795818 0.636992 0.600691
O O4 0.932368 0.498930 0.257609
O O5 0.494132 0.450963 0.492156
O O6 0.515161 0.703699 0.236343
O O7 0.494730 0.455843 0.993206
O O8 0.757124 0.117024 0.467215
O O9 0.975175 0.234481 0.482838
O O10 0.855857 0.162127 0.886558
O O11 0.925415 0.701824 0.964729
O O12 0.069115 0.487883 0.809096
O O13 0.826748 0.889794 0.629487
O O14 0.700432 0.883363 0.229816
#
# Coordination Sequence:
#
# PCOD9116397 Si02
#       7
#     2   2   2   2   2   2   2
#     4  11  25  44  73 111 150 196 254 313 388 465
#     4  12  30  56  84 114 159 209 279 332 402 464
#     4  10  23  40  65 112 150 192 238 304 379 472
#     4  10  24  44  75 110 156 196 241 316 385 472
#     4  11  25  44  73 110 151 196 253 314 388 464
#     4  10  21  43  66 107 151 192 246 299 385 461
#     4  12  30  55  84 116 155 215 271 340 393 474
#
# _framework density 25.834799
#
# number of rings (size 3 to 8) (size 9 to 14) (size 15 to 20)
#    0.000    1.143    1.429    3.429    8.000   11.429 
#    0.000    0.000    0.000    0.000    0.000    0.000 
#    0.000    0.000    0.000    0.000    0.000    0.000 
#
# Total GULP energy -78334.806096 kJ/mol
# GULP energy per Si atom -5595.343293 kJ/mol
# Density = 2.577600 g / cm^3
# Si number density = 25.834799 Si / 1000 Ang^3
#
#
#
# Elastic Constant Matrix: (Units=GPa)
#
#
# Indices 1 2 3 4 5 6 
#
# 1 87.2608 48.1688 35.7814 0.0000 24.6742 0.0000
# 2 48.1688 215.9716 77.6321 0.0000 13.7644 0.0000
# 3 35.7814 77.6321 148.9001 0.0000 25.1692 0.0000
# 4 0.0000 0.0000 0.0000 44.7369 0.0000 10.9796
# 5 24.6742 13.7644 25.1692 0.0000 44.1753 0.0000
# 6 0.0000 0.0000 0.0000 10.9796 0.0000 38.0665
#
#
#
# Elastic Compliance Matrix: (Units=1/GPa)
#
#
# Indices 1 2 3 4 5 6 
#
# 1 0.015359 -0.002557 -0.001153 0.000000 -0.007125 0.000000
# 2 -0.002557 0.006124 -0.002764 0.000000 0.001094 0.000000
# 3 -0.001153 -0.002764 0.009051 0.000000 -0.003652 0.000000
# 4 0.000000 0.000000 0.000000 0.024056 0.000000 -0.006938
# 5 -0.007125 0.001094 -0.003652 0.000000 0.028356 0.000000
# 6 0.000000 0.000000 0.000000 -0.006938 0.000000 0.028271
#
#
# Mechanical properties :
#
#
# Convention : Reuss Voigt Hill
#
# Bulk Modulus (GPa) = 56.86131 86.14410 71.50270
# Shear Modulus (GPa) = 38.45356 44.76578 41.60967
#
# Velocity S-wave (km/s) = 3.86222 4.16717 4.01759
# Velocity P-wave (km/s) = 6.47660 7.52133 7.01843
#
# Compressibility (1/GPa) = 0.01758665
#
# Stress axis : x y z
#
# Youngs Moduli (GPa) = 65.10873 163.28922 110.48327
#
# Poissons Ratio (x) = 0.41751 0.12743
# Poissons Ratio (y) = 0.16647 0.30532
# Poissons Ratio (z) = 0.07510 0.45125
#
# Static dielectric constant tensor:
#      x y z
#    x 2.089840 0.000000 -0.030120 
#    y 0.000000 2.032040 0.000000 
#    z -0.030120 0.000000 2.046090 
# 
# From -- ./inp_files/2526.got.cif
#   From: 2010.05.17/outbox.cif.g08.bks.cpg/sg4_2_cif.got.tgz:2526.got - 2010.06.03 18:43:04.
