data_PCOD9116210
_publ_section_title
;
Structure prediction by ZEFSAII (Michael W. Deem and Ramdas Pophale) SiO2 
 PCOD9116210
Probable space group: P 21
;
_chemical_formula_sum "Si O2"
_cell_formula_units_Z 16
_cell_length_a 13.582677
_cell_length_b 8.759001
_cell_length_c 8.020643
_cell_angle_alpha 90.000000
_cell_angle_beta 44.001363
_cell_angle_gamma 90.000000
_cell_volume 662.874186
_symmetry_space_group_name_H-M "P 21"
_symmetry_group_IT_number 4
_symmetry_cell_setting 'monoclinic'
loop_
_space_group_symop_operation_xyz
x,y,z
-x,1/2+y,-z
loop_
_atom_site_type_symbol
_atom_site_label
_atom_site_fract_x
_atom_site_fract_y
_atom_site_fract_z
Si Si1 0.793087 0.790280 0.597536
Si Si2 0.060191 0.404665 0.081528
Si Si3 0.832968 0.175732 0.244970
Si Si4 0.887457 0.331050 0.846707
Si Si5 0.507017 0.721059 0.847651
Si Si6 0.238644 0.157639 0.991578
Si Si7 0.769776 0.074251 0.836965
Si Si8 0.529385 0.078631 0.745542
O O1 0.677002 0.707170 0.624959
O O2 0.786173 0.717353 0.789404
O O3 0.948691 0.789974 0.335900
O O4 0.760926 0.967218 0.686565
O O5 0.070224 0.529381 0.923480
O O6 0.182550 0.277058 0.925717
O O7 0.113764 0.494368 0.183116
O O8 0.917663 0.302866 0.249956
O O9 0.683422 0.111500 0.485566
O O10 0.806937 0.259340 0.100962
O O11 0.853558 0.506284 0.893202
O O12 0.830316 0.245603 0.750668
O O13 0.488573 0.901227 0.832686
O O14 0.392189 0.606809 0.904633
O O15 0.482911 0.681350 0.072283
O O16 0.405160 0.131532 0.772471
#
# Coordination Sequence:
#
# PCOD9116210 Si02
#       8
#     2   2   2   2   2   2   2   2
#     4  10  22  38  66 103 141 181 231 295 342 409
#     4  10  24  45  66  99 138 182 236 280 343 419
#     4  11  26  46  68  97 143 188 231 284 348 424
#     4  11  22  41  69 103 139 190 233 282 351 414
#     4  11  22  42  68  99 137 179 233 285 353 410
#     4  10  22  42  67 102 139 181 239 287 346 404
#     4  10  21  41  64 102 137 179 236 284 344 407
#     4  11  25  45  70 101 140 184 229 291 351 419
#
# _framework density 24.137308999999998
#
# number of rings (size 3 to 8) (size 9 to 14) (size 15 to 20)
#    0.000    1.500    2.500    1.500    3.500    3.000 
#    9.000    1.250    0.000    0.000    0.000    0.000 
#    0.000    0.000    0.000    0.000    0.000    0.000 
#
# Total GULP energy -89260.723002 kJ/mol
# GULP energy per Si atom -5578.795188 kJ/mol
# Density = 2.408237 g / cm^3
# Si number density = 24.137309 Si / 1000 Ang^3
#
#
#
# Elastic Constant Matrix: (Units=GPa)
#
#
# Indices 1 2 3 4 5 6 
#
# 1 86.4820 8.0269 20.9112 0.0000 -24.0544 0.0000
# 2 8.0269 91.0883 22.2549 0.0000 -10.9929 0.0000
# 3 20.9112 22.2549 89.5737 0.0000 -20.6682 0.0000
# 4 0.0000 0.0000 0.0000 24.3530 0.0000 -13.7622
# 5 -24.0544 -10.9929 -20.6682 0.0000 35.7077 0.0000
# 6 0.0000 0.0000 0.0000 -13.7622 0.0000 38.1200
#
#
#
# Elastic Compliance Matrix: (Units=1/GPa)
#
#
# Indices 1 2 3 4 5 6 
#
# 1 0.014359 0.000138 -0.001321 0.000000 0.008951 0.000000
# 2 0.000138 0.011843 -0.002437 0.000000 0.002328 0.000000
# 3 -0.001321 -0.002437 0.013503 0.000000 0.006175 0.000000
# 4 0.000000 0.000000 0.000000 0.051587 0.000000 0.018624
# 5 0.008951 0.002328 0.006175 0.000000 0.038326 0.000000
# 6 0.000000 0.000000 0.000000 0.018624 0.000000 0.032957
#
#
# Mechanical properties :
#
#
# Convention : Reuss Voigt Hill
#
# Bulk Modulus (GPa) = 30.80410 41.05890 35.93150
# Shear Modulus (GPa) = 27.67973 34.03289 30.85631
#
# Velocity S-wave (km/s) = 3.39006 3.75903 3.57930
# Velocity P-wave (km/s) = 5.30218 5.99065 5.65690
#
# Compressibility (1/GPa) = 0.03246321
#
# Stress axis : x y z
#
# Youngs Moduli (GPa) = 69.64090 84.44054 74.05830
#
# Poissons Ratio (x) = -0.01162 0.09784
# Poissons Ratio (y) = -0.00958 0.18051
# Poissons Ratio (z) = 0.09200 0.20581
#
# Static dielectric constant tensor:
#      x y z
#    x 2.032640 0.000000 -0.019360 
#    y 0.000000 1.982020 0.000000 
#    z -0.019360 0.000000 1.916220 
# 
# From -- ./inp_files/9133.got.cif
#   From: 2010.05.17/outbox.cif.g08.bks.cpg/sg4_5_cif.got.tgz:9133.got - 2010.06.03 18:43:04.
