data_PCOD9116451
_publ_section_title
;
Structure prediction by ZEFSAII (Michael W. Deem and Ramdas Pophale) SiO2 
 PCOD9116451
Probable space group: P 21
;
_chemical_formula_sum "Si O2"
_cell_formula_units_Z 16
_cell_length_a 11.168872
_cell_length_b 9.385277
_cell_length_c 8.354202
_cell_angle_alpha 90.000000
_cell_angle_beta 114.185357
_cell_angle_gamma 90.000000
_cell_volume 798.846395
_symmetry_space_group_name_H-M "P 21"
_symmetry_group_IT_number 4
_symmetry_cell_setting 'monoclinic'
loop_
_space_group_symop_operation_xyz
x,y,z
-x,1/2+y,-z
loop_
_atom_site_type_symbol
_atom_site_label
_atom_site_fract_x
_atom_site_fract_y
_atom_site_fract_z
Si Si1 0.284176 0.192370 0.665631
Si Si2 0.673927 0.922350 0.079698
Si Si3 0.959863 0.979543 0.140115
Si Si4 0.444197 0.916520 0.718621
Si Si5 0.324543 0.395956 0.405345
Si Si6 0.992563 0.311458 0.502688
Si Si7 0.727376 0.139292 0.395511
Si Si8 0.964303 0.812349 0.828657
O O1 0.323855 0.259472 0.857770
O O2 0.353312 0.290431 0.569113
O O3 0.129034 0.223391 0.572983
O O4 0.330048 0.033867 0.656774
O O5 0.802367 0.957955 0.046614
O O6 0.698066 0.024014 0.243466
O O7 0.537015 0.948162 0.920269
O O8 0.000890 0.913325 0.336591
O O9 0.014483 0.894006 0.015031
O O10 0.995448 0.146045 0.148748
O O11 0.547907 0.916482 0.631128
O O12 0.377068 0.763774 0.680191
O O13 0.282980 0.550796 0.447377
O O14 0.193991 0.325838 0.258924
O O15 0.988317 0.375412 0.318783
O O16 0.869687 0.208056 0.454152
#
# Coordination Sequence:
#
# PCOD9116451 Si02
#       8
#     2   2   2   2   2   2   2   2
#     4   9  22  39  65  91 128 176 218 277 342 403
#     4  10  21  44  59  92 137 171 218 286 342 407
#     4  11  24  43  68 102 140 182 233 285 359 408
#     4  12  22  39  68  95 127 175 230 273 352 423
#     4  10  23  42  60  91 138 173 219 284 342 403
#     4  10  24  43  70  99 138 178 235 289 345 413
#     4  11  24  41  68  94 135 181 226 288 350 417
#     4  11  24  43  70 100 139 186 227 292 350 412
#
# _framework density 20.028883
#
# number of rings (size 3 to 8) (size 9 to 14) (size 15 to 20)
#    0.000    1.500    2.500    2.250    5.250    0.000 
#    2.250    0.000    0.000    0.000    0.000    0.000 
#    0.000    0.000    0.000    0.000    0.000    0.000 
#
# Total GULP energy -89275.781493 kJ/mol
# GULP energy per Si atom -5579.736343 kJ/mol
# Density = 1.998330 g / cm^3
# Si number density = 20.028883 Si / 1000 Ang^3
#
#
#
# Elastic Constant Matrix: (Units=GPa)
#
#
# Indices 1 2 3 4 5 6 
#
# 1 67.4720 9.4405 17.9071 0.0000 -1.4040 0.0000
# 2 9.4405 77.2117 21.7309 0.0000 -2.7319 0.0000
# 3 17.9071 21.7309 74.5451 0.0000 -10.0269 0.0000
# 4 0.0000 0.0000 0.0000 11.0441 0.0000 -0.4722
# 5 -1.4040 -2.7319 -10.0269 0.0000 22.3460 0.0000
# 6 0.0000 0.0000 0.0000 -0.4722 0.0000 33.4097
#
#
#
# Elastic Compliance Matrix: (Units=1/GPa)
#
#
# Indices 1 2 3 4 5 6 
#
# 1 0.015905 -0.000945 -0.003646 0.000000 -0.000752 0.000000
# 2 -0.000945 0.014165 -0.003914 0.000000 -0.000084 0.000000
# 3 -0.003646 -0.003914 0.016321 0.000000 0.006616 0.000000
# 4 0.000000 0.000000 0.000000 0.090601 0.000000 0.001281
# 5 -0.000752 -0.000084 0.006616 0.000000 0.047662 0.000000
# 6 0.000000 0.000000 0.000000 0.001281 0.000000 0.029950
#
#
# Mechanical properties :
#
#
# Convention : Reuss Voigt Hill
#
# Bulk Modulus (GPa) = 34.03458 35.26509 34.64984
# Shear Modulus (GPa) = 20.71174 24.70330 22.70752
#
# Velocity S-wave (km/s) = 3.21922 3.51577 3.37076
# Velocity P-wave (km/s) = 5.55405 5.84176 5.69972
#
# Compressibility (1/GPa) = 0.02938188
#
# Stress axis : x y z
#
# Youngs Moduli (GPa) = 62.87207 70.59415 61.26909
#
# Poissons Ratio (x) = 0.06672 0.22342
# Poissons Ratio (y) = 0.05942 0.23979
# Poissons Ratio (z) = 0.22926 0.27628
#
# Static dielectric constant tensor:
#      x y z
#    x 1.719310 0.000000 -0.045940 
#    y 0.000000 1.699820 0.000000 
#    z -0.045940 0.000000 1.767220 
# 
# From -- ./inp_files/7791.got.cif
#   From: 2010.05.17/outbox.cif.g08.bks.cpg/sg4_4_cif.got.tgz:7791.got - 2010.06.03 18:43:04.
