data_PCOD9116459
_publ_section_title
;
Structure prediction by ZEFSAII (Michael W. Deem and Ramdas Pophale) SiO2 
 PCOD9116459
Probable space group: P 21
;
_chemical_formula_sum "Si O2"
_cell_formula_units_Z 16
_cell_length_a 10.671502
_cell_length_b 5.388140
_cell_length_c 12.190867
_cell_angle_alpha 90.000000
_cell_angle_beta 95.885128
_cell_angle_gamma 90.000000
_cell_volume 697.274844
_symmetry_space_group_name_H-M "P 21"
_symmetry_group_IT_number 4
_symmetry_cell_setting 'monoclinic'
loop_
_space_group_symop_operation_xyz
x,y,z
-x,1/2+y,-z
loop_
_atom_site_type_symbol
_atom_site_label
_atom_site_fract_x
_atom_site_fract_y
_atom_site_fract_z
Si Si1 0.422082 0.721240 0.968017
Si Si2 0.302954 0.730419 0.173839
Si Si3 0.425178 0.006497 0.755797
Si Si4 0.068234 0.700154 0.305383
Si Si5 0.148639 0.207512 0.434071
Si Si6 0.804718 0.813474 0.318201
Si Si7 0.647816 0.171403 0.434987
Si Si8 0.379511 0.996277 0.374514
O O1 0.306763 0.737185 0.043259
O O2 0.486929 0.450847 0.984109
O O3 0.392233 0.795065 0.841309
O O4 0.429083 0.572128 0.213583
O O5 0.170394 0.664071 0.217096
O O6 0.343444 0.979028 0.243782
O O7 0.404288 0.912789 0.631753
O O8 0.320065 0.219399 0.754634
O O9 0.096701 0.958521 0.372849
O O10 0.925499 0.758557 0.254445
O O11 0.082616 0.453213 0.381633
O O12 0.297004 0.218373 0.415197
O O13 0.152607 0.175975 0.564867
O O14 0.764522 0.071423 0.374196
O O15 0.669548 0.258439 0.560443
O O16 0.527083 0.996969 0.408362
#
# Coordination Sequence:
#
# PCOD9116459 Si02
#       8
#     2   2   2   2   2   2   2   2
#     4  10  23  42  70  96 127 166 219 274 327 383
#     4  10  21  44  64  97 125 172 218 274 317 397
#     4  11  23  40  68  93 130 171 219 277 332 386
#     4  11  26  41  67  88 137 175 223 256 329 390
#     4  11  23  42  60  93 129 186 215 258 317 402
#     4  12  24  40  61  94 134 173 217 269 322 398
#     4  12  22  36  61  99 137 168 212 277 338 391
#     4  11  20  35  63  96 129 169 211 277 326 389
#
# _framework density 22.946473999999998
#
# number of rings (size 3 to 8) (size 9 to 14) (size 15 to 20)
#    0.000    1.000    2.500    5.250    3.500    3.000 
#    0.000    0.000    2.750    0.000    0.000    0.000 
#    0.000    0.000    0.000    0.000    0.000    0.000 
#
# Total GULP energy -89235.598302 kJ/mol
# GULP energy per Si atom -5577.224894 kJ/mol
# Density = 2.289425 g / cm^3
# Si number density = 22.946474 Si / 1000 Ang^3
#
#
#
# Elastic Constant Matrix: (Units=GPa)
#
#
# Indices 1 2 3 4 5 6 
#
# 1 136.1400 33.6032 19.9331 0.0000 -25.2263 0.0000
# 2 33.6032 101.2075 -2.2801 0.0000 5.7915 0.0000
# 3 19.9331 -2.2801 50.4652 0.0000 -19.9289 0.0000
# 4 0.0000 0.0000 0.0000 26.4820 0.0000 2.4342
# 5 -25.2263 5.7915 -19.9289 0.0000 26.4127 0.0000
# 6 0.0000 0.0000 0.0000 2.4342 0.0000 25.5341
#
#
#
# Elastic Compliance Matrix: (Units=1/GPa)
#
#
# Indices 1 2 3 4 5 6 
#
# 1 0.010339 -0.004048 -0.000024 0.000000 0.010744 0.000000
# 2 -0.004048 0.011604 -0.000582 0.000000 -0.006849 0.000000
# 3 -0.000024 -0.000582 0.028261 0.000000 0.021428 0.000000
# 4 0.000000 0.000000 0.000000 0.038095 0.000000 -0.003632
# 5 0.010744 -0.006849 0.021428 0.000000 0.065792 0.000000
# 6 0.000000 0.000000 0.000000 -0.003632 0.000000 0.039509
#
#
# Mechanical properties :
#
#
# Convention : Reuss Voigt Hill
#
# Bulk Modulus (GPa) = 24.45206 43.36945 33.91075
# Shear Modulus (GPa) = 23.09050 31.45619 27.27335
#
# Velocity S-wave (km/s) = 3.17563 3.70652 3.45130
# Velocity P-wave (km/s) = 4.91176 6.10401 5.54005
#
# Compressibility (1/GPa) = 0.04089636
#
# Stress axis : x y z
#
# Youngs Moduli (GPa) = 96.72179 86.18002 35.38477
#
# Poissons Ratio (x) = 0.34887 0.00084
# Poissons Ratio (y) = 0.39154 0.02058
# Poissons Ratio (z) = 0.00229 0.05013
#
# Static dielectric constant tensor:
#      x y z
#    x 1.991280 0.000000 -0.050590 
#    y 0.000000 1.966240 0.000000 
#    z -0.050590 0.000000 1.842740 
# 
# From -- ./inp_files/11706.got.cif
#   From: 2010.05.17/outbox.cif.g08.bks.cpg/sg4_6_cif.got.tgz:11706.got - 2010.06.03 18:43:04.
