data_PCOD9116797
_publ_section_title
;
Structure prediction by ZEFSAII (Michael W. Deem and Ramdas Pophale) SiO2 
 PCOD9116797
Probable space group: P 21
;
_chemical_formula_sum "Si O2"
_cell_formula_units_Z 16
_cell_length_a 11.029068
_cell_length_b 12.111085
_cell_length_c 10.356276
_cell_angle_alpha 90.000000
_cell_angle_beta 151.384522
_cell_angle_gamma 90.000000
_cell_volume 662.516405
_symmetry_space_group_name_H-M "P 21"
_symmetry_group_IT_number 4
_symmetry_cell_setting 'monoclinic'
loop_
_space_group_symop_operation_xyz
x,y,z
-x,1/2+y,-z
loop_
_atom_site_type_symbol
_atom_site_label
_atom_site_fract_x
_atom_site_fract_y
_atom_site_fract_z
Si Si1 0.548153 0.609860 0.281933
Si Si2 0.626549 0.037578 0.142391
Si Si3 0.115837 0.394699 0.419491
Si Si4 0.240979 0.049063 0.000398
Si Si5 0.261766 0.289729 0.002648
Si Si6 0.268385 0.890162 0.435377
Si Si7 0.547576 0.324339 0.670088
Si Si8 0.966235 0.723930 0.485972
O O1 0.674518 0.520695 0.495501
O O2 0.390689 0.705598 0.207937
O O3 0.757850 0.668554 0.386192
O O4 0.393456 0.540005 0.030069
O O5 0.369170 0.057291 0.979315
O O6 0.819138 0.137071 0.348270
O O7 0.719179 0.928272 0.301728
O O8 0.250839 0.332207 0.429216
O O9 0.915947 0.318696 0.308814
O O10 0.042514 0.511134 0.290093
O O11 0.348666 0.939061 0.169717
O O12 0.260536 0.170447 0.074791
O O13 0.162684 0.266743 0.765154
O O14 0.030638 0.364760 0.839571
O O15 0.548517 0.333708 0.285291
O O16 0.377523 0.837621 0.406622
#
# Coordination Sequence:
#
# PCOD9116797 Si02
#       8
#     2   2   2   2   2   2   2   2
#     4  11  25  47  73 105 153 190 258 310 387 451
#     4  11  20  40  67 108 145 186 242 311 385 449
#     4  10  22  40  71  98 143 188 249 301 383 442
#     4  11  23  44  73 107 143 198 247 317 379 454
#     4  12  27  47  76 110 151 195 251 314 385 445
#     4  12  31  50  74 113 151 209 251 315 372 458
#     4  10  27  49  72 105 142 211 249 314 369 459
#     4  11  23  41  68 108 144 191 239 316 384 450
#
# _framework density 24.150342999999999
#
# number of rings (size 3 to 8) (size 9 to 14) (size 15 to 20)
#    0.000    1.000    2.500    2.250   10.500    0.000 
#    0.000    0.000    0.000    0.000    0.000    0.000 
#    0.000    0.000    0.000    0.000    0.000    0.000 
#
# Total GULP energy -89181.726039 kJ/mol
# GULP energy per Si atom -5573.857877 kJ/mol
# Density = 2.409538 g / cm^3
# Si number density = 24.150343 Si / 1000 Ang^3
#
#
#
# Elastic Constant Matrix: (Units=GPa)
#
#
# Indices 1 2 3 4 5 6 
#
# 1 83.4814 25.5714 -0.5120 0.0000 -5.4523 0.0000
# 2 25.5714 71.2307 5.6788 0.0000 -7.3310 0.0000
# 3 -0.5120 5.6788 27.2141 0.0000 0.5553 0.0000
# 4 0.0000 0.0000 0.0000 43.0451 0.0000 4.1800
# 5 -5.4523 -7.3310 0.5553 0.0000 21.6719 0.0000
# 6 0.0000 0.0000 0.0000 4.1800 0.0000 32.5371
#
#
#
# Elastic Compliance Matrix: (Units=1/GPa)
#
#
# Indices 1 2 3 4 5 6 
#
# 1 0.013567 -0.004786 0.001218 0.000000 0.001763 0.000000
# 2 -0.004786 0.016507 -0.003626 0.000000 0.004472 0.000000
# 3 0.001218 -0.003626 0.037564 0.000000 -0.001883 0.000000
# 4 0.000000 0.000000 0.000000 0.023525 0.000000 -0.003022
# 5 0.001763 0.004472 -0.001883 0.000000 0.048147 0.000000
# 6 0.000000 0.000000 0.000000 -0.003022 0.000000 0.031122
#
#
# Mechanical properties :
#
#
# Convention : Reuss Voigt Hill
#
# Bulk Modulus (GPa) = 18.77950 27.04473 22.91212
# Shear Modulus (GPa) = 24.68282 29.53002 27.10642
#
# Velocity S-wave (km/s) = 3.20042 3.50059 3.35386
# Velocity P-wave (km/s) = 4.63140 5.24992 4.95033
#
# Compressibility (1/GPa) = 0.05324956
#
# Stress axis : x y z
#
# Youngs Moduli (GPa) = 73.70593 60.58215 26.62153
#
# Poissons Ratio (x) = 0.28996 -0.03243
# Poissons Ratio (y) = 0.35278 0.09652
# Poissons Ratio (z) = -0.08978 0.21965
#
# Static dielectric constant tensor:
#      x y z
#    x 1.866590 0.000000 -0.001790 
#    y 0.000000 2.067000 0.000000 
#    z -0.001790 0.000000 2.073540 
# 
# From -- ./inp_files/2876.got.cif
#   From: 2010.05.17/outbox.cif.g08.bks.cpg/sg4_2_cif.got.tgz:2876.got - 2010.06.03 18:43:04.
