data_PCOD9116687
_publ_section_title
;
Structure prediction by ZEFSAII (Michael W. Deem and Ramdas Pophale) SiO2 
 PCOD9116687
Probable space group: P 21
;
_chemical_formula_sum "Si O2"
_cell_formula_units_Z 16
_cell_length_a 9.894016
_cell_length_b 8.089556
_cell_length_c 7.962817
_cell_angle_alpha 90.000000
_cell_angle_beta 100.026123
_cell_angle_gamma 90.000000
_cell_volume 627.596521
_symmetry_space_group_name_H-M "P 21"
_symmetry_group_IT_number 4
_symmetry_cell_setting 'monoclinic'
loop_
_space_group_symop_operation_xyz
x,y,z
-x,1/2+y,-z
loop_
_atom_site_type_symbol
_atom_site_label
_atom_site_fract_x
_atom_site_fract_y
_atom_site_fract_z
Si Si1 0.342574 0.136880 0.468139
Si Si2 0.922963 0.002990 0.986508
Si Si3 0.836502 0.134442 0.607709
Si Si4 0.842366 0.337370 0.133738
Si Si5 0.926013 0.472936 0.520009
Si Si6 0.591742 0.994859 0.388042
Si Si7 0.327460 0.344118 0.946326
Si Si8 0.422407 0.991402 0.842066
O O1 0.382999 0.325983 0.503374
O O2 0.391338 0.034143 0.642786
O O3 0.179034 0.111406 0.434825
O O4 0.434705 0.054490 0.344452
O O5 0.857352 0.052040 0.792048
O O6 0.898528 0.156508 0.104433
O O7 0.078217 0.952469 0.982368
O O8 0.830846 0.853736 0.037283
O O9 0.904330 0.314655 0.630830
O O10 0.682035 0.132482 0.504658
O O11 0.923136 0.037290 0.484309
O O12 0.880913 0.407952 0.325268
O O13 0.678525 0.353676 0.099969
O O14 0.647401 0.948501 0.217758
O O15 0.381146 0.160931 0.925248
O O16 0.423294 0.433757 0.101930
#
# Coordination Sequence:
#
# PCOD9116687 Si02
#       8
#     2   2   2   2   2   2   2   2
#     4  10  22  40  60  85 117 153 196 242 288 342
#     4  11  23  39  61  89 119 152 193 239 288 346
#     4  11  23  39  61  89 119 152 193 239 288 346
#     4  10  22  40  61  86 118 154 193 240 290 342
#     4  10  22  40  61  86 118 154 193 240 290 342
#     4  11  23  39  60  86 118 155 194 239 290 344
#     4  11  23  39  60  86 118 155 194 239 290 344
#     4  10  22  40  60  85 117 153 196 242 288 342
#
# _framework density 25.494084999999998
#
# number of rings (size 3 to 8) (size 9 to 14) (size 15 to 20)
#    0.000    1.500    0.000    4.500    0.000   11.000 
#    0.000    0.000    0.000    0.000    0.000    0.000 
#    0.000    0.000    0.000    0.000    0.000    0.000 
#
# Total GULP energy -89656.733053 kJ/mol
# GULP energy per Si atom -5603.545816 kJ/mol
# Density = 2.543606 g / cm^3
# Si number density = 25.494085 Si / 1000 Ang^3
#
#
#
# Elastic Constant Matrix: (Units=GPa)
#
#
# Indices 1 2 3 4 5 6 
#
# 1 107.3147 8.5156 15.1743 0.0000 -22.3843 0.0000
# 2 8.5156 70.2349 -1.3243 0.0000 -16.4195 0.0000
# 3 15.1743 -1.3243 82.1257 0.0000 -12.5889 0.0000
# 4 0.0000 0.0000 0.0000 27.5473 0.0000 -11.4659
# 5 -22.3843 -16.4195 -12.5889 0.0000 31.9403 0.0000
# 6 0.0000 0.0000 0.0000 -11.4659 0.0000 38.4863
#
#
#
# Elastic Compliance Matrix: (Units=1/GPa)
#
#
# Indices 1 2 3 4 5 6 
#
# 1 0.010987 0.000423 -0.000862 0.000000 0.007578 0.000000
# 2 0.000423 0.016408 0.001623 0.000000 0.009371 0.000000
# 3 -0.000862 0.001623 0.013194 0.000000 0.005431 0.000000
# 4 0.000000 0.000000 0.000000 0.041440 0.000000 0.012346
# 5 0.007578 0.009371 0.005431 0.000000 0.043577 0.000000
# 6 0.000000 0.000000 0.000000 0.012346 0.000000 0.029661
#
#
# Mechanical properties :
#
#
# Convention : Reuss Voigt Hill
#
# Bulk Modulus (GPa) = 23.27835 33.82294 28.55065
# Shear Modulus (GPa) = 29.90099 35.41542 32.65820
#
# Velocity S-wave (km/s) = 3.42842 3.73119 3.58300
# Velocity P-wave (km/s) = 4.98225 5.64430 5.32358
#
# Compressibility (1/GPa) = 0.04295836
#
# Stress axis : x y z
#
# Youngs Moduli (GPa) = 91.01401 60.94595 75.79027
#
# Poissons Ratio (x) = -0.02579 0.06531
# Poissons Ratio (y) = -0.03852 -0.12300
# Poissons Ratio (z) = 0.07842 -0.09891
#
# Static dielectric constant tensor:
#      x y z
#    x 1.948500 0.000000 -0.000120 
#    y 0.000000 1.991300 0.000000 
#    z -0.000120 0.000000 1.999510 
# 
# From -- ./inp_files/5608.got.cif
#   From: 2010.05.17/outbox.cif.g08.bks.cpg/sg4_3_cif.got.tgz:5608.got - 2010.06.03 18:43:04.
