data_PCOD9116333
_publ_section_title
;
Structure prediction by ZEFSAII (Michael W. Deem and Ramdas Pophale) SiO2 
 PCOD9116333
Probable space group: P 21
;
_chemical_formula_sum "Si O2"
_cell_formula_units_Z 16
_cell_length_a 11.461176
_cell_length_b 11.431747
_cell_length_c 5.084289
_cell_angle_alpha 90.000000
_cell_angle_beta 114.290753
_cell_angle_gamma 90.000000
_cell_volume 607.175502
_symmetry_space_group_name_H-M "P 21"
_symmetry_group_IT_number 4
_symmetry_cell_setting 'monoclinic'
loop_
_space_group_symop_operation_xyz
x,y,z
-x,1/2+y,-z
loop_
_atom_site_type_symbol
_atom_site_label
_atom_site_fract_x
_atom_site_fract_y
_atom_site_fract_z
Si Si1 0.911523 0.476220 0.032786
Si Si2 0.017638 0.279624 0.470033
Si Si3 0.145023 0.577132 0.948615
Si Si4 0.496160 0.613715 0.480334
Si Si5 0.811000 0.273340 0.638923
Si Si6 0.567618 0.257199 0.071212
Si Si7 0.642833 0.911750 0.911452
Si Si8 0.770703 0.696390 0.729316
O O1 0.806723 0.385353 0.824742
O O2 0.846604 0.603443 0.983023
O O3 0.973480 0.408723 0.335413
O O4 0.032052 0.498887 0.955844
O O5 0.964492 0.275002 0.716036
O O6 0.148586 0.242850 0.447813
O O7 0.920626 0.180541 0.270685
O O8 0.207347 0.645693 0.252905
O O9 0.248897 0.501521 0.889267
O O10 0.480432 0.659230 0.762577
O O11 0.439569 0.486866 0.372408
O O12 0.643932 0.625621 0.531543
O O13 0.429887 0.705079 0.216054
O O14 0.705765 0.292936 0.315070
O O15 0.460340 0.357558 0.988345
O O16 0.720879 0.807949 0.844459
#
# Coordination Sequence:
#
# PCOD9116333 Si02
#       8
#     2   2   2   2   2   2   2   2
#     4  10  22  42  66 102 143 185 242 311 369 444
#     4  10  22  42  72 102 148 190 243 314 379 447
#     4  10  21  42  68 100 141 190 243 296 377 454
#     4  11  25  48  71 107 150 194 254 308 368 448
#     4  11  23  42  70 106 144 195 246 311 381 447
#     4  11  26  45  74 109 142 199 250 308 373 447
#     4  11  22  46  73 101 148 193 246 312 368 447
#     4  10  23  45  68 111 142 196 254 306 381 454
#
# _framework density 26.351523
#
# number of rings (size 3 to 8) (size 9 to 14) (size 15 to 20)
#    0.000    1.500    2.500    1.500    1.750    5.000 
#   18.000    0.000    0.000    0.000    0.000    0.000 
#    0.000    0.000    0.000    0.000    0.000    0.000 
#
# Total GULP energy -89515.531137 kJ/mol
# GULP energy per Si atom -5594.720696 kJ/mol
# Density = 2.629155 g / cm^3
# Si number density = 26.351523 Si / 1000 Ang^3
#
#
#
# Elastic Constant Matrix: (Units=GPa)
#
#
# Indices 1 2 3 4 5 6 
#
# 1 157.4939 60.5778 10.5775 0.0000 5.0122 0.0000
# 2 60.5778 152.2582 34.4306 0.0000 4.3969 0.0000
# 3 10.5775 34.4306 47.3097 0.0000 3.6029 0.0000
# 4 0.0000 0.0000 0.0000 22.9304 0.0000 8.9185
# 5 5.0122 4.3969 3.6029 0.0000 36.4541 0.0000
# 6 0.0000 0.0000 0.0000 8.9185 0.0000 66.1854
#
#
#
# Elastic Compliance Matrix: (Units=1/GPa)
#
#
# Indices 1 2 3 4 5 6 
#
# 1 0.007529 -0.003120 0.000642 0.000000 -0.000722 0.000000
# 2 -0.003120 0.009160 -0.005962 0.000000 -0.000087 0.000000
# 3 0.000642 -0.005962 0.025476 0.000000 -0.001887 0.000000
# 4 0.000000 0.000000 0.000000 0.046022 0.000000 -0.006202
# 5 -0.000722 -0.000087 -0.001887 0.000000 0.027728 0.000000
# 6 0.000000 0.000000 0.000000 -0.006202 0.000000 0.015945
#
#
# Mechanical properties :
#
#
# Convention : Reuss Voigt Hill
#
# Bulk Modulus (GPa) = 39.54763 63.13708 51.34235
# Shear Modulus (GPa) = 31.81285 41.87903 36.84594
#
# Velocity S-wave (km/s) = 3.47832 3.99086 3.74337
# Velocity P-wave (km/s) = 5.58318 6.72663 6.18140
#
# Compressibility (1/GPa) = 0.02528597
#
# Stress axis : x y z
#
# Youngs Moduli (GPa) = 132.81298 109.17187 39.25190
#
# Poissons Ratio (x) = 0.34062 -0.02521
# Poissons Ratio (y) = 0.41438 0.23402
# Poissons Ratio (z) = -0.08530 0.65090
#
# Static dielectric constant tensor:
#      x y z
#    x 2.107940 0.000000 0.016160 
#    y 0.000000 2.061400 0.000000 
#    z 0.016160 0.000000 2.184440 
# 
# From -- ./inp_files/2737.got.cif
#   From: 2010.05.17/outbox.cif.g08.bks.cpg/sg4_2_cif.got.tgz:2737.got - 2010.06.03 18:43:04.
