data_PCOD9116860
_publ_section_title
;
Structure prediction by ZEFSAII (Michael W. Deem and Ramdas Pophale) SiO2 
 PCOD9116860
Probable space group: P 21
;
_chemical_formula_sum "Si O2"
_cell_formula_units_Z 16
_cell_length_a 11.887924
_cell_length_b 11.727431
_cell_length_c 9.532127
_cell_angle_alpha 90.000000
_cell_angle_beta 37.337397
_cell_angle_gamma 90.000000
_cell_volume 805.999710
_symmetry_space_group_name_H-M "P 21"
_symmetry_group_IT_number 4
_symmetry_cell_setting 'monoclinic'
loop_
_space_group_symop_operation_xyz
x,y,z
-x,1/2+y,-z
loop_
_atom_site_type_symbol
_atom_site_label
_atom_site_fract_x
_atom_site_fract_y
_atom_site_fract_z
Si Si1 0.256334 0.878020 0.406474
Si Si2 0.655325 0.159108 0.848517
Si Si3 0.266056 0.866012 0.859889
Si Si4 0.965771 0.926639 0.925919
Si Si5 0.617181 0.593916 0.107395
Si Si6 0.563222 0.814739 0.327714
Si Si7 0.260075 0.137385 0.299867
Si Si8 0.080984 0.652829 0.187134
O O1 0.259353 0.776233 0.292482
O O2 0.440433 0.864068 0.320094
O O3 0.079376 0.870613 0.684037
O O4 0.258295 0.002491 0.336032
O O5 0.573856 0.092393 0.794351
O O6 0.799052 0.096439 0.805891
O O7 0.466458 0.183399 0.121601
O O8 0.436578 0.832359 0.589527
O O9 0.094185 0.905526 0.932789
O O10 0.324849 0.971202 0.898122
O O11 0.195983 0.757796 0.015209
O O12 0.955140 0.060055 0.896425
O O13 0.760821 0.876096 0.144294
O O14 0.595273 0.682552 0.255698
O O15 0.759515 0.645285 0.849405
O O16 0.107904 0.191268 0.550390
#
# Coordination Sequence:
#
# PCOD9116860 Si02
#       8
#     2   2   2   2   2   2   2   2
#     4   9  18  38  63  91 126 157 215 259 317 378
#     4   9  20  37  66  91 124 164 199 268 319 380
#     4  11  25  43  65  96 131 163 219 267 297 399
#     4  10  24  40  64  90 125 174 209 263 315 375
#     4   9  22  43  61  95 127 161 208 270 316 363
#     4  10  22  41  66  87 125 176 204 262 323 373
#     4   9  20  39  63  95 127 159 201 276 312 380
#     4  11  23  41  66  97 123 170 217 257 329 374
#
# _framework density 19.851125
#
# number of rings (size 3 to 8) (size 9 to 14) (size 15 to 20)
#    0.750    1.500    0.000    1.500    5.250    1.000 
#    2.250    0.000    0.000    0.000    0.000    0.000 
#    0.000    0.000    0.000    0.000    0.000    0.000 
#
# Total GULP energy -89234.299636 kJ/mol
# GULP energy per Si atom -5577.143727 kJ/mol
# Density = 1.980594 g / cm^3
# Si number density = 19.851125 Si / 1000 Ang^3
#
#
#
# Elastic Constant Matrix: (Units=GPa)
#
#
# Indices 1 2 3 4 5 6 
#
# 1 60.7220 29.0164 24.7884 0.0000 -6.3884 0.0000
# 2 29.0164 61.0405 32.1430 0.0000 -1.8397 0.0000
# 3 24.7884 32.1430 87.3654 0.0000 -15.8963 0.0000
# 4 0.0000 0.0000 0.0000 23.2439 0.0000 -1.8454
# 5 -6.3884 -1.8397 -15.8963 0.0000 25.2860 0.0000
# 6 0.0000 0.0000 0.0000 -1.8454 0.0000 23.0915
#
#
#
# Elastic Compliance Matrix: (Units=1/GPa)
#
#
# Indices 1 2 3 4 5 6 
#
# 1 0.022178 -0.009252 -0.002249 0.000000 0.003516 0.000000
# 2 -0.009252 0.024480 -0.007320 0.000000 -0.005158 0.000000
# 3 -0.002249 -0.007320 0.016460 0.000000 0.009247 0.000000
# 4 0.000000 0.000000 0.000000 0.043297 0.000000 0.003460
# 5 0.003516 -0.005158 0.009247 0.000000 0.045874 0.000000
# 6 0.000000 0.000000 0.000000 0.003460 0.000000 0.043582
#
#
# Mechanical properties :
#
#
# Convention : Reuss Voigt Hill
#
# Bulk Modulus (GPa) = 39.25328 42.33595 40.79462
# Shear Modulus (GPa) = 20.66082 22.53629 21.59855
#
# Velocity S-wave (km/s) = 3.22962 3.37302 3.30210
# Velocity P-wave (km/s) = 5.80724 6.04506 5.92734
#
# Compressibility (1/GPa) = 0.02547558
#
# Stress axis : x y z
#
# Youngs Moduli (GPa) = 45.09033 40.84990 60.75420
#
# Poissons Ratio (x) = 0.37796 0.13662
# Poissons Ratio (y) = 0.41719 0.44471
# Poissons Ratio (z) = 0.10139 0.29901
#
# Static dielectric constant tensor:
#      x y z
#    x 1.704810 0.000000 -0.007800 
#    y 0.000000 1.664840 0.000000 
#    z -0.007800 0.000000 1.709980 
# 
# From -- ./inp_files/8302.got.cif
#   From: 2010.05.17/outbox.cif.g08.bks.cpg/sg4_5_cif.got.tgz:8302.got - 2010.06.03 18:43:04.
