data_PCOD9116198
_publ_section_title
;
Structure prediction by ZEFSAII (Michael W. Deem and Ramdas Pophale) SiO2 
 PCOD9116198
Probable space group: P 21
;
_chemical_formula_sum "Si O2"
_cell_formula_units_Z 16
_cell_length_a 5.232967
_cell_length_b 19.289370
_cell_length_c 9.244051
_cell_angle_alpha 90.000000
_cell_angle_beta 122.859655
_cell_angle_gamma 90.000000
_cell_volume 783.806322
_symmetry_space_group_name_H-M "P 21"
_symmetry_group_IT_number 4
_symmetry_cell_setting 'monoclinic'
loop_
_space_group_symop_operation_xyz
x,y,z
-x,1/2+y,-z
loop_
_atom_site_type_symbol
_atom_site_label
_atom_site_fract_x
_atom_site_fract_y
_atom_site_fract_z
Si Si1 0.640981 0.991710 0.387311
Si Si2 0.867795 0.737406 0.601711
Si Si3 0.720070 0.316562 0.475893
Si Si4 0.328892 0.833075 0.867519
Si Si5 0.036874 0.976482 0.783554
Si Si6 0.061845 0.080872 0.306141
Si Si7 0.207178 0.392577 0.804217
Si Si8 0.291879 0.521963 0.039324
O O1 0.594477 0.927877 0.263172
O O2 0.812513 0.965838 0.581453
O O3 0.347035 0.035043 0.341942
O O4 0.873449 0.042186 0.373263
O O5 0.557362 0.778642 0.532532
O O6 0.834767 0.656048 0.610575
O O7 0.024898 0.761472 0.500477
O O8 0.112332 0.766693 0.794229
O O9 0.894284 0.370446 0.631857
O O10 0.608113 0.347210 0.285539
O O11 0.621769 0.830893 0.059279
O O12 0.143240 0.900106 0.863803
O O13 0.345931 0.016630 0.837319
O O14 0.867002 0.017725 0.856181
O O15 0.832435 0.083533 0.098739
O O16 0.189444 0.453054 0.918378
#
# Coordination Sequence:
#
# PCOD9116198 Si02
#       8
#     2   2   2   2   2   2   2   2
#     4  11  22  38  65  91 122 162 200 262 311 364
#     4  10  23  41  60  82 125 169 207 245 308 357
#     4  10  22  39  62  91 120 165 196 261 302 366
#     4   9  22  37  63  88 123 155 198 253 306 358
#     4  11  21  39  60  95 125 150 203 258 318 359
#     4  11  22  41  61  86 120 170 210 244 305 372
#     4  10  21  41  63 101 120 159 205 257 322 365
#     4  10  23  36  64  90 125 158 199 258 306 367
#
# _framework density 20.413208000000001
#
# number of rings (size 3 to 8) (size 9 to 14) (size 15 to 20)
#    0.750    1.000    1.250    3.750    3.500    6.000 
#    0.000    3.750    0.000    0.000    0.000    0.000 
#    0.000    0.000    0.000    0.000    0.000    0.000 
#
# Total GULP energy -89291.903878 kJ/mol
# GULP energy per Si atom -5580.743992 kJ/mol
# Density = 2.036675 g / cm^3
# Si number density = 20.413208 Si / 1000 Ang^3
#
#
#
# Elastic Constant Matrix: (Units=GPa)
#
#
# Indices 1 2 3 4 5 6 
#
# 1 110.6669 12.8837 10.2281 0.0000 5.8508 0.0000
# 2 12.8837 35.3857 4.0709 0.0000 10.4006 0.0000
# 3 10.2281 4.0709 96.3884 0.0000 10.4158 0.0000
# 4 0.0000 0.0000 0.0000 16.5206 0.0000 3.2862
# 5 5.8508 10.4006 10.4158 0.0000 22.6077 0.0000
# 6 0.0000 0.0000 0.0000 3.2862 0.0000 22.4758
#
#
#
# Elastic Compliance Matrix: (Units=1/GPa)
#
#
# Indices 1 2 3 4 5 6 
#
# 1 0.009515 -0.003188 -0.000808 0.000000 -0.000624 0.000000
# 2 -0.003188 0.033753 0.000528 0.000000 -0.014946 0.000000
# 3 -0.000808 0.000528 0.010989 0.000000 -0.005097 0.000000
# 4 0.000000 0.000000 0.000000 0.062344 0.000000 -0.009115
# 5 -0.000624 -0.014946 -0.005097 0.000000 0.053618 0.000000
# 6 0.000000 0.000000 0.000000 -0.009115 0.000000 0.045825
#
#
# Mechanical properties :
#
#
# Convention : Reuss Voigt Hill
#
# Bulk Modulus (GPa) = 21.13226 32.97848 27.05537
# Shear Modulus (GPa) = 20.94216 26.67138 23.80677
#
# Velocity S-wave (km/s) = 3.20646 3.61858 3.41874
# Velocity P-wave (km/s) = 4.90747 5.80081 5.37274
#
# Compressibility (1/GPa) = 0.04732102
#
# Stress axis : x y z
#
# Youngs Moduli (GPa) = 105.09834 29.62699 91.00139
#
# Poissons Ratio (x) = 0.09445 0.07349
# Poissons Ratio (y) = 0.33506 -0.04803
# Poissons Ratio (z) = 0.08488 -0.01564
#
# Static dielectric constant tensor:
#      x y z
#    x 1.756690 0.000000 0.013580 
#    y 0.000000 1.726560 0.000000 
#    z 0.013580 0.000000 1.772610 
# 
# From -- ./inp_files/5005.got.cif
#   From: 2010.05.17/outbox.cif.g08.bks.cpg/sg4_3_cif.got.tgz:5005.got - 2010.06.03 18:43:04.
