data_PCOD9116975
_publ_section_title
;
Structure prediction by ZEFSAII (Michael W. Deem and Ramdas Pophale) SiO2 
 PCOD9116975
Probable space group: P 21
;
_chemical_formula_sum "Si O2"
_cell_formula_units_Z 12
_cell_length_a 11.996980
_cell_length_b 7.765326
_cell_length_c 12.101073
_cell_angle_alpha 90.000000
_cell_angle_beta 26.291268
_cell_angle_gamma 90.000000
_cell_volume 499.338526
_symmetry_space_group_name_H-M "P 21"
_symmetry_group_IT_number 4
_symmetry_cell_setting 'monoclinic'
loop_
_space_group_symop_operation_xyz
x,y,z
-x,1/2+y,-z
loop_
_atom_site_type_symbol
_atom_site_label
_atom_site_fract_x
_atom_site_fract_y
_atom_site_fract_z
Si Si1 0.159225 0.297700 0.754402
Si Si2 0.639571 0.519090 0.000864
Si Si3 0.977433 0.816736 0.768291
Si Si4 0.835883 0.176544 0.859196
Si Si5 0.705709 0.420746 0.306593
Si Si6 0.228550 0.798394 0.315283
O O1 0.082578 0.251518 0.698698
O O2 0.410030 0.407253 0.545513
O O3 0.237819 0.120390 0.739764
O O4 0.900692 0.349724 0.043379
O O5 0.679326 0.466407 0.835580
O O6 0.858539 0.626441 0.868978
O O7 0.623387 0.325947 0.065071
O O8 0.426301 0.662137 0.189182
O O9 0.196570 0.837764 0.664105
O O10 0.064289 0.844431 0.565523
O O11 0.794739 0.985561 0.945186
O O12 0.887172 0.190978 0.683352
#
# Coordination Sequence:
#
# PCOD9116975 Si02
#       6
#     2   2   2   2   2   2
#     4  11  25  50  69 110 138 194 240 300 357 433
#     4  10  23  40  67  98 139 175 230 285 352 421
#     4  11  23  44  66 101 137 185 232 293 353 428
#     4   9  24  44  63 102 138 182 233 290 356 425
#     4  11  27  44  79  99 149 185 247 295 363 424
#     4  10  22  42  68 100 133 183 224 289 351 423
#
# _framework density 24.031793
#
# number of rings (size 3 to 8) (size 9 to 14) (size 15 to 20)
#    1.000    0.667    0.000    3.000    7.000    0.000 
#   12.000    0.000    0.000    0.000    0.000    0.000 
#    0.000    0.000    0.000    0.000    0.000    0.000 
#
# Total GULP energy -66855.197036 kJ/mol
# GULP energy per Si atom -5571.266420 kJ/mol
# Density = 2.397710 g / cm^3
# Si number density = 24.031793 Si / 1000 Ang^3
#
#
#
# Elastic Constant Matrix: (Units=GPa)
#
#
# Indices 1 2 3 4 5 6 
#
# 1 52.8648 -23.9540 -3.7240 0.0000 9.9593 0.0000
# 2 -23.9540 110.6623 -4.0118 0.0000 -0.5210 0.0000
# 3 -3.7240 -4.0118 78.1207 0.0000 -21.6470 0.0000
# 4 0.0000 0.0000 0.0000 31.2979 0.0000 -24.0997
# 5 9.9593 -0.5210 -21.6470 0.0000 21.6112 0.0000
# 6 0.0000 0.0000 0.0000 -24.0997 0.0000 46.8910
#
#
#
# Elastic Compliance Matrix: (Units=1/GPa)
#
#
# Indices 1 2 3 4 5 6 
#
# 1 0.023421 0.004929 -0.002198 0.000000 -0.012876 0.000000
# 2 0.004929 0.010105 0.000266 0.000000 -0.001762 0.000000
# 3 -0.002198 0.000266 0.017983 0.000000 0.019033 0.000000
# 4 0.000000 0.000000 0.000000 0.052877 0.000000 0.027176
# 5 -0.012876 -0.001762 0.019033 0.000000 0.071228 0.000000
# 6 0.000000 0.000000 0.000000 0.027176 0.000000 0.035293
#
#
# Mechanical properties :
#
#
# Convention : Reuss Voigt Hill
#
# Bulk Modulus (GPa) = 17.39064 19.80759 18.59911
# Shear Modulus (GPa) = 22.31330 38.18252 30.24791
#
# Velocity S-wave (km/s) = 3.05042 3.99034 3.55161
# Velocity P-wave (km/s) = 4.43384 5.43052 4.95730
#
# Compressibility (1/GPa) = 0.05750219
#
# Stress axis : x y z
#
# Youngs Moduli (GPa) = 42.69730 98.96245 55.60662
#
# Poissons Ratio (x) = -0.48782 0.12225
# Poissons Ratio (y) = -0.21047 -0.01477
# Poissons Ratio (z) = 0.09387 -0.02629
#
# Static dielectric constant tensor:
#      x y z
#    x 1.953910 0.000000 -0.036280 
#    y 0.000000 2.046100 0.000000 
#    z -0.036280 0.000000 1.852110 
# 
# From -- ./inp_files/10281.got.cif
#   From: 2010.05.17/outbox.cif.g08.bks.cpg/sg4_6_cif.got.tgz:10281.got - 2010.06.03 18:43:04.
