data_PCOD9116335
_publ_section_title
;
Structure prediction by ZEFSAII (Michael W. Deem and Ramdas Pophale) SiO2 
 PCOD9116335
Probable space group: P 21
;
_chemical_formula_sum "Si O2"
_cell_formula_units_Z 14
_cell_length_a 9.944223
_cell_length_b 7.282583
_cell_length_c 11.692392
_cell_angle_alpha 90.000000
_cell_angle_beta 140.303678
_cell_angle_gamma 90.000000
_cell_volume 540.840381
_symmetry_space_group_name_H-M "P 21"
_symmetry_group_IT_number 4
_symmetry_cell_setting 'monoclinic'
loop_
_space_group_symop_operation_xyz
x,y,z
-x,1/2+y,-z
loop_
_atom_site_type_symbol
_atom_site_label
_atom_site_fract_x
_atom_site_fract_y
_atom_site_fract_z
Si Si1 0.690354 0.245720 0.767584
Si Si2 0.691330 0.948284 0.359550
Si Si3 0.167499 0.725349 0.373322
Si Si4 0.005664 0.324985 0.269709
Si Si5 0.603087 0.095974 0.055493
Si Si6 0.742555 0.779220 0.037797
Si Si7 0.162921 0.325597 0.142456
O O1 0.507497 0.337658 0.720751
O O2 0.669110 0.280313 0.617068
O O3 0.913288 0.332869 0.950420
O O4 0.727569 0.025268 0.794787
O O5 0.885540 0.826952 0.534804
O O6 0.722496 0.146946 0.443029
O O7 0.683960 0.991923 0.222462
O O8 0.029408 0.540484 0.249466
O O9 0.967086 0.857231 0.232302
O O10 0.772723 0.247991 0.128534
O O11 0.152294 0.242505 0.263625
O O12 0.590615 0.956914 0.943136
O O13 0.374364 0.156180 0.946257
O O14 0.750687 0.718297 0.911747
#
# Coordination Sequence:
#
# PCOD9116335 Si02
#       7
#     2   2   2   2   2   2   2
#     4  10  21  42  68 103 127 178 221 281 329 388
#     4  10  25  40  70  94 143 175 214 276 342 406
#     4   8  21  45  64  97 129 170 227 271 327 391
#     4   9  22  47  66  96 131 177 221 277 329 394
#     4  12  26  43  69  98 139 178 220 277 337 406
#     4  11  25  42  69 102 128 181 227 278 333 390
#     4  10  22  43  74  96 133 171 234 282 317 395
#
# _framework density 25.885642000000001
#
# number of rings (size 3 to 8) (size 9 to 14) (size 15 to 20)
#    0.857    1.143    0.000    1.714   12.000    1.143 
#    7.714    0.000    0.000    0.000    0.000    0.000 
#    0.000    0.000    0.000    0.000    0.000    0.000 
#
# Total GULP energy -78043.639745 kJ/mol
# GULP energy per Si atom -5574.545696 kJ/mol
# Density = 2.582672 g / cm^3
# Si number density = 25.885642 Si / 1000 Ang^3
#
#
#
# Elastic Constant Matrix: (Units=GPa)
#
#
# Indices 1 2 3 4 5 6 
#
# 1 157.1526 24.7099 20.1438 0.0000 -11.5154 0.0000
# 2 24.7099 63.0792 -1.2791 0.0000 -1.9771 0.0000
# 3 20.1438 -1.2791 57.6277 0.0000 -12.4169 0.0000
# 4 0.0000 0.0000 0.0000 33.7209 0.0000 6.9715
# 5 -11.5154 -1.9771 -12.4169 0.0000 47.1231 0.0000
# 6 0.0000 0.0000 0.0000 6.9715 0.0000 38.7563
#
#
#
# Elastic Compliance Matrix: (Units=1/GPa)
#
#
# Indices 1 2 3 4 5 6 
#
# 1 0.007185 -0.002830 -0.002355 0.000000 0.001016 0.000000
# 2 -0.002830 0.017004 0.001454 0.000000 0.000405 0.000000
# 3 -0.002355 0.001454 0.019187 0.000000 0.004541 0.000000
# 4 0.000000 0.000000 0.000000 0.030801 0.000000 -0.005540
# 5 0.001016 0.000405 0.004541 0.000000 0.022683 0.000000
# 6 0.000000 0.000000 0.000000 -0.005540 0.000000 0.026799
#
#
# Mechanical properties :
#
#
# Convention : Reuss Voigt Hill
#
# Bulk Modulus (GPa) = 27.84563 40.55653 34.20108
# Shear Modulus (GPa) = 34.94263 39.53905 37.24084
#
# Velocity S-wave (km/s) = 3.67806 3.91250 3.79709
# Velocity P-wave (km/s) = 5.36825 6.00931 5.69780
#
# Compressibility (1/GPa) = 0.03591228
#
# Stress axis : x y z
#
# Youngs Moduli (GPa) = 139.18601 58.80977 52.11925
#
# Poissons Ratio (x) = 0.16645 0.12275
# Poissons Ratio (y) = 0.39394 -0.07578
# Poissons Ratio (z) = 0.32781 -0.08551
#
# Static dielectric constant tensor:
#      x y z
#    x 2.052800 0.000000 0.064470 
#    y 0.000000 2.410200 0.000000 
#    z 0.064470 0.000000 2.125350 
# 
# From -- ./inp_files/11072.got.cif
#   From: 2010.05.17/outbox.cif.g08.bks.cpg/sg4_6_cif.got.tgz:11072.got - 2010.06.03 18:43:04.
