data_PCOD9116818
_publ_section_title
;
Structure prediction by ZEFSAII (Michael W. Deem and Ramdas Pophale) SiO2 
 PCOD9116818
Probable space group: P 21
;
_chemical_formula_sum "Si O2"
_cell_formula_units_Z 16
_cell_length_a 14.684615
_cell_length_b 8.058183
_cell_length_c 8.639503
_cell_angle_alpha 90.000000
_cell_angle_beta 40.849582
_cell_angle_gamma 90.000000
_cell_volume 668.676856
_symmetry_space_group_name_H-M "P 21"
_symmetry_group_IT_number 4
_symmetry_cell_setting 'monoclinic'
loop_
_space_group_symop_operation_xyz
x,y,z
-x,1/2+y,-z
loop_
_atom_site_type_symbol
_atom_site_label
_atom_site_fract_x
_atom_site_fract_y
_atom_site_fract_z
Si Si1 0.019235 0.038200 0.214276
Si Si2 0.015007 0.860424 0.516531
Si Si3 0.295479 0.199379 0.790948
Si Si4 0.768932 0.040793 0.291676
Si Si5 0.323471 0.909148 0.135653
Si Si6 0.289357 0.403236 0.072217
Si Si7 0.395814 0.702435 0.748572
Si Si8 0.404556 0.568922 0.194519
O O1 0.991913 0.189313 0.375090
O O2 0.010766 0.873026 0.333224
O O3 0.171915 0.065648 0.943230
O O4 0.903897 0.054147 0.227870
O O5 0.161555 0.947395 0.363544
O O6 0.871619 0.948815 0.746808
O O7 0.230419 0.365852 0.798160
O O8 0.449516 0.191656 0.521472
O O9 0.313551 0.234381 0.951014
O O10 0.637819 0.045315 0.575627
O O11 0.725341 0.180663 0.223523
O O12 0.351296 0.744467 0.202397
O O13 0.362330 0.850011 0.910945
O O14 0.434151 0.043111 0.046338
O O15 0.324284 0.423379 0.205179
O O16 0.384585 0.537668 0.866948
#
# Coordination Sequence:
#
# PCOD9116818 Si02
#       8
#     2   2   2   2   2   2   2   2
#     4  11  24  43  70 101 138 181 231 284 342 408
#     4  11  22  43  68 100 132 179 230 284 337 400
#     4  10  23  40  67  97 135 183 220 274 350 408
#     4  11  22  44  65  98 140 173 229 278 340 408
#     4  11  24  41  67 102 134 176 227 276 344 397
#     4   9  21  40  62  90 132 167 222 276 327 393
#     4  10  22  41  62  91 134 174 212 275 338 399
#     4  11  22  42  67 101 131 177 223 285 328 403
#
# _framework density 23.927849999999999
#
# number of rings (size 3 to 8) (size 9 to 14) (size 15 to 20)
#    0.000    1.500    3.750    0.750    3.500    2.000 
#    0.000    7.500    0.000    0.000    0.000    0.000 
#    0.000    0.000    0.000    0.000    0.000    0.000 
#
# Total GULP energy -89329.675105 kJ/mol
# GULP energy per Si atom -5583.104694 kJ/mol
# Density = 2.387339 g / cm^3
# Si number density = 23.927850 Si / 1000 Ang^3
#
#
#
# Elastic Constant Matrix: (Units=GPa)
#
#
# Indices 1 2 3 4 5 6 
#
# 1 118.4785 44.5105 26.1101 0.0000 -7.0149 0.0000
# 2 44.5105 55.3469 22.8500 0.0000 -5.8817 0.0000
# 3 26.1101 22.8500 125.4284 0.0000 -19.9512 0.0000
# 4 0.0000 0.0000 0.0000 24.8559 0.0000 -1.1141
# 5 -7.0149 -5.8817 -19.9512 0.0000 50.3807 0.0000
# 6 0.0000 0.0000 0.0000 -1.1141 0.0000 40.2508
#
#
#
# Elastic Compliance Matrix: (Units=1/GPa)
#
#
# Indices 1 2 3 4 5 6 
#
# 1 0.012174 -0.009443 -0.000768 0.000000 0.000289 0.000000
# 2 -0.009443 0.026902 -0.002823 0.000000 0.000708 0.000000
# 3 -0.000768 -0.002823 0.009154 0.000000 0.003189 0.000000
# 4 0.000000 0.000000 0.000000 0.040282 0.000000 0.001115
# 5 0.000289 0.000708 0.003189 0.000000 0.021234 0.000000
# 6 0.000000 0.000000 0.000000 0.001115 0.000000 0.024875
#
#
# Mechanical properties :
#
#
# Convention : Reuss Voigt Hill
#
# Bulk Modulus (GPa) = 45.11933 54.02165 49.57049
# Shear Modulus (GPa) = 29.74826 36.81637 33.28231
#
# Velocity S-wave (km/s) = 3.52980 3.92681 3.73358
# Velocity P-wave (km/s) = 5.95902 6.57158 6.27278
#
# Compressibility (1/GPa) = 0.02216345
#
# Stress axis : x y z
#
# Youngs Moduli (GPa) = 82.14065 37.17134 109.24209
#
# Poissons Ratio (x) = 0.35100 0.08391
# Poissons Ratio (y) = 0.77564 0.30835
# Poissons Ratio (z) = 0.06309 0.10492
#
# Static dielectric constant tensor:
#      x y z
#    x 1.941670 0.000000 0.005070 
#    y 0.000000 1.986000 0.000000 
#    z 0.005070 0.000000 1.885710 
# 
# From -- ./inp_files/9137.got.cif
#   From: 2010.05.17/outbox.cif.g08.bks.cpg/sg4_5_cif.got.tgz:9137.got - 2010.06.03 18:43:04.
