data_PCOD9116116
_publ_section_title
;
Structure prediction by ZEFSAII (Michael W. Deem and Ramdas Pophale) SiO2 
 PCOD9116116
Probable space group: P 21
;
_chemical_formula_sum "Si O2"
_cell_formula_units_Z 16
_cell_length_a 8.858061
_cell_length_b 5.422346
_cell_length_c 16.177299
_cell_angle_alpha 90.000000
_cell_angle_beta 122.459450
_cell_angle_gamma 90.000000
_cell_volume 655.626889
_symmetry_space_group_name_H-M "P 21"
_symmetry_group_IT_number 4
_symmetry_cell_setting 'monoclinic'
loop_
_space_group_symop_operation_xyz
x,y,z
-x,1/2+y,-z
loop_
_atom_site_type_symbol
_atom_site_label
_atom_site_fract_x
_atom_site_fract_y
_atom_site_fract_z
Si Si1 0.625089 0.906780 0.758098
Si Si2 0.021489 0.370864 0.738363
Si Si3 0.798623 0.866672 0.647792
Si Si4 0.394024 0.874583 0.959284
Si Si5 0.963631 0.202883 0.887274
Si Si6 0.706034 0.554046 0.253722
Si Si7 0.013694 0.325090 0.452827
Si Si8 0.252308 0.055127 0.085597
O O1 0.629721 0.848029 0.661286
O O2 0.597507 0.717871 0.827267
O O3 0.837806 0.971482 0.830457
O O4 0.470088 0.092388 0.741953
O O5 0.928411 0.635057 0.709733
O O6 0.083287 0.304064 0.848942
O O7 0.188410 0.311532 0.729405
O O8 0.879955 0.145526 0.680568
O O9 0.805729 0.831876 0.550453
O O10 0.318905 0.941820 0.846430
O O11 0.530327 0.099593 0.017445
O O12 0.282410 0.893215 0.012060
O O13 0.808956 0.397291 0.855798
O O14 0.083989 0.207563 0.002833
O O15 0.843573 0.382585 0.344079
O O16 0.009844 0.558925 0.512961
#
# Coordination Sequence:
#
# PCOD9116116 Si02
#       8
#     2   2   2   2   2   2   2   2
#     4  11  23  43  63 104 140 191 240 308 366 438
#     4  10  21  40  63  96 132 185 232 279 352 432
#     4  10  22  43  71  99 135 176 229 291 369 445
#     4  12  27  43  64 102 152 194 240 298 362 430
#     4  11  22  36  60  89 136 192 243 287 346 429
#     4  11  24  46  71 105 145 190 243 311 370 434
#     4  11  25  49  77 106 135 182 244 307 378 459
#     4  12  22  38  63  93 145 192 251 291 347 439
#
# _framework density 24.404125000000001
#
# number of rings (size 3 to 8) (size 9 to 14) (size 15 to 20)
#    0.000    1.000    5.000    2.250    0.000    3.000 
#    6.750    1.250    0.000    0.000    0.000    0.000 
#    0.000    0.000    0.000    0.000    0.000    0.000 
#
# Total GULP energy -89072.143711 kJ/mol
# GULP energy per Si atom -5567.008982 kJ/mol
# Density = 2.434858 g / cm^3
# Si number density = 24.404125 Si / 1000 Ang^3
#
#
#
# Elastic Constant Matrix: (Units=GPa)
#
#
# Indices 1 2 3 4 5 6 
#
# 1 161.2012 32.2668 23.9902 0.0000 -37.1008 0.0000
# 2 32.2668 95.7987 18.6843 0.0000 -3.9818 0.0000
# 3 23.9902 18.6843 71.3917 0.0000 -24.9263 0.0000
# 4 0.0000 0.0000 0.0000 29.0344 0.0000 -3.7167
# 5 -37.1008 -3.9818 -24.9263 0.0000 31.2702 0.0000
# 6 0.0000 0.0000 0.0000 -3.7167 0.0000 33.1035
#
#
#
# Elastic Compliance Matrix: (Units=1/GPa)
#
#
# Indices 1 2 3 4 5 6 
#
# 1 0.009332 -0.003009 0.001917 0.000000 0.012218 0.000000
# 2 -0.003009 0.012005 -0.003940 0.000000 -0.005183 0.000000
# 3 0.001917 -0.003940 0.020803 0.000000 0.018356 0.000000
# 4 0.000000 0.000000 0.000000 0.034944 0.000000 0.003923
# 5 0.012218 -0.005183 0.018356 0.000000 0.060447 0.000000
# 6 0.000000 0.000000 0.000000 0.003923 0.000000 0.030649
#
#
# Mechanical properties :
#
#
# Convention : Reuss Voigt Hill
#
# Bulk Modulus (GPa) = 31.17580 53.14156 42.15868
# Shear Modulus (GPa) = 26.46378 35.57832 31.02105
#
# Velocity S-wave (km/s) = 3.29659 3.82236 3.56917
# Velocity P-wave (km/s) = 5.22423 6.42678 5.85645
#
# Compressibility (1/GPa) = 0.03207616
#
# Stress axis : x y z
#
# Youngs Moduli (GPa) = 107.15348 83.29668 48.06978
#
# Poissons Ratio (x) = 0.25068 -0.09217
# Poissons Ratio (y) = 0.32248 0.18941
# Poissons Ratio (z) = -0.20546 0.32821
#
# Static dielectric constant tensor:
#      x y z
#    x 2.208370 0.000000 -0.054390 
#    y 0.000000 2.046870 0.000000 
#    z -0.054390 0.000000 1.978360 
# 
# From -- ./inp_files/14841.got.cif
#   From: 2010.05.17/outbox.cif.g08.bks.cpg/sg4_8_cif.got.tgz:14841.got - 2010.06.03 18:43:04.
