data_PCOD9116409
_publ_section_title
;
Structure prediction by ZEFSAII (Michael W. Deem and Ramdas Pophale) SiO2 
 PCOD9116409
Probable space group: P 21
;
_chemical_formula_sum "Si O2"
_cell_formula_units_Z 16
_cell_length_a 10.068281
_cell_length_b 9.707981
_cell_length_c 13.462060
_cell_angle_alpha 90.000000
_cell_angle_beta 29.542064
_cell_angle_gamma 90.000000
_cell_volume 648.780303
_symmetry_space_group_name_H-M "P 21"
_symmetry_group_IT_number 4
_symmetry_cell_setting 'monoclinic'
loop_
_space_group_symop_operation_xyz
x,y,z
-x,1/2+y,-z
loop_
_atom_site_type_symbol
_atom_site_label
_atom_site_fract_x
_atom_site_fract_y
_atom_site_fract_z
Si Si1 0.497902 0.134360 0.862842
Si Si2 0.904326 0.805131 0.184345
Si Si3 0.411864 0.692855 0.416417
Si Si4 0.575261 0.742488 0.591275
Si Si5 0.089792 0.962614 0.611310
Si Si6 0.304847 0.349001 0.278202
Si Si7 0.092385 0.616137 0.807475
Si Si8 0.330092 0.652451 0.040081
O O1 0.637117 0.153134 0.665761
O O2 0.659695 0.198859 0.850227
O O3 0.494225 0.970621 0.889431
O O4 0.188289 0.176142 0.050808
O O5 0.732796 0.712718 0.219846
O O6 0.701977 0.803179 0.409986
O O7 0.161732 0.733048 0.065981
O O8 0.951645 0.962086 0.121040
O O9 0.273128 0.839588 0.528990
O O10 0.286469 0.600565 0.584318
O O11 0.725475 0.597192 0.513194
O O12 0.650384 0.836032 0.634763
O O13 0.263657 0.709828 0.771891
O O14 0.972766 0.909801 0.582533
O O15 0.829716 0.007736 0.847039
O O16 0.371015 0.198771 0.188092
#
# Coordination Sequence:
#
# PCOD9116409 Si02
#       8
#     2   2   2   2   2   2   2   2
#     4  11  25  43  68 103 132 181 232 279 349 409
#     4  10  21  43  67  91 138 174 222 289 338 415
#     4  11  24  43  68  98 137 177 228 285 338 416
#     4  10  23  42  67 100 130 181 233 279 355 406
#     4  10  23  43  64  97 134 177 229 270 350 410
#     4  11  23  43  65  99 137 176 229 287 342 415
#     4  11  22  44  70  99 133 180 231 286 346 408
#     4  10  23  45  65  95 139 172 228 285 344 409
#
# _framework density 24.661660999999999
#
# number of rings (size 3 to 8) (size 9 to 14) (size 15 to 20)
#    0.000    1.500    2.500    1.500    7.000    0.000 
#    9.000    0.000    0.000    0.000    0.000    0.000 
#    0.000    0.000    0.000    0.000    0.000    0.000 
#
# Total GULP energy -89274.908182 kJ/mol
# GULP energy per Si atom -5579.681761 kJ/mol
# Density = 2.460553 g / cm^3
# Si number density = 24.661661 Si / 1000 Ang^3
#
#
#
# Elastic Constant Matrix: (Units=GPa)
#
#
# Indices 1 2 3 4 5 6 
#
# 1 141.6431 12.9050 6.0147 0.0000 -7.1111 0.0000
# 2 12.9050 76.4345 -0.4656 0.0000 -13.8914 0.0000
# 3 6.0147 -0.4656 38.1735 0.0000 -8.4746 0.0000
# 4 0.0000 0.0000 0.0000 29.3339 0.0000 -4.8700
# 5 -7.1111 -13.8914 -8.4746 0.0000 46.3249 0.0000
# 6 0.0000 0.0000 0.0000 -4.8700 0.0000 34.4057
#
#
#
# Elastic Compliance Matrix: (Units=1/GPa)
#
#
# Indices 1 2 3 4 5 6 
#
# 1 0.007235 -0.001121 -0.001023 0.000000 0.000587 0.000000
# 2 -0.001121 0.014058 0.001299 0.000000 0.004281 0.000000
# 3 -0.001023 0.001299 0.027543 0.000000 0.005271 0.000000
# 4 0.000000 0.000000 0.000000 0.034911 0.000000 0.004941
# 5 0.000587 0.004281 0.005271 0.000000 0.023925 0.000000
# 6 0.000000 0.000000 0.000000 0.004941 0.000000 0.029764
#
#
# Mechanical properties :
#
#
# Convention : Reuss Voigt Hill
#
# Bulk Modulus (GPa) = 21.21106 32.57328 26.89217
# Shear Modulus (GPa) = 32.29067 37.86601 35.07834
#
# Velocity S-wave (km/s) = 3.62242 3.92269 3.77554
# Velocity P-wave (km/s) = 5.11032 5.80977 5.47123
#
# Compressibility (1/GPa) = 0.04714521
#
# Stress axis : x y z
#
# Youngs Moduli (GPa) = 138.21561 71.13206 36.30631
#
# Poissons Ratio (x) = 0.07974 0.03715
# Poissons Ratio (y) = 0.15495 -0.04714
# Poissons Ratio (z) = 0.14143 -0.09237
#
# Static dielectric constant tensor:
#      x y z
#    x 1.953380 0.000000 -0.031580 
#    y 0.000000 1.976880 0.000000 
#    z -0.031580 0.000000 2.023770 
# 
# From -- ./inp_files/11335.got.cif
#   From: 2010.05.17/outbox.cif.g08.bks.cpg/sg4_6_cif.got.tgz:11335.got - 2010.06.03 18:43:04.
