data_PCOD9116137
_publ_section_title
;
Structure prediction by ZEFSAII (Michael W. Deem and Ramdas Pophale) SiO2 
 PCOD9116137
Probable space group: P 21
;
_chemical_formula_sum "Si O2"
_cell_formula_units_Z 14
_cell_length_a 5.045481
_cell_length_b 12.730481
_cell_length_c 10.066988
_cell_angle_alpha 90.000000
_cell_angle_beta 101.984111
_cell_angle_gamma 90.000000
_cell_volume 632.523864
_symmetry_space_group_name_H-M "P 21"
_symmetry_group_IT_number 4
_symmetry_cell_setting 'monoclinic'
loop_
_space_group_symop_operation_xyz
x,y,z
-x,1/2+y,-z
loop_
_atom_site_type_symbol
_atom_site_label
_atom_site_fract_x
_atom_site_fract_y
_atom_site_fract_z
Si Si1 0.282876 0.931580 0.300034
Si Si2 0.278648 0.377216 0.858957
Si Si3 0.619060 0.133479 0.335448
Si Si4 0.933867 0.024098 0.610964
Si Si5 0.073500 0.149255 0.885152
Si Si6 0.560013 0.374792 0.406301
Si Si7 0.633363 0.082491 0.031624
O O1 0.435646 0.891741 0.184292
O O2 0.416650 0.866225 0.432189
O O3 0.965662 0.910351 0.264601
O O4 0.362697 0.053943 0.324737
O O5 0.207925 0.262773 0.896606
O O6 0.268604 0.462821 0.973359
O O7 0.823675 0.087193 0.469383
O O8 0.560879 0.256780 0.350549
O O9 0.698785 0.118281 0.189016
O O10 0.014608 0.107139 0.732172
O O11 0.700791 0.947478 0.644247
O O12 0.183281 0.946617 0.606381
O O13 0.312571 0.082208 0.976713
O O14 0.801573 0.147932 0.942893
#
# Coordination Sequence:
#
# PCOD9116137 Si02
#       7
#     2   2   2   2   2   2   2
#     4  10  21  40  65  98 127 170 220 256 313 400
#     4  11  23  43  66  90 131 177 212 255 321 393
#     4  10  24  44  68  95 131 171 215 268 321 377
#     4  11  26  43  66  99 130 168 220 261 318 393
#     4  12  26  45  67  95 133 172 210 268 324 377
#     4  11  23  40  67  99 132 164 211 279 323 359
#     4  11  25  43  65  98 128 168 220 261 316 391
#
# _framework density 22.133552000000002
#
# number of rings (size 3 to 8) (size 9 to 14) (size 15 to 20)
#    0.000    1.143    0.000    6.857    0.000   12.571 
#    0.000    0.000    0.000    0.000    0.000    0.000 
#    0.000    0.000    0.000    0.000    0.000    0.000 
#
# Total GULP energy -78249.623572 kJ/mol
# GULP energy per Si atom -5589.258827 kJ/mol
# Density = 2.208317 g / cm^3
# Si number density = 22.133552 Si / 1000 Ang^3
#
#
#
# Elastic Constant Matrix: (Units=GPa)
#
#
# Indices 1 2 3 4 5 6 
#
# 1 97.4496 15.9880 12.3555 0.0000 -5.0002 0.0000
# 2 15.9880 74.0112 -3.3169 0.0000 -6.9008 0.0000
# 3 12.3555 -3.3169 76.2204 0.0000 -3.0568 0.0000
# 4 0.0000 0.0000 0.0000 25.9058 0.0000 -0.7876
# 5 -5.0002 -6.9008 -3.0568 0.0000 22.4841 0.0000
# 6 0.0000 0.0000 0.0000 -0.7876 0.0000 23.8586
#
#
#
# Elastic Compliance Matrix: (Units=1/GPa)
#
#
# Indices 1 2 3 4 5 6 
#
# 1 0.010946 -0.002308 -0.001816 0.000000 0.001479 0.000000
# 2 -0.002308 0.014443 0.001166 0.000000 0.004078 0.000000
# 3 -0.001816 0.001166 0.013537 0.000000 0.001795 0.000000
# 4 0.000000 0.000000 0.000000 0.038640 0.000000 0.001276
# 5 0.001479 0.004078 0.001795 0.000000 0.046300 0.000000
# 6 0.000000 0.000000 0.000000 0.001276 0.000000 0.041956
#
#
# Mechanical properties :
#
#
# Convention : Reuss Voigt Hill
#
# Bulk Modulus (GPa) = 30.29301 33.08161 31.68731
# Shear Modulus (GPa) = 27.36115 29.29335 28.32725
#
# Velocity S-wave (km/s) = 3.51976 3.64192 3.58136
# Velocity P-wave (km/s) = 5.49858 5.71520 5.60794
#
# Compressibility (1/GPa) = 0.03301092
#
# Stress axis : x y z
#
# Youngs Moduli (GPa) = 91.35354 69.23982 73.87230
#
# Poissons Ratio (x) = 0.15981 0.13412
# Poissons Ratio (y) = 0.21086 -0.08615
# Poissons Ratio (z) = 0.16586 -0.08075
#
# Static dielectric constant tensor:
#      x y z
#    x 1.818650 0.000000 0.010550 
#    y 0.000000 1.824890 0.000000 
#    z 0.010550 0.000000 1.836960 
# 
# From -- ./inp_files/4641.got.cif
#   From: 2010.05.17/outbox.cif.g08.bks.cpg/sg4_3_cif.got.tgz:4641.got - 2010.06.03 18:43:04.
