data_PCOD9116693
_publ_section_title
;
Structure prediction by ZEFSAII (Michael W. Deem and Ramdas Pophale) SiO2 
 PCOD9116693
Probable space group: P 21
;
_chemical_formula_sum "Si O2"
_cell_formula_units_Z 14
_cell_length_a 13.045016
_cell_length_b 8.833389
_cell_length_c 4.999678
_cell_angle_alpha 90.000000
_cell_angle_beta 111.317475
_cell_angle_gamma 90.000000
_cell_volume 536.703400
_symmetry_space_group_name_H-M "P 21"
_symmetry_group_IT_number 4
_symmetry_cell_setting 'monoclinic'
loop_
_space_group_symop_operation_xyz
x,y,z
-x,1/2+y,-z
loop_
_atom_site_type_symbol
_atom_site_label
_atom_site_fract_x
_atom_site_fract_y
_atom_site_fract_z
Si Si1 0.982005 0.307810 0.515170
Si Si2 0.807602 0.945764 0.583367
Si Si3 0.579367 0.054526 0.300482
Si Si4 0.982461 0.053387 0.102936
Si Si5 0.775020 0.636491 0.809977
Si Si6 0.258554 0.953256 0.738554
Si Si7 0.443229 0.753691 0.189361
O O1 0.096212 0.367969 0.495714
O O2 0.999389 0.373817 0.829750
O O3 0.973886 0.143343 0.374341
O O4 0.864661 0.386124 0.344234
O O5 0.757803 0.808685 0.710874
O O6 0.705915 0.020952 0.338969
O O7 0.872074 0.066851 0.828386
O O8 0.579810 0.164718 0.558118
O O9 0.523447 0.894655 0.314907
O O10 0.517247 0.131509 0.992628
O O11 0.094179 0.104929 0.070992
O O12 0.727059 0.516428 0.548150
O O13 0.733480 0.598649 0.062282
O O14 0.340597 0.830609 0.936883
#
# Coordination Sequence:
#
# PCOD9116693 Si02
#       7
#     2   2   2   2   2   2   2
#     4  10  23  39  65 102 142 192 230 305 353 460
#     4  11  25  41  71 103 148 190 254 297 379 439
#     4  12  30  51  83 112 148 202 255 323 379 450
#     4  10  22  40  62 102 147 188 243 289 373 433
#     4  10  24  40  69 108 141 199 228 312 353 453
#     4  11  23  45  71 102 149 188 242 289 386 428
#     4  12  29  54  81 113 151 197 258 319 381 449
#
# _framework density 26.085170000000002
#
# number of rings (size 3 to 8) (size 9 to 14) (size 15 to 20)
#    0.000    1.143    1.429    2.571   14.000    0.000 
#    0.000    0.000    0.000    0.000    0.000    0.000 
#    0.000    0.000    0.000    0.000    0.000    0.000 
#
# Total GULP energy -78384.542346 kJ/mol
# GULP energy per Si atom -5598.895882 kJ/mol
# Density = 2.602580 g / cm^3
# Si number density = 26.085170 Si / 1000 Ang^3
#
#
#
# Elastic Constant Matrix: (Units=GPa)
#
#
# Indices 1 2 3 4 5 6 
#
# 1 63.3982 13.7729 35.9197 0.0000 22.8168 0.0000
# 2 13.7729 95.9324 27.4219 0.0000 11.5937 0.0000
# 3 35.9197 27.4219 81.1301 0.0000 17.6318 0.0000
# 4 0.0000 0.0000 0.0000 54.9679 0.0000 -8.6871
# 5 22.8168 11.5937 17.6318 0.0000 40.9376 0.0000
# 6 0.0000 0.0000 0.0000 -8.6871 0.0000 34.1132
#
#
#
# Elastic Compliance Matrix: (Units=1/GPa)
#
#
# Indices 1 2 3 4 5 6 
#
# 1 0.024144 0.000182 -0.008623 0.000000 -0.009795 0.000000
# 2 0.000182 0.011655 -0.003619 0.000000 -0.001843 0.000000
# 3 -0.008623 -0.003619 0.017762 0.000000 -0.001819 0.000000
# 4 0.000000 0.000000 0.000000 0.018955 0.000000 0.004827
# 5 -0.009795 -0.001843 -0.001819 0.000000 0.031192 0.000000
# 6 0.000000 0.000000 0.000000 0.004827 0.000000 0.030543
#
#
# Mechanical properties :
#
#
# Convention : Reuss Voigt Hill
#
# Bulk Modulus (GPa) = 33.96529 43.85441 38.90985
# Shear Modulus (GPa) = 29.72893 36.89347 33.31120
#
# Velocity S-wave (km/s) = 3.37959 3.76486 3.57741
# Velocity P-wave (km/s) = 5.31771 5.97891 5.65798
#
# Compressibility (1/GPa) = 0.02944182
#
# Stress axis : x y z
#
# Youngs Moduli (GPa) = 41.41789 85.79821 56.29932
#
# Poissons Ratio (x) = -0.01562 0.48544
# Poissons Ratio (y) = -0.00754 0.20377
# Poissons Ratio (z) = 0.35713 0.31054
#
# Static dielectric constant tensor:
#      x y z
#    x 2.029100 0.000000 -0.010090 
#    y 0.000000 2.091560 0.000000 
#    z -0.010090 0.000000 2.026850 
# 
# From -- ./inp_files/2659.got.cif
#   From: 2010.05.17/outbox.cif.g08.bks.cpg/sg4_2_cif.got.tgz:2659.got - 2010.06.03 18:43:04.
