data_PCOD9116435
_publ_section_title
;
Structure prediction by ZEFSAII (Michael W. Deem and Ramdas Pophale) SiO2 
 PCOD9116435
Probable space group: P 21
;
_chemical_formula_sum "Si O2"
_cell_formula_units_Z 14
_cell_length_a 12.119639
_cell_length_b 5.201669
_cell_length_c 8.678074
_cell_angle_alpha 90.000000
_cell_angle_beta 77.010067
_cell_angle_gamma 90.000000
_cell_volume 533.086014
_symmetry_space_group_name_H-M "P 21"
_symmetry_group_IT_number 4
_symmetry_cell_setting 'monoclinic'
loop_
_space_group_symop_operation_xyz
x,y,z
-x,1/2+y,-z
loop_
_atom_site_type_symbol
_atom_site_label
_atom_site_fract_x
_atom_site_fract_y
_atom_site_fract_z
Si Si1 0.374121 0.926750 0.209377
Si Si2 0.034011 0.548560 0.629082
Si Si3 0.805477 0.694804 0.540592
Si Si4 0.393494 0.750583 0.861564
Si Si5 0.198424 0.877481 0.752998
Si Si6 0.509928 0.105495 0.600719
Si Si7 0.955757 0.331620 0.957251
O O1 0.382423 0.712226 0.340281
O O2 0.279790 0.126384 0.296951
O O3 0.495882 0.071768 0.169982
O O4 0.357849 0.800253 0.048170
O O5 0.152242 0.479686 0.509369
O O6 0.079953 0.774584 0.722650
O O7 0.930391 0.593486 0.549501
O O8 0.982419 0.350198 0.769044
O O9 0.763910 0.571134 0.392423
O O10 0.294014 0.672202 0.773604
O O11 0.428822 0.018641 0.766998
O O12 0.156608 0.968157 0.935738
O O13 0.474671 0.344275 0.502753
O O14 0.047732 0.531120 0.999809
#
# Coordination Sequence:
#
# PCOD9116435 Si02
#       7
#     2   2   2   2   2   2   2
#     4  12  28  51  81 114 169 217 277 342 421 488
#     4  11  24  48  73 110 158 201 272 333 407 490
#     4  12  25  47  75 113 156 210 268 338 411 485
#     4  12  27  53  77 120 162 218 278 341 414 508
#     4  11  25  45  76 111 153 208 267 333 408 488
#     4  12  26  49  81 117 162 209 274 342 401 489
#     4  10  21  43  71 103 148 195 254 321 388 470
#
# _framework density 26.262181999999999
#
# number of rings (size 3 to 8) (size 9 to 14) (size 15 to 20)
#    0.000    0.571    5.714    1.714    0.000    4.571 
#    0.000    1.429    0.000    0.000    0.000    0.000 
#    0.000    0.000    0.000    0.000    0.000    0.000 
#
# Total GULP energy -78100.197020 kJ/mol
# GULP energy per Si atom -5578.585501 kJ/mol
# Density = 2.620241 g / cm^3
# Si number density = 26.262182 Si / 1000 Ang^3
#
#
#
# Elastic Constant Matrix: (Units=GPa)
#
#
# Indices 1 2 3 4 5 6 
#
# 1 104.7322 15.9988 52.9829 0.0000 17.2894 0.0000
# 2 15.9988 96.9238 45.2576 0.0000 8.1732 0.0000
# 3 52.9829 45.2576 138.0155 0.0000 -5.0396 0.0000
# 4 0.0000 0.0000 0.0000 42.6953 0.0000 -6.7478
# 5 17.2894 8.1732 -5.0396 0.0000 55.0141 0.0000
# 6 0.0000 0.0000 0.0000 -6.7478 0.0000 38.3221
#
#
#
# Elastic Compliance Matrix: (Units=1/GPa)
#
#
# Indices 1 2 3 4 5 6 
#
# 1 0.012926 0.000776 -0.005387 0.000000 -0.004671 0.000000
# 2 0.000776 0.012496 -0.004487 0.000000 -0.002511 0.000000
# 3 -0.005387 -0.004487 0.010908 0.000000 0.003359 0.000000
# 4 0.000000 0.000000 0.000000 0.024092 0.000000 0.004242
# 5 -0.004671 -0.002511 0.003359 0.000000 0.020326 0.000000
# 6 0.000000 0.000000 0.000000 0.004242 0.000000 0.026842
#
#
# Mechanical properties :
#
#
# Convention : Reuss Voigt Hill
#
# Bulk Modulus (GPa) = 55.14865 63.12780 59.13823
# Shear Modulus (GPa) = 37.92718 42.23512 40.08115
#
# Velocity S-wave (km/s) = 3.80435 4.01460 3.91089
# Velocity P-wave (km/s) = 6.35156 6.75123 6.55444
#
# Compressibility (1/GPa) = 0.01813281
#
# Stress axis : x y z
#
# Youngs Moduli (GPa) = 77.36308 80.02310 91.67814
#
# Poissons Ratio (x) = -0.06207 0.49388
# Poissons Ratio (y) = -0.06001 0.41138
# Poissons Ratio (z) = 0.41676 0.35908
#
# Static dielectric constant tensor:
#      x y z
#    x 2.185650 0.000000 -0.033130 
#    y 0.000000 2.246040 0.000000 
#    z -0.033130 0.000000 2.140950 
# 
# From -- ./inp_files/7123.got.cif
#   From: 2010.05.17/outbox.cif.g08.bks.cpg/sg4_4_cif.got.tgz:7123.got - 2010.06.03 18:43:04.
