data_PCOD9116998
_publ_section_title
;
Structure prediction by ZEFSAII (Michael W. Deem and Ramdas Pophale) SiO2 
 PCOD9116998
Probable space group: P 21
;
_chemical_formula_sum "Si O2"
_cell_formula_units_Z 16
_cell_length_a 6.997668
_cell_length_b 5.215143
_cell_length_c 18.383558
_cell_angle_alpha 90.000000
_cell_angle_beta 73.137976
_cell_angle_gamma 90.000000
_cell_volume 642.042548
_symmetry_space_group_name_H-M "P 21"
_symmetry_group_IT_number 4
_symmetry_cell_setting 'monoclinic'
loop_
_space_group_symop_operation_xyz
x,y,z
-x,1/2+y,-z
loop_
_atom_site_type_symbol
_atom_site_label
_atom_site_fract_x
_atom_site_fract_y
_atom_site_fract_z
Si Si1 0.045335 0.096960 0.783690
Si Si2 0.937370 0.682946 0.598701
Si Si3 0.654564 0.210905 0.231181
Si Si4 0.196230 0.185804 0.546145
Si Si5 0.425424 0.324447 0.651963
Si Si6 0.270447 0.570915 0.073994
Si Si7 0.301536 0.528986 0.281606
Si Si8 0.518129 0.061819 0.094915
O O1 0.953934 0.133473 0.873901
O O2 0.854097 0.152338 0.755015
O O3 0.230070 0.225971 0.720047
O O4 0.122149 0.803468 0.781368
O O5 0.802383 0.700034 0.540864
O O6 0.044729 0.411178 0.587566
O O7 0.809044 0.770040 0.681058
O O8 0.105122 0.907947 0.574631
O O9 0.512734 0.449337 0.225718
O O10 0.607939 0.040805 0.166418
O O11 0.580181 0.112864 0.317970
O O12 0.389420 0.251747 0.572695
O O13 0.629194 0.199762 0.658163
O O14 0.364844 0.302355 0.095459
O O15 0.403592 0.802531 0.089408
O O16 0.304575 0.579098 0.983836
#
# Coordination Sequence:
#
# PCOD9116998 Si02
#       8
#     2   2   2   2   2   2   2   2
#     4  11  23  42  67  94 130 174 218 263 332 380
#     4  10  22  42  69  94 129 181 209 270 328 389
#     4  11  25  40  65 100 129 170 221 276 313 395
#     4  10  22  43  66  96 134 168 223 264 327 388
#     4  11  25  40  65 100 129 170 221 276 313 395
#     4  10  22  42  69  94 129 181 209 270 328 389
#     4  11  23  42  67  94 130 174 218 263 332 380
#     4  10  22  43  66  96 134 168 223 264 327 388
#
# _framework density 24.920466999999999
#
# number of rings (size 3 to 8) (size 9 to 14) (size 15 to 20)
#    0.000    1.500    2.500    1.500    7.000    2.000 
#    4.500    0.000    0.000    0.000    0.000    0.000 
#    0.000    0.000    0.000    0.000    0.000    0.000 
#
# Total GULP energy -89315.405302 kJ/mol
# GULP energy per Si atom -5582.212831 kJ/mol
# Density = 2.486375 g / cm^3
# Si number density = 24.920467 Si / 1000 Ang^3
#
#
#
# Elastic Constant Matrix: (Units=GPa)
#
#
# Indices 1 2 3 4 5 6 
#
# 1 76.6529 11.8967 7.4442 0.0000 13.4165 0.0000
# 2 11.8967 80.6157 7.0476 0.0000 -2.2307 0.0000
# 3 7.4442 7.0476 55.6307 0.0000 8.0545 0.0000
# 4 0.0000 0.0000 0.0000 33.3270 0.0000 0.3581
# 5 13.4165 -2.2307 8.0545 0.0000 42.0379 0.0000
# 6 0.0000 0.0000 0.0000 0.3581 0.0000 28.6248
#
#
#
# Elastic Compliance Matrix: (Units=1/GPa)
#
#
# Indices 1 2 3 4 5 6 
#
# 1 0.014257 -0.002141 -0.000989 0.000000 -0.004474 0.000000
# 2 -0.002141 0.012906 -0.001591 0.000000 0.001673 0.000000
# 3 -0.000989 -0.001591 0.018798 0.000000 -0.003370 0.000000
# 4 0.000000 0.000000 0.000000 0.030010 0.000000 -0.000375
# 5 -0.004474 0.001673 -0.003370 0.000000 0.025951 0.000000
# 6 0.000000 0.000000 0.000000 -0.000375 0.000000 0.034939
#
#
# Mechanical properties :
#
#
# Convention : Reuss Voigt Hill
#
# Bulk Modulus (GPa) = 27.38286 29.51959 28.45122
# Shear Modulus (GPa) = 31.55069 33.23200 32.39134
#
# Velocity S-wave (km/s) = 3.56203 3.65570 3.60917
# Velocity P-wave (km/s) = 5.28482 5.44887 5.36747
#
# Compressibility (1/GPa) = 0.03651920
#
# Stress axis : x y z
#
# Youngs Moduli (GPa) = 70.13929 77.48393 53.19855
#
# Poissons Ratio (x) = 0.16592 0.05260
# Poissons Ratio (y) = 0.15019 0.08462
# Poissons Ratio (z) = 0.06935 0.12325
#
# Static dielectric constant tensor:
#      x y z
#    x 1.963160 0.000000 -0.013780 
#    y 0.000000 2.098450 0.000000 
#    z -0.013780 0.000000 2.016920 
# 
# From -- ./inp_files/4210.got.cif
#   From: 2010.05.17/outbox.cif.g08.bks.cpg/sg4_3_cif.got.tgz:4210.got - 2010.06.03 18:43:04.
