data_PCOD9116422
_publ_section_title
;
Structure prediction by ZEFSAII (Michael W. Deem and Ramdas Pophale) SiO2 
 PCOD9116422
Probable space group: P 21
;
_chemical_formula_sum "Si O2"
_cell_formula_units_Z 16
_cell_length_a 14.748348
_cell_length_b 5.609868
_cell_length_c 27.114582
_cell_angle_alpha 90.000000
_cell_angle_beta 163.470447
_cell_angle_gamma 90.000000
_cell_volume 638.257990
_symmetry_space_group_name_H-M "P 21"
_symmetry_group_IT_number 4
_symmetry_cell_setting 'monoclinic'
loop_
_space_group_symop_operation_xyz
x,y,z
-x,1/2+y,-z
loop_
_atom_site_type_symbol
_atom_site_label
_atom_site_fract_x
_atom_site_fract_y
_atom_site_fract_z
Si Si1 0.942445 0.793540 0.753017
Si Si2 0.618847 0.328464 0.686946
Si Si3 0.646596 0.599020 0.357662
Si Si4 0.286220 0.865469 0.703692
Si Si5 0.278285 0.169227 0.995899
Si Si6 0.900689 0.214061 0.564623
Si Si7 0.590885 0.442552 0.068331
Si Si8 0.261460 0.959286 0.428574
O O1 0.570767 0.816225 0.572995
O O2 0.930980 0.532285 0.720746
O O3 0.038581 0.956028 0.755411
O O4 0.128880 0.925500 0.895533
O O5 0.418932 0.567278 0.589377
O O6 0.978840 0.332739 0.856008
O O7 0.599877 0.208916 0.731629
O O8 0.423890 0.172930 0.545351
O O9 0.533744 0.498233 0.246668
O O10 0.804913 0.386493 0.470914
O O11 0.942812 0.778990 0.504336
O O12 0.490783 0.658332 0.836283
O O13 0.180491 0.048364 0.691205
O O14 0.478800 0.307406 0.058648
O O15 0.971419 0.355694 0.651140
O O16 0.480095 0.716619 0.006475
#
# Coordination Sequence:
#
# PCOD9116422 Si02
#       8
#     2   2   2   2   2   2   2   2
#     4  10  24  43  65 102 137 191 247 302 364 442
#     4   9  22  44  64  99 139 183 238 295 363 433
#     4  10  21  43  69 104 138 182 240 292 363 446
#     4  11  22  43  73 104 142 185 238 299 368 438
#     4  10  24  46  67 101 147 186 239 311 376 436
#     4  10  22  40  71 102 133 185 241 296 355 442
#     4  10  24  44  67  97 147 193 244 309 377 445
#     4  10  23  39  70  97 139 189 245 296 354 434
#
# _framework density 25.068234
#
# number of rings (size 3 to 8) (size 9 to 14) (size 15 to 20)
#    0.000    2.000    1.250    0.000    8.750    3.000 
#    4.500    0.000    0.000    0.000    0.000    0.000 
#    0.000    0.000    0.000    0.000    0.000    0.000 
#
# Total GULP energy -89288.791823 kJ/mol
# GULP energy per Si atom -5580.549489 kJ/mol
# Density = 2.501118 g / cm^3
# Si number density = 25.068234 Si / 1000 Ang^3
#
#
#
# Elastic Constant Matrix: (Units=GPa)
#
#
# Indices 1 2 3 4 5 6 
#
# 1 149.4462 35.7392 49.8124 0.0001 2.0681 0.0001
# 2 35.7392 78.1504 8.9286 -0.0002 -7.8644 -0.0001
# 3 49.8124 8.9286 60.5420 0.0002 -16.3640 0.0001
# 4 0.0001 -0.0002 0.0002 8.5470 0.0000 -3.2250
# 5 2.0681 -7.8644 -16.3640 0.0000 25.0901 0.0001
# 6 0.0001 -0.0001 0.0001 -3.2250 0.0001 48.6746
#
#
#
# Elastic Compliance Matrix: (Units=1/GPa)
#
#
# Indices 1 2 3 4 5 6 
#
# 1 0.012079 -0.005205 -0.011995 0.000000 -0.010451 0.000000
# 2 -0.005205 0.015506 0.004159 0.000000 0.008002 0.000000
# 3 -0.011995 0.004159 0.032042 -0.000001 0.023190 0.000000
# 4 0.000000 0.000000 -0.000001 0.120000 0.000000 0.007951
# 5 -0.010451 0.008002 0.023190 0.000000 0.058351 0.000000
# 6 0.000000 0.000000 0.000000 0.007951 0.000000 0.021071
#
#
# Mechanical properties :
#
#
# Convention : Reuss Voigt Hill
#
# Bulk Modulus (GPa) = 29.81225 53.01100 41.41163
# Shear Modulus (GPa) = 16.87398 29.37291 23.12345
#
# Velocity S-wave (km/s) = 2.59727 3.42675 3.04043
# Velocity P-wave (km/s) = 4.57304 6.07037 5.37411
#
# Compressibility (1/GPa) = 0.03354326
#
# Stress axis : x y z
#
# Youngs Moduli (GPa) = 82.78866 64.49001 31.20926
#
# Poissons Ratio (x) = 0.33567 0.37437
# Poissons Ratio (y) = 0.43092 -0.12978
# Poissons Ratio (z) = 0.99308 -0.26818
#
# Static dielectric constant tensor:
#      x y z
#    x 2.016810 0.000000 0.071820 
#    y 0.000000 2.069290 0.000000 
#    z 0.071820 0.000000 2.124180 
# 
# From -- ./inp_files/16422.got.cif
#   From: 2010.05.17/outbox.cif.g08.bks.cpg/sg4_9_cif.got.tgz:16422.got - 2010.06.03 18:43:04.
