data_PCOD9116626
_publ_section_title
;
Structure prediction by ZEFSAII (Michael W. Deem and Ramdas Pophale) SiO2 
 PCOD9116626
Probable space group: P 21
;
_chemical_formula_sum "Si O2"
_cell_formula_units_Z 16
_cell_length_a 14.231478
_cell_length_b 12.130713
_cell_length_c 7.444254
_cell_angle_alpha 90.000000
_cell_angle_beta 32.419871
_cell_angle_gamma 90.000000
_cell_volume 688.999952
_symmetry_space_group_name_H-M "P 21"
_symmetry_group_IT_number 4
_symmetry_cell_setting 'monoclinic'
loop_
_space_group_symop_operation_xyz
x,y,z
-x,1/2+y,-z
loop_
_atom_site_type_symbol
_atom_site_label
_atom_site_fract_x
_atom_site_fract_y
_atom_site_fract_z
Si Si1 0.938146 0.229250 0.297469
Si Si2 0.398924 0.413550 0.419898
Si Si3 0.852087 0.532533 0.123107
Si Si4 0.587192 0.358737 0.454779
Si Si5 0.072856 0.329261 0.728295
Si Si6 0.588064 0.155369 0.722517
Si Si7 0.808947 0.610545 0.586973
Si Si8 0.787272 0.391546 0.794722
O O1 0.748759 0.169529 0.601089
O O2 0.927784 0.323929 0.459584
O O3 0.103847 0.149020 0.037631
O O4 0.945119 0.283896 0.089423
O O5 0.421647 0.377166 0.590724
O O6 0.254299 0.351444 0.540260
O O7 0.369457 0.544672 0.459024
O O8 0.591248 0.389689 0.023280
O O9 0.663078 0.474905 0.406628
O O10 0.881408 0.553345 0.288167
O O11 0.996436 0.448824 0.809037
O O12 0.567423 0.262750 0.629254
O O13 0.740064 0.335007 0.059829
O O14 0.104289 0.230752 0.538214
O O15 0.397198 0.132737 0.112030
O O16 0.829081 0.521826 0.714126
#
# Coordination Sequence:
#
# PCOD9116626 Si02
#       8
#     2   2   2   2   2   2   2   2
#     4  11  21  38  68  90 127 169 218 267 322 379
#     4   9  22  39  64  90 131 165 219 258 330 383
#     4  11  22  41  65  93 126 165 215 272 318 383
#     4  10  23  43  62  92 136 167 207 272 334 381
#     4  11  20  38  65  97 121 166 216 267 316 381
#     4  11  20  40  66  91 125 174 218 271 317 386
#     4  10  22  38  69  91 124 169 225 258 315 391
#     4   9  20  43  59  94 132 169 208 273 320 388
#
# _framework density 23.222062999999999
#
# number of rings (size 3 to 8) (size 9 to 14) (size 15 to 20)
#    0.750    1.000    3.750    0.750    0.000    3.000 
#    2.250    0.000    0.000    0.000    0.000    0.000 
#    0.000    0.000    0.000    0.000    0.000    0.000 
#
# Total GULP energy -89194.764495 kJ/mol
# GULP energy per Si atom -5574.672781 kJ/mol
# Density = 2.316921 g / cm^3
# Si number density = 23.222063 Si / 1000 Ang^3
#
#
#
# Elastic Constant Matrix: (Units=GPa)
#
#
# Indices 1 2 3 4 5 6 
#
# 1 54.2467 20.5285 -0.2881 0.0000 -11.6641 0.0000
# 2 20.5285 110.2452 21.6839 0.0000 -4.9732 0.0000
# 3 -0.2881 21.6839 48.5095 0.0000 0.2394 0.0000
# 4 0.0000 0.0000 0.0000 45.1382 0.0000 3.0618
# 5 -11.6641 -4.9732 0.2394 0.0000 19.9895 0.0000
# 6 0.0000 0.0000 0.0000 3.0618 0.0000 25.8550
#
#
#
# Elastic Compliance Matrix: (Units=1/GPa)
#
#
# Indices 1 2 3 4 5 6 
#
# 1 0.022580 -0.004025 0.001873 0.000000 0.012152 0.000000
# 2 -0.004025 0.010792 -0.004850 0.000000 0.000394 0.000000
# 3 0.001873 -0.004850 0.022795 0.000000 -0.000387 0.000000
# 4 0.000000 0.000000 0.000000 0.022334 0.000000 -0.002645
# 5 0.012152 0.000394 -0.000387 0.000000 0.057220 0.000000
# 6 0.000000 0.000000 0.000000 -0.002645 0.000000 0.038990
#
#
# Mechanical properties :
#
#
# Convention : Reuss Voigt Hill
#
# Bulk Modulus (GPa) = 23.71654 32.98333 28.34993
# Shear Modulus (GPa) = 24.65856 29.60168 27.13012
#
# Velocity S-wave (km/s) = 3.26215 3.57420 3.42174
# Velocity P-wave (km/s) = 4.94206 5.59173 5.27690
#
# Compressibility (1/GPa) = 0.04216466
#
# Stress axis : x y z
#
# Youngs Moduli (GPa) = 44.28635 92.66254 43.86848
#
# Poissons Ratio (x) = 0.37296 -0.08218
# Poissons Ratio (y) = 0.17825 0.21275
# Poissons Ratio (z) = -0.08296 0.44940
#
# Static dielectric constant tensor:
#      x y z
#    x 1.959470 0.000000 -0.034840 
#    y 0.000000 1.887080 0.000000 
#    z -0.034840 0.000000 1.891080 
# 
# From -- ./inp_files/9691.got.cif
#   From: 2010.05.17/outbox.cif.g08.bks.cpg/sg4_5_cif.got.tgz:9691.got - 2010.06.03 18:43:04.
