data_PCOD9116694
_publ_section_title
;
Structure prediction by ZEFSAII (Michael W. Deem and Ramdas Pophale) SiO2 
 PCOD9116694
Probable space group: P 21
;
_chemical_formula_sum "Si O2"
_cell_formula_units_Z 16
_cell_length_a 10.927658
_cell_length_b 13.146621
_cell_length_c 9.510343
_cell_angle_alpha 90.000000
_cell_angle_beta 151.122191
_cell_angle_gamma 90.000000
_cell_volume 659.832253
_symmetry_space_group_name_H-M "P 21"
_symmetry_group_IT_number 4
_symmetry_cell_setting 'monoclinic'
loop_
_space_group_symop_operation_xyz
x,y,z
-x,1/2+y,-z
loop_
_atom_site_type_symbol
_atom_site_label
_atom_site_fract_x
_atom_site_fract_y
_atom_site_fract_z
Si Si1 0.638343 0.115160 0.658459
Si Si2 0.222355 0.803075 0.367112
Si Si3 0.763370 0.874082 0.281263
Si Si4 0.267718 0.243611 0.147379
Si Si5 0.031726 0.428352 0.073396
Si Si6 0.732120 0.063395 0.073922
Si Si7 0.761900 0.637467 0.261632
Si Si8 0.263110 0.946141 0.938232
O O1 0.357722 0.140127 0.314810
O O2 0.789286 0.026035 0.730367
O O3 0.678625 0.085999 0.858633
O O4 0.757830 0.226795 0.749535
O O5 0.492746 0.782409 0.699946
O O6 0.787786 0.831225 0.787713
O O7 0.984273 0.750398 0.198232
O O8 0.152836 0.916410 0.250160
O O9 0.744535 0.756755 0.234125
O O10 0.737256 0.945224 0.119250
O O11 0.045168 0.896035 0.622713
O O12 0.541683 0.907669 0.170380
O O13 0.840686 0.422084 0.011269
O O14 0.991167 0.109460 0.396725
O O15 0.492669 0.105984 0.915051
O O16 0.756265 0.566319 0.117356
#
# Coordination Sequence:
#
# PCOD9116694 Si02
#       8
#     2   2   2   2   2   2   2   2
#     4  10  22  40  62  90 125 154 201 251 296 365
#     4   8  20  36  54  86 110 156 200 226 292 342
#     4  10  22  40  62  87 124 154 204 251 298 354
#     4   8  20  36  54  84 110 156 196 226 296 338
#     4  10  22  40  62  90 125 154 201 251 296 365
#     4  10  23  38  62  94 113 163 201 245 306 354
#     4  10  22  40  62  87 124 154 204 251 298 354
#     4  10  23  38  62  94 113 163 201 245 306 354
#
# _framework density 24.248588000000002
#
# number of rings (size 3 to 8) (size 9 to 14) (size 15 to 20)
#    1.500    1.000    0.000    0.750    8.750    1.000 
#    2.250    0.000   11.000    0.000    0.000    0.000 
#    0.000    0.000    0.000    0.000    0.000    0.000 
#
# Total GULP energy -89215.810483 kJ/mol
# GULP energy per Si atom -5575.988155 kJ/mol
# Density = 2.419340 g / cm^3
# Si number density = 24.248588 Si / 1000 Ang^3
#
#
#
# Elastic Constant Matrix: (Units=GPa)
#
#
# Indices 1 2 3 4 5 6 
#
# 1 72.6913 20.4552 20.6413 0.0000 5.3399 0.0000
# 2 20.4552 151.8332 20.6616 0.0000 -0.0008 0.0000
# 3 20.6413 20.6616 139.8687 0.0000 23.7205 0.0000
# 4 0.0000 0.0000 0.0000 37.5042 0.0000 6.3797
# 5 5.3399 -0.0008 23.7205 0.0000 29.0241 0.0000
# 6 0.0000 0.0000 0.0000 6.3797 0.0000 26.7046
#
#
#
# Elastic Compliance Matrix: (Units=1/GPa)
#
#
# Indices 1 2 3 4 5 6 
#
# 1 0.014836 -0.001767 -0.001701 0.000000 -0.001339 0.000000
# 2 -0.001767 0.006954 -0.000954 0.000000 0.001105 0.000000
# 3 -0.001701 -0.000954 0.008693 0.000000 -0.006792 0.000000
# 4 0.000000 0.000000 0.000000 0.027793 0.000000 -0.006640
# 5 -0.001339 0.001105 -0.006792 0.000000 0.040251 0.000000
# 6 0.000000 0.000000 0.000000 -0.006640 0.000000 0.039033
#
#
# Mechanical properties :
#
#
# Convention : Reuss Voigt Hill
#
# Bulk Modulus (GPa) = 46.21393 54.21216 50.21305
# Shear Modulus (GPa) = 32.54835 38.82226 35.68531
#
# Velocity S-wave (km/s) = 3.66769 4.00560 3.84036
# Velocity P-wave (km/s) = 6.08569 6.61805 6.35744
#
# Compressibility (1/GPa) = 0.02163850
#
# Stress axis : x y z
#
# Youngs Moduli (GPa) = 67.40574 143.80099 115.03029
#
# Poissons Ratio (x) = 0.25412 0.19569
# Poissons Ratio (y) = 0.11912 0.10972
# Poissons Ratio (z) = 0.11467 0.13716
#
# Static dielectric constant tensor:
#      x y z
#    x 1.930420 0.000000 0.020440 
#    y 0.000000 1.932070 0.000000 
#    z 0.020440 0.000000 2.083560 
# 
# From -- ./inp_files/12365.got.cif
#   From: 2010.05.17/outbox.cif.g08.bks.cpg/sg4_7_cif.got.tgz:12365.got - 2010.06.03 18:43:04.
