data_PCOD9116292
_publ_section_title
;
Structure prediction by ZEFSAII (Michael W. Deem and Ramdas Pophale) SiO2 
 PCOD9116292
Probable space group: P 21
;
_chemical_formula_sum "Si O2"
_cell_formula_units_Z 14
_cell_length_a 12.161600
_cell_length_b 8.430207
_cell_length_c 9.438289
_cell_angle_alpha 90.000000
_cell_angle_beta 36.968726
_cell_angle_gamma 90.000000
_cell_volume 581.929658
_symmetry_space_group_name_H-M "P 21"
_symmetry_group_IT_number 4
_symmetry_cell_setting 'monoclinic'
loop_
_space_group_symop_operation_xyz
x,y,z
-x,1/2+y,-z
loop_
_atom_site_type_symbol
_atom_site_label
_atom_site_fract_x
_atom_site_fract_y
_atom_site_fract_z
Si Si1 0.456068 0.495510 0.248635
Si Si2 0.715567 0.362467 0.200718
Si Si3 0.951382 0.001285 0.296183
Si Si4 0.116285 0.869102 0.686706
Si Si5 0.902802 0.581764 0.552411
Si Si6 0.776784 0.060560 0.976663
Si Si7 0.425341 0.308161 0.009938
O O1 0.584507 0.479910 0.251162
O O2 0.254301 0.441164 0.495858
O O3 0.516050 0.385784 0.054984
O O4 0.456915 0.673925 0.188591
O O5 0.728167 0.379765 0.354961
O O6 0.678013 0.187752 0.177016
O O7 0.918863 0.404686 0.939358
O O8 0.940620 0.186964 0.268665
O O9 0.030369 0.000250 0.373104
O O10 0.174611 0.954323 0.480554
O O11 0.925820 0.962213 0.914805
O O12 0.755675 0.712799 0.748469
O O13 0.087555 0.639267 0.281331
O O14 0.646022 0.943250 0.023787
#
# Coordination Sequence:
#
# PCOD9116292 Si02
#       7
#     2   2   2   2   2   2   2
#     4  12  27  40  71 107 140 188 235 296 358 423
#     4  12  25  47  69 104 147 189 233 292 369 436
#     4  12  24  47  72 103 140 185 246 295 353 420
#     4  10  24  43  72 103 139 190 235 291 365 421
#     4  10  21  41  75  99 130 184 239 301 345 412
#     4  10  22  39  73 100 137 187 235 293 354 416
#     4  12  23  43  68 110 141 179 245 306 348 418
#
# _framework density 24.05789
#
# number of rings (size 3 to 8) (size 9 to 14) (size 15 to 20)
#    0.857    0.000    4.286    2.571    4.000    0.000 
#    2.571    1.429    0.000    0.000    0.000    0.000 
#    0.000    0.000    0.000    0.000    0.000    0.000 
#
# Total GULP energy -78370.628314 kJ/mol
# GULP energy per Si atom -5597.902022 kJ/mol
# Density = 2.400313 g / cm^3
# Si number density = 24.057890 Si / 1000 Ang^3
#
#
#
# Elastic Constant Matrix: (Units=GPa)
#
#
# Indices 1 2 3 4 5 6 
#
# 1 146.4861 19.5271 10.2820 0.0000 22.1221 0.0000
# 2 19.5271 70.3692 -6.0474 0.0000 7.5729 0.0000
# 3 10.2820 -6.0474 53.5595 0.0000 -9.6769 0.0000
# 4 0.0000 0.0000 0.0000 20.1754 0.0000 -4.4958
# 5 22.1221 7.5729 -9.6769 0.0000 26.8978 0.0000
# 6 0.0000 0.0000 0.0000 -4.4958 0.0000 26.4751
#
#
#
# Elastic Compliance Matrix: (Units=1/GPa)
#
#
# Indices 1 2 3 4 5 6 
#
# 1 0.008435 -0.001799 -0.003192 0.000000 -0.007579 0.000000
# 2 -0.001799 0.015086 0.001656 0.000000 -0.002172 0.000000
# 3 -0.003192 0.001656 0.021241 0.000000 0.009801 0.000000
# 4 0.000000 0.000000 0.000000 0.051515 0.000000 0.008748
# 5 -0.007579 -0.002172 0.009801 0.000000 0.047549 0.000000
# 6 0.000000 0.000000 0.000000 0.008748 0.000000 0.039257
#
#
# Mechanical properties :
#
#
# Convention : Reuss Voigt Hill
#
# Bulk Modulus (GPa) = 26.25148 35.32645 30.78897
# Shear Modulus (GPa) = 24.69746 31.15318 27.92532
#
# Velocity S-wave (km/s) = 3.20751 3.60241 3.41068
# Velocity P-wave (km/s) = 4.96518 5.65853 5.32316
#
# Compressibility (1/GPa) = 0.03809309
#
# Stress axis : x y z
#
# Youngs Moduli (GPa) = 118.55250 66.28605 47.07797
#
# Poissons Ratio (x) = 0.11927 0.15027
# Poissons Ratio (y) = 0.21332 -0.07798
# Poissons Ratio (z) = 0.37840 -0.10980
#
# Static dielectric constant tensor:
#      x y z
#    x 1.885830 0.000000 -0.001120 
#    y 0.000000 1.928480 0.000000 
#    z -0.001120 0.000000 1.946050 
# 
# From -- ./inp_files/7913.got.cif
#   From: 2010.05.17/outbox.cif.g08.bks.cpg/sg4_4_cif.got.tgz:7913.got - 2010.06.03 18:43:04.
