data_PCOD9116513
_publ_section_title
;
Structure prediction by ZEFSAII (Michael W. Deem and Ramdas Pophale) SiO2 
 PCOD9116513
Probable space group: P 21
;
_chemical_formula_sum "Si O2"
_cell_formula_units_Z 16
_cell_length_a 11.250297
_cell_length_b 8.984196
_cell_length_c 13.667571
_cell_angle_alpha 90.000000
_cell_angle_beta 29.506080
_cell_angle_gamma 90.000000
_cell_volume 680.385131
_symmetry_space_group_name_H-M "P 21"
_symmetry_group_IT_number 4
_symmetry_cell_setting 'monoclinic'
loop_
_space_group_symop_operation_xyz
x,y,z
-x,1/2+y,-z
loop_
_atom_site_type_symbol
_atom_site_label
_atom_site_fract_x
_atom_site_fract_y
_atom_site_fract_z
Si Si1 0.508235 0.127570 0.311749
Si Si2 0.443414 0.535492 0.308478
Si Si3 0.089194 0.846311 0.966935
Si Si4 0.320342 0.354148 0.887374
Si Si5 0.779677 0.095387 0.867175
Si Si6 0.924814 0.919638 0.582067
Si Si7 0.156603 0.341398 0.660053
Si Si8 0.717082 0.625042 0.739665
O O1 0.781405 0.186681 0.113024
O O2 0.365474 0.217114 0.495918
O O3 0.384859 0.164439 0.295655
O O4 0.518532 0.951792 0.303735
O O5 0.686570 0.457117 0.175991
O O6 0.537013 0.699032 0.210932
O O7 0.316500 0.464708 0.303826
O O8 0.244283 0.484471 0.534192
O O9 0.943847 0.839898 0.970843
O O10 0.899954 0.878940 0.188426
O O11 0.277615 0.463230 0.011986
O O12 0.920173 0.245528 0.796643
O O13 0.929228 0.019982 0.674709
O O14 0.509704 0.138230 0.027753
O O15 0.916709 0.748524 0.616506
O O16 0.156685 0.965880 0.353464
#
# Coordination Sequence:
#
# PCOD9116513 Si02
#       8
#     2   2   2   2   2   2   2   2
#     4  10  21  46  66  97 140 180 229 280 361 421
#     4  11  26  43  69 112 140 173 245 303 336 423
#     4  11  22  47  73  93 141 193 224 292 360 423
#     4  11  25  45  69 106 143 174 244 301 337 414
#     4  11  25  44  73  97 140 195 229 277 369 436
#     4  12  24  43  69  99 141 179 228 291 350 419
#     4  11  21  46  72  93 134 195 225 269 371 422
#     4  11  24  42  67  97 137 181 226 285 346 420
#
# _framework density 23.516092
#
# number of rings (size 3 to 8) (size 9 to 14) (size 15 to 20)
#    0.000    1.000    6.250    0.750    5.250    3.000 
#    4.500    0.000    0.000    0.000    0.000    0.000 
#    0.000    0.000    0.000    0.000    0.000    0.000 
#
# Total GULP energy -89226.397698 kJ/mol
# GULP energy per Si atom -5576.649856 kJ/mol
# Density = 2.346257 g / cm^3
# Si number density = 23.516092 Si / 1000 Ang^3
#
#
#
# Elastic Constant Matrix: (Units=GPa)
#
#
# Indices 1 2 3 4 5 6 
#
# 1 48.9868 8.3799 10.4445 0.0000 -8.3263 0.0000
# 2 8.3799 96.9236 11.9839 0.0000 -7.0809 0.0000
# 3 10.4445 11.9839 102.9045 0.0000 1.2640 0.0000
# 4 0.0000 0.0000 0.0000 33.4738 0.0000 -16.1435
# 5 -8.3263 -7.0809 1.2640 0.0000 25.0440 0.0000
# 6 0.0000 0.0000 0.0000 -16.1435 0.0000 19.6315
#
#
#
# Elastic Compliance Matrix: (Units=1/GPa)
#
#
# Indices 1 2 3 4 5 6 
#
# 1 0.022305 -0.001127 -0.002221 0.000000 0.007209 0.000000
# 2 -0.001127 0.010759 -0.001172 0.000000 0.002726 0.000000
# 3 -0.002221 -0.001172 0.010099 0.000000 -0.001580 0.000000
# 4 0.000000 0.000000 0.000000 0.049508 0.000000 0.040712
# 5 0.007209 0.002726 -0.001580 0.000000 0.043177 0.000000
# 6 0.000000 0.000000 0.000000 0.040712 0.000000 0.084417
#
#
# Mechanical properties :
#
#
# Convention : Reuss Voigt Hill
#
# Bulk Modulus (GPa) = 29.30612 34.49241 31.89926
# Shear Modulus (GPa) = 20.77438 30.16364 25.46901
#
# Velocity S-wave (km/s) = 2.97545 3.58534 3.29454
# Velocity P-wave (km/s) = 4.92885 5.64260 5.29776
#
# Compressibility (1/GPa) = 0.03412257
#
# Stress axis : x y z
#
# Youngs Moduli (GPa) = 44.83220 92.94579 99.01888
#
# Poissons Ratio (x) = 0.10477 0.21994
# Poissons Ratio (y) = 0.05053 0.11605
# Poissons Ratio (z) = 0.09958 0.10894
#
# Static dielectric constant tensor:
#      x y z
#    x 1.944670 0.000000 -0.017190 
#    y 0.000000 1.923150 0.000000 
#    z -0.017190 0.000000 1.946540 
# 
# From -- ./inp_files/13897.got.cif
#   From: 2010.05.17/outbox.cif.g08.bks.cpg/sg4_7_cif.got.tgz:13897.got - 2010.06.03 18:43:04.
