data_PCOD9116534
_publ_section_title
;
Structure prediction by ZEFSAII (Michael W. Deem and Ramdas Pophale) SiO2 
 PCOD9116534
Probable space group: P 21
;
_chemical_formula_sum "Si O2"
_cell_formula_units_Z 14
_cell_length_a 15.112605
_cell_length_b 4.811983
_cell_length_c 6.676940
_cell_angle_alpha 90.000000
_cell_angle_beta 77.170647
_cell_angle_gamma 90.000000
_cell_volume 473.436152
_symmetry_space_group_name_H-M "P 21"
_symmetry_group_IT_number 4
_symmetry_cell_setting 'monoclinic'
loop_
_space_group_symop_operation_xyz
x,y,z
-x,1/2+y,-z
loop_
_atom_site_type_symbol
_atom_site_label
_atom_site_fract_x
_atom_site_fract_y
_atom_site_fract_z
Si Si1 0.536613 0.750000 0.218055
Si Si2 0.095666 0.134832 0.364886
Si Si3 0.344803 0.756461 0.856296
Si Si4 0.371557 0.072913 0.447557
Si Si5 0.143554 0.642781 0.067917
Si Si6 0.282894 0.306403 0.108934
Si Si7 0.052173 0.931074 0.783507
O O1 0.551517 0.424575 0.173462
O O2 0.439491 0.887253 0.278643
O O3 0.576732 0.778421 0.423869
O O4 0.609954 0.945877 0.056541
O O5 0.167796 0.340723 0.218054
O O6 0.994991 0.203584 0.339158
O O7 0.129334 0.840046 0.270667
O O8 0.093644 0.146018 0.602342
O O9 0.330178 0.850905 0.627708
O O10 0.250077 0.545916 0.952956
O O11 0.297955 0.003649 0.012054
O O12 0.314294 0.261773 0.324395
O O13 0.041429 0.522737 0.064275
O O14 0.131599 0.874655 0.894004
#
# Coordination Sequence:
#
# PCOD9116534 Si02
#       7
#     2   2   2   2   2   2   2
#     4  10  21  46  83 107 155 220 289 334 436 524
#     4  11  24  43  71 115 154 220 277 354 433 516
#     4  10  23  47  74 117 161 217 278 352 433 531
#     4  10  22  48  80 116 161 223 285 362 434 539
#     4  11  24  44  70 113 158 218 279 361 421 526
#     4  11  28  45  73 125 169 207 289 368 456 508
#     4  11  22  43  73 103 158 213 287 337 417 522
#
# _framework density 29.571041000000001
#
# number of rings (size 3 to 8) (size 9 to 14) (size 15 to 20)
#    0.857    0.571    4.286    0.000    4.000    1.143 
#    0.000    2.857    0.000    0.000    0.000    0.000 
#    0.000    0.000    0.000    0.000    0.000    0.000 
#
# Total GULP energy -78078.754417 kJ/mol
# GULP energy per Si atom -5577.053887 kJ/mol
# Density = 2.950374 g / cm^3
# Si number density = 29.571041 Si / 1000 Ang^3
#
#
#
# Elastic Constant Matrix: (Units=GPa)
#
#
# Indices 1 2 3 4 5 6 
#
# 1 170.9205 35.8350 72.5470 0.0000 -10.2852 0.0000
# 2 35.8350 122.3523 31.0362 0.0000 11.3462 0.0000
# 3 72.5470 31.0362 192.6868 0.0000 2.8590 0.0000
# 4 0.0000 0.0000 0.0000 49.0727 0.0000 -12.3064
# 5 -10.2852 11.3462 2.8590 0.0000 61.7040 0.0000
# 6 0.0000 0.0000 0.0000 -12.3064 0.0000 41.8158
#
#
#
# Elastic Compliance Matrix: (Units=1/GPa)
#
#
# Indices 1 2 3 4 5 6 
#
# 1 0.007375 -0.001671 -0.002532 0.000000 0.001654 0.000000
# 2 -0.001671 0.009042 -0.000799 0.000000 -0.001904 0.000000
# 3 -0.002532 -0.000799 0.006280 0.000000 -0.000566 0.000000
# 4 0.000000 0.000000 0.000000 0.022002 0.000000 0.006475
# 5 0.001654 -0.001904 -0.000566 0.000000 0.016858 0.000000
# 6 0.000000 0.000000 0.000000 0.006475 0.000000 0.025820
#
#
# Mechanical properties :
#
#
# Convention : Reuss Voigt Hill
#
# Bulk Modulus (GPa) = 78.78472 84.97732 81.88102
# Shear Modulus (GPa) = 49.20618 53.62125 51.41371
#
# Velocity S-wave (km/s) = 4.08364 4.26291 4.17424
# Velocity P-wave (km/s) = 6.99537 7.28210 7.14017
#
# Compressibility (1/GPa) = 0.01269282
#
# Stress axis : x y z
#
# Youngs Moduli (GPa) = 135.58641 110.59724 159.22980
#
# Poissons Ratio (x) = 0.18483 0.40320
# Poissons Ratio (y) = 0.22659 0.12721
# Poissons Ratio (z) = 0.34333 0.08836
#
# Static dielectric constant tensor:
#      x y z
#    x 2.445420 0.000000 -0.211340 
#    y 0.000000 2.444010 0.000000 
#    z -0.211340 0.000000 2.476290 
# 
# From -- ./inp_files/3688.got.cif
#   From: 2010.05.17/outbox.cif.g08.bks.cpg/sg4_2_cif.got.tgz:3688.got - 2010.06.03 18:43:04.
