data_PCOD9116404
_publ_section_title
;
Structure prediction by ZEFSAII (Michael W. Deem and Ramdas Pophale) SiO2 
 PCOD9116404
Probable space group: P 21
;
_chemical_formula_sum "Si O2"
_cell_formula_units_Z 16
_cell_length_a 10.162469
_cell_length_b 12.912076
_cell_length_c 8.457764
_cell_angle_alpha 90.000000
_cell_angle_beta 138.466770
_cell_angle_gamma 90.000000
_cell_volume 735.868094
_symmetry_space_group_name_H-M "P 21"
_symmetry_group_IT_number 4
_symmetry_cell_setting 'monoclinic'
loop_
_space_group_symop_operation_xyz
x,y,z
-x,1/2+y,-z
loop_
_atom_site_type_symbol
_atom_site_label
_atom_site_fract_x
_atom_site_fract_y
_atom_site_fract_z
Si Si1 0.549280 0.220170 0.894223
Si Si2 0.106639 0.458772 0.005960
Si Si3 0.291520 0.344449 0.880027
Si Si4 0.134955 0.120013 0.403874
Si Si5 0.182014 0.616207 0.316329
Si Si6 0.880893 0.286093 0.981305
Si Si7 0.380746 0.554058 0.813051
Si Si8 0.837246 0.614270 0.224035
O O1 0.490853 0.287327 0.997120
O O2 0.357215 0.168273 0.634384
O O3 0.676921 0.291792 0.894717
O O4 0.665965 0.123108 0.073685
O O5 0.243596 0.396945 0.004531
O O6 0.927337 0.521524 0.758603
O O7 0.006646 0.383461 0.042748
O O8 0.236103 0.540616 0.221540
O O9 0.288671 0.440281 0.754760
O O10 0.157766 0.240699 0.759131
O O11 0.076352 0.084669 0.528307
O O12 0.017723 0.212988 0.214152
O O13 0.172839 0.727974 0.230097
O O14 0.312156 0.603909 0.588058
O O15 0.963807 0.587726 0.185426
O O16 0.620977 0.562293 0.022906
#
# Coordination Sequence:
#
# PCOD9116404 Si02
#       8
#     2   2   2   2   2   2   2   2
#     4  10  24  46  68  94 133 173 224 275 317 400
#     4  11  23  40  69  97 134 172 215 273 339 395
#     4  10  21  43  66  95 126 174 223 259 323 396
#     4   9  22  45  67  89 135 175 219 265 330 388
#     4  11  23  40  65  96 134 165 210 277 332 379
#     4  11  23  43  65  99 133 170 216 270 340 387
#     4  10  22  42  65  95 126 172 221 262 326 392
#     4  10  22  43  67  93 131 169 220 277 313 389
#
# _framework density 21.743027000000001
#
# number of rings (size 3 to 8) (size 9 to 14) (size 15 to 20)
#    0.000    2.000    1.250    3.000    5.250    2.000 
#    9.000    0.000    0.000    0.000    0.000    0.000 
#    0.000    0.000    0.000    0.000    0.000    0.000 
#
# Total GULP energy -89080.454073 kJ/mol
# GULP energy per Si atom -5567.528380 kJ/mol
# Density = 2.169354 g / cm^3
# Si number density = 21.743027 Si / 1000 Ang^3
#
#
#
# Elastic Constant Matrix: (Units=GPa)
#
#
# Indices 1 2 3 4 5 6 
#
# 1 95.6900 -4.6818 14.1297 0.0000 1.5374 0.0000
# 2 -4.6818 67.7657 17.1486 0.0000 0.4282 0.0000
# 3 14.1297 17.1486 83.7599 0.0000 -10.9281 0.0000
# 4 0.0000 0.0000 0.0000 10.3804 0.0000 -13.5175
# 5 1.5374 0.4282 -10.9281 0.0000 25.7798 0.0000
# 6 0.0000 0.0000 0.0000 -13.5175 0.0000 43.5870
#
#
#
# Elastic Compliance Matrix: (Units=1/GPa)
#
#
# Indices 1 2 3 4 5 6 
#
# 1 0.010887 0.001352 -0.002330 0.000000 -0.001659 0.000000
# 2 0.001352 0.015802 -0.003714 0.000000 -0.001917 0.000000
# 3 -0.002330 -0.003714 0.013886 0.000000 0.006087 0.000000
# 4 0.000000 0.000000 0.000000 0.161596 0.000000 0.050115
# 5 -0.001659 -0.001917 0.006087 0.000000 0.041501 0.000000
# 6 0.000000 0.000000 0.000000 0.050115 0.000000 0.038485
#
#
# Mechanical properties :
#
#
# Convention : Reuss Voigt Hill
#
# Bulk Modulus (GPa) = 32.05812 33.37872 32.71842
# Shear Modulus (GPa) = 16.55970 30.65737 23.60854
#
# Velocity S-wave (km/s) = 2.76272 3.75905 3.29872
# Velocity P-wave (km/s) = 4.99529 5.85025 5.43959
#
# Compressibility (1/GPa) = 0.03119334
#
# Stress axis : x y z
#
# Youngs Moduli (GPa) = 91.85023 63.28310 72.01286
#
# Poissons Ratio (x) = -0.08558 0.16779
# Poissons Ratio (y) = -0.12421 0.26742
# Poissons Ratio (z) = 0.21401 0.23500
#
# Static dielectric constant tensor:
#      x y z
#    x 1.856010 0.000000 0.040210 
#    y 0.000000 1.885160 0.000000 
#    z 0.040210 0.000000 1.774220 
# 
# From -- ./inp_files/8470.got.cif
#   From: 2010.05.17/outbox.cif.g08.bks.cpg/sg4_5_cif.got.tgz:8470.got - 2010.06.03 18:43:04.
