data_PCOD9116187
_publ_section_title
;
Structure prediction by ZEFSAII (Michael W. Deem and Ramdas Pophale) SiO2 
 PCOD9116187
Probable space group: P 21
;
_chemical_formula_sum "Si O2"
_cell_formula_units_Z 16
_cell_length_a 5.041302
_cell_length_b 12.071869
_cell_length_c 13.393312
_cell_angle_alpha 90.000000
_cell_angle_beta 127.361469
_cell_angle_gamma 90.000000
_cell_volume 647.851672
_symmetry_space_group_name_H-M "P 21"
_symmetry_group_IT_number 4
_symmetry_cell_setting 'monoclinic'
loop_
_space_group_symop_operation_xyz
x,y,z
-x,1/2+y,-z
loop_
_atom_site_type_symbol
_atom_site_label
_atom_site_fract_x
_atom_site_fract_y
_atom_site_fract_z
Si Si1 0.354687 0.413010 0.989112
Si Si2 0.526153 0.866295 0.382681
Si Si3 0.210847 0.650959 0.881391
Si Si4 0.056267 0.202440 0.966425
Si Si5 0.256958 0.494634 0.395321
Si Si6 0.022982 0.717640 0.393391
Si Si7 0.891841 0.966450 0.852414
Si Si8 0.424713 0.108581 0.372703
O O1 0.091717 0.314188 0.911260
O O2 0.311998 0.434577 0.097127
O O3 0.750350 0.405272 0.062796
O O4 0.245686 0.519121 0.902080
O O5 0.231428 0.803167 0.373217
O O6 0.687544 0.779345 0.344922
O O7 0.787416 0.900941 0.531370
O O8 0.466333 0.990377 0.324975
O O9 0.554831 0.690414 0.912427
O O10 0.161826 0.693532 0.983803
O O11 0.890161 0.671377 0.740996
O O12 0.969225 0.096887 0.880756
O O13 0.987281 0.594799 0.337319
O O14 0.284492 0.448230 0.292418
O O15 0.583943 0.559856 0.514564
O O16 0.251366 0.685703 0.542318
#
# Coordination Sequence:
#
# PCOD9116187 Si02
#       8
#     2   2   2   2   2   2   2   2
#     4  10  22  38  63  84 118 155 201 243 298 340
#     4   9  20  36  54  81 114 151 188 228 284 345
#     4  10  21  41  58  90 117 153 197 248 289 355
#     4  10  22  38  63  84 118 155 201 243 298 340
#     4   8  22  38  60  87 121 152 195 240 297 348
#     4   9  20  36  54  81 114 151 188 228 284 345
#     4  10  21  41  58  90 117 153 197 248 289 355
#     4   8  22  38  60  87 121 152 195 240 297 348
#
# _framework density 24.697013999999999
#
# number of rings (size 3 to 8) (size 9 to 14) (size 15 to 20)
#    1.500    1.000    0.000    0.750    0.000   12.000 
#    0.000    5.000    0.000    0.000    0.000    0.000 
#    0.000    0.000    0.000    0.000    0.000    0.000 
#
# Total GULP energy -89240.556477 kJ/mol
# GULP energy per Si atom -5577.534780 kJ/mol
# Density = 2.464080 g / cm^3
# Si number density = 24.697014 Si / 1000 Ang^3
#
#
#
# Elastic Constant Matrix: (Units=GPa)
#
#
# Indices 1 2 3 4 5 6 
#
# 1 48.0248 9.1110 -5.5685 0.0000 12.6199 0.0000
# 2 9.1110 85.9987 -19.3205 0.0000 -5.1372 0.0000
# 3 -5.5685 -19.3205 48.9525 0.0000 -10.6880 0.0000
# 4 0.0000 0.0000 0.0000 4.6630 0.0000 8.5221
# 5 12.6199 -5.1372 -10.6880 0.0000 15.4861 0.0000
# 6 0.0000 0.0000 0.0000 8.5221 0.0000 30.4547
#
#
#
# Elastic Compliance Matrix: (Units=1/GPa)
#
#
# Indices 1 2 3 4 5 6 
#
# 1 0.029107 -0.006098 -0.005553 0.000000 -0.029576 0.000000
# 2 -0.006098 0.015221 0.008832 0.000000 0.016114 0.000000
# 3 -0.005553 0.008832 0.029329 0.000000 0.027698 0.000000
# 4 0.000000 0.000000 0.000000 0.438939 0.000000 -0.122828
# 5 -0.029576 0.016114 0.027698 0.000000 0.113138 0.000000
# 6 0.000000 0.000000 0.000000 -0.122828 0.000000 0.067207
#
#
# Mechanical properties :
#
#
# Convention : Reuss Voigt Hill
#
# Bulk Modulus (GPa) = 14.70167 16.82446 15.76307
# Shear Modulus (GPa) = 6.93238 23.37101 15.15169
#
# Velocity S-wave (km/s) = 1.67722 3.07955 2.47959
# Velocity P-wave (km/s) = 3.11713 4.41271 3.82024
#
# Compressibility (1/GPa) = 0.06801946
#
# Stress axis : x y z
#
# Youngs Moduli (GPa) = 34.35542 65.69886 34.09539
#
# Poissons Ratio (x) = 0.40064 0.18934
# Poissons Ratio (y) = 0.20950 -0.30113
# Poissons Ratio (z) = 0.19078 -0.58026
#
# Static dielectric constant tensor:
#      x y z
#    x 1.906600 0.000000 0.019470 
#    y 0.000000 2.077190 0.000000 
#    z 0.019470 0.000000 1.997760 
# 
# From -- ./inp_files/14742.got.cif
#   From: 2010.05.17/outbox.cif.g08.bks.cpg/sg4_8_cif.got.tgz:14742.got - 2010.06.03 18:43:04.
