data_PCOD9116670
_publ_section_title
;
Structure prediction by ZEFSAII (Michael W. Deem and Ramdas Pophale) SiO2 
 PCOD9116670
Probable space group: P 21
;
_chemical_formula_sum "Si O2"
_cell_formula_units_Z 16
_cell_length_a 11.673294
_cell_length_b 8.215300
_cell_length_c 15.028123
_cell_angle_alpha 90.000000
_cell_angle_beta 150.536213
_cell_angle_gamma 90.000000
_cell_volume 708.883550
_symmetry_space_group_name_H-M "P 21"
_symmetry_group_IT_number 4
_symmetry_cell_setting 'monoclinic'
loop_
_space_group_symop_operation_xyz
x,y,z
-x,1/2+y,-z
loop_
_atom_site_type_symbol
_atom_site_label
_atom_site_fract_x
_atom_site_fract_y
_atom_site_fract_z
Si Si1 0.161625 0.300540 0.844174
Si Si2 0.413572 0.313294 0.840897
Si Si3 0.224504 0.736329 0.151520
Si Si4 0.830130 0.917827 0.787380
Si Si5 0.352545 0.452185 0.610923
Si Si6 0.903766 0.416016 0.214931
Si Si7 0.348466 0.816240 0.531783
Si Si8 0.472195 0.509522 0.182305
O O1 0.232201 0.360096 0.793424
O O2 0.894955 0.348879 0.680733
O O3 0.170914 0.105038 0.843713
O O4 0.337961 0.375705 0.034152
O O5 0.414923 0.432090 0.756672
O O6 0.380395 0.132021 0.779252
O O7 0.668722 0.314292 0.058189
O O8 0.186767 0.611051 0.206012
O O9 0.451689 0.850165 0.309778
O O10 0.283680 0.622446 0.106050
O O11 0.997030 0.840861 0.975805
O O12 0.573317 0.846414 0.623480
O O13 0.951305 0.881609 0.776590
O O14 0.351947 0.633313 0.572045
O O15 0.090317 0.388361 0.418641
O O16 0.379455 0.931396 0.638476
#
# Coordination Sequence:
#
# PCOD9116670 Si02
#       8
#     2   2   2   2   2   2   2   2
#     4  11  25  42  65  94 128 167 221 263 317 380
#     4  11  23  43  65  93 127 170 214 269 321 372
#     4  10  22  39  67  91 133 169 203 260 322 379
#     4  11  22  41  64  97 131 168 211 257 320 388
#     4  10  22  43  65  94 131 165 213 265 321 378
#     4  11  24  43  67  96 127 169 216 264 320 380
#     4  10  24  42  61  97 129 166 211 261 322 383
#     4  10  22  41  64  92 126 168 213 261 317 380
#
# _framework density 22.570702000000001
#
# number of rings (size 3 to 8) (size 9 to 14) (size 15 to 20)
#    0.000    1.500    2.500    2.250    3.500    8.000 
#    4.500    0.000    0.000    0.000    0.000    0.000 
#    0.000    0.000    0.000    0.000    0.000    0.000 
#
# Total GULP energy -89523.256117 kJ/mol
# GULP energy per Si atom -5595.203507 kJ/mol
# Density = 2.251933 g / cm^3
# Si number density = 22.570702 Si / 1000 Ang^3
#
#
#
# Elastic Constant Matrix: (Units=GPa)
#
#
# Indices 1 2 3 4 5 6 
#
# 1 52.2988 1.8869 12.7494 0.0000 11.2263 0.0000
# 2 1.8869 30.2847 -6.2759 0.0000 2.5333 0.0000
# 3 12.7494 -6.2759 50.7906 0.0000 2.1958 0.0000
# 4 0.0000 0.0000 0.0000 22.0107 0.0000 2.5675
# 5 11.2263 2.5333 2.1958 0.0000 20.1467 0.0000
# 6 0.0000 0.0000 0.0000 2.5675 0.0000 14.5905
#
#
#
# Elastic Compliance Matrix: (Units=1/GPa)
#
#
# Indices 1 2 3 4 5 6 
#
# 1 0.023104 -0.001562 -0.005470 0.000000 -0.012082 0.000000
# 2 -0.001562 0.034450 0.004821 0.000000 -0.003987 0.000000
# 3 -0.005470 0.004821 0.021654 0.000000 0.000082 0.000000
# 4 0.000000 0.000000 0.000000 0.046384 0.000000 -0.008162
# 5 -0.012082 -0.003987 0.000082 0.000000 0.056861 0.000000
# 6 0.000000 0.000000 0.000000 -0.008162 0.000000 0.069974
#
#
# Mechanical properties :
#
#
# Convention : Reuss Voigt Hill
#
# Bulk Modulus (GPa) = 13.37165 16.67722 15.02444
# Shear Modulus (GPa) = 17.74443 19.68384 18.71414
#
# Velocity S-wave (km/s) = 2.80692 2.95633 2.88259
# Velocity P-wave (km/s) = 4.05490 4.36556 4.21310
#
# Compressibility (1/GPa) = 0.07478509
#
# Stress axis : x y z
#
# Youngs Moduli (GPa) = 43.28211 29.02765 46.18080
#
# Poissons Ratio (x) = 0.04536 0.25263
# Poissons Ratio (y) = 0.06763 -0.22265
# Poissons Ratio (z) = 0.23677 -0.13995
#
# Static dielectric constant tensor:
#      x y z
#    x 1.841260 0.000000 -0.019380 
#    y 0.000000 1.846280 0.000000 
#    z -0.019380 0.000000 1.823850 
# 
# From -- ./inp_files/12546.got.cif
#   From: 2010.05.17/outbox.cif.g08.bks.cpg/sg4_7_cif.got.tgz:12546.got - 2010.06.03 18:43:04.
