data_PCOD9116514
_publ_section_title
;
Structure prediction by ZEFSAII (Michael W. Deem and Ramdas Pophale) SiO2 
 PCOD9116514
Probable space group: P 21
;
_chemical_formula_sum "Si O2"
_cell_formula_units_Z 16
_cell_length_a 11.554547
_cell_length_b 8.173692
_cell_length_c 12.034677
_cell_angle_alpha 90.000000
_cell_angle_beta 143.008615
_cell_angle_gamma 90.000000
_cell_volume 683.883279
_symmetry_space_group_name_H-M "P 21"
_symmetry_group_IT_number 4
_symmetry_cell_setting 'monoclinic'
loop_
_space_group_symop_operation_xyz
x,y,z
-x,1/2+y,-z
loop_
_atom_site_type_symbol
_atom_site_label
_atom_site_fract_x
_atom_site_fract_y
_atom_site_fract_z
Si Si1 0.983580 0.623070 0.121865
Si Si2 0.714760 0.154609 0.240571
Si Si3 0.636861 0.484720 0.723177
Si Si4 0.250246 0.619129 0.123740
Si Si5 0.858865 0.646853 0.491533
Si Si6 0.507552 0.490068 0.131352
Si Si7 0.769179 0.977422 0.512575
Si Si8 0.085641 0.989862 0.255827
O O1 0.141061 0.559503 0.151682
O O2 0.041443 0.544429 0.282973
O O3 0.003466 0.817095 0.150626
O O4 0.776382 0.579668 0.914924
O O5 0.576516 0.306791 0.160736
O O6 0.733514 0.037905 0.360838
O O7 0.934821 0.209393 0.389209
O O8 0.633278 0.057368 0.071900
O O9 0.663982 0.295467 0.780079
O O10 0.417629 0.535589 0.563887
O O11 0.719849 0.511948 0.664125
O O12 0.405796 0.515062 0.173709
O O13 0.068419 0.626803 0.899403
O O14 0.700252 0.601419 0.280186
O O15 0.889034 0.489479 0.593368
O O16 0.776870 0.783180 0.511185
#
# Coordination Sequence:
#
# PCOD9116514 Si02
#       8
#     2   2   2   2   2   2   2   2
#     4  10  24  42  69 105 141 173 224 285 341 418
#     4  12  29  47  68 103 135 182 240 284 344 408
#     4  10  23  42  69 102 139 178 223 276 348 411
#     4  10  21  46  67 100 138 181 225 274 350 405
#     4  12  25  47  71  97 141 184 230 285 343 405
#     4  12  26  47  74  95 137 184 230 290 340 413
#     4  12  26  43  70 102 136 183 227 284 341 415
#     4  10  22  42  70 104 139 179 219 284 343 411
#
# _framework density 23.395803999999998
#
# number of rings (size 3 to 8) (size 9 to 14) (size 15 to 20)
#    0.000    1.000    2.500    3.000    3.500    2.000 
#    0.000    0.000    0.000    0.000    0.000    0.000 
#    0.000    0.000    0.000    0.000    0.000    0.000 
#
# Total GULP energy -89505.115257 kJ/mol
# GULP energy per Si atom -5594.069704 kJ/mol
# Density = 2.334255 g / cm^3
# Si number density = 23.395804 Si / 1000 Ang^3
#
#
#
# Elastic Constant Matrix: (Units=GPa)
#
#
# Indices 1 2 3 4 5 6 
#
# 1 70.0857 13.2567 9.2435 0.0000 16.0630 0.0000
# 2 13.2567 45.4717 5.9502 0.0000 -5.8770 0.0000
# 3 9.2435 5.9502 86.4780 0.0000 -3.7900 0.0000
# 4 0.0000 0.0000 0.0000 24.6983 0.0000 0.2905
# 5 16.0630 -5.8770 -3.7900 0.0000 34.3278 0.0000
# 6 0.0000 0.0000 0.0000 0.2905 0.0000 27.0843
#
#
#
# Elastic Compliance Matrix: (Units=1/GPa)
#
#
# Indices 1 2 3 4 5 6 
#
# 1 0.017910 -0.006219 -0.001910 0.000000 -0.009656 0.000000
# 2 -0.006219 0.024816 -0.000732 0.000000 0.007078 0.000000
# 3 -0.001910 -0.000732 0.011909 0.000000 0.002083 0.000000
# 4 0.000000 0.000000 0.000000 0.040494 0.000000 -0.000434
# 5 -0.009656 0.007078 0.002083 0.000000 0.035091 0.000000
# 6 0.000000 0.000000 0.000000 -0.000434 0.000000 0.036926
#
#
# Mechanical properties :
#
#
# Convention : Reuss Voigt Hill
#
# Bulk Modulus (GPa) = 27.09178 28.77070 27.93124
# Shear Modulus (GPa) = 25.35850 28.79441 27.07645
#
# Velocity S-wave (km/s) = 3.29582 3.51201 3.40563
# Velocity P-wave (km/s) = 5.10766 5.36374 5.23726
#
# Compressibility (1/GPa) = 0.03691157
#
# Stress axis : x y z
#
# Youngs Moduli (GPa) = 55.83603 40.29731 83.96702
#
# Poissons Ratio (x) = 0.25063 0.16034
# Poissons Ratio (y) = 0.34727 0.06150
# Poissons Ratio (z) = 0.10662 0.02952
#
# Static dielectric constant tensor:
#      x y z
#    x 1.916470 0.000000 -0.003200 
#    y 0.000000 1.857070 0.000000 
#    z -0.003200 0.000000 1.858600 
# 
# From -- ./inp_files/12039.got.cif
#   From: 2010.05.17/outbox.cif.g08.bks.cpg/sg4_7_cif.got.tgz:12039.got - 2010.06.03 18:43:04.
