data_PCOD9116900
_publ_section_title
;
Structure prediction by ZEFSAII (Michael W. Deem and Ramdas Pophale) SiO2 
 PCOD9116900
Probable space group: P 21
;
_chemical_formula_sum "Si O2"
_cell_formula_units_Z 12
_cell_length_a 6.878916
_cell_length_b 9.267752
_cell_length_c 8.060268
_cell_angle_alpha 90.000000
_cell_angle_beta 62.024675
_cell_angle_gamma 90.000000
_cell_volume 453.814340
_symmetry_space_group_name_H-M "P 21"
_symmetry_group_IT_number 4
_symmetry_cell_setting 'monoclinic'
loop_
_space_group_symop_operation_xyz
x,y,z
-x,1/2+y,-z
loop_
_atom_site_type_symbol
_atom_site_label
_atom_site_fract_x
_atom_site_fract_y
_atom_site_fract_z
Si Si1 0.357802 0.082630 0.198666
Si Si2 0.911645 0.165611 0.173440
Si Si3 0.576121 0.127337 0.792422
Si Si4 0.788989 0.841890 0.171210
Si Si5 0.844305 0.337454 0.512092
Si Si6 0.335187 0.356471 0.403185
O O1 0.434959 0.228351 0.256348
O O2 0.123843 0.109474 0.197633
O O3 0.301062 0.969205 0.364938
O O4 0.528339 0.048626 0.983824
O O5 0.787594 0.266235 0.358092
O O6 0.807860 0.015098 0.155526
O O7 0.993246 0.266218 0.990205
O O8 0.399411 0.255873 0.851958
O O9 0.802111 0.209620 0.662803
O O10 0.540159 0.006990 0.666175
O O11 0.727942 0.814218 0.386537
O O12 0.096832 0.384177 0.411364
#
# Coordination Sequence:
#
# PCOD9116900 Si02
#       6
#     2   2   2   2   2   2
#     4  10  22  41  69 103 131 187 236 288 344 410
#     4  10  23  45  68 103 143 189 229 286 356 422
#     4  11  24  44  68 102 146 177 236 293 351 419
#     4  11  24  46  68 103 147 184 237 286 356 422
#     4  11  21  45  72  97 141 184 239 287 349 421
#     4  11  22  45  71 100 138 187 237 286 348 418
#
# _framework density 26.442532
#
# number of rings (size 3 to 8) (size 9 to 14) (size 15 to 20)
#    0.000    1.333    3.333    2.000    2.333    1.333 
#    9.000    0.000    0.000    0.000    0.000    0.000 
#    0.000    0.000    0.000    0.000    0.000    0.000 
#
# Total GULP energy -67185.298412 kJ/mol
# GULP energy per Si atom -5598.774868 kJ/mol
# Density = 2.638235 g / cm^3
# Si number density = 26.442532 Si / 1000 Ang^3
#
#
#
# Elastic Constant Matrix: (Units=GPa)
#
#
# Indices 1 2 3 4 5 6 
#
# 1 63.3679 17.9685 11.3724 0.0000 19.0622 0.0000
# 2 17.9685 168.5700 73.0889 0.0000 0.1785 0.0000
# 3 11.3724 73.0889 187.8684 0.0000 3.3046 0.0000
# 4 0.0000 0.0000 0.0000 63.1357 0.0000 -2.2852
# 5 19.0622 0.1785 3.3046 0.0000 35.0114 0.0000
# 6 0.0000 0.0000 0.0000 -2.2852 0.0000 35.3898
#
#
#
# Elastic Compliance Matrix: (Units=1/GPa)
#
#
# Indices 1 2 3 4 5 6 
#
# 1 0.019580 -0.001976 -0.000229 0.000000 -0.010629 0.000000
# 2 -0.001976 0.007337 -0.002758 0.000000 0.001299 0.000000
# 3 -0.000229 -0.002758 0.006418 0.000000 -0.000467 0.000000
# 4 0.000000 0.000000 0.000000 0.015876 0.000000 0.001025
# 5 -0.010629 0.001299 -0.000467 0.000000 0.034386 0.000000
# 6 0.000000 0.000000 0.000000 0.001025 0.000000 0.028323
#
#
# Mechanical properties :
#
#
# Convention : Reuss Voigt Hill
#
# Bulk Modulus (GPa) = 42.72068 69.40731 56.06399
# Shear Modulus (GPa) = 38.56547 47.86580 43.21564
#
# Velocity S-wave (km/s) = 3.82313 4.25924 4.04706
# Velocity P-wave (km/s) = 5.97323 7.10588 6.56403
#
# Compressibility (1/GPa) = 0.02340787
#
# Stress axis : x y z
#
# Youngs Moduli (GPa) = 51.07331 136.29102 155.81561
#
# Poissons Ratio (x) = 0.26936 0.03574
# Poissons Ratio (y) = 0.10094 0.42970
# Poissons Ratio (z) = 0.01172 0.37585
#
# Static dielectric constant tensor:
#      x y z
#    x 2.195150 0.000000 -0.049980 
#    y 0.000000 2.031870 0.000000 
#    z -0.049980 0.000000 1.995160 
# 
# From -- ./inp_files/5218.got.cif
#   From: 2010.05.17/outbox.cif.g08.bks.cpg/sg4_3_cif.got.tgz:5218.got - 2010.06.03 18:43:04.
