data_PCOD9116323
_publ_section_title
;
Structure prediction by ZEFSAII (Michael W. Deem and Ramdas Pophale) SiO2 
 PCOD9116323
Probable space group: P 21
;
_chemical_formula_sum "Si O2"
_cell_formula_units_Z 14
_cell_length_a 8.113655
_cell_length_b 14.620277
_cell_length_c 7.772717
_cell_angle_alpha 90.000000
_cell_angle_beta 34.670382
_cell_angle_gamma 90.000000
_cell_volume 524.500803
_symmetry_space_group_name_H-M "P 21"
_symmetry_group_IT_number 4
_symmetry_cell_setting 'monoclinic'
loop_
_space_group_symop_operation_xyz
x,y,z
-x,1/2+y,-z
loop_
_atom_site_type_symbol
_atom_site_label
_atom_site_fract_x
_atom_site_fract_y
_atom_site_fract_z
Si Si1 0.068061 0.144450 0.318807
Si Si2 0.554147 0.256528 0.742964
Si Si3 0.270398 0.043747 0.488572
Si Si4 0.798293 0.970280 0.452225
Si Si5 0.720846 0.731715 0.368938
Si Si6 0.748034 0.941791 0.898520
Si Si7 0.294798 0.848676 0.867973
O O1 0.125500 0.092944 0.446646
O O2 0.880332 0.235125 0.512533
O O3 0.364326 0.172760 0.977126
O O4 0.883032 0.075989 0.356772
O O5 0.509544 0.259154 0.578044
O O6 0.413625 0.347870 0.932472
O O7 0.255813 0.123203 0.639897
O O8 0.077918 0.952648 0.678705
O O9 0.585122 0.016785 0.153961
O O10 0.723674 0.959233 0.717224
O O11 0.518421 0.927083 0.596138
O O12 0.093690 0.914147 0.160955
O O13 0.557250 0.774676 0.677908
O O14 0.022840 0.779796 0.059878
#
# Coordination Sequence:
#
# PCOD9116323 Si02
#       7
#     2   2   2   2   2   2   2
#     4  11  24  43  69 100 134 177 232 286 338 397
#     4  12  26  45  69 103 143 177 225 287 346 400
#     4  11  24  46  69  99 137 181 233 273 344 413
#     4  10  21  42  67 104 130 171 234 286 335 405
#     4  11  25  45  67 102 139 178 233 268 342 427
#     4  11  24  43  69 101 141 175 223 289 348 395
#     4  10  22  40  68  95 132 173 220 285 329 401
#
# _framework density 26.692046999999999
#
# number of rings (size 3 to 8) (size 9 to 14) (size 15 to 20)
#    0.000    1.143    0.000    6.857    6.000    0.000 
#   15.429    0.000    0.000    0.000    0.000    0.000 
#    0.000    0.000    0.000    0.000    0.000    0.000 
#
# Total GULP energy -78221.225921 kJ/mol
# GULP energy per Si atom -5587.230423 kJ/mol
# Density = 2.663130 g / cm^3
# Si number density = 26.692047 Si / 1000 Ang^3
#
#
#
# Elastic Constant Matrix: (Units=GPa)
#
#
# Indices 1 2 3 4 5 6 
#
# 1 49.2403 -2.4517 24.2530 0.0000 -9.1902 0.0000
# 2 -2.4517 57.1323 1.1216 0.0000 -0.1599 0.0000
# 3 24.2530 1.1216 154.6369 0.0000 -36.6421 0.0000
# 4 0.0000 0.0000 0.0000 41.2123 0.0000 -15.6567
# 5 -9.1902 -0.1599 -36.6421 0.0000 30.2135 0.0000
# 6 0.0000 0.0000 0.0000 -15.6567 0.0000 24.8517
#
#
#
# Elastic Compliance Matrix: (Units=1/GPa)
#
#
# Indices 1 2 3 4 5 6 
#
# 1 0.022338 0.001021 -0.002666 0.000000 0.003567 0.000000
# 2 0.001021 0.017553 -0.000269 0.000000 0.000077 0.000000
# 3 -0.002666 -0.000269 0.009394 0.000000 0.010580 0.000000
# 4 0.000000 0.000000 0.000000 0.031899 0.000000 0.020097
# 5 0.003567 0.000077 0.010580 0.000000 0.047015 0.000000
# 6 0.000000 0.000000 0.000000 0.020097 0.000000 0.052900
#
#
# Mechanical properties :
#
#
# Convention : Reuss Voigt Hill
#
# Bulk Modulus (GPa) = 21.99893 34.09504 28.04698
# Shear Modulus (GPa) = 24.99018 35.12794 30.05906
#
# Velocity S-wave (km/s) = 3.06312 3.63167 3.35945
# Velocity P-wave (km/s) = 4.55741 5.51240 5.05750
#
# Compressibility (1/GPa) = 0.04545676
#
# Stress axis : x y z
#
# Youngs Moduli (GPa) = 44.76656 56.97179 106.45251
#
# Poissons Ratio (x) = -0.05816 0.28376
# Poissons Ratio (y) = -0.04570 0.02866
# Poissons Ratio (z) = 0.11933 0.01534
#
# Static dielectric constant tensor:
#      x y z
#    x 2.247300 0.000000 0.108240 
#    y 0.000000 2.178840 0.000000 
#    z 0.108240 0.000000 2.096070 
# 
# From -- ./inp_files/6520.got.cif
#   From: 2010.05.17/outbox.cif.g08.bks.cpg/sg4_4_cif.got.tgz:6520.got - 2010.06.03 18:43:04.
