data_PCOD9116380
_publ_section_title
;
Structure prediction by ZEFSAII (Michael W. Deem and Ramdas Pophale) SiO2 
 PCOD9116380
Probable space group: P 21
;
_chemical_formula_sum "Si O2"
_cell_formula_units_Z 12
_cell_length_a 7.419287
_cell_length_b 4.959019
_cell_length_c 18.917400
_cell_angle_alpha 90.000000
_cell_angle_beta 44.281788
_cell_angle_gamma 90.000000
_cell_volume 485.950039
_symmetry_space_group_name_H-M "P 21"
_symmetry_group_IT_number 4
_symmetry_cell_setting 'monoclinic'
loop_
_space_group_symop_operation_xyz
x,y,z
-x,1/2+y,-z
loop_
_atom_site_type_symbol
_atom_site_label
_atom_site_fract_x
_atom_site_fract_y
_atom_site_fract_z
Si Si1 0.159798 0.524410 0.147467
Si Si2 0.204888 0.047511 0.222885
Si Si3 0.480543 0.272747 0.744270
Si Si4 0.009013 0.980143 0.952563
Si Si5 0.176252 0.409797 0.447867
Si Si6 0.315024 0.690667 0.668233
O O1 0.306392 0.321763 0.158789
O O2 0.194880 0.477951 0.054664
O O3 0.864502 0.423685 0.246428
O O4 0.205318 0.823503 0.160908
O O5 0.897548 0.078687 0.326428
O O6 0.362018 0.951411 0.244727
O O7 0.255766 0.129087 0.850727
O O8 0.673007 0.047406 0.659287
O O9 0.380870 0.466736 0.709086
O O10 0.933993 0.179834 0.037282
O O11 0.008812 0.149341 0.474495
O O12 0.589324 0.808929 0.567828
#
# Coordination Sequence:
#
# PCOD9116380 Si02
#       6
#     2   2   2   2   2   2
#     4  10  21  43  64 100 140 181 225 288 344 400
#     4  10  23  39  75 100 132 185 233 281 364 404
#     4  12  24  46  77 101 141 191 234 293 349 422
#     4  12  24  41  73 107 139 193 237 281 356 418
#     4  12  25  40  76 105 136 189 241 285 357 421
#     4  10  21  45  71  95 140 185 224 292 346 409
#
# _framework density 24.693897
#
# number of rings (size 3 to 8) (size 9 to 14) (size 15 to 20)
#    1.000    0.000    5.000    2.000    2.333    0.000 
#    0.000    3.333   11.000    0.000    0.000    0.000 
#    0.000    0.000    0.000    0.000    0.000    0.000 
#
# Total GULP energy -67107.272177 kJ/mol
# GULP energy per Si atom -5592.272681 kJ/mol
# Density = 2.463769 g / cm^3
# Si number density = 24.693897 Si / 1000 Ang^3
#
#
#
# Elastic Constant Matrix: (Units=GPa)
#
#
# Indices 1 2 3 4 5 6 
#
# 1 97.6223 11.2058 18.9972 0.0000 -16.3814 0.0000
# 2 11.2058 95.4080 7.8551 0.0000 -3.3725 0.0000
# 3 18.9972 7.8551 68.6869 0.0000 -19.8768 0.0000
# 4 0.0000 0.0000 0.0000 45.1359 0.0000 -1.7499
# 5 -16.3814 -3.3725 -19.8768 0.0000 30.9089 0.0000
# 6 0.0000 0.0000 0.0000 -1.7499 0.0000 39.8243
#
#
#
# Elastic Compliance Matrix: (Units=1/GPa)
#
#
# Indices 1 2 3 4 5 6 
#
# 1 0.011510 -0.001043 -0.001636 0.000000 0.004934 0.000000
# 2 -0.001043 0.010681 -0.000929 0.000000 0.000016 0.000000
# 3 -0.001636 -0.000929 0.018230 0.000000 0.010755 0.000000
# 4 0.000000 0.000000 0.000000 0.022193 0.000000 0.000975
# 5 0.004934 0.000016 0.010755 0.000000 0.041886 0.000000
# 6 0.000000 0.000000 0.000000 0.000975 0.000000 0.025153
#
#
# Mechanical properties :
#
#
# Convention : Reuss Voigt Hill
#
# Bulk Modulus (GPa) = 30.11579 37.53704 33.82641
# Shear Modulus (GPa) = 33.79849 38.08443 35.94146
#
# Velocity S-wave (km/s) = 3.70361 3.93142 3.81921
# Velocity P-wave (km/s) = 5.52368 5.98682 5.75991
#
# Compressibility (1/GPa) = 0.03320517
#
# Stress axis : x y z
#
# Youngs Moduli (GPa) = 86.88404 93.62624 54.85529
#
# Poissons Ratio (x) = 0.09762 0.08976
# Poissons Ratio (y) = 0.09059 0.05094
# Poissons Ratio (z) = 0.14216 0.08694
#
# Static dielectric constant tensor:
#      x y z
#    x 1.981790 0.000000 -0.047370 
#    y 0.000000 1.948400 0.000000 
#    z -0.047370 0.000000 1.995020 
# 
# From -- ./inp_files/15543.got.cif
#   From: 2010.05.17/outbox.cif.g08.bks.cpg/sg4_8_cif.got.tgz:15543.got - 2010.06.03 18:43:04.
