data_PCOD9116664
_publ_section_title
;
Structure prediction by ZEFSAII (Michael W. Deem and Ramdas Pophale) SiO2 
 PCOD9116664
Probable space group: P 21
;
_chemical_formula_sum "Si O2"
_cell_formula_units_Z 14
_cell_length_a 8.058462
_cell_length_b 8.805913
_cell_length_c 9.743230
_cell_angle_alpha 90.000000
_cell_angle_beta 118.576201
_cell_angle_gamma 90.000000
_cell_volume 607.175036
_symmetry_space_group_name_H-M "P 21"
_symmetry_group_IT_number 4
_symmetry_cell_setting 'monoclinic'
loop_
_space_group_symop_operation_xyz
x,y,z
-x,1/2+y,-z
loop_
_atom_site_type_symbol
_atom_site_label
_atom_site_fract_x
_atom_site_fract_y
_atom_site_fract_z
Si Si1 0.527530 0.608030 0.027663
Si Si2 0.227812 0.829651 0.939472
Si Si3 0.854217 0.358860 0.794164
Si Si4 0.196137 0.673166 0.498908
Si Si5 0.271842 0.364972 0.015965
Si Si6 0.914305 0.837740 0.597248
Si Si7 0.355203 0.171444 0.315537
O O1 0.645484 0.481092 0.995111
O O2 0.667075 0.753034 0.087539
O O3 0.342669 0.699116 0.903342
O O4 0.428564 0.496705 0.099258
O O5 0.044293 0.870355 0.781841
O O6 0.190543 0.779010 0.079128
O O7 0.849380 0.241231 0.668876
O O8 0.710707 0.496778 0.711563
O O9 0.065329 0.425535 0.898488
O O10 0.053469 0.754858 0.546814
O O11 0.420635 0.693681 0.605699
O O12 0.155302 0.495169 0.490699
O O13 0.272285 0.259403 0.150004
O O14 0.737782 0.741917 0.584125
#
# Coordination Sequence:
#
# PCOD9116664 Si02
#       7
#     2   2   2   2   2   2   2
#     4  10  22  39  66 111 141 183 233 306 361 421
#     4  11  23  45  73 110 145 187 246 309 359 433
#     4  12  26  46  75 111 144 192 247 302 368 434
#     4  12  29  50  75 109 150 200 242 298 378 444
#     4  11  23  42  73 104 146 187 244 304 362 424
#     4  12  27  50  77 104 152 197 244 302 371 439
#     4  12  26  50  73 107 152 194 242 307 363 441
#
# _framework density 23.057601999999999
#
# number of rings (size 3 to 8) (size 9 to 14) (size 15 to 20)
#    0.000    0.571    2.857    5.143    2.000    1.143 
#   12.857    0.000    0.000    0.000    0.000    0.000 
#    0.000    0.000    0.000    0.000    0.000    0.000 
#
# Total GULP energy -78142.199909 kJ/mol
# GULP energy per Si atom -5581.585708 kJ/mol
# Density = 2.300512 g / cm^3
# Si number density = 23.057602 Si / 1000 Ang^3
#
#
#
# Elastic Constant Matrix: (Units=GPa)
#
#
# Indices 1 2 3 4 5 6 
#
# 1 159.3447 50.2812 44.2636 0.0000 -10.4132 0.0000
# 2 50.2812 72.3127 17.4537 0.0000 -5.1349 0.0000
# 3 44.2636 17.4537 57.6603 0.0000 -5.8453 0.0000
# 4 0.0000 0.0000 0.0000 23.4997 0.0000 -5.7113
# 5 -10.4132 -5.1349 -5.8453 0.0000 23.5255 0.0000
# 6 0.0000 0.0000 0.0000 -5.7113 0.0000 47.4894
#
#
#
# Elastic Compliance Matrix: (Units=1/GPa)
#
#
# Indices 1 2 3 4 5 6 
#
# 1 0.009584 -0.005187 -0.005613 0.000000 0.001715 0.000000
# 2 -0.005187 0.017837 -0.001288 0.000000 0.001277 0.000000
# 3 -0.005613 -0.001288 0.022324 0.000000 0.002781 0.000000
# 4 0.000000 0.000000 0.000000 0.043835 0.000000 0.005272
# 5 0.001715 0.001277 0.002781 0.000000 0.044236 0.000000
# 6 0.000000 0.000000 0.000000 0.005272 0.000000 0.021691
#
#
# Mechanical properties :
#
#
# Convention : Reuss Voigt Hill
#
# Bulk Modulus (GPa) = 39.11066 57.03496 48.07281
# Shear Modulus (GPa) = 26.01371 30.72421 28.36896
#
# Velocity S-wave (km/s) = 3.36252 3.65430 3.51144
# Velocity P-wave (km/s) = 5.66342 6.52647 6.11020
#
# Compressibility (1/GPa) = 0.02556848
#
# Stress axis : x y z
#
# Youngs Moduli (GPa) = 104.34157 56.06239 44.79562
#
# Poissons Ratio (x) = 0.29082 0.25144
# Poissons Ratio (y) = 0.54126 0.05768
# Poissons Ratio (z) = 0.58568 0.07219
#
# Static dielectric constant tensor:
#      x y z
#    x 1.915840 0.000000 -0.041970 
#    y 0.000000 1.840870 0.000000 
#    z -0.041970 0.000000 1.842100 
# 
# From -- ./inp_files/5714.got.cif
#   From: 2010.05.17/outbox.cif.g08.bks.cpg/sg4_3_cif.got.tgz:5714.got - 2010.06.03 18:43:04.
