data_PCOD9116026
_publ_section_title
;
Structure prediction by ZEFSAII (Michael W. Deem and Ramdas Pophale) SiO2 
 PCOD9116026
Probable space group: P 21
;
_chemical_formula_sum "Si O2"
_cell_formula_units_Z 16
_cell_length_a 25.381569
_cell_length_b 4.888298
_cell_length_c 15.437051
_cell_angle_alpha 90.000000
_cell_angle_beta 18.617922
_cell_angle_gamma 90.000000
_cell_volume 611.475711
_symmetry_space_group_name_H-M "P 21"
_symmetry_group_IT_number 4
_symmetry_cell_setting 'monoclinic'
loop_
_space_group_symop_operation_xyz
x,y,z
-x,1/2+y,-z
loop_
_atom_site_type_symbol
_atom_site_label
_atom_site_fract_x
_atom_site_fract_y
_atom_site_fract_z
Si Si1 0.123830 0.521950 0.663649
Si Si2 0.894240 0.255591 0.673037
Si Si3 0.573085 0.312042 0.619146
Si Si4 0.431901 0.225346 0.652868
Si Si5 0.539026 0.858686 0.784462
Si Si6 0.118396 0.524897 0.126772
Si Si7 0.209248 0.700159 0.350468
Si Si8 0.902586 0.057613 0.034683
O O1 0.311436 0.521287 0.403470
O O2 0.144079 0.503663 0.527755
O O3 0.050374 0.260084 0.825435
O O4 0.991218 0.762147 0.891371
O O5 0.793727 0.138381 0.747660
O O6 0.939378 0.572026 0.594107
O O7 0.834096 0.196901 0.863077
O O8 0.496748 0.341688 0.642998
O O9 0.588903 0.592388 0.649036
O O10 0.462127 0.090739 0.842219
O O11 0.746362 0.146113 0.334543
O O12 0.506990 0.422452 0.461708
O O13 0.236270 0.260875 0.949687
O O14 0.398494 0.775054 0.071533
O O15 0.149097 0.635946 0.983259
O O16 0.927711 0.438054 0.429125
#
# Coordination Sequence:
#
# PCOD9116026 Si02
#       8
#     2   2   2   2   2   2   2   2
#     4  11  26  47  77 105 137 194 255 315 368 436
#     4  10  21  39  64 101 141 184 231 288 358 433
#     4  12  27  48  75 107 156 193 249 305 373 450
#     4  12  26  43  72 108 149 194 240 292 366 444
#     4  12  28  48  72 110 148 197 248 318 374 433
#     4  10  23  43  71 107 144 193 239 296 361 448
#     4  10  25  45  74 104 150 190 249 303 372 442
#     4  11  24  47  75 106 143 193 251 301 376 438
#
# _framework density 26.166208999999998
#
# number of rings (size 3 to 8) (size 9 to 14) (size 15 to 20)
#    0.000    1.000    1.250    3.750    3.500   15.000 
#    0.000    0.000    0.000    0.000    0.000    0.000 
#    0.000    0.000    0.000    0.000    0.000    0.000 
#
# Total GULP energy -89453.405672 kJ/mol
# GULP energy per Si atom -5590.837854 kJ/mol
# Density = 2.610665 g / cm^3
# Si number density = 26.166209 Si / 1000 Ang^3
#
#
#
# Elastic Constant Matrix: (Units=GPa)
#
#
# Indices 1 2 3 4 5 6 
#
# 1 97.8897 26.9925 35.8427 0.0000 9.2431 0.0000
# 2 26.9925 111.9977 18.3115 0.0000 9.4909 0.0000
# 3 35.8427 18.3115 105.1752 0.0000 -3.5556 0.0000
# 4 0.0000 0.0000 0.0000 24.4490 0.0000 -1.8295
# 5 9.2431 9.4909 -3.5556 0.0000 35.1822 0.0000
# 6 0.0000 0.0000 0.0000 -1.8295 0.0000 25.0587
#
#
#
# Elastic Compliance Matrix: (Units=1/GPa)
#
#
# Indices 1 2 3 4 5 6 
#
# 1 0.012565 -0.002105 -0.004022 0.000000 -0.003140 0.000000
# 2 -0.002105 0.009796 -0.001063 0.000000 -0.002197 0.000000
# 3 -0.004022 -0.001063 0.011147 0.000000 0.002470 0.000000
# 4 0.000000 0.000000 0.000000 0.041126 0.000000 0.003002
# 5 -0.003140 -0.002197 0.002470 0.000000 0.030091 0.000000
# 6 0.000000 0.000000 0.000000 0.003002 0.000000 0.040125
#
#
# Mechanical properties :
#
#
# Convention : Reuss Voigt Hill
#
# Bulk Modulus (GPa) = 52.27388 53.03954 52.65671
# Shear Modulus (GPa) = 30.19241 32.53239 31.36240
#
# Velocity S-wave (km/s) = 3.40055 3.52987 3.46581
# Velocity P-wave (km/s) = 5.95309 6.07680 6.01527
#
# Compressibility (1/GPa) = 0.01913001
#
# Stress axis : x y z
#
# Youngs Moduli (GPa) = 79.58638 102.08350 89.71026
#
# Poissons Ratio (x) = 0.21485 0.36079
# Poissons Ratio (y) = 0.16750 0.09532
# Poissons Ratio (z) = 0.32007 0.10847
#
# Static dielectric constant tensor:
#      x y z
#    x 2.095730 0.000000 -0.023800 
#    y 0.000000 2.029910 0.000000 
#    z -0.023800 0.000000 2.136440 
# 
# From -- ./inp_files/14519.got.cif
#   From: 2010.05.17/outbox.cif.g08.bks.cpg/sg4_8_cif.got.tgz:14519.got - 2010.06.03 18:43:04.
