data_PCOD9116067
_publ_section_title
;
Structure prediction by ZEFSAII (Michael W. Deem and Ramdas Pophale) SiO2 
 PCOD9116067
Probable space group: P 21
;
_chemical_formula_sum "Si O2"
_cell_formula_units_Z 16
_cell_length_a 23.005061
_cell_length_b 5.319777
_cell_length_c 14.414212
_cell_angle_alpha 90.000000
_cell_angle_beta 158.567111
_cell_angle_gamma 90.000000
_cell_volume 644.598872
_symmetry_space_group_name_H-M "P 21"
_symmetry_group_IT_number 4
_symmetry_cell_setting 'monoclinic'
loop_
_space_group_symop_operation_xyz
x,y,z
-x,1/2+y,-z
loop_
_atom_site_type_symbol
_atom_site_label
_atom_site_fract_x
_atom_site_fract_y
_atom_site_fract_z
Si Si1 0.002503 0.272590 0.715354
Si Si2 0.694133 0.064134 0.820419
Si Si3 0.403496 0.217592 0.499969
Si Si4 0.824414 0.690120 0.526642
Si Si5 0.670151 0.839523 0.118080
Si Si6 0.862055 0.423183 0.944794
Si Si7 0.921884 0.600647 0.356889
Si Si8 0.479103 0.351277 0.808605
O O1 0.843438 0.426548 0.499900
O O2 0.059850 0.069676 0.725419
O O3 0.046015 0.161344 0.879313
O O4 0.135945 0.481265 0.887956
O O5 0.563110 0.077352 0.704796
O O6 0.643027 0.879471 0.660366
O O7 0.731132 0.323896 0.823720
O O8 0.441200 0.390538 0.643586
O O9 0.257450 0.030073 0.310131
O O10 0.678290 0.746608 0.375596
O O11 0.989388 0.730383 0.830087
O O12 0.783179 0.866574 0.376593
O O13 0.541436 0.615071 0.943597
O O14 0.597977 0.112304 0.990773
O O15 0.771358 0.726669 0.182666
O O16 0.947685 0.323857 0.435801
#
# Coordination Sequence:
#
# PCOD9116067 Si02
#       8
#     2   2   2   2   2   2   2   2
#     4  10  23  40  69 102 136 190 234 303 367 437
#     4  10  21  39  69 100 135 178 229 302 372 439
#     4  11  23  44  70 105 140 183 241 297 379 439
#     4  11  25  50  70 103 146 194 255 292 370 435
#     4  12  27  48  74 108 148 199 245 303 369 431
#     4  10  23  42  74  96 137 191 233 306 365 432
#     4  12  24  41  69 108 145 184 237 308 363 442
#     4  12  30  46  77 106 149 199 246 307 355 449
#
# _framework density 24.821636999999999
#
# number of rings (size 3 to 8) (size 9 to 14) (size 15 to 20)
#    0.000    1.000    2.500    3.000    8.750    0.000 
#    6.750    0.000    0.000    0.000    0.000    0.000 
#    0.000    0.000    0.000    0.000    0.000    0.000 
#
# Total GULP energy -89199.528005 kJ/mol
# GULP energy per Si atom -5574.970500 kJ/mol
# Density = 2.476514 g / cm^3
# Si number density = 24.821637 Si / 1000 Ang^3
#
#
#
# Elastic Constant Matrix: (Units=GPa)
#
#
# Indices 1 2 3 4 5 6 
#
# 1 76.2023 -11.9838 8.5781 0.0000 23.4621 0.0000
# 2 -11.9838 89.5482 7.8396 0.0000 4.3012 0.0000
# 3 8.5781 7.8396 32.4295 0.0000 21.5187 0.0000
# 4 0.0000 0.0000 0.0000 44.3059 0.0000 1.4426
# 5 23.4621 4.3012 21.5187 0.0000 37.2586 0.0000
# 6 0.0000 0.0000 0.0000 1.4426 0.0000 20.6583
#
#
#
# Elastic Compliance Matrix: (Units=1/GPa)
#
#
# Indices 1 2 3 4 5 6 
#
# 1 0.017196 0.002622 0.003573 0.000000 -0.013194 0.000000
# 2 0.002622 0.011813 -0.002511 0.000000 -0.001565 0.000000
# 3 0.003573 -0.002511 0.051557 0.000000 -0.031737 0.000000
# 4 0.000000 0.000000 0.000000 0.022622 0.000000 -0.001580
# 5 -0.013194 -0.001565 -0.031737 0.000000 0.053658 0.000000
# 6 0.000000 0.000000 0.000000 -0.001580 0.000000 0.048517
#
#
# Mechanical properties :
#
#
# Convention : Reuss Voigt Hill
#
# Bulk Modulus (GPa) = 11.37224 23.00533 17.18879
# Shear Modulus (GPa) = 21.99674 33.36097 27.67885
#
# Velocity S-wave (km/s) = 2.98013 3.67008 3.34295
# Velocity P-wave (km/s) = 4.05377 5.21993 4.67337
#
# Compressibility (1/GPa) = 0.08793340
#
# Stress axis : x y z
#
# Youngs Moduli (GPa) = 58.15443 84.65193 19.39598
#
# Poissons Ratio (x) = -0.22197 -0.06930
# Poissons Ratio (y) = -0.15249 0.04871
# Poissons Ratio (z) = -0.20777 0.21257
#
# Static dielectric constant tensor:
#      x y z
#    x 1.948640 0.000000 -0.035380 
#    y 0.000000 2.083040 0.000000 
#    z -0.035380 0.000000 2.108160 
# 
# From -- ./inp_files/13832.got.cif
#   From: 2010.05.17/outbox.cif.g08.bks.cpg/sg4_7_cif.got.tgz:13832.got - 2010.06.03 18:43:04.
