data_PCOD9116474
_publ_section_title
;
Structure prediction by ZEFSAII (Michael W. Deem and Ramdas Pophale) SiO2 
 PCOD9116474
Probable space group: P 21
;
_chemical_formula_sum "Si O2"
_cell_formula_units_Z 16
_cell_length_a 6.964311
_cell_length_b 5.215113
_cell_length_c 22.943194
_cell_angle_alpha 90.000000
_cell_angle_beta 54.882319
_cell_angle_gamma 90.000000
_cell_volume 681.607437
_symmetry_space_group_name_H-M "P 21"
_symmetry_group_IT_number 4
_symmetry_cell_setting 'monoclinic'
loop_
_space_group_symop_operation_xyz
x,y,z
-x,1/2+y,-z
loop_
_atom_site_type_symbol
_atom_site_label
_atom_site_fract_x
_atom_site_fract_y
_atom_site_fract_z
Si Si1 0.491145 0.384960 0.724104
Si Si2 0.980398 0.167019 0.850857
Si Si3 0.281742 0.582069 0.217003
Si Si4 0.418975 0.303114 0.605980
Si Si5 0.919079 0.333538 0.478965
Si Si6 0.034364 0.411011 0.956885
Si Si7 0.700578 0.260125 0.165227
Si Si8 0.100632 0.801933 0.648612
O O1 0.235027 0.262441 0.783007
O O2 0.684360 0.271388 0.734022
O O3 0.535794 0.335109 0.649343
O O4 0.439292 0.675252 0.752552
O O5 0.810826 0.195879 0.826513
O O6 0.898020 0.314758 0.922982
O O7 0.051149 0.880425 0.859515
O O8 0.536248 0.462573 0.162884
O O9 0.095822 0.364947 0.269094
O O10 0.635649 0.327753 0.524266
O O11 0.231887 0.532163 0.632903
O O12 0.288253 0.033176 0.622725
O O13 0.008037 0.315126 0.397231
O O14 0.998180 0.591616 0.497445
O O15 0.265995 0.527361 0.885350
O O16 0.938734 0.658327 0.008284
#
# Coordination Sequence:
#
# PCOD9116474 Si02
#       8
#     2   2   2   2   2   2   2   2
#     4  10  23  39  66 100 143 182 232 295 351 415
#     4  10  21  44  69 104 137 187 229 291 349 422
#     4  11  24  41  71 107 145 181 242 292 356 422
#     4  12  25  45  69  98 142 186 247 289 363 425
#     4  12  26  45  70 100 143 187 247 305 358 427
#     4  11  22  44  78  99 138 193 232 282 359 422
#     4  10  23  40  73 100 141 178 237 287 352 412
#     4  12  26  44  70 102 139 194 238 295 366 423
#
# _framework density 23.473922000000002
#
# number of rings (size 3 to 8) (size 9 to 14) (size 15 to 20)
#    0.000    1.000    2.500    3.750    5.250    2.000 
#    0.000    0.000   11.000    0.000    0.000    0.000 
#    0.000    0.000    0.000    0.000    0.000    0.000 
#
# Total GULP energy -89470.742505 kJ/mol
# GULP energy per Si atom -5591.921407 kJ/mol
# Density = 2.342049 g / cm^3
# Si number density = 23.473922 Si / 1000 Ang^3
#
#
#
# Elastic Constant Matrix: (Units=GPa)
#
#
# Indices 1 2 3 4 5 6 
#
# 1 116.4969 30.1821 16.0296 0.0000 33.5711 0.0000
# 2 30.1821 105.4378 15.1491 0.0000 8.2415 0.0000
# 3 16.0296 15.1491 80.4182 0.0000 30.6353 0.0000
# 4 0.0000 0.0000 0.0000 35.6583 0.0000 0.4203
# 5 33.5711 8.2415 30.6353 0.0000 39.0160 0.0000
# 6 0.0000 0.0000 0.0000 0.4203 0.0000 35.0460
#
#
#
# Elastic Compliance Matrix: (Units=1/GPa)
#
#
# Indices 1 2 3 4 5 6 
#
# 1 0.012537 -0.003023 0.002763 0.000000 -0.012318 0.000000
# 2 -0.003023 0.010498 -0.002170 0.000000 0.002088 0.000000
# 3 0.002763 -0.002170 0.018583 0.000000 -0.016510 0.000000
# 4 0.000000 0.000000 0.000000 0.028048 0.000000 -0.000336
# 5 -0.012318 0.002088 -0.016510 0.000000 0.048752 0.000000
# 6 0.000000 0.000000 0.000000 -0.000336 0.000000 0.028538
#
#
# Mechanical properties :
#
#
# Convention : Reuss Voigt Hill
#
# Bulk Modulus (GPa) = 27.20551 47.23049 37.21800
# Shear Modulus (GPa) = 30.47514 38.01019 34.24267
#
# Velocity S-wave (km/s) = 3.60704 4.02836 3.82351
# Velocity P-wave (km/s) = 5.38168 6.46537 5.94825
#
# Compressibility (1/GPa) = 0.03675726
#
# Stress axis : x y z
#
# Youngs Moduli (GPa) = 79.76638 95.25414 53.81379
#
# Poissons Ratio (x) = 0.28794 -0.14869
# Poissons Ratio (y) = 0.24112 0.11680
# Poissons Ratio (z) = -0.22040 0.20674
#
# Static dielectric constant tensor:
#      x y z
#    x 1.864550 0.000000 0.008510 
#    y 0.000000 1.991020 0.000000 
#    z 0.008510 0.000000 1.920360 
# 
# From -- ./inp_files/16013.got.cif
#   From: 2010.05.17/outbox.cif.g08.bks.cpg/sg4_9_cif.got.tgz:16013.got - 2010.06.03 18:43:04.
