data_PCOD9116901
_publ_section_title
;
Structure prediction by ZEFSAII (Michael W. Deem and Ramdas Pophale) SiO2 
 PCOD9116901
Probable space group: P 21
;
_chemical_formula_sum "Si O2"
_cell_formula_units_Z 16
_cell_length_a 7.930164
_cell_length_b 10.912663
_cell_length_c 12.041194
_cell_angle_alpha 90.000000
_cell_angle_beta 142.876400
_cell_angle_gamma 90.000000
_cell_volume 628.906346
_symmetry_space_group_name_H-M "P 21"
_symmetry_group_IT_number 4
_symmetry_cell_setting 'monoclinic'
loop_
_space_group_symop_operation_xyz
x,y,z
-x,1/2+y,-z
loop_
_atom_site_type_symbol
_atom_site_label
_atom_site_fract_x
_atom_site_fract_y
_atom_site_fract_z
Si Si1 0.735608 0.635620 0.478084
Si Si2 0.278746 0.380389 0.757371
Si Si3 0.219204 0.999770 0.263491
Si Si4 0.306750 0.647976 0.821237
Si Si5 0.806311 0.911281 0.524354
Si Si6 0.115976 0.845891 0.889386
Si Si7 0.820096 0.038625 0.860973
Si Si8 0.088794 0.243176 0.858868
O O1 0.761525 0.551855 0.601464
O O2 0.672652 0.775841 0.479207
O O3 0.497491 0.574237 0.279196
O O4 0.051663 0.652237 0.599928
O O5 0.333012 0.503525 0.857454
O O6 0.104713 0.406294 0.556352
O O7 0.149206 0.271862 0.760891
O O8 0.600395 0.358703 0.891568
O O9 0.542930 0.999300 0.397625
O O10 0.065141 0.867609 0.185598
O O11 0.034046 0.066465 0.072663
O O12 0.184690 0.718266 0.864179
O O13 0.593521 0.711077 0.935303
O O14 0.052035 0.924193 0.742601
O O15 0.874677 0.900771 0.842233
O O16 0.905389 0.131370 0.806469
#
# Coordination Sequence:
#
# PCOD9116901 Si02
#       8
#     2   2   2   2   2   2   2   2
#     4  11  25  45  68 107 143 180 245 304 356 424
#     4  11  22  47  69 101 148 190 235 299 364 428
#     4  12  24  44  74 104 145 187 246 301 359 435
#     4  10  22  44  69  98 147 181 230 294 354 423
#     4  11  23  43  72 102 144 189 236 300 364 421
#     4  10  22  41  69 103 139 183 238 290 358 424
#     4  12  24  45  73 106 143 193 238 297 371 427
#     4  11  24  45  72 103 143 191 240 297 362 430
#
# _framework density 25.440988999999998
#
# number of rings (size 3 to 8) (size 9 to 14) (size 15 to 20)
#    0.000    1.000    6.250    0.000    0.000    5.000 
#   11.250    1.250    0.000    0.000    0.000    0.000 
#    0.000    0.000    0.000    0.000    0.000    0.000 
#
# Total GULP energy -89151.805253 kJ/mol
# GULP energy per Si atom -5571.987828 kJ/mol
# Density = 2.538308 g / cm^3
# Si number density = 25.440989 Si / 1000 Ang^3
#
#
#
# Elastic Constant Matrix: (Units=GPa)
#
#
# Indices 1 2 3 4 5 6 
#
# 1 58.9038 11.2307 17.1739 0.0000 8.6021 0.0000
# 2 11.2307 91.7477 -0.0801 0.0000 -9.1428 0.0000
# 3 17.1739 -0.0801 109.3229 0.0000 -9.3911 0.0000
# 4 0.0000 0.0000 0.0000 31.3820 0.0000 2.2885
# 5 8.6021 -9.1428 -9.3911 0.0000 40.5031 0.0000
# 6 0.0000 0.0000 0.0000 2.2885 0.0000 36.1250
#
#
#
# Elastic Compliance Matrix: (Units=1/GPa)
#
#
# Indices 1 2 3 4 5 6 
#
# 1 0.019382 -0.002933 -0.003528 0.000000 -0.005596 0.000000
# 2 -0.002933 0.011600 0.000763 0.000000 0.003418 0.000000
# 3 -0.003528 0.000763 0.009980 0.000000 0.003235 0.000000
# 4 0.000000 0.000000 0.000000 0.032013 0.000000 -0.002028
# 5 -0.005596 0.003418 0.003235 0.000000 0.027400 0.000000
# 6 0.000000 0.000000 0.000000 -0.002028 0.000000 0.027810
#
#
# Mechanical properties :
#
#
# Convention : Reuss Voigt Hill
#
# Bulk Modulus (GPa) = 33.82309 35.18036 34.50173
# Shear Modulus (GPa) = 33.45913 37.04534 35.25223
#
# Velocity S-wave (km/s) = 3.63046 3.82006 3.72647
# Velocity P-wave (km/s) = 5.55853 5.77195 5.66624
#
# Compressibility (1/GPa) = 0.02956560
#
# Stress axis : x y z
#
# Youngs Moduli (GPa) = 51.59457 86.20821 100.20163
#
# Poissons Ratio (x) = 0.25287 0.35348
# Poissons Ratio (y) = 0.15134 -0.07645
# Poissons Ratio (z) = 0.18201 -0.06577
#
# Static dielectric constant tensor:
#      x y z
#    x 2.036000 0.000000 0.026300 
#    y 0.000000 2.123150 0.000000 
#    z 0.026300 0.000000 2.013630 
# 
# From -- ./inp_files/11294.got.cif
#   From: 2010.05.17/outbox.cif.g08.bks.cpg/sg4_6_cif.got.tgz:11294.got - 2010.06.03 18:43:04.
