data_PCOD9116777
_publ_section_title
;
Structure prediction by ZEFSAII (Michael W. Deem and Ramdas Pophale) SiO2 
 PCOD9116777
Probable space group: P 21
;
_chemical_formula_sum "Si O2"
_cell_formula_units_Z 16
_cell_length_a 8.957970
_cell_length_b 7.784763
_cell_length_c 14.858688
_cell_angle_alpha 90.000000
_cell_angle_beta 44.628338
_cell_angle_gamma 90.000000
_cell_volume 727.922196
_symmetry_space_group_name_H-M "P 21"
_symmetry_group_IT_number 4
_symmetry_cell_setting 'monoclinic'
loop_
_space_group_symop_operation_xyz
x,y,z
-x,1/2+y,-z
loop_
_atom_site_type_symbol
_atom_site_label
_atom_site_fract_x
_atom_site_fract_y
_atom_site_fract_z
Si Si1 0.739847 0.213090 0.958433
Si Si2 0.235403 0.443640 0.650987
Si Si3 0.559955 0.849848 0.066845
Si Si4 0.249798 0.936432 0.866797
Si Si5 0.686802 0.290841 0.491568
Si Si6 0.970792 0.615543 0.321388
Si Si7 0.334494 0.649920 0.311419
Si Si8 0.015733 0.148601 0.097155
O O1 0.610961 0.309265 0.935506
O O2 0.940339 0.133792 0.818511
O O3 0.740772 0.338716 0.041953
O O4 0.613513 0.046818 0.043947
O O5 0.443063 0.352379 0.602082
O O6 0.294743 0.622153 0.577780
O O7 0.138039 0.303757 0.623247
O O8 0.074391 0.501173 0.799257
O O9 0.466599 0.794794 0.202169
O O10 0.768093 0.733982 0.959607
O O11 0.157352 0.799248 0.837489
O O12 0.481569 0.010660 0.744557
O O13 0.077894 0.082351 0.969588
O O14 0.817600 0.453419 0.398581
O O15 0.762859 0.229243 0.557150
O O16 0.158946 0.591411 0.313886
#
# Coordination Sequence:
#
# PCOD9116777 Si02
#       8
#     2   2   2   2   2   2   2   2
#     4  11  21  42  68 101 138 177 227 283 352 419
#     4  12  27  46  72  98 135 190 234 284 344 418
#     4  10  22  40  68 102 137 175 223 284 352 421
#     4  11  24  41  71 105 141 174 222 292 356 421
#     4  12  28  48  69 100 140 185 240 287 340 413
#     4  11  25  50  72 100 138 186 235 289 343 413
#     4  10  27  46  69 105 136 179 234 290 350 414
#     4  11  24  41  67 105 135 182 221 283 359 417
#
# _framework density 21.980371999999999
#
# number of rings (size 3 to 8) (size 9 to 14) (size 15 to 20)
#    0.000    1.000    2.500    3.750   10.500    1.000 
#    0.000    0.000    0.000    0.000    0.000    0.000 
#    0.000    0.000    0.000    0.000    0.000    0.000 
#
# Total GULP energy -89441.157404 kJ/mol
# GULP energy per Si atom -5590.072338 kJ/mol
# Density = 2.193034 g / cm^3
# Si number density = 21.980372 Si / 1000 Ang^3
#
#
#
# Elastic Constant Matrix: (Units=GPa)
#
#
# Indices 1 2 3 4 5 6 
#
# 1 42.3630 14.9484 17.4784 0.0000 2.0098 0.0000
# 2 14.9484 103.0343 13.6889 0.0000 -5.9066 0.0000
# 3 17.4784 13.6889 47.7021 0.0000 2.9076 0.0000
# 4 0.0000 0.0000 0.0000 38.4735 0.0000 -4.6360
# 5 2.0098 -5.9066 2.9076 0.0000 26.0309 0.0000
# 6 0.0000 0.0000 0.0000 -4.6360 0.0000 29.8479
#
#
#
# Elastic Compliance Matrix: (Units=1/GPa)
#
#
# Indices 1 2 3 4 5 6 
#
# 1 0.028686 -0.002999 -0.009538 0.000000 -0.001830 0.000000
# 2 -0.002999 0.010586 -0.002114 0.000000 0.002870 0.000000
# 3 -0.009538 -0.002114 0.025221 0.000000 -0.002560 0.000000
# 4 0.000000 0.000000 0.000000 0.026488 0.000000 0.004114
# 5 -0.001830 0.002870 -0.002560 0.000000 0.039494 0.000000
# 6 0.000000 0.000000 0.000000 0.004114 0.000000 0.034142
#
#
# Mechanical properties :
#
#
# Convention : Reuss Voigt Hill
#
# Bulk Modulus (GPa) = 28.41733 31.70343 30.06038
# Shear Modulus (GPa) = 24.31305 28.66936 26.49120
#
# Velocity S-wave (km/s) = 3.32945 3.61545 3.47540
# Velocity P-wave (km/s) = 5.26659 5.64654 5.45987
#
# Compressibility (1/GPa) = 0.03518979
#
# Stress axis : x y z
#
# Youngs Moduli (GPa) = 34.85999 94.46428 39.64947
#
# Poissons Ratio (x) = 0.28334 0.37820
# Poissons Ratio (y) = 0.10456 0.08381
# Poissons Ratio (z) = 0.33251 0.19967
#
# Static dielectric constant tensor:
#      x y z
#    x 1.820060 0.000000 -0.022790 
#    y 0.000000 1.807720 0.000000 
#    z -0.022790 0.000000 1.832090 
# 
# From -- ./inp_files/13654.got.cif
#   From: 2010.05.17/outbox.cif.g08.bks.cpg/sg4_7_cif.got.tgz:13654.got - 2010.06.03 18:43:04.
