data_PCOD9116589
_publ_section_title
;
Structure prediction by ZEFSAII (Michael W. Deem and Ramdas Pophale) SiO2 
 PCOD9116589
Probable space group: P 21
;
_chemical_formula_sum "Si O2"
_cell_formula_units_Z 14
_cell_length_a 10.433682
_cell_length_b 9.549482
_cell_length_c 11.219807
_cell_angle_alpha 90.000000
_cell_angle_beta 36.864810
_cell_angle_gamma 90.000000
_cell_volume 670.660339
_symmetry_space_group_name_H-M "P 21"
_symmetry_group_IT_number 4
_symmetry_cell_setting 'monoclinic'
loop_
_space_group_symop_operation_xyz
x,y,z
-x,1/2+y,-z
loop_
_atom_site_type_symbol
_atom_site_label
_atom_site_fract_x
_atom_site_fract_y
_atom_site_fract_z
Si Si1 0.002498 0.396250 0.614160
Si Si2 0.706519 0.333994 0.205730
Si Si3 0.252084 0.664197 0.346478
Si Si4 0.703352 0.561680 0.020202
Si Si5 0.692891 0.670405 0.489196
Si Si6 0.363862 0.871365 0.463394
Si Si7 0.187205 0.261327 0.858427
O O1 0.866804 0.284005 0.639617
O O2 0.124851 0.518348 0.450493
O O3 0.169764 0.297334 0.559996
O O4 0.847253 0.480421 0.819165
O O5 0.621169 0.452405 0.180876
O O6 0.554997 0.201214 0.299055
O O7 0.681730 0.364848 0.363145
O O8 0.956844 0.318753 0.995963
O O9 0.493010 0.633741 0.122036
O O10 0.282760 0.735194 0.454056
O O11 0.832183 0.671618 0.006249
O O12 0.739534 0.516135 0.503858
O O13 0.732121 0.675133 0.317261
O O14 0.621685 0.870098 0.259711
#
# Coordination Sequence:
#
# PCOD9116589 Si02
#       7
#     2   2   2   2   2   2   2
#     4  12  25  46  72  92 135 183 225 277 332 390
#     4  11  21  37  65  96 136 169 212 274 335 402
#     4  11  26  48  67  97 134 180 229 275 328 399
#     4  11  23  43  67  98 132 171 225 277 328 397
#     4  11  22  37  65 100 132 175 219 270 336 399
#     4  10  23  40  64 100 136 172 221 270 338 401
#     4  10  22  37  64  99 135 176 211 273 339 394
#
# _framework density 20.874946999999999
#
# number of rings (size 3 to 8) (size 9 to 14) (size 15 to 20)
#    0.000    1.143    4.286    1.714    2.000    1.143 
#    2.571    1.429    0.000    0.000    0.000    0.000 
#    0.000    0.000    0.000    0.000    0.000    0.000 
#
# Total GULP energy -78130.391784 kJ/mol
# GULP energy per Si atom -5580.742270 kJ/mol
# Density = 2.082743 g / cm^3
# Si number density = 20.874947 Si / 1000 Ang^3
#
#
#
# Elastic Constant Matrix: (Units=GPa)
#
#
# Indices 1 2 3 4 5 6 
#
# 1 73.0111 27.3398 21.8941 0.0000 -21.8269 0.0000
# 2 27.3398 109.5615 16.7830 0.0000 -18.7954 0.0000
# 3 21.8941 16.7830 61.3556 0.0000 -15.7363 0.0000
# 4 0.0000 0.0000 0.0000 24.5676 0.0000 -5.6336
# 5 -21.8269 -18.7954 -15.7363 0.0000 22.1032 0.0000
# 6 0.0000 0.0000 0.0000 -5.6336 0.0000 39.2610
#
#
#
# Elastic Compliance Matrix: (Units=1/GPa)
#
#
# Indices 1 2 3 4 5 6 
#
# 1 0.020038 -0.001792 -0.002417 0.000000 0.016543 0.000000
# 2 -0.001792 0.010873 -0.000510 0.000000 0.007113 0.000000
# 3 -0.002417 -0.000510 0.020280 0.000000 0.011617 0.000000
# 4 0.000000 0.000000 0.000000 0.042089 0.000000 0.006039
# 5 0.016543 0.007113 0.011617 0.000000 0.075897 0.000000
# 6 0.000000 0.000000 0.000000 0.006039 0.000000 0.026337
#
#
# Mechanical properties :
#
#
# Convention : Reuss Voigt Hill
#
# Bulk Modulus (GPa) = 23.95126 41.77356 32.86241
# Shear Modulus (GPa) = 22.84448 29.04711 25.94580
#
# Velocity S-wave (km/s) = 3.31168 3.73430 3.52933
# Velocity P-wave (km/s) = 5.11093 6.21676 5.69077
#
# Compressibility (1/GPa) = 0.04175145
#
# Stress axis : x y z
#
# Youngs Moduli (GPa) = 49.90519 91.97222 49.30916
#
# Poissons Ratio (x) = 0.16482 0.11920
# Poissons Ratio (y) = 0.08943 0.02517
# Poissons Ratio (z) = 0.12064 0.04694
#
# Static dielectric constant tensor:
#      x y z
#    x 1.748700 0.000000 -0.020270 
#    y 0.000000 1.776540 0.000000 
#    z -0.020270 0.000000 1.740090 
# 
# From -- ./inp_files/2382.got.cif
#   From: 2010.05.17/outbox.cif.g08.bks.cpg/sg4_2_cif.got.tgz:2382.got - 2010.06.03 18:43:04.
