data_PCOD9116835
_publ_section_title
;
Structure prediction by ZEFSAII (Michael W. Deem and Ramdas Pophale) SiO2 
 PCOD9116835
Probable space group: P 21
;
_chemical_formula_sum "Si O2"
_cell_formula_units_Z 16
_cell_length_a 11.439491
_cell_length_b 8.130968
_cell_length_c 8.933898
_cell_angle_alpha 90.000000
_cell_angle_beta 125.021974
_cell_angle_gamma 90.000000
_cell_volume 680.515134
_symmetry_space_group_name_H-M "P 21"
_symmetry_group_IT_number 4
_symmetry_cell_setting 'monoclinic'
loop_
_space_group_symop_operation_xyz
x,y,z
-x,1/2+y,-z
loop_
_atom_site_type_symbol
_atom_site_label
_atom_site_fract_x
_atom_site_fract_y
_atom_site_fract_z
Si Si1 0.693897 0.637870 0.450555
Si Si2 0.977840 0.465608 0.995435
Si Si3 0.728398 0.307124 0.977741
Si Si4 0.806561 0.183359 0.353377
Si Si5 0.975024 0.456790 0.636061
Si Si6 0.557889 0.960184 0.206722
Si Si7 0.568165 0.961229 0.858879
Si Si8 0.778602 0.755091 0.827120
O O1 0.850182 0.588500 0.510374
O O2 0.637510 0.804700 0.336592
O O3 0.584089 0.493833 0.328285
O O4 0.705130 0.662903 0.635969
O O5 0.860609 0.335565 0.966875
O O6 0.998012 0.465796 0.831068
O O7 0.900834 0.635611 0.983190
O O8 0.130105 0.409984 0.171137
O O9 0.606480 0.444677 0.863787
O O10 0.653753 0.132006 0.897615
O O11 0.780956 0.297719 0.188271
O O12 0.908999 0.282962 0.539014
O O13 0.654424 0.120847 0.304410
O O14 0.886405 0.020091 0.349356
O O15 0.551263 0.937652 0.022860
O O16 0.663493 0.820712 0.857320
#
# Coordination Sequence:
#
# PCOD9116835 Si02
#       8
#     2   2   2   2   2   2   2   2
#     4  10  23  41  62  95 133 166 213 265 318 385
#     4  11  24  42  63  93 130 171 216 261 320 382
#     4  10  22  41  64  90 127 169 214 264 315 381
#     4  11  23  41  66  93 127 165 214 268 319 377
#     4  11  24  41  63  96 131 167 213 267 321 381
#     4  10  22  42  65  93 126 168 215 265 321 380
#     4  10  22  42  65  93 129 168 216 265 318 381
#     4  11  24  42  66  93 129 170 213 267 320 381
#
# _framework density 23.511600999999999
#
# number of rings (size 3 to 8) (size 9 to 14) (size 15 to 20)
#    0.000    1.500    0.000    5.250    0.000   12.000 
#    0.000    1.250    0.000    0.000    0.000    0.000 
#    0.000    0.000    0.000    0.000    0.000    0.000 
#
# Total GULP energy -89551.597257 kJ/mol
# GULP energy per Si atom -5596.974829 kJ/mol
# Density = 2.345809 g / cm^3
# Si number density = 23.511601 Si / 1000 Ang^3
#
#
#
# Elastic Constant Matrix: (Units=GPa)
#
#
# Indices 1 2 3 4 5 6 
#
# 1 76.5115 -0.3183 13.4476 0.0000 9.5580 0.0000
# 2 -0.3183 53.6919 25.8156 0.0000 -8.8246 0.0000
# 3 13.4476 25.8156 59.2501 0.0000 18.8492 0.0000
# 4 0.0000 0.0000 0.0000 41.3430 0.0000 7.3147
# 5 9.5580 -8.8246 18.8492 0.0000 19.9441 0.0000
# 6 0.0000 0.0000 0.0000 7.3147 0.0000 49.4206
#
#
#
# Elastic Compliance Matrix: (Units=1/GPa)
#
#
# Indices 1 2 3 4 5 6 
#
# 1 0.013994 -0.000176 -0.001346 0.000000 -0.005513 0.000000
# 2 -0.000176 0.046229 -0.038088 0.000000 0.056536 0.000000
# 3 -0.001346 -0.038088 0.055673 0.000000 -0.068824 0.000000
# 4 0.000000 0.000000 0.000000 0.024838 0.000000 -0.003676
# 5 -0.005513 0.056536 -0.068824 0.000000 0.142843 0.000000
# 6 0.000000 0.000000 0.000000 -0.003676 0.000000 0.020779
#
#
# Mechanical properties :
#
#
# Convention : Reuss Voigt Hill
#
# Bulk Modulus (GPa) = 27.26507 29.70481 28.48494
# Shear Modulus (GPa) = 12.63259 32.17545 22.40402
#
# Velocity S-wave (km/s) = 2.32047 3.70333 3.09024
# Velocity P-wave (km/s) = 4.33602 5.56307 4.98742
#
# Compressibility (1/GPa) = 0.03667696
#
# Stress axis : x y z
#
# Youngs Moduli (GPa) = 71.45725 21.63152 17.96196
#
# Poissons Ratio (x) = 0.00381 0.02417
# Poissons Ratio (y) = 0.01258 0.68413
# Poissons Ratio (z) = 0.09617 0.82390
#
# Static dielectric constant tensor:
#      x y z
#    x 1.848990 0.000000 0.035370 
#    y 0.000000 1.965440 0.000000 
#    z 0.035370 0.000000 1.862830 
# 
# From -- ./inp_files/7881.got.cif
#   From: 2010.05.17/outbox.cif.g08.bks.cpg/sg4_4_cif.got.tgz:7881.got - 2010.06.03 18:43:04.
