data_PCOD9117542
_publ_section_title
;
Structure prediction by ZEFSAII (Michael W. Deem and Ramdas Pophale) SiO2 
 PCOD9117542
Probable space group: P 21
;
_chemical_formula_sum "Si O2"
_cell_formula_units_Z 16
_cell_length_a 8.614347
_cell_length_b 9.695191
_cell_length_c 17.547299
_cell_angle_alpha 90.000000
_cell_angle_beta 25.681208
_cell_angle_gamma 90.000000
_cell_volume 635.098902
_symmetry_space_group_name_H-M "P 21"
_symmetry_group_IT_number 4
_symmetry_cell_setting 'monoclinic'
loop_
_space_group_symop_operation_xyz
x,y,z
-x,1/2+y,-z
loop_
_atom_site_type_symbol
_atom_site_label
_atom_site_fract_x
_atom_site_fract_y
_atom_site_fract_z
Si Si1 0.264115 0.553200 0.967334
Si Si2 0.441636 0.975759 0.622106
Si Si3 0.798735 0.580974 0.034047
Si Si4 0.890577 0.106268 0.552223
Si Si5 0.352900 0.239754 0.572942
Si Si6 0.458488 0.799232 0.096019
Si Si7 0.779559 0.378644 0.509020
Si Si8 0.537071 0.841087 0.893039
O O1 0.916708 0.512021 0.171806
O O2 0.124918 0.599094 0.946497
O O3 0.501916 0.416820 0.858317
O O4 0.471118 0.679399 0.912889
O O5 0.756814 0.010183 0.541805
O O6 0.463781 0.824998 0.576043
O O7 0.479483 0.086201 0.536470
O O8 0.441729 0.610711 0.242020
O O9 0.752594 0.684090 0.984391
O O10 0.761276 0.425615 0.021174
O O11 0.210417 0.025970 0.453602
O O12 0.920783 0.258434 0.503700
O O13 0.433413 0.322495 0.616938
O O14 0.935057 0.237178 0.737635
O O15 0.524600 0.874404 0.986885
O O16 0.085483 0.382839 0.309091
#
# Coordination Sequence:
#
# PCOD9117542 Si02
#       8
#     2   2   2   2   2   2   2   2
#     4  11  23  45  69  98 139 177 232 282 343 410
#     4  10  23  45  64  99 137 180 223 285 333 406
#     4  10  24  45  68  94 137 181 223 282 344 403
#     4   9  22  41  67  92 129 174 229 272 329 398
#     4  11  25  42  68 100 136 178 228 279 341 400
#     4  12  25  42  72 104 134 182 226 286 343 413
#     4  10  23  42  67  96 134 177 224 283 330 405
#     4  11  23  44  67 101 136 181 227 279 349 403
#
# _framework density 25.192927000000001
#
# number of rings (size 3 to 8) (size 9 to 14) (size 15 to 20)
#    0.000    1.500    1.250    2.250    8.750    0.000 
#    4.500    0.000    0.000    0.000    0.000    0.000 
#    0.000    0.000    0.000    0.000    0.000    0.000 
#
# Total GULP energy -89608.531256 kJ/mol
# GULP energy per Si atom -5600.533204 kJ/mol
# Density = 2.513559 g / cm^3
# Si number density = 25.192927 Si / 1000 Ang^3
#
#
#
# Elastic Constant Matrix: (Units=GPa)
#
#
# Indices 1 2 3 4 5 6 
#
# 1 108.3976 34.1462 3.7318 0.0000 -12.4820 0.0000
# 2 34.1462 83.7483 3.9857 0.0000 -4.8669 0.0000
# 3 3.7318 3.9857 68.5884 0.0000 20.8371 0.0000
# 4 0.0000 0.0000 0.0000 25.3290 0.0000 2.7213
# 5 -12.4820 -4.8669 20.8371 0.0000 25.9118 0.0000
# 6 0.0000 0.0000 0.0000 2.7213 0.0000 58.9201
#
#
#
# Elastic Compliance Matrix: (Units=1/GPa)
#
#
# Indices 1 2 3 4 5 6 
#
# 1 0.011374 -0.004139 -0.002391 0.000000 0.006624 0.000000
# 2 -0.004139 0.013756 -0.000997 0.000000 0.001392 0.000000
# 3 -0.002391 -0.000997 0.020080 0.000000 -0.017487 0.000000
# 4 0.000000 0.000000 0.000000 0.039677 0.000000 -0.001833
# 5 0.006624 0.001392 -0.017487 0.000000 0.056107 0.000000
# 6 0.000000 0.000000 0.000000 -0.001833 0.000000 0.017057
#
#
# Mechanical properties :
#
#
# Convention : Reuss Voigt Hill
#
# Bulk Modulus (GPa) = 33.15935 38.27351 35.71643
# Shear Modulus (GPa) = 27.29893 36.62356 31.96125
#
# Velocity S-wave (km/s) = 3.29537 3.81691 3.56569
# Velocity P-wave (km/s) = 5.26023 5.88644 5.58213
#
# Compressibility (1/GPa) = 0.03015741
#
# Stress axis : x y z
#
# Youngs Moduli (GPa) = 87.91868 72.69372 49.80038
#
# Poissons Ratio (x) = 0.30086 0.11906
# Poissons Ratio (y) = 0.36387 0.04965
# Poissons Ratio (z) = 0.21020 0.07248
#
# Static dielectric constant tensor:
#      x y z
#    x 1.966410 0.000000 0.016520 
#    y 0.000000 1.963490 0.000000 
#    z 0.016520 0.000000 1.990450 
# 
# From -- ./inp_files/14939.got.cif
#   From: 2010.05.17/outbox.cif.g08.bks.cpg/sg4_8_cif.got.tgz:14939.got - 2010.06.03 18:43:04.
