data_PCOD9117044
_publ_section_title
;
Structure prediction by ZEFSAII (Michael W. Deem and Ramdas Pophale) SiO2 
 PCOD9117044
Probable space group: P 21
;
_chemical_formula_sum "Si O2"
_cell_formula_units_Z 16
_cell_length_a 15.053111
_cell_length_b 9.231580
_cell_length_c 14.867879
_cell_angle_alpha 90.000000
_cell_angle_beta 18.656903
_cell_angle_gamma 90.000000
_cell_volume 660.946237
_symmetry_space_group_name_H-M "P 21"
_symmetry_group_IT_number 4
_symmetry_cell_setting 'monoclinic'
loop_
_space_group_symop_operation_xyz
x,y,z
-x,1/2+y,-z
loop_
_atom_site_type_symbol
_atom_site_label
_atom_site_fract_x
_atom_site_fract_y
_atom_site_fract_z
Si Si1 0.756331 0.403050 0.755947
Si Si2 0.927026 0.428483 0.955468
Si Si3 0.804984 0.215911 0.324679
Si Si4 0.216014 0.237972 0.224772
Si Si5 0.003204 0.283527 0.703476
Si Si6 0.472394 0.607183 0.754214
Si Si7 0.452282 0.273541 0.492493
Si Si8 0.366649 0.282814 0.877853
O O1 0.779520 0.577427 0.735614
O O2 0.926053 0.321718 0.514634
O O3 0.895801 0.338555 0.712067
O O4 0.443449 0.345166 0.050489
O O5 0.050989 0.580413 0.861799
O O6 0.969184 0.411392 0.808536
O O7 0.127278 0.307445 0.806987
O O8 0.613889 0.400297 0.283419
O O9 0.598832 0.277871 0.447427
O O10 0.593319 0.184920 0.609634
O O11 0.074735 0.299112 0.103998
O O12 0.293758 0.224632 0.045753
O O13 0.308321 0.216409 0.410629
O O14 0.818747 0.157184 0.925261
O O15 0.496277 0.637797 0.623941
O O16 0.507619 0.440860 0.744102
#
# Coordination Sequence:
#
# PCOD9117044 Si02
#       8
#     2   2   2   2   2   2   2   2
#     4  12  27  48  77 111 145 196 241 309 366 448
#     4  10  22  43  63  96 131 174 233 282 345 423
#     4  12  25  41  70  93 140 187 224 293 355 419
#     4  12  29  48  77 111 154 186 255 300 378 437
#     4  10  22  43  73  94 135 181 235 280 363 415
#     4  10  23  42  69 103 137 181 231 294 343 430
#     4  10  23  39  65 100 131 179 232 288 338 424
#     4  12  27  46  68 104 145 184 235 294 368 414
#
# _framework density 24.207718
#
# number of rings (size 3 to 8) (size 9 to 14) (size 15 to 20)
#    0.000    1.000    0.000    5.250    8.750    3.000 
#    0.000    0.000    0.000    0.000    0.000    0.000 
#    0.000    0.000    0.000    0.000    0.000    0.000 
#
# Total GULP energy -89562.268985 kJ/mol
# GULP energy per Si atom -5597.641812 kJ/mol
# Density = 2.415262 g / cm^3
# Si number density = 24.207718 Si / 1000 Ang^3
#
#
#
# Elastic Constant Matrix: (Units=GPa)
#
#
# Indices 1 2 3 4 5 6 
#
# 1 77.1382 2.9916 4.1683 0.0000 -1.3406 0.0000
# 2 2.9916 101.3357 8.8046 0.0000 10.1815 0.0000
# 3 4.1683 8.8046 77.8050 0.0000 -0.0903 0.0000
# 4 0.0000 0.0000 0.0000 28.7296 0.0000 -5.2503
# 5 -1.3406 10.1815 -0.0903 0.0000 35.3794 0.0000
# 6 0.0000 0.0000 0.0000 -5.2503 0.0000 16.9367
#
#
#
# Elastic Compliance Matrix: (Units=1/GPa)
#
#
# Indices 1 2 3 4 5 6 
#
# 1 0.013025 -0.000388 -0.000653 0.000000 0.000604 0.000000
# 2 -0.000388 0.010278 -0.001146 0.000000 -0.002976 0.000000
# 3 -0.000653 -0.001146 0.013018 0.000000 0.000338 0.000000
# 4 0.000000 0.000000 0.000000 0.036898 0.000000 0.011438
# 5 0.000604 -0.002976 0.000338 0.000000 0.029145 0.000000
# 6 0.000000 0.000000 0.000000 0.011438 0.000000 0.062589
#
#
# Mechanical properties :
#
#
# Convention : Reuss Voigt Hill
#
# Bulk Modulus (GPa) = 31.30293 32.02310 31.66301
# Shear Modulus (GPa) = 27.78157 32.23010 30.00583
#
# Velocity S-wave (km/s) = 3.39135 3.65279 3.52449
# Velocity P-wave (km/s) = 5.31921 5.57205 5.44710
#
# Compressibility (1/GPa) = 0.03194589
#
# Stress axis : x y z
#
# Youngs Moduli (GPa) = 76.77788 97.29363 76.81859
#
# Poissons Ratio (x) = 0.03779 0.05017
# Poissons Ratio (y) = 0.02982 0.08801
# Poissons Ratio (z) = 0.05014 0.11147
#
# Static dielectric constant tensor:
#      x y z
#    x 1.965670 0.000000 0.012960 
#    y 0.000000 1.946850 0.000000 
#    z 0.012960 0.000000 1.876220 
# 
# From -- ./inp_files/14184.got.cif
#   From: 2010.05.17/outbox.cif.g08.bks.cpg/sg4_8_cif.got.tgz:14184.got - 2010.06.03 18:43:04.
