data_PCOD9117453
_publ_section_title
;
Structure prediction by ZEFSAII (Michael W. Deem and Ramdas Pophale) SiO2 
 PCOD9117453
Probable space group: P 21
;
_chemical_formula_sum "Si O2"
_cell_formula_units_Z 16
_cell_length_a 9.489046
_cell_length_b 14.284902
_cell_length_c 5.180786
_cell_angle_alpha 90.000000
_cell_angle_beta 83.624937
_cell_angle_gamma 90.000000
_cell_volume 697.913507
_symmetry_space_group_name_H-M "P 21"
_symmetry_group_IT_number 4
_symmetry_cell_setting 'monoclinic'
loop_
_space_group_symop_operation_xyz
x,y,z
-x,1/2+y,-z
loop_
_atom_site_type_symbol
_atom_site_label
_atom_site_fract_x
_atom_site_fract_y
_atom_site_fract_z
Si Si1 0.001557 0.411140 0.689161
Si Si2 0.377722 0.631690 0.639829
Si Si3 0.935493 0.129407 0.355937
Si Si4 0.409918 0.506332 0.132011
Si Si5 0.671348 0.690762 0.606937
Si Si6 0.277756 0.995773 0.096546
Si Si7 0.162967 0.352405 0.158080
Si Si8 0.882285 0.643277 0.170528
O O1 0.064508 0.517042 0.684488
O O2 0.049736 0.367645 0.410221
O O3 0.078282 0.357780 0.907416
O O4 0.831988 0.422497 0.757803
O O5 0.221810 0.668241 0.615269
O O6 0.412956 0.554648 0.412067
O O7 0.505066 0.704832 0.609383
O O8 0.379512 0.584430 0.920637
O O9 0.010345 0.142929 0.613041
O O10 0.027390 0.167965 0.100236
O O11 0.566499 0.466253 0.030038
O O12 0.279406 0.435484 0.142792
O O13 0.748069 0.697342 0.316180
O O14 0.742131 0.763746 0.783207
O O15 0.697540 0.585873 0.717835
O O16 0.185870 0.041900 0.883036
#
# Coordination Sequence:
#
# PCOD9117453 Si02
#       8
#     2   2   2   2   2   2   2   2
#     4  11  22  39  64  94 124 165 215 256 311 378
#     4  11  22  38  63  92 122 166 211 250 303 378
#     4  11  20  36  65  92 119 154 220 256 291 360
#     4  11  21  39  61  92 122 165 208 255 303 381
#     4  11  25  41  64  96 130 163 209 264 328 368
#     4  10  23  40  69  90 124 169 222 251 304 384
#     4  12  25  40  63  95 131 162 203 271 328 365
#     4  11  20  37  61  93 120 158 208 263 294 368
#
# _framework density 22.925477999999998
#
# number of rings (size 3 to 8) (size 9 to 14) (size 15 to 20)
#    0.000    1.000    6.250    2.250    1.750    0.000 
#    0.000    2.500    0.000    0.000    0.000    0.000 
#    0.000    0.000    0.000    0.000    0.000    0.000 
#
# Total GULP energy -89490.292657 kJ/mol
# GULP energy per Si atom -5593.143291 kJ/mol
# Density = 2.287330 g / cm^3
# Si number density = 22.925478 Si / 1000 Ang^3
#
#
#
# Elastic Constant Matrix: (Units=GPa)
#
#
# Indices 1 2 3 4 5 6 
#
# 1 135.6436 -13.7391 36.2280 0.0000 -13.0438 0.0000
# 2 -13.7391 23.5868 8.7821 0.0000 -0.1105 0.0000
# 3 36.2280 8.7821 132.6229 0.0000 2.1319 0.0000
# 4 0.0000 0.0000 0.0000 26.1768 0.0000 -1.2450
# 5 -13.0438 -0.1105 2.1319 0.0000 27.0554 0.0000
# 6 0.0000 0.0000 0.0000 -1.2450 0.0000 25.1888
#
#
#
# Elastic Compliance Matrix: (Units=1/GPa)
#
#
# Indices 1 2 3 4 5 6 
#
# 1 0.009313 0.006585 -0.003057 0.000000 0.004758 0.000000
# 2 0.006585 0.048129 -0.005046 0.000000 0.003769 0.000000
# 3 -0.003057 -0.005046 0.008744 0.000000 -0.002183 0.000000
# 4 0.000000 0.000000 0.000000 0.038292 0.000000 0.001893
# 5 0.004758 0.003769 -0.002183 0.000000 0.039442 0.000000
# 6 0.000000 0.000000 0.000000 0.001893 0.000000 0.039794
#
#
# Mechanical properties :
#
#
# Convention : Reuss Voigt Hill
#
# Bulk Modulus (GPa) = 15.83508 39.37726 27.60617
# Shear Modulus (GPa) = 24.06152 33.05635 28.55893
#
# Velocity S-wave (km/s) = 3.24320 3.80136 3.53332
# Velocity P-wave (km/s) = 4.57675 6.03992 5.35851
#
# Compressibility (1/GPa) = 0.06315093
#
# Stress axis : x y z
#
# Youngs Moduli (GPa) = 107.37516 20.77744 114.35902
#
# Poissons Ratio (x) = -0.13682 0.34955
# Poissons Ratio (y) = -0.70709 0.57711
# Poissons Ratio (z) = 0.32820 0.10485
#
# Static dielectric constant tensor:
#      x y z
#    x 1.856480 0.000000 -0.009420 
#    y 0.000000 1.925440 0.000000 
#    z -0.009420 0.000000 1.852770 
# 
# From -- ./inp_files/2106.got.cif
#   From: 2010.05.17/outbox.cif.g08.bks.cpg/sg4_2_cif.got.tgz:2106.got - 2010.06.03 18:43:04.
