data_PCOD9117985
_publ_section_title
;
Structure prediction by ZEFSAII (Michael W. Deem and Ramdas Pophale) SiO2 
 PCOD9117985
Probable space group: P 21
;
_chemical_formula_sum "Si O2"
_cell_formula_units_Z 12
_cell_length_a 11.460472
_cell_length_b 5.325022
_cell_length_c 7.416405
_cell_angle_alpha 90.000000
_cell_angle_beta 72.203576
_cell_angle_gamma 90.000000
_cell_volume 430.945175
_symmetry_space_group_name_H-M "P 21"
_symmetry_group_IT_number 4
_symmetry_cell_setting 'monoclinic'
loop_
_space_group_symop_operation_xyz
x,y,z
-x,1/2+y,-z
loop_
_atom_site_type_symbol
_atom_site_label
_atom_site_fract_x
_atom_site_fract_y
_atom_site_fract_z
Si Si1 0.221239 0.443830 0.369690
Si Si2 0.547816 0.733830 0.746591
Si Si3 0.880173 0.237067 0.299175
Si Si4 0.101004 0.555963 0.092026
Si Si5 0.682332 0.598059 0.372325
Si Si6 0.310018 0.960743 0.008879
O O1 0.368075 0.489382 0.282467
O O2 0.120316 0.635240 0.497592
O O3 0.173770 0.370051 0.194723
O O4 0.230926 0.249354 0.530065
O O5 0.556151 0.630943 0.539061
O O6 0.414580 0.769697 0.885029
O O7 0.630313 0.558531 0.835821
O O8 0.739352 0.321556 0.349102
O O9 0.965471 0.474729 0.216100
O O10 0.905554 0.047611 0.121976
O O11 0.181157 0.811161 0.087590
O O12 0.687178 0.660481 0.159646
#
# Coordination Sequence:
#
# PCOD9117985 Si02
#       6
#     2   2   2   2   2   2
#     4  10  25  45  72 106 143 195 247 302 371 438
#     4  10  24  42  74 110 144 200 245 301 379 438
#     4  11  26  45  69 108 146 194 249 303 371 435
#     4  11  27  44  75 103 149 195 245 312 369 440
#     4   9  25  45  68 105 142 197 243 301 370 439
#     4  11  23  47  74 110 156 191 247 313 372 452
#
# _framework density 27.845768
#
# number of rings (size 3 to 8) (size 9 to 14) (size 15 to 20)
#    1.000    0.667    0.000    2.000    7.000    5.333 
#    0.000    0.000    0.000    0.000    0.000    0.000 
#    0.000    0.000    0.000    0.000    0.000    0.000 
#
# Total GULP energy -66840.366365 kJ/mol
# GULP energy per Si atom -5570.030530 kJ/mol
# Density = 2.778239 g / cm^3
# Si number density = 27.845768 Si / 1000 Ang^3
#
#
#
# Elastic Constant Matrix: (Units=GPa)
#
#
# Indices 1 2 3 4 5 6 
#
# 1 112.8786 43.1705 56.8274 0.0000 3.4650 0.0000
# 2 43.1705 68.0379 56.0362 0.0000 -10.0749 0.0000
# 3 56.8274 56.0362 221.3725 0.0000 -11.8530 0.0000
# 4 0.0000 0.0000 0.0000 52.5047 0.0000 -0.4839
# 5 3.4650 -10.0749 -11.8530 0.0000 42.6266 0.0000
# 6 0.0000 0.0000 0.0000 -0.4839 0.0000 49.1247
#
#
#
# Elastic Compliance Matrix: (Units=1/GPa)
#
#
# Indices 1 2 3 4 5 6 
#
# 1 0.012449 -0.007064 -0.001575 0.000000 -0.003119 0.000000
# 2 -0.007064 0.022998 -0.003742 0.000000 0.004969 0.000000
# 3 -0.001575 -0.003742 0.005916 0.000000 0.000889 0.000000
# 4 0.000000 0.000000 0.000000 0.019048 0.000000 0.000188
# 5 -0.003119 0.004969 0.000889 0.000000 0.025135 0.000000
# 6 0.000000 0.000000 0.000000 0.000188 0.000000 0.020358
#
#
# Mechanical properties :
#
#
# Convention : Reuss Voigt Hill
#
# Bulk Modulus (GPa) = 60.23490 79.37303 69.80397
# Shear Modulus (GPa) = 36.71093 45.26818 40.98956
#
# Velocity S-wave (km/s) = 3.63487 4.03634 3.84085
# Velocity P-wave (km/s) = 6.26857 7.09148 6.69269
#
# Compressibility (1/GPa) = 0.01660167
#
# Stress axis : x y z
#
# Youngs Moduli (GPa) = 80.32599 43.48268 169.02519
#
# Poissons Ratio (x) = 0.30717 0.26616
# Poissons Ratio (y) = 0.56744 0.63248
# Poissons Ratio (z) = 0.12649 0.16271
#
# Static dielectric constant tensor:
#      x y z
#    x 2.210980 0.000000 -0.000710 
#    y 0.000000 2.383230 0.000000 
#    z -0.000710 0.000000 2.205590 
# 
# From -- ./inp_files/7267.got.cif
#   From: 2010.05.17/outbox.cif.g08.bks.cpg/sg4_4_cif.got.tgz:7267.got - 2010.06.03 18:43:04.
