data_PCOD9117790
_publ_section_title
;
Structure prediction by ZEFSAII (Michael W. Deem and Ramdas Pophale) SiO2 
 PCOD9117790
Probable space group: P 21
;
_chemical_formula_sum "Si O2"
_cell_formula_units_Z 16
_cell_length_a 9.656296
_cell_length_b 7.772065
_cell_length_c 8.946954
_cell_angle_alpha 90.000000
_cell_angle_beta 118.636801
_cell_angle_gamma 90.000000
_cell_volume 589.326663
_symmetry_space_group_name_H-M "P 21"
_symmetry_group_IT_number 4
_symmetry_cell_setting 'monoclinic'
loop_
_space_group_symop_operation_xyz
x,y,z
-x,1/2+y,-z
loop_
_atom_site_type_symbol
_atom_site_label
_atom_site_fract_x
_atom_site_fract_y
_atom_site_fract_z
Si Si1 0.615652 0.741020 0.716866
Si Si2 0.879898 0.069500 0.376174
Si Si3 0.107111 0.021687 0.252898
Si Si4 0.361128 0.460907 0.540572
Si Si5 0.282212 0.287694 0.900399
Si Si6 0.162595 0.750442 0.038379
Si Si7 0.504036 0.644697 0.200851
Si Si8 0.775393 0.439871 0.233164
O O1 0.728042 0.614505 0.678958
O O2 0.457974 0.627030 0.645357
O O3 0.390642 0.973720 0.764162
O O4 0.709610 0.772809 0.918948
O O5 0.819323 0.998176 0.503495
O O6 0.855143 0.272299 0.345695
O O7 0.048876 0.021657 0.393526
O O8 0.765734 0.967096 0.198734
O O9 0.117845 0.842843 0.170019
O O10 0.980040 0.138380 0.098390
O O11 0.396890 0.412053 0.389248
O O12 0.422142 0.289912 0.655055
O O13 0.457557 0.230911 0.940702
O O14 0.174863 0.142226 0.761057
O O15 0.320868 0.641981 0.135619
O O16 0.214358 0.888849 0.938456
#
# Coordination Sequence:
#
# PCOD9117790 Si02
#       8
#     2   2   2   2   2   2   2   2
#     4  12  25  51  68 103 154 193 255 302 367 454
#     4  10  23  45  77 114 146 189 250 304 389 440
#     4  11  23  41  71 106 152 185 241 311 375 458
#     4  11  26  49  70 101 147 204 244 299 367 437
#     4   9  20  42  75 111 141 184 241 326 361 425
#     4  11  21  40  68 114 150 187 237 317 395 430
#     4   9  20  42  72 108 138 183 250 306 367 423
#     4   9  20  38  71 111 144 177 244 319 357 431
#
# _framework density 27.149626000000001
#
# number of rings (size 3 to 8) (size 9 to 14) (size 15 to 20)
#    0.750    1.000    2.500    0.750    3.500    3.000 
#   11.250    3.750    0.000    0.000    0.000    0.000 
#    0.000    0.000    0.000    0.000    0.000    0.000 
#
# Total GULP energy -89474.410667 kJ/mol
# GULP energy per Si atom -5592.150667 kJ/mol
# Density = 2.708783 g / cm^3
# Si number density = 27.149626 Si / 1000 Ang^3
#
#
#
# Elastic Constant Matrix: (Units=GPa)
#
#
# Indices 1 2 3 4 5 6 
#
# 1 120.1889 31.9468 12.7341 0.0000 -16.3470 0.0000
# 2 31.9468 159.9933 60.1123 0.0000 -4.2812 0.0000
# 3 12.7341 60.1123 97.8583 0.0000 -22.2315 0.0000
# 4 0.0000 0.0000 0.0000 57.0154 0.0000 -9.3050
# 5 -16.3470 -4.2812 -22.2315 0.0000 22.3944 0.0000
# 6 0.0000 0.0000 0.0000 -9.3050 0.0000 53.1755
#
#
#
# Elastic Compliance Matrix: (Units=1/GPa)
#
#
# Indices 1 2 3 4 5 6 
#
# 1 0.010026 -0.002668 0.002429 0.000000 0.009219 0.000000
# 2 -0.002668 0.009184 -0.006893 0.000000 -0.007034 0.000000
# 3 0.002429 -0.006893 0.018387 0.000000 0.018708 0.000000
# 4 0.000000 0.000000 0.000000 0.018055 0.000000 0.003159
# 5 0.009219 -0.007034 0.018708 0.000000 0.068611 0.000000
# 6 0.000000 0.000000 0.000000 0.003159 0.000000 0.019358
#
#
# Mechanical properties :
#
#
# Convention : Reuss Voigt Hill
#
# Bulk Modulus (GPa) = 42.85639 65.29189 54.07414
# Shear Modulus (GPa) = 30.18170 44.73354 37.45762
#
# Velocity S-wave (km/s) = 3.33780 4.06355 3.71843
# Velocity P-wave (km/s) = 5.53842 6.79100 6.19644
#
# Compressibility (1/GPa) = 0.02333374
#
# Stress axis : x y z
#
# Youngs Moduli (GPa) = 99.74113 108.88035 54.38631
#
# Poissons Ratio (x) = 0.29046 -0.13208
# Poissons Ratio (y) = 0.26608 0.37486
# Poissons Ratio (z) = -0.24222 0.75047
#
# Static dielectric constant tensor:
#      x y z
#    x 2.171000 0.000000 -0.029080 
#    y 0.000000 2.101100 0.000000 
#    z -0.029080 0.000000 2.186220 
# 
# From -- ./inp_files/5739.got.cif
#   From: 2010.05.17/outbox.cif.g08.bks.cpg/sg4_3_cif.got.tgz:5739.got - 2010.06.03 18:43:04.
