data_PCOD9117971
_publ_section_title
;
Structure prediction by ZEFSAII (Michael W. Deem and Ramdas Pophale) SiO2 
 PCOD9117971
Probable space group: P 21
;
_chemical_formula_sum "Si O2"
_cell_formula_units_Z 12
_cell_length_a 5.082072
_cell_length_b 18.004796
_cell_length_c 5.081797
_cell_angle_alpha 90.000000
_cell_angle_beta 89.993868
_cell_angle_gamma 90.000000
_cell_volume 464.992907
_symmetry_space_group_name_H-M "P 21"
_symmetry_group_IT_number 4
_symmetry_cell_setting 'monoclinic'
loop_
_space_group_symop_operation_xyz
x,y,z
-x,1/2+y,-z
loop_
_atom_site_type_symbol
_atom_site_label
_atom_site_fract_x
_atom_site_fract_y
_atom_site_fract_z
Si Si1 0.193187 0.501160 0.343523
Si Si2 0.343623 0.251201 0.807112
Si Si3 0.490896 0.535543 0.849746
Si Si4 0.150119 0.785576 0.490565
Si Si5 0.193421 0.171501 0.322849
Si Si6 0.322502 0.921477 0.806674
O O1 0.281724 0.533527 0.617767
O O2 0.383117 0.428968 0.309304
O O3 0.890433 0.480686 0.308433
O O4 0.315933 0.550839 0.109555
O O5 0.617848 0.283593 0.718598
O O6 0.309482 0.179010 0.617169
O O7 0.109650 0.300873 0.684398
O O8 0.308537 0.230704 0.109872
O O9 0.718903 0.593927 0.793134
O O10 0.625745 0.454750 0.902735
O O11 0.206570 0.843920 0.718739
O O12 0.097156 0.704764 0.625298
#
# Coordination Sequence:
#
# PCOD9117971 Si02
#       6
#     2   2   2   2   2   2
#     4  10  24  42  68  94 134 172 228 278 342 402
#     4  10  24  42  68  94 134 172 228 278 342 402
#     4  10  24  45  67 102 133 184 224 285 337 408
#     4  10  24  45  67 102 133 184 224 285 337 408
#     4  10  24  45  67 102 133 184 224 285 337 408
#     4  10  24  45  67 102 133 184 224 285 337 408
#
# _framework density 25.806849
#
# number of rings (size 3 to 8) (size 9 to 14) (size 15 to 20)
#    2.000    0.000    0.000    2.000    4.667    2.667 
#   12.000    0.000    0.000    0.000    0.000    0.000 
#    0.000    0.000    0.000    0.000    0.000    0.000 
#
# Total GULP energy -66959.133997 kJ/mol
# GULP energy per Si atom -5579.927833 kJ/mol
# Density = 2.574811 g / cm^3
# Si number density = 25.806849 Si / 1000 Ang^3
#
#
#
# Elastic Constant Matrix: (Units=GPa)
#
#
# Indices 1 2 3 4 5 6 
#
# 1 121.8245 -3.2931 6.1072 0.0000 -5.9055 0.0000
# 2 -3.2931 47.7923 -3.3337 0.0000 0.0010 0.0000
# 3 6.1072 -3.3337 121.8107 0.0000 5.9631 0.0000
# 4 0.0000 0.0000 0.0000 22.0953 0.0000 0.0170
# 5 -5.9055 0.0010 5.9631 0.0000 19.8938 0.0000
# 6 0.0000 0.0000 0.0000 0.0170 0.0000 22.0999
#
#
#
# Elastic Compliance Matrix: (Units=1/GPa)
#
#
# Indices 1 2 3 4 5 6 
#
# 1 0.008378 0.000540 -0.000535 0.000000 0.002647 0.000000
# 2 0.000540 0.020999 0.000548 0.000000 -0.000005 0.000000
# 3 -0.000535 0.000548 0.008382 0.000000 -0.002671 0.000000
# 4 0.000000 0.000000 0.000000 0.045258 0.000000 -0.000035
# 5 0.002647 -0.000005 -0.002671 0.000000 0.051853 0.000000
# 6 0.000000 0.000000 0.000000 -0.000035 0.000000 0.045249
#
#
# Mechanical properties :
#
#
# Convention : Reuss Voigt Hill
#
# Bulk Modulus (GPa) = 25.72977 32.26536 28.99757
# Shear Modulus (GPa) = 26.04575 32.28095 29.16335
#
# Velocity S-wave (km/s) = 3.18033 3.54060 3.36529
# Velocity P-wave (km/s) = 4.84539 5.40779 5.13430
#
# Compressibility (1/GPa) = 0.03886548
#
# Stress axis : x y z
#
# Youngs Moduli (GPa) = 119.35637 47.62065 119.30266
#
# Poissons Ratio (x) = -0.02571 0.06381
# Poissons Ratio (y) = -0.06445 -0.06536
# Poissons Ratio (z) = 0.06384 -0.02609
#
# Static dielectric constant tensor:
#      x y z
#    x 2.000110 0.000000 -0.000080 
#    y 0.000000 2.101320 0.000000 
#    z -0.000080 0.000000 2.000130 
# 
# From -- ./inp_files/438.got.cif
#   From: 2010.05.17/outbox.cif.g08.bks.cpg/sg4_1_cif.got.tgz:438.got - 2010.06.03 18:43:04.
