data_PCOD9117833
_publ_section_title
;
Structure prediction by ZEFSAII (Michael W. Deem and Ramdas Pophale) SiO2 
 PCOD9117833
Probable space group: P 21
;
_chemical_formula_sum "Si O2"
_cell_formula_units_Z 14
_cell_length_a 7.609001
_cell_length_b 12.435116
_cell_length_c 8.713083
_cell_angle_alpha 90.000000
_cell_angle_beta 145.781144
_cell_angle_gamma 90.000000
_cell_volume 463.618023
_symmetry_space_group_name_H-M "P 21"
_symmetry_group_IT_number 4
_symmetry_cell_setting 'monoclinic'
loop_
_space_group_symop_operation_xyz
x,y,z
-x,1/2+y,-z
loop_
_atom_site_type_symbol
_atom_site_label
_atom_site_fract_x
_atom_site_fract_y
_atom_site_fract_z
Si Si1 0.881943 0.183030 0.665192
Si Si2 0.481802 0.659255 0.022173
Si Si3 0.716326 0.983254 0.363301
Si Si4 0.009102 0.139747 0.103191
Si Si5 0.932500 0.376613 0.089285
Si Si6 0.993049 0.925752 0.212386
Si Si7 0.737501 0.378270 0.263823
O O1 0.806407 0.309956 0.626525
O O2 0.670297 0.084597 0.455148
O O3 0.012926 0.145808 0.923213
O O4 0.156336 0.182459 0.735688
O O5 0.551935 0.389236 0.816861
O O6 0.352832 0.642706 0.097623
O O7 0.290320 0.756265 0.806006
O O8 0.570950 0.055893 0.118601
O O9 0.009263 0.932473 0.442464
O O10 0.101606 0.261897 0.215660
O O11 0.143145 0.047803 0.309429
O O12 0.984884 0.425811 0.302425
O O13 0.025687 0.428705 0.999613
O O14 0.612668 0.903072 0.949404
#
# Coordination Sequence:
#
# PCOD9117833 Si02
#       7
#     2   2   2   2   2   2   2
#     4  11  26  47  73 106 149 192 251 314 368 442
#     4  11  24  44  72 103 146 193 244 305 373 432
#     4  12  23  47  70 103 148 190 245 308 368 440
#     4  10  23  46  74 106 147 190 247 309 366 452
#     4  10  26  47  68 108 153 189 247 316 371 435
#     4  11  22  48  74 106 144 197 254 298 379 450
#     4  11  24  43  73 106 143 193 242 304 367 445
#
# _framework density 30.197272000000002
#
# number of rings (size 3 to 8) (size 9 to 14) (size 15 to 20)
#    0.000    1.143    2.857    2.571    4.000    1.143 
#   15.429    2.857    0.000    0.000    0.000    0.000 
#    0.000    0.000    0.000    0.000    0.000    0.000 
#
# Total GULP energy -78012.911312 kJ/mol
# GULP energy per Si atom -5572.350808 kJ/mol
# Density = 3.012854 g / cm^3
# Si number density = 30.197272 Si / 1000 Ang^3
#
#
#
# Elastic Constant Matrix: (Units=GPa)
#
#
# Indices 1 2 3 4 5 6 
#
# 1 196.2777 7.8914 56.9421 0.0000 -11.3913 0.0000
# 2 7.8914 196.3038 36.6409 0.0000 -20.8518 0.0000
# 3 56.9421 36.6409 170.2680 0.0000 -1.8425 0.0000
# 4 0.0000 0.0000 0.0000 36.5999 0.0000 -12.4801
# 5 -11.3913 -20.8518 -1.8425 0.0000 42.3915 0.0000
# 6 0.0000 0.0000 0.0000 -12.4801 0.0000 42.3347
#
#
#
# Elastic Compliance Matrix: (Units=1/GPa)
#
#
# Indices 1 2 3 4 5 6 
#
# 1 0.005748 0.000308 -0.001971 0.000000 0.001610 0.000000
# 2 0.000308 0.005617 -0.001282 0.000000 0.002790 0.000000
# 3 -0.001971 -0.001282 0.006799 0.000000 -0.000865 0.000000
# 4 0.000000 0.000000 0.000000 0.030376 0.000000 0.008955
# 5 0.001610 0.002790 -0.000865 0.000000 0.025357 0.000000
# 6 0.000000 0.000000 0.000000 0.008955 0.000000 0.026261
#
#
# Mechanical properties :
#
#
# Convention : Reuss Voigt Hill
#
# Bulk Modulus (GPa) = 81.47107 85.08871 83.27989
# Shear Modulus (GPa) = 45.39721 55.02355 50.21038
#
# Velocity S-wave (km/s) = 3.88152 4.27328 4.08210
# Velocity P-wave (km/s) = 6.86487 7.25167 7.06092
#
# Compressibility (1/GPa) = 0.01227430
#
# Stress axis : x y z
#
# Youngs Moduli (GPa) = 173.98230 178.01956 147.08706
#
# Poissons Ratio (x) = -0.05481 0.28991
# Poissons Ratio (y) = -0.05357 0.18851
# Poissons Ratio (z) = 0.34292 0.22815
#
# Static dielectric constant tensor:
#      x y z
#    x 2.696180 0.000000 -0.254650 
#    y 0.000000 2.501610 0.000000 
#    z -0.254650 0.000000 2.590220 
# 
# From -- ./inp_files/11187.got.cif
#   From: 2010.05.17/outbox.cif.g08.bks.cpg/sg4_6_cif.got.tgz:11187.got - 2010.06.03 18:43:04.
