data_PCOD9117657
_publ_section_title
;
Structure prediction by ZEFSAII (Michael W. Deem and Ramdas Pophale) SiO2 
 PCOD9117657
Probable space group: P 21
;
_chemical_formula_sum "Si O2"
_cell_formula_units_Z 10
_cell_length_a 10.185699
_cell_length_b 6.663133
_cell_length_c 7.510784
_cell_angle_alpha 90.000000
_cell_angle_beta 133.505791
_cell_angle_gamma 90.000000
_cell_volume 369.721870
_symmetry_space_group_name_H-M "P 21"
_symmetry_group_IT_number 4
_symmetry_cell_setting 'monoclinic'
loop_
_space_group_symop_operation_xyz
x,y,z
-x,1/2+y,-z
loop_
_atom_site_type_symbol
_atom_site_label
_atom_site_fract_x
_atom_site_fract_y
_atom_site_fract_z
Si Si1 0.552263 0.996030 0.806448
Si Si2 0.814014 0.544215 0.690242
Si Si3 0.681919 0.990785 0.562449
Si Si4 0.956756 0.381287 0.196199
Si Si5 0.620186 0.590499 0.000264
O O1 0.649744 0.086507 0.725929
O O2 0.671616 0.814202 0.990938
O O3 0.351489 0.922104 0.551178
O O4 0.491551 0.116893 0.922786
O O5 0.711749 0.754468 0.642054
O O6 0.895000 0.433126 0.935452
O O7 0.973544 0.651100 0.724069
O O8 0.511130 0.011091 0.276728
O O9 0.865944 0.023848 0.624266
O O10 0.795152 0.450238 0.170737
#
# Coordination Sequence:
#
# PCOD9117657 Si02
#       5
#     2   2   2   2   2
#     4  12  24  46  73 109 147 192 238 306 357 434
#     4  10  23  43  74 105 141 187 244 290 363 421
#     4  10  23  46  74 100 146 187 245 296 357 430
#     4  10  23  45  69 106 142 190 239 293 361 431
#     4  12  25  46  74 104 150 192 242 293 370 424
#
# _framework density 27.047357000000002
#
# number of rings (size 3 to 8) (size 9 to 14) (size 15 to 20)
#    1.200    0.000    4.000    1.200    2.800    3.200 
#    7.200    0.000    0.000    0.000    0.000    0.000 
#    0.000    0.000    0.000    0.000    0.000    0.000 
#
# Total GULP energy -55869.882097 kJ/mol
# GULP energy per Si atom -5586.988210 kJ/mol
# Density = 2.698580 g / cm^3
# Si number density = 27.047357 Si / 1000 Ang^3
#
#
#
# Elastic Constant Matrix: (Units=GPa)
#
#
# Indices 1 2 3 4 5 6 
#
# 1 171.2470 42.9659 34.4872 0.0000 2.4373 0.0000
# 2 42.9659 70.3464 7.1466 0.0000 12.9624 0.0000
# 3 34.4872 7.1466 53.2694 0.0000 14.2610 0.0000
# 4 0.0000 0.0000 0.0000 45.5328 0.0000 11.0886
# 5 2.4373 12.9624 14.2610 0.0000 57.2561 0.0000
# 6 0.0000 0.0000 0.0000 11.0886 0.0000 47.0315
#
#
#
# Elastic Compliance Matrix: (Units=1/GPa)
#
#
# Indices 1 2 3 4 5 6 
#
# 1 0.008031 -0.004757 -0.005098 0.000000 0.002005 0.000000
# 2 -0.004757 0.017720 0.001845 0.000000 -0.004269 0.000000
# 3 -0.005098 0.001845 0.023442 0.000000 -0.006040 0.000000
# 4 0.000000 0.000000 0.000000 0.023300 0.000000 -0.005493
# 5 0.002005 -0.004269 -0.006040 0.000000 0.019851 0.000000
# 6 0.000000 0.000000 0.000000 -0.005493 0.000000 0.022558
#
#
# Mechanical properties :
#
#
# Convention : Reuss Voigt Hill
#
# Bulk Modulus (GPa) = 30.14411 51.56248 40.85329
# Shear Modulus (GPa) = 35.21651 43.98160 39.59905
#
# Velocity S-wave (km/s) = 3.61228 4.03686 3.83046
# Velocity P-wave (km/s) = 5.34483 6.39011 5.89070
#
# Compressibility (1/GPa) = 0.03317398
#
# Stress axis : x y z
#
# Youngs Moduli (GPa) = 124.51558 56.43411 42.65781
#
# Poissons Ratio (x) = 0.26844 0.21747
# Poissons Ratio (y) = 0.59229 -0.07871
# Poissons Ratio (z) = 0.63478 -0.10412
#
# Static dielectric constant tensor:
#      x y z
#    x 2.074870 0.000000 0.058510 
#    y 0.000000 2.172900 0.000000 
#    z 0.058510 0.000000 2.097980 
# 
# From -- ./inp_files/4477.got.cif
#   From: 2010.05.17/outbox.cif.g08.bks.cpg/sg4_3_cif.got.tgz:4477.got - 2010.06.03 18:43:04.
