data_PCOD9117395
_publ_section_title
;
Structure prediction by ZEFSAII (Michael W. Deem and Ramdas Pophale) SiO2 
 PCOD9117395
Probable space group: P 21
;
_chemical_formula_sum "Si O2"
_cell_formula_units_Z 16
_cell_length_a 23.252182
_cell_length_b 5.900995
_cell_length_c 25.599522
_cell_angle_alpha 90.000000
_cell_angle_beta 10.577045
_cell_angle_gamma 90.000000
_cell_volume 644.752488
_symmetry_space_group_name_H-M "P 21"
_symmetry_group_IT_number 4
_symmetry_cell_setting 'monoclinic'
loop_
_space_group_symop_operation_xyz
x,y,z
-x,1/2+y,-z
loop_
_atom_site_type_symbol
_atom_site_label
_atom_site_fract_x
_atom_site_fract_y
_atom_site_fract_z
Si Si1 0.769921 0.345560 0.430337
Si Si2 0.899907 0.369379 0.464307
Si Si3 0.553554 0.076557 0.376183
Si Si4 0.390452 0.066845 0.976072
Si Si5 0.256698 0.071847 0.935399
Si Si6 0.329358 0.692034 0.946732
Si Si7 0.915798 0.878478 0.148287
Si Si8 0.854915 0.995873 0.646371
O O1 0.558875 0.415140 0.569174
O O2 0.532401 0.254904 0.685960
O O3 0.016353 0.543267 0.221456
O O4 0.988703 0.143147 0.214805
O O5 0.125653 0.256119 0.220255
O O6 0.117032 0.470961 0.316518
O O7 0.684527 0.172598 0.682259
O O8 0.647790 0.554763 0.672415
O O9 0.263333 0.234590 0.648689
O O10 0.664820 0.965007 0.330750
O O11 0.841376 0.224826 0.099390
O O12 0.285684 0.855382 0.035584
O O13 0.517003 0.001769 0.920398
O O14 0.373967 0.834531 0.853360
O O15 0.108342 0.058113 0.010236
O O16 0.998170 0.250546 0.505218
#
# Coordination Sequence:
#
# PCOD9117395 Si02
#       8
#     2   2   2   2   2   2   2   2
#     4  12  28  49  78 113 155 208 261 326 393 481
#     4  11  27  50  81 117 159 212 269 333 407 487
#     4  12  24  46  75 111 151 198 256 328 392 466
#     4  11  27  50  81 117 159 212 269 333 407 487
#     4  12  28  49  78 113 155 208 261 326 393 481
#     4  12  28  54  78 118 162 214 264 332 404 482
#     4  12  24  46  75 111 151 198 256 328 392 466
#     4  10  22  50  84 122 164 216 276 354 418 498
#
# _framework density 24.815722999999998
#
# number of rings (size 3 to 8) (size 9 to 14) (size 15 to 20)
#    0.000    0.500    2.500    4.500    0.000   11.000 
#    0.000    0.000    0.000    0.000    0.000    0.000 
#    0.000    0.000    0.000    0.000    0.000    0.000 
#
# Total GULP energy -89688.174784 kJ/mol
# GULP energy per Si atom -5605.510924 kJ/mol
# Density = 2.475924 g / cm^3
# Si number density = 24.815723 Si / 1000 Ang^3
#
#
#
# Elastic Constant Matrix: (Units=GPa)
#
#
# Indices 1 2 3 4 5 6 
#
# 1 114.7834 41.5917 38.0514 0.0000 -39.2848 0.0000
# 2 41.5917 105.5528 35.7232 0.0000 -17.6723 0.0000
# 3 38.0514 35.7232 70.8999 0.0000 -10.1199 0.0000
# 4 0.0000 0.0000 0.0000 46.4959 0.0000 -0.6675
# 5 -39.2848 -17.6723 -10.1199 0.0000 55.9559 0.0000
# 6 0.0000 0.0000 0.0000 -0.6675 0.0000 67.0508
#
#
#
# Elastic Compliance Matrix: (Units=1/GPa)
#
#
# Indices 1 2 3 4 5 6 
#
# 1 0.014121 -0.002437 -0.005179 0.000000 0.008208 0.000000
# 2 -0.002437 0.012234 -0.004669 0.000000 0.001308 0.000000
# 3 -0.005179 -0.004669 0.018998 0.000000 -0.001675 0.000000
# 4 0.000000 0.000000 0.000000 0.021510 0.000000 0.000214
# 5 0.008208 0.001308 -0.001675 0.000000 0.023744 0.000000
# 6 0.000000 0.000000 0.000000 0.000214 0.000000 0.014916
#
#
# Mechanical properties :
#
#
# Convention : Reuss Voigt Hill
#
# Bulk Modulus (GPa) = 48.12080 57.99652 53.05866
# Shear Modulus (GPa) = 36.49082 45.62517 41.05799
#
# Velocity S-wave (km/s) = 3.83883 4.29249 4.07199
# Velocity P-wave (km/s) = 6.25158 6.92741 6.59815
#
# Compressibility (1/GPa) = 0.02078103
#
# Stress axis : x y z
#
# Youngs Moduli (GPa) = 70.81538 81.74260 52.63847
#
# Poissons Ratio (x) = 0.19923 0.27263
# Poissons Ratio (y) = 0.17260 0.24578
# Poissons Ratio (z) = 0.36677 0.38167
#
# Static dielectric constant tensor:
#      x y z
#    x 2.000570 0.000000 -0.044900 
#    y 0.000000 1.992730 0.000000 
#    z -0.044900 0.000000 1.905710 
# 
# From -- ./inp_files/16453.got.cif
#   From: 2010.05.17/outbox.cif.g08.bks.cpg/sg4_9_cif.got.tgz:16453.got - 2010.06.03 18:43:04.
