data_PCOD9117361
_publ_section_title
;
Structure prediction by ZEFSAII (Michael W. Deem and Ramdas Pophale) SiO2 
 PCOD9117361
Probable space group: P 21
;
_chemical_formula_sum "Si O2"
_cell_formula_units_Z 14
_cell_length_a 5.386751
_cell_length_b 11.906556
_cell_length_c 8.845370
_cell_angle_alpha 90.000000
_cell_angle_beta 95.677969
_cell_angle_gamma 90.000000
_cell_volume 564.537811
_symmetry_space_group_name_H-M "P 21"
_symmetry_group_IT_number 4
_symmetry_cell_setting 'monoclinic'
loop_
_space_group_symop_operation_xyz
x,y,z
-x,1/2+y,-z
loop_
_atom_site_type_symbol
_atom_site_label
_atom_site_fract_x
_atom_site_fract_y
_atom_site_fract_z
Si Si1 0.959257 0.738640 0.704150
Si Si2 0.280355 0.202081 0.734761
Si Si3 0.895573 0.466057 0.172257
Si Si4 0.427611 0.736930 0.530212
Si Si5 0.534256 0.373295 0.933963
Si Si6 0.872131 0.047460 0.128055
Si Si7 0.865453 0.381366 0.668827
O O1 0.965989 0.873050 0.723126
O O2 0.180731 0.701123 0.603318
O O3 0.060602 0.677980 0.862574
O O4 0.673984 0.716453 0.642527
O O5 0.504205 0.184112 0.628633
O O6 0.363924 0.263980 0.895659
O O7 0.093123 0.295439 0.653659
O O8 0.156705 0.083257 0.752574
O O9 0.641981 0.402838 0.102841
O O10 0.034911 0.497057 0.024906
O O11 0.346059 0.863288 0.469651
O O12 0.396173 0.488527 0.872605
O O13 0.747457 0.349907 0.823837
O O14 0.025041 0.001460 0.283284
#
# Coordination Sequence:
#
# PCOD9117361 Si02
#       7
#     2   2   2   2   2   2   2
#     4  12  29  48  72 113 146 183 250 298 359 425
#     4  10  22  47  73 103 145 195 239 292 372 420
#     4  11  27  43  73 110 141 192 238 311 351 438
#     4  11  25  51  70 106 149 190 237 300 348 441
#     4   9  22  42  72 102 139 189 240 294 364 426
#     4  10  25  44  74 105 144 193 232 308 365 425
#     4   9  20  47  72 101 138 196 238 287 365 429
#
# _framework density 24.799047999999999
#
# number of rings (size 3 to 8) (size 9 to 14) (size 15 to 20)
#    0.000    1.714    1.429    0.000   14.000    2.286 
#    7.714    0.000    0.000    0.000    0.000    0.000 
#    0.000    0.000    0.000    0.000    0.000    0.000 
#
# Total GULP energy -78073.042440 kJ/mol
# GULP energy per Si atom -5576.645889 kJ/mol
# Density = 2.474260 g / cm^3
# Si number density = 24.799048 Si / 1000 Ang^3
#
#
#
# Elastic Constant Matrix: (Units=GPa)
#
#
# Indices 1 2 3 4 5 6 
#
# 1 100.8796 13.1849 27.7610 0.0000 -12.8563 0.0000
# 2 13.1849 95.1389 7.7782 0.0000 -11.0275 0.0000
# 3 27.7610 7.7782 46.0812 0.0000 -7.4716 0.0000
# 4 0.0000 0.0000 0.0000 32.2099 0.0000 -1.3976
# 5 -12.8563 -11.0275 -7.4716 0.0000 40.7483 0.0000
# 6 0.0000 0.0000 0.0000 -1.3976 0.0000 23.9100
#
#
#
# Elastic Compliance Matrix: (Units=1/GPa)
#
#
# Indices 1 2 3 4 5 6 
#
# 1 0.012205 -0.000859 -0.006824 0.000000 0.002367 0.000000
# 2 -0.000859 0.011000 -0.000928 0.000000 0.002536 0.000000
# 3 -0.006824 -0.000928 0.026362 0.000000 0.002430 0.000000
# 4 0.000000 0.000000 0.000000 0.031125 0.000000 0.001819
# 5 0.002367 0.002536 0.002430 0.000000 0.026419 0.000000
# 6 0.000000 0.000000 0.000000 0.001819 0.000000 0.041930
#
#
# Mechanical properties :
#
#
# Convention : Reuss Voigt Hill
#
# Bulk Modulus (GPa) = 30.91674 37.72756 34.32215
# Shear Modulus (GPa) = 28.24152 32.26537 30.25344
#
# Velocity S-wave (km/s) = 3.37829 3.61095 3.49656
# Velocity P-wave (km/s) = 5.26414 5.71241 5.49285
#
# Compressibility (1/GPa) = 0.03234494
#
# Stress axis : x y z
#
# Youngs Moduli (GPa) = 81.93667 90.91091 37.93299
#
# Poissons Ratio (x) = 0.07811 0.25884
# Poissons Ratio (y) = 0.07040 0.03520
# Poissons Ratio (z) = 0.55911 0.08437
#
# Static dielectric constant tensor:
#      x y z
#    x 2.031990 0.000000 0.024360 
#    y 0.000000 2.022170 0.000000 
#    z 0.024360 0.000000 2.024840 
# 
# From -- ./inp_files/1225.got.cif
#   From: 2010.05.17/outbox.cif.g08.bks.cpg/sg4_1_cif.got.tgz:1225.got - 2010.06.03 18:43:04.
