data_PCOD9117054
_publ_section_title
;
Structure prediction by ZEFSAII (Michael W. Deem and Ramdas Pophale) SiO2 
 PCOD9117054
Probable space group: P 21
;
_chemical_formula_sum "Si O2"
_cell_formula_units_Z 12
_cell_length_a 11.806861
_cell_length_b 7.420290
_cell_length_c 6.435255
_cell_angle_alpha 90.000000
_cell_angle_beta 89.638034
_cell_angle_gamma 90.000000
_cell_volume 563.783580
_symmetry_space_group_name_H-M "P 21"
_symmetry_group_IT_number 4
_symmetry_cell_setting 'monoclinic'
loop_
_space_group_symop_operation_xyz
x,y,z
-x,1/2+y,-z
loop_
_atom_site_type_symbol
_atom_site_label
_atom_site_fract_x
_atom_site_fract_y
_atom_site_fract_z
Si Si1 0.290583 0.715620 0.029735
Si Si2 0.854476 0.764707 0.887894
Si Si3 0.621922 0.579637 0.005622
Si Si4 0.252781 0.544385 0.433066
Si Si5 0.087829 0.585026 0.815319
Si Si6 0.573929 0.935575 0.230395
O O1 0.292452 0.703441 0.278371
O O2 0.358606 0.875685 0.918493
O O3 0.159988 0.716910 0.964570
O O4 0.344391 0.530869 0.942211
O O5 0.747500 0.645804 0.953623
O O6 0.959472 0.647663 0.806595
O O7 0.807159 0.896878 0.711121
O O8 0.897495 0.888543 0.079617
O O9 0.542169 0.543895 0.806370
O O10 0.567856 0.726474 0.160967
O O11 0.157664 0.596955 0.601204
O O12 0.360906 0.466348 0.555797
#
# Coordination Sequence:
#
# PCOD9117054 Si02
#       6
#     2   2   2   2   2   2
#     4  10  22  43  65  95 135 173 220 278 336 395
#     4  11  23  41  67  98 135 175 225 274 339 399
#     4  12  22  43  70  93 134 184 219 277 345 387
#     4  10  22  44  63  96 143 166 228 280 328 406
#     4  10  22  43  65  96 136 174 216 278 334 409
#     4  11  23  44  66  96 133 178 228 279 328 406
#
# _framework density 21.284763000000002
#
# number of rings (size 3 to 8) (size 9 to 14) (size 15 to 20)
#    0.000    1.333    6.667    1.000    0.000    5.333 
#    9.000    0.000    0.000    0.000    0.000    0.000 
#    0.000    0.000    0.000    0.000    0.000    0.000 
#
# Total GULP energy -66936.176308 kJ/mol
# GULP energy per Si atom -5578.014692 kJ/mol
# Density = 2.123632 g / cm^3
# Si number density = 21.284763 Si / 1000 Ang^3
#
#
#
# Elastic Constant Matrix: (Units=GPa)
#
#
# Indices 1 2 3 4 5 6 
#
# 1 98.7422 26.8640 4.5629 0.0000 17.8679 0.0000
# 2 26.8640 92.7869 24.5556 0.0000 0.4613 0.0000
# 3 4.5629 24.5556 80.8049 0.0000 7.7006 0.0000
# 4 0.0000 0.0000 0.0000 10.2277 0.0000 -0.9341
# 5 17.8679 0.4613 7.7006 0.0000 23.7058 0.0000
# 6 0.0000 0.0000 0.0000 -0.9341 0.0000 44.7930
#
#
#
# Elastic Compliance Matrix: (Units=1/GPa)
#
#
# Indices 1 2 3 4 5 6 
#
# 1 0.013028 -0.004115 0.001489 0.000000 -0.010223 0.000000
# 2 -0.004115 0.013041 -0.004130 0.000000 0.004190 0.000000
# 3 0.001489 -0.004130 0.014082 0.000000 -0.005616 0.000000
# 4 0.000000 0.000000 0.000000 0.097960 0.000000 0.002043
# 5 -0.010223 0.004190 -0.005616 0.000000 0.051632 0.000000
# 6 0.000000 0.000000 0.000000 0.002043 0.000000 0.022368
#
#
# Mechanical properties :
#
#
# Convention : Reuss Voigt Hill
#
# Bulk Modulus (GPa) = 37.53905 42.69988 40.11947
# Shear Modulus (GPa) = 21.32173 30.16874 25.74524
#
# Velocity S-wave (km/s) = 3.16846 3.76890 3.48165
# Velocity P-wave (km/s) = 5.57318 6.24854 5.92050
#
# Compressibility (1/GPa) = 0.02663893
#
# Stress axis : x y z
#
# Youngs Moduli (GPa) = 76.75675 76.68138 71.01438
#
# Poissons Ratio (x) = 0.31556 -0.10575
# Poissons Ratio (y) = 0.31587 0.29328
# Poissons Ratio (z) = -0.11431 0.31668
#
# Static dielectric constant tensor:
#      x y z
#    x 1.796560 0.000000 0.023020 
#    y 0.000000 1.815860 0.000000 
#    z 0.023020 0.000000 1.759300 
# 
# From -- ./inp_files/2538.got.cif
#   From: 2010.05.17/outbox.cif.g08.bks.cpg/sg4_2_cif.got.tgz:2538.got - 2010.06.03 18:43:04.
