data_PCOD9117292
_publ_section_title
;
Structure prediction by ZEFSAII (Michael W. Deem and Ramdas Pophale) SiO2 
 PCOD9117292
Probable space group: P 21
;
_chemical_formula_sum "Si O2"
_cell_formula_units_Z 14
_cell_length_a 9.308809
_cell_length_b 11.335428
_cell_length_c 11.918515
_cell_angle_alpha 90.000000
_cell_angle_beta 27.393996
_cell_angle_gamma 90.000000
_cell_volume 578.645783
_symmetry_space_group_name_H-M "P 21"
_symmetry_group_IT_number 4
_symmetry_cell_setting 'monoclinic'
loop_
_space_group_symop_operation_xyz
x,y,z
-x,1/2+y,-z
loop_
_atom_site_type_symbol
_atom_site_label
_atom_site_fract_x
_atom_site_fract_y
_atom_site_fract_z
Si Si1 0.144951 0.754750 0.910415
Si Si2 0.810584 0.983439 0.084783
Si Si3 0.255615 0.037688 0.607792
Si Si4 0.073319 0.251090 0.168999
Si Si5 0.196280 0.522154 0.586528
Si Si6 0.746495 0.222164 0.617848
Si Si7 0.164795 0.263073 0.539611
O O1 0.051835 0.616613 0.986405
O O2 0.470263 0.768986 0.747462
O O3 0.193816 0.763890 0.741118
O O4 0.934667 0.871987 0.071574
O O5 0.448141 0.998507 0.363929
O O6 0.587593 0.777139 0.118399
O O7 0.518774 0.022136 0.522000
O O8 0.947715 0.970037 0.863395
O O9 0.153330 0.170204 0.649082
O O10 0.943453 0.285993 0.381279
O O11 0.077349 0.107252 0.181249
O O12 0.307876 0.593472 0.398904
O O13 0.082919 0.393003 0.636636
O O14 0.952448 0.220490 0.585867
#
# Coordination Sequence:
#
# PCOD9117292 Si02
#       7
#     2   2   2   2   2   2   2
#     4  11  24  44  75 106 142 192 242 305 352 430
#     4  11  24  40  68 105 140 176 236 299 354 409
#     4  11  24  43  67 107 134 183 236 296 343 429
#     4  10  23  47  67  95 146 181 236 285 368 413
#     4  10  22  45  71  96 143 188 227 295 362 420
#     4  10  24  47  65 100 139 188 230 290 356 440
#     4  11  23  46  75 105 140 190 245 294 363 425
#
# _framework density 24.194420999999998
#
# number of rings (size 3 to 8) (size 9 to 14) (size 15 to 20)
#    0.857    0.571    4.286    0.857    2.000    3.429 
#   12.857    0.000    0.000    0.000    0.000    0.000 
#    0.000    0.000    0.000    0.000    0.000    0.000 
#
# Total GULP energy -78015.519197 kJ/mol
# GULP energy per Si atom -5572.537085 kJ/mol
# Density = 2.413935 g / cm^3
# Si number density = 24.194421 Si / 1000 Ang^3
#
#
#
# Elastic Constant Matrix: (Units=GPa)
#
#
# Indices 1 2 3 4 5 6 
#
# 1 121.8750 22.8552 44.3258 0.0000 -3.7783 0.0000
# 2 22.8552 107.1151 31.2968 0.0000 9.3006 0.0000
# 3 44.3258 31.2968 126.5784 0.0000 18.0762 0.0000
# 4 0.0000 0.0000 0.0000 27.0935 0.0000 9.1079
# 5 -3.7783 9.3006 18.0762 0.0000 38.6331 0.0000
# 6 0.0000 0.0000 0.0000 9.1079 0.0000 20.8967
#
#
#
# Elastic Compliance Matrix: (Units=1/GPa)
#
#
# Indices 1 2 3 4 5 6 
#
# 1 0.009829 -0.001319 -0.003535 0.000000 0.002933 0.000000
# 2 -0.001319 0.010306 -0.001836 0.000000 -0.001751 0.000000
# 3 -0.003535 -0.001836 0.010264 0.000000 -0.004706 0.000000
# 4 0.000000 0.000000 0.000000 0.043245 0.000000 -0.018849
# 5 0.002933 -0.001751 -0.004706 0.000000 0.028795 0.000000
# 6 0.000000 0.000000 0.000000 -0.018849 0.000000 0.056070
#
#
# Mechanical properties :
#
#
# Convention : Reuss Voigt Hill
#
# Bulk Modulus (GPa) = 58.75774 61.39159 60.07467
# Shear Modulus (GPa) = 28.15930 34.46405 31.31167
#
# Velocity S-wave (km/s) = 3.41526 3.77830 3.60136
# Velocity P-wave (km/s) = 6.31589 6.66809 6.49438
#
# Compressibility (1/GPa) = 0.01701903
#
# Stress axis : x y z
#
# Youngs Moduli (GPa) = 101.74030 97.03350 97.42729
#
# Poissons Ratio (x) = 0.12800 0.34437
# Poissons Ratio (y) = 0.13421 0.17889
# Poissons Ratio (z) = 0.35961 0.17817
#
# Static dielectric constant tensor:
#      x y z
#    x 1.924410 0.000000 0.091370 
#    y 0.000000 2.191850 0.000000 
#    z 0.091370 0.000000 1.969300 
# 
# From -- ./inp_files/13739.got.cif
#   From: 2010.05.17/outbox.cif.g08.bks.cpg/sg4_7_cif.got.tgz:13739.got - 2010.06.03 18:43:04.
