data_PCOD9117905
_publ_section_title
;
Structure prediction by ZEFSAII (Michael W. Deem and Ramdas Pophale) SiO2 
 PCOD9117905
Probable space group: P 21
;
_chemical_formula_sum "Si O2"
_cell_formula_units_Z 16
_cell_length_a 8.688796
_cell_length_b 6.263270
_cell_length_c 19.349857
_cell_angle_alpha 90.000000
_cell_angle_beta 37.695862
_cell_angle_gamma 90.000000
_cell_volume 643.892808
_symmetry_space_group_name_H-M "P 21"
_symmetry_group_IT_number 4
_symmetry_cell_setting 'monoclinic'
loop_
_space_group_symop_operation_xyz
x,y,z
-x,1/2+y,-z
loop_
_atom_site_type_symbol
_atom_site_label
_atom_site_fract_x
_atom_site_fract_y
_atom_site_fract_z
Si Si1 0.092197 0.515620 0.639178
Si Si2 0.550974 0.737591 0.558156
Si Si3 0.410494 0.138827 0.123223
Si Si4 0.688336 0.314944 0.132895
Si Si5 0.753447 0.557394 0.250060
Si Si6 0.756430 0.816314 0.947121
Si Si7 0.906026 0.597415 0.549727
Si Si8 0.906815 0.940024 0.118459
O O1 0.320355 0.641223 0.596204
O O2 0.218062 0.289336 0.575166
O O3 0.856374 0.528627 0.774069
O O4 0.966828 0.595062 0.610999
O O5 0.450915 0.963828 0.625723
O O6 0.660371 0.610961 0.585579
O O7 0.459582 0.321859 0.161669
O O8 0.444649 0.245053 0.036993
O O9 0.626913 0.962403 0.049580
O O10 0.680868 0.083295 0.170869
O O11 0.682378 0.480905 0.196982
O O12 0.943753 0.322114 0.996386
O O13 0.019345 0.443757 0.169932
O O14 0.813832 0.801462 0.215457
O O15 0.888373 0.611005 0.930493
O O16 0.993998 0.346458 0.502189
#
# Coordination Sequence:
#
# PCOD9117905 Si02
#       8
#     2   2   2   2   2   2   2   2
#     4  11  25  47  78 109 150 200 256 314 390 462
#     4  11  24  49  74 112 152 197 258 318 384 460
#     4  12  24  45  67 104 147 188 241 307 370 457
#     4  11  21  39  68  98 141 176 240 295 356 443
#     4  11  23  44  71 101 140 190 236 307 365 442
#     4  11  25  43  66 100 146 183 239 301 369 445
#     4  10  23  49  80 117 157 201 263 326 388 462
#     4  11  21  42  68 103 137 189 239 292 376 445
#
# _framework density 24.848858
#
# number of rings (size 3 to 8) (size 9 to 14) (size 15 to 20)
#    0.000    1.000    3.750    3.000    0.000    1.000 
#   18.000    3.750    0.000    0.000    0.000    0.000 
#    0.000    0.000    0.000    0.000    0.000    0.000 
#
# Total GULP energy -89205.763353 kJ/mol
# GULP energy per Si atom -5575.360210 kJ/mol
# Density = 2.479230 g / cm^3
# Si number density = 24.848858 Si / 1000 Ang^3
#
#
#
# Elastic Constant Matrix: (Units=GPa)
#
#
# Indices 1 2 3 4 5 6 
#
# 1 152.7253 25.5202 0.3322 0.0000 7.8117 0.0000
# 2 25.5202 87.9397 3.9860 0.0000 6.7704 0.0000
# 3 0.3322 3.9860 52.6987 0.0000 -4.3841 0.0000
# 4 0.0000 0.0000 0.0000 33.5442 0.0000 -2.3925
# 5 7.8117 6.7704 -4.3841 0.0000 25.2131 0.0000
# 6 0.0000 0.0000 0.0000 -2.3925 0.0000 31.3167
#
#
#
# Elastic Compliance Matrix: (Units=1/GPa)
#
#
# Indices 1 2 3 4 5 6 
#
# 1 0.006948 -0.001887 -0.000039 0.000000 -0.001652 0.000000
# 2 -0.001887 0.012194 -0.001151 0.000000 -0.002890 0.000000
# 3 -0.000039 -0.001151 0.019370 0.000000 0.003689 0.000000
# 4 0.000000 0.000000 0.000000 0.029975 0.000000 0.002290
# 5 -0.001652 -0.002890 0.003689 0.000000 0.041591 0.000000
# 6 0.000000 0.000000 0.000000 0.002290 0.000000 0.032107
#
#
# Mechanical properties :
#
#
# Convention : Reuss Voigt Hill
#
# Bulk Modulus (GPa) = 30.90402 39.22671 35.06536
# Shear Modulus (GPa) = 31.42214 35.58315 33.50265
#
# Velocity S-wave (km/s) = 3.55988 3.78826 3.67585
# Velocity P-wave (km/s) = 5.41856 5.91227 5.67079
#
# Compressibility (1/GPa) = 0.03235825
#
# Stress axis : x y z
#
# Youngs Moduli (GPa) = 143.93315 82.00923 51.62627
#
# Poissons Ratio (x) = 0.15477 0.00199
# Poissons Ratio (y) = 0.27164 0.05941
# Poissons Ratio (z) = 0.00555 0.09438
#
# Static dielectric constant tensor:
#      x y z
#    x 1.993620 0.000000 -0.022140 
#    y 0.000000 2.026400 0.000000 
#    z -0.022140 0.000000 1.981290 
# 
# From -- ./inp_files/8922.got.cif
#   From: 2010.05.17/outbox.cif.g08.bks.cpg/sg4_5_cif.got.tgz:8922.got - 2010.06.03 18:43:04.
