data_PCOD9117962
_publ_section_title
;
Structure prediction by ZEFSAII (Michael W. Deem and Ramdas Pophale) SiO2 
 PCOD9117962
Probable space group: P 21
;
_chemical_formula_sum "Si O2"
_cell_formula_units_Z 12
_cell_length_a 5.055047
_cell_length_b 7.957647
_cell_length_c 12.377031
_cell_angle_alpha 90.000000
_cell_angle_beta 104.285955
_cell_angle_gamma 90.000000
_cell_volume 482.485534
_symmetry_space_group_name_H-M "P 21"
_symmetry_group_IT_number 4
_symmetry_cell_setting 'monoclinic'
loop_
_space_group_symop_operation_xyz
x,y,z
-x,1/2+y,-z
loop_
_atom_site_type_symbol
_atom_site_label
_atom_site_fract_x
_atom_site_fract_y
_atom_site_fract_z
Si Si1 0.052869 0.464930 0.786994
Si Si2 0.399242 0.788772 0.581271
Si Si3 0.106403 0.093886 0.460271
Si Si4 0.069508 0.603453 0.131622
Si Si5 0.527144 0.994093 0.994153
Si Si6 0.676192 0.770829 0.817098
O O1 0.000965 0.490955 0.655176
O O2 0.960209 0.277806 0.810462
O O3 0.872096 0.612963 0.822675
O O4 0.350261 0.480561 0.873734
O O5 0.690065 0.740506 0.560246
O O6 0.422847 0.751860 0.711349
O O7 0.161114 0.668834 0.512065
O O8 0.291885 0.973912 0.550466
O O9 0.286554 0.623978 0.056532
O O10 0.180565 0.444103 0.210077
O O11 0.786515 0.534299 0.055061
O O12 0.597303 0.825415 0.930312
#
# Coordination Sequence:
#
# PCOD9117962 Si02
#       6
#     2   2   2   2   2   2
#     4  11  24  44  69 102 137 177 237 266 351 398
#     4  11  25  47  70 101 136 174 231 277 352 392
#     4  11  27  44  74  99 132 182 220 295 331 416
#     4  10  25  40  65 102 131 192 215 283 326 410
#     4  10  24  42  66  99 142 177 222 277 337 397
#     4   9  25  43  68  97 140 180 219 286 331 403
#
# _framework density 24.871210999999999
#
# number of rings (size 3 to 8) (size 9 to 14) (size 15 to 20)
#    1.000    0.667    0.000    2.000    9.333    6.667 
#    0.000    0.000    0.000    0.000    0.000    0.000 
#    0.000    0.000    0.000    0.000    0.000    0.000 
#
# Total GULP energy -67134.911198 kJ/mol
# GULP energy per Si atom -5594.575933 kJ/mol
# Density = 2.481460 g / cm^3
# Si number density = 24.871211 Si / 1000 Ang^3
#
#
#
# Elastic Constant Matrix: (Units=GPa)
#
#
# Indices 1 2 3 4 5 6 
#
# 1 81.5411 14.6090 18.0569 0.0000 22.9038 0.0000
# 2 14.6090 132.2236 12.2830 0.0000 14.8274 0.0000
# 3 18.0569 12.2830 72.2723 0.0000 28.6312 0.0000
# 4 0.0000 0.0000 0.0000 49.3014 0.0000 12.3145
# 5 22.9038 14.8274 28.6312 0.0000 32.0424 0.0000
# 6 0.0000 0.0000 0.0000 12.3145 0.0000 29.7223
#
#
#
# Elastic Compliance Matrix: (Units=1/GPa)
#
#
# Indices 1 2 3 4 5 6 
#
# 1 0.015404 -0.000487 0.000785 0.000000 -0.011486 0.000000
# 2 -0.000487 0.007994 0.000140 0.000000 -0.003476 0.000000
# 3 0.000785 0.000140 0.021462 0.000000 -0.019803 0.000000
# 4 0.000000 0.000000 0.000000 0.022625 0.000000 -0.009374
# 5 -0.011486 -0.003476 -0.019803 0.000000 0.058722 0.000000
# 6 0.000000 0.000000 0.000000 -0.009374 0.000000 0.037529
#
#
# Mechanical properties :
#
#
# Convention : Reuss Voigt Hill
#
# Bulk Modulus (GPa) = 21.86514 41.77055 31.81784
# Shear Modulus (GPa) = 28.07363 38.28574 33.17968
#
# Velocity S-wave (km/s) = 3.36335 3.92772 3.65644
# Velocity P-wave (km/s) = 4.88807 6.11560 5.53596
#
# Compressibility (1/GPa) = 0.04573491
#
# Stress axis : x y z
#
# Youngs Moduli (GPa) = 64.92017 125.10112 46.59476
#
# Poissons Ratio (x) = 0.06089 -0.03656
# Poissons Ratio (y) = 0.03160 -0.00654
# Poissons Ratio (z) = -0.05093 -0.01755
#
# Static dielectric constant tensor:
#      x y z
#    x 1.946410 0.000000 -0.037070 
#    y 0.000000 2.033290 0.000000 
#    z -0.037070 0.000000 1.959570 
# 
# From -- ./inp_files/13300.got.cif
#   From: 2010.05.17/outbox.cif.g08.bks.cpg/sg4_7_cif.got.tgz:13300.got - 2010.06.03 18:43:04.
