data_PCOD9117727
_publ_section_title
;
Structure prediction by ZEFSAII (Michael W. Deem and Ramdas Pophale) SiO2 
 PCOD9117727
Probable space group: P 21
;
_chemical_formula_sum "Si O2"
_cell_formula_units_Z 8
_cell_length_a 12.592766
_cell_length_b 4.764752
_cell_length_c 6.743887
_cell_angle_alpha 90.000000
_cell_angle_beta 133.212859
_cell_angle_gamma 90.000000
_cell_volume 294.909665
_symmetry_space_group_name_H-M "P 21"
_symmetry_group_IT_number 4
_symmetry_cell_setting 'monoclinic'
loop_
_space_group_symop_operation_xyz
x,y,z
-x,1/2+y,-z
loop_
_atom_site_type_symbol
_atom_site_label
_atom_site_fract_x
_atom_site_fract_y
_atom_site_fract_z
Si Si1 0.018352 0.027110 0.155924
Si Si2 0.643257 0.857396 0.091787
Si Si3 0.668030 0.449087 0.453547
Si Si4 0.234940 0.866356 0.978025
O O1 0.167564 0.875082 0.409562
O O2 0.064920 0.268891 0.055694
O O3 0.917633 0.208910 0.172057
O O4 0.479201 0.798573 0.806126
O O5 0.759482 0.663473 0.122649
O O6 0.677492 0.162447 0.054638
O O7 0.654724 0.756759 0.333504
O O8 0.681900 0.405215 0.706157
#
# Coordination Sequence:
#
# PCOD9117727 Si02
#       4
#     2   2   2   2
#     4  10  23  44  73 104 147 202 250 315 389 451
#     4  12  26  43  73 107 146 199 246 309 388 449
#     4  11  26  47  71 109 153 193 255 317 377 463
#     4  11  25  46  71 104 146 198 251 309 378 455
#
# _framework density 27.126947999999999
#
# number of rings (size 3 to 8) (size 9 to 14) (size 15 to 20)
#    0.000    1.000    0.000    6.000    0.000   18.000 
#    0.000    0.000    0.000    0.000    0.000    0.000 
#    0.000    0.000    0.000    0.000    0.000    0.000 
#
# Total GULP energy -44708.024156 kJ/mol
# GULP energy per Si atom -5588.503019 kJ/mol
# Density = 2.706521 g / cm^3
# Si number density = 27.126948 Si / 1000 Ang^3
#
#
#
# Elastic Constant Matrix: (Units=GPa)
#
#
# Indices 1 2 3 4 5 6 
#
# 1 125.9897 17.7579 22.3594 0.0000 -1.3986 0.0000
# 2 17.7579 105.7211 26.4029 0.0000 -10.2281 0.0000
# 3 22.3594 26.4029 156.6828 0.0000 -1.7437 0.0000
# 4 0.0000 0.0000 0.0000 48.2148 0.0000 -1.0506
# 5 -1.3986 -10.2281 -1.7437 0.0000 45.5187 0.0000
# 6 0.0000 0.0000 0.0000 -1.0506 0.0000 67.1338
#
#
#
# Elastic Compliance Matrix: (Units=1/GPa)
#
#
# Indices 1 2 3 4 5 6 
#
# 1 0.008274 -0.001147 -0.000988 0.000000 -0.000041 0.000000
# 2 -0.001147 0.010250 -0.001539 0.000000 0.002209 0.000000
# 3 -0.000988 -0.001539 0.006781 0.000000 -0.000116 0.000000
# 4 0.000000 0.000000 0.000000 0.020748 0.000000 0.000325
# 5 -0.000041 0.002209 -0.000116 0.000000 0.022460 0.000000
# 6 0.000000 0.000000 0.000000 0.000325 0.000000 0.014901
#
#
# Mechanical properties :
#
#
# Convention : Reuss Voigt Hill
#
# Bulk Modulus (GPa) = 55.68865 57.93710 56.81287
# Shear Modulus (GPa) = 51.68191 53.63170 52.65680
#
# Velocity S-wave (km/s) = 4.36958 4.45124 4.41060
# Velocity P-wave (km/s) = 6.78462 6.91536 6.85030
#
# Compressibility (1/GPa) = 0.01795698
#
# Stress axis : x y z
#
# Youngs Moduli (GPa) = 120.86515 97.56538 147.46389
#
# Poissons Ratio (x) = 0.11191 0.14567
# Poissons Ratio (y) = 0.13863 0.22693
# Poissons Ratio (z) = 0.11940 0.15014
#
# Static dielectric constant tensor:
#      x y z
#    x 2.128920 0.000000 -0.038840 
#    y 0.000000 2.101200 0.000000 
#    z -0.038840 0.000000 2.152270 
# 
# From -- ./inp_files/2313.got.cif
#   From: 2010.05.17/outbox.cif.g08.bks.cpg/sg4_2_cif.got.tgz:2313.got - 2010.06.03 18:43:04.
