data_PCOD9117859
_publ_section_title
;
Structure prediction by ZEFSAII (Michael W. Deem and Ramdas Pophale) SiO2 
 PCOD9117859
Probable space group: P 21
;
_chemical_formula_sum "Si O2"
_cell_formula_units_Z 16
_cell_length_a 9.288974
_cell_length_b 5.933560
_cell_length_c 20.393326
_cell_angle_alpha 90.000000
_cell_angle_beta 141.637956
_cell_angle_gamma 90.000000
_cell_volume 697.594180
_symmetry_space_group_name_H-M "P 21"
_symmetry_group_IT_number 4
_symmetry_cell_setting 'monoclinic'
loop_
_space_group_symop_operation_xyz
x,y,z
-x,1/2+y,-z
loop_
_atom_site_type_symbol
_atom_site_label
_atom_site_fract_x
_atom_site_fract_y
_atom_site_fract_z
Si Si1 0.371380 0.560780 0.453887
Si Si2 0.853195 0.239212 0.404233
Si Si3 0.814852 0.076727 0.258912
Si Si4 0.618480 0.490612 0.740161
Si Si5 0.105067 0.584099 0.129834
Si Si6 0.699098 0.742943 0.898199
Si Si7 0.934157 0.685281 0.382974
Si Si8 0.108730 0.299696 0.252582
O O1 0.508471 0.313899 0.511823
O O2 0.220934 0.494961 0.336372
O O3 0.180693 0.600456 0.442541
O O4 0.969118 0.152552 0.377942
O O5 0.642773 0.069929 0.341888
O O6 0.771214 0.482807 0.349438
O O7 0.991272 0.286706 0.519514
O O8 0.562700 0.190839 0.172363
O O9 0.937549 0.156080 0.237180
O O10 0.810436 0.815485 0.278729
O O11 0.704414 0.238183 0.766193
O O12 0.736700 0.569793 0.850869
O O13 0.699067 0.627881 0.705730
O O14 0.237565 0.474030 0.115501
O O15 0.015399 0.407067 0.152164
O O16 0.879488 0.704980 0.020655
#
# Coordination Sequence:
#
# PCOD9117859 Si02
#       8
#     2   2   2   2   2   2   2   2
#     4  12  28  48  76 107 158 213 253 314 386 465
#     4  11  24  43  70 110 137 200 248 302 370 441
#     4  11  25  47  69 107 151 197 244 314 386 455
#     4  10  24  43  75 105 139 190 248 303 373 453
#     4  11  23  48  75 105 148 190 253 323 371 475
#     4  10  23  47  74 103 139 193 251 305 395 443
#     4  12  25  45  74 103 156 193 258 313 367 458
#     4  11  26  45  69 110 150 190 253 304 382 456
#
# _framework density 22.935972
#
# number of rings (size 3 to 8) (size 9 to 14) (size 15 to 20)
#    0.000    1.000    3.750    1.500    5.250    7.000 
#    2.250    0.000    0.000    0.000    0.000    0.000 
#    0.000    0.000    0.000    0.000    0.000    0.000 
#
# Total GULP energy -89121.956105 kJ/mol
# GULP energy per Si atom -5570.122257 kJ/mol
# Density = 2.288377 g / cm^3
# Si number density = 22.935972 Si / 1000 Ang^3
#
#
#
# Elastic Constant Matrix: (Units=GPa)
#
#
# Indices 1 2 3 4 5 6 
#
# 1 141.5978 36.9611 41.5129 0.0000 -2.0179 0.0000
# 2 36.9611 82.0022 43.8565 0.0000 2.8124 0.0000
# 3 41.5129 43.8565 92.5790 0.0000 4.6347 0.0000
# 4 0.0000 0.0000 0.0000 32.6254 0.0000 -7.9340
# 5 -2.0179 2.8124 4.6347 0.0000 28.5549 0.0000
# 6 0.0000 0.0000 0.0000 -7.9340 0.0000 38.7165
#
#
#
# Elastic Compliance Matrix: (Units=1/GPa)
#
#
# Indices 1 2 3 4 5 6 
#
# 1 0.008514 -0.002418 -0.002737 0.000000 0.001284 0.000000
# 2 -0.002418 0.017023 -0.006944 0.000000 -0.000720 0.000000
# 3 -0.002737 -0.006944 0.015419 0.000000 -0.002012 0.000000
# 4 0.000000 0.000000 0.000000 0.032259 0.000000 0.006611
# 5 0.001284 -0.000720 -0.002012 0.000000 0.035508 0.000000
# 6 0.000000 0.000000 0.000000 0.006611 0.000000 0.027183
#
#
# Mechanical properties :
#
#
# Convention : Reuss Voigt Hill
#
# Bulk Modulus (GPa) = 59.66902 62.31554 60.99228
# Shear Modulus (GPa) = 30.17690 32.90260 31.53975
#
# Velocity S-wave (km/s) = 3.63120 3.79164 3.71229
# Velocity P-wave (km/s) = 6.60702 6.81154 6.71006
#
# Compressibility (1/GPa) = 0.01675911
#
# Stress axis : x y z
#
# Youngs Moduli (GPa) = 117.45344 58.74371 64.85582
#
# Poissons Ratio (x) = 0.14204 0.17748
# Poissons Ratio (y) = 0.28401 0.45035
# Poissons Ratio (z) = 0.32142 0.40791
#
# Static dielectric constant tensor:
#      x y z
#    x 1.830350 0.000000 -0.004330 
#    y 0.000000 2.144010 0.000000 
#    z -0.004330 0.000000 1.868920 
# 
# From -- ./inp_files/15599.got.cif
#   From: 2010.05.17/outbox.cif.g08.bks.cpg/sg4_8_cif.got.tgz:15599.got - 2010.06.03 18:43:04.
