data_PCOD9117262
_publ_section_title
;
Structure prediction by ZEFSAII (Michael W. Deem and Ramdas Pophale) SiO2 
 PCOD9117262
Probable space group: P 21
;
_chemical_formula_sum "Si O2"
_cell_formula_units_Z 16
_cell_length_a 14.526813
_cell_length_b 9.558233
_cell_length_c 5.339260
_cell_angle_alpha 90.000000
_cell_angle_beta 124.106875
_cell_angle_gamma 90.000000
_cell_volume 613.840761
_symmetry_space_group_name_H-M "P 21"
_symmetry_group_IT_number 4
_symmetry_cell_setting 'monoclinic'
loop_
_space_group_symop_operation_xyz
x,y,z
-x,1/2+y,-z
loop_
_atom_site_type_symbol
_atom_site_label
_atom_site_fract_x
_atom_site_fract_y
_atom_site_fract_z
Si Si1 0.329950 0.413520 0.445339
Si Si2 0.097688 0.208695 0.713853
Si Si3 0.069772 0.049048 0.175009
Si Si4 0.259120 0.647394 0.954454
Si Si5 0.559531 0.172816 0.137607
Si Si6 0.641880 0.661852 0.843694
Si Si7 0.124992 0.450695 0.430499
Si Si8 0.712036 0.394879 0.667806
O O1 0.410685 0.518503 0.711492
O O2 0.386746 0.285547 0.394003
O O3 0.231603 0.369884 0.480951
O O4 0.269160 0.515321 0.152500
O O5 0.050961 0.113321 0.418024
O O6 0.076223 0.364278 0.586894
O O7 0.066963 0.163295 0.944899
O O8 0.229326 0.183021 0.906430
O O9 0.189371 0.971152 0.335740
O O10 0.966620 0.959306 0.921783
O O11 0.385363 0.671385 0.050015
O O12 0.178607 0.597574 0.607713
O O13 0.227265 0.789059 0.045375
O O14 0.432504 0.184388 0.024187
O O15 0.631216 0.294217 0.385228
O O16 0.639550 0.511315 0.703561
#
# Coordination Sequence:
#
# PCOD9117262 Si02
#       8
#     2   2   2   2   2   2   2   2
#     4  10  22  45  68 104 139 187 249 289 358 439
#     4  11  26  47  67 112 138 186 246 295 357 438
#     4  11  28  44  75 104 147 188 237 306 365 420
#     4  10  23  43  64 103 136 182 240 297 347 446
#     4  10  23  42  70 101 138 195 236 296 370 425
#     4  11  22  45  70  99 146 185 242 303 361 426
#     4  11  24  44  75  96 143 192 237 294 369 429
#     4  10  24  44  65 105 143 177 243 302 353 431
#
# _framework density 26.065390000000001
#
# number of rings (size 3 to 8) (size 9 to 14) (size 15 to 20)
#    0.000    1.500    1.250    2.250    7.000    3.000 
#   13.500    0.000    0.000    0.000    0.000    0.000 
#    0.000    0.000    0.000    0.000    0.000    0.000 
#
# Total GULP energy -89624.109895 kJ/mol
# GULP energy per Si atom -5601.506868 kJ/mol
# Density = 2.600606 g / cm^3
# Si number density = 26.065390 Si / 1000 Ang^3
#
#
#
# Elastic Constant Matrix: (Units=GPa)
#
#
# Indices 1 2 3 4 5 6 
#
# 1 86.8092 27.7214 8.8610 0.0000 2.2995 0.0000
# 2 27.7214 137.2384 27.8857 0.0000 -16.7140 0.0000
# 3 8.8610 27.8857 56.0206 0.0000 -3.7055 0.0000
# 4 0.0000 0.0000 0.0000 35.8030 0.0000 -12.4897
# 5 2.2995 -16.7140 -3.7055 0.0000 37.9642 0.0000
# 6 0.0000 0.0000 0.0000 -12.4897 0.0000 38.5142
#
#
#
# Elastic Compliance Matrix: (Units=1/GPa)
#
#
# Indices 1 2 3 4 5 6 
#
# 1 0.012484 -0.002598 -0.000813 0.000000 -0.001979 0.000000
# 2 -0.002598 0.009051 -0.003846 0.000000 0.003767 0.000000
# 3 -0.000813 -0.003846 0.019913 0.000000 0.000300 0.000000
# 4 0.000000 0.000000 0.000000 0.031493 0.000000 0.010213
# 5 -0.001979 0.003767 0.000300 0.000000 0.028148 0.000000
# 6 0.000000 0.000000 0.000000 0.010213 0.000000 0.029276
#
#
# Mechanical properties :
#
#
# Convention : Reuss Voigt Hill
#
# Bulk Modulus (GPa) = 37.12305 45.44493 41.28399
# Shear Modulus (GPa) = 32.49753 36.82960 34.66356
#
# Velocity S-wave (km/s) = 3.53479 3.76303 3.65069
# Velocity P-wave (km/s) = 5.56173 6.02937 5.80027
#
# Compressibility (1/GPa) = 0.02693744
#
# Stress axis : x y z
#
# Youngs Moduli (GPa) = 80.09968 110.47916 50.21804
#
# Poissons Ratio (x) = 0.28700 0.04080
# Poissons Ratio (y) = 0.20808 0.19312
# Poissons Ratio (z) = 0.06508 0.42485
#
# Static dielectric constant tensor:
#      x y z
#    x 2.036300 0.000000 -0.000930 
#    y 0.000000 2.077020 0.000000 
#    z -0.000930 0.000000 2.050300 
# 
# From -- ./inp_files/3420.got.cif
#   From: 2010.05.17/outbox.cif.g08.bks.cpg/sg4_2_cif.got.tgz:3420.got - 2010.06.03 18:43:04.
