data_PCOD9117809
_publ_section_title
;
Structure prediction by ZEFSAII (Michael W. Deem and Ramdas Pophale) SiO2 
 PCOD9117809
Probable space group: P 21
;
_chemical_formula_sum "Si O2"
_cell_formula_units_Z 16
_cell_length_a 9.251144
_cell_length_b 8.557126
_cell_length_c 11.920227
_cell_angle_alpha 90.000000
_cell_angle_beta 142.217606
_cell_angle_gamma 90.000000
_cell_volume 578.136534
_symmetry_space_group_name_H-M "P 21"
_symmetry_group_IT_number 4
_symmetry_cell_setting 'monoclinic'
loop_
_space_group_symop_operation_xyz
x,y,z
-x,1/2+y,-z
loop_
_atom_site_type_symbol
_atom_site_label
_atom_site_fract_x
_atom_site_fract_y
_atom_site_fract_z
Si Si1 0.246130 0.037920 0.539855
Si Si2 0.002513 0.938516 0.170095
Si Si3 0.017842 0.031379 0.944552
Si Si4 0.828774 0.942618 0.432921
Si Si5 0.335588 0.237700 0.879964
Si Si6 0.406454 0.714245 0.378361
Si Si7 0.821224 0.382980 0.165862
Si Si8 0.526405 0.711129 0.703668
O O1 0.043131 0.038434 0.506824
O O2 0.443595 0.166959 0.636575
O O3 0.105232 0.035403 0.335706
O O4 0.387367 0.872621 0.646276
O O5 0.246252 0.866318 0.268646
O O6 0.818353 0.828773 0.121746
O O7 0.900388 0.005564 0.993611
O O8 0.218152 0.161324 0.092688
O O9 0.124806 0.893431 0.934007
O O10 0.802749 0.088225 0.735023
O O11 0.953730 0.862947 0.616589
O O12 0.639266 0.068257 0.358352
O O13 0.735375 0.825582 0.279224
O O14 0.279889 0.055832 0.863932
O O15 0.614309 0.262161 0.064958
O O16 0.542600 0.721385 0.578667
#
# Coordination Sequence:
#
# PCOD9117809 Si02
#       8
#     2   2   2   2   2   2   2   2
#     4  10  24  43  72  98 137 190 227 289 353 423
#     4  10  23  46  69 102 139 181 234 295 350 424
#     4  12  24  42  73 100 136 183 229 294 356 418
#     4  11  23  44  73 102 143 187 239 290 358 426
#     4  11  26  49  73 105 152 187 250 298 362 441
#     4  11  23  44  69 101 139 179 237 278 358 425
#     4  12  26  45  75 110 141 201 236 302 370 427
#     4  11  23  47  66 100 143 182 232 290 355 420
#
# _framework density 27.675124
#
# number of rings (size 3 to 8) (size 9 to 14) (size 15 to 20)
#    0.000    1.000    5.000    1.500    5.250    2.000 
#    2.250    0.000    0.000    0.000    0.000    0.000 
#    0.000    0.000    0.000    0.000    0.000    0.000 
#
# Total GULP energy -89682.373509 kJ/mol
# GULP energy per Si atom -5605.148344 kJ/mol
# Density = 2.761213 g / cm^3
# Si number density = 27.675124 Si / 1000 Ang^3
#
#
#
# Elastic Constant Matrix: (Units=GPa)
#
#
# Indices 1 2 3 4 5 6 
#
# 1 138.8932 38.5899 46.3671 0.0000 -3.3807 0.0000
# 2 38.5899 77.7650 14.0139 0.0000 7.6397 0.0000
# 3 46.3671 14.0139 132.2831 0.0000 -12.8426 0.0000
# 4 0.0000 0.0000 0.0000 35.1155 0.0000 4.5706
# 5 -3.3807 7.6397 -12.8426 0.0000 56.3427 0.0000
# 6 0.0000 0.0000 0.0000 4.5706 0.0000 50.7295
#
#
#
# Elastic Compliance Matrix: (Units=1/GPa)
#
#
# Indices 1 2 3 4 5 6 
#
# 1 0.009292 -0.004160 -0.002769 0.000000 0.000491 0.000000
# 2 -0.004160 0.015230 -0.000389 0.000000 -0.002403 0.000000
# 3 -0.002769 -0.000389 0.008754 0.000000 0.001882 0.000000
# 4 0.000000 0.000000 0.000000 0.028815 0.000000 -0.002596
# 5 0.000491 -0.002403 0.001882 0.000000 0.018533 0.000000
# 6 0.000000 0.000000 0.000000 -0.002596 0.000000 0.019946
#
#
# Mechanical properties :
#
#
# Convention : Reuss Voigt Hill
#
# Bulk Modulus (GPa) = 53.64563 60.76479 57.20521
# Shear Modulus (GPa) = 41.17998 45.10221 43.14110
#
# Velocity S-wave (km/s) = 3.86162 4.04134 3.95250
# Velocity P-wave (km/s) = 6.26968 6.61670 6.44553
#
# Compressibility (1/GPa) = 0.01864085
#
# Stress axis : x y z
#
# Youngs Moduli (GPa) = 107.62152 65.66062 114.23578
#
# Poissons Ratio (x) = 0.27316 0.31627
# Poissons Ratio (y) = 0.44773 0.04438
# Poissons Ratio (z) = 0.29796 0.02551
#
# Static dielectric constant tensor:
#      x y z
#    x 2.066020 0.000000 -0.024540 
#    y 0.000000 2.292260 0.000000 
#    z -0.024540 0.000000 2.143760 
# 
# From -- ./inp_files/11395.got.cif
#   From: 2010.05.17/outbox.cif.g08.bks.cpg/sg4_6_cif.got.tgz:11395.got - 2010.06.03 18:43:04.
