data_PCOD9117883
_publ_section_title
;
Structure prediction by ZEFSAII (Michael W. Deem and Ramdas Pophale) SiO2 
 PCOD9117883
Probable space group: P 21
;
_chemical_formula_sum "Si O2"
_cell_formula_units_Z 14
_cell_length_a 8.263277
_cell_length_b 14.739729
_cell_length_c 5.441872
_cell_angle_alpha 90.000000
_cell_angle_beta 56.003825
_cell_angle_gamma 90.000000
_cell_volume 549.520503
_symmetry_space_group_name_H-M "P 21"
_symmetry_group_IT_number 4
_symmetry_cell_setting 'monoclinic'
loop_
_space_group_symop_operation_xyz
x,y,z
-x,1/2+y,-z
loop_
_atom_site_type_symbol
_atom_site_label
_atom_site_fract_x
_atom_site_fract_y
_atom_site_fract_z
Si Si1 0.374742 0.540380 0.294390
Si Si2 0.535086 0.411063 0.504676
Si Si3 0.493734 0.722841 0.948092
Si Si4 0.226870 0.385462 0.111317
Si Si5 0.012493 0.104085 0.178946
Si Si6 0.744656 0.579586 0.522760
Si Si7 0.837179 0.292135 0.468826
O O1 0.527672 0.467666 0.264768
O O2 0.271714 0.486929 0.162429
O O3 0.197877 0.555813 0.633471
O O4 0.470526 0.636789 0.155880
O O5 0.625795 0.485659 0.613077
O O6 0.672896 0.325547 0.418236
O O7 0.316803 0.381539 0.762041
O O8 0.644275 0.805012 0.870727
O O9 0.590149 0.664043 0.647516
O O10 0.278977 0.765904 0.182392
O O11 0.002474 0.367468 0.352710
O O12 0.132354 0.084618 0.329001
O O13 0.955498 0.209002 0.256074
O O14 0.122816 0.084979 0.832670
#
# Coordination Sequence:
#
# PCOD9117883 Si02
#       7
#     2   2   2   2   2   2   2
#     4  11  25  48  73 115 156 208 263 326 397 466
#     4  11  26  44  77 108 155 203 264 321 391 473
#     4  10  23  48  74 110 151 203 258 326 386 470
#     4  11  23  48  74 109 157 200 268 320 397 463
#     4  11  27  47  82 112 155 204 261 320 394 465
#     4  12  24  50  78 112 150 205 257 318 390 462
#     4  10  24  49  72 112 152 201 259 325 389 467
#
# _framework density 25.476755000000001
#
# number of rings (size 3 to 8) (size 9 to 14) (size 15 to 20)
#    0.000    1.143    2.857    1.714    4.000    1.143 
#   12.857    0.000    0.000    0.000    0.000    0.000 
#    0.000    0.000    0.000    0.000    0.000    0.000 
#
# Total GULP energy -78206.455980 kJ/mol
# GULP energy per Si atom -5586.175427 kJ/mol
# Density = 2.541877 g / cm^3
# Si number density = 25.476755 Si / 1000 Ang^3
#
#
#
# Elastic Constant Matrix: (Units=GPa)
#
#
# Indices 1 2 3 4 5 6 
#
# 1 69.4860 23.5505 35.4770 0.0000 -1.8968 0.0000
# 2 23.5505 84.0385 27.0341 0.0000 2.9087 0.0000
# 3 35.4770 27.0341 179.8312 0.0000 -15.1653 0.0000
# 4 0.0000 0.0000 0.0000 42.9395 0.0000 -13.2343
# 5 -1.8968 2.9087 -15.1653 0.0000 39.2344 0.0000
# 6 0.0000 0.0000 0.0000 -13.2343 0.0000 38.9631
#
#
#
# Elastic Compliance Matrix: (Units=1/GPa)
#
#
# Indices 1 2 3 4 5 6 
#
# 1 0.017142 -0.003907 -0.002791 0.000000 0.000040 0.000000
# 2 -0.003907 0.013506 -0.001406 0.000000 -0.001734 0.000000
# 3 -0.002791 -0.001406 0.006533 0.000000 0.002495 0.000000
# 4 0.000000 0.000000 0.000000 0.026012 0.000000 0.008835
# 5 0.000040 -0.001734 0.002495 0.000000 0.026582 0.000000
# 6 0.000000 0.000000 0.000000 0.008835 0.000000 0.028666
#
#
# Mechanical properties :
#
#
# Convention : Reuss Voigt Hill
#
# Bulk Modulus (GPa) = 47.67995 56.16433 51.92214
# Shear Modulus (GPa) = 35.30056 40.71368 38.00712
#
# Velocity S-wave (km/s) = 3.72640 4.00193 3.86662
# Velocity P-wave (km/s) = 6.10495 6.59144 6.35285
#
# Compressibility (1/GPa) = 0.02097318
#
# Stress axis : x y z
#
# Youngs Moduli (GPa) = 58.33726 74.03849 153.06714
#
# Poissons Ratio (x) = 0.28929 0.42721
# Poissons Ratio (y) = 0.22794 0.21518
# Poissons Ratio (z) = 0.16282 0.10408
#
# Static dielectric constant tensor:
#      x y z
#    x 2.090680 0.000000 0.020040 
#    y 0.000000 2.021840 0.000000 
#    z 0.020040 0.000000 2.018670 
# 
# From -- ./inp_files/1896.got.cif
#   From: 2010.05.17/outbox.cif.g08.bks.cpg/sg4_1_cif.got.tgz:1896.got - 2010.06.03 18:43:04.
