data_PCOD9117987
_publ_section_title
;
Structure prediction by ZEFSAII (Michael W. Deem and Ramdas Pophale) SiO2 
 PCOD9117987
Probable space group: P 21
;
_chemical_formula_sum "Si O2"
_cell_formula_units_Z 14
_cell_length_a 19.650315
_cell_length_b 4.929448
_cell_length_c 10.162459
_cell_angle_alpha 90.000000
_cell_angle_beta 37.660616
_cell_angle_gamma 90.000000
_cell_volume 601.444775
_symmetry_space_group_name_H-M "P 21"
_symmetry_group_IT_number 4
_symmetry_cell_setting 'monoclinic'
loop_
_space_group_symop_operation_xyz
x,y,z
-x,1/2+y,-z
loop_
_atom_site_type_symbol
_atom_site_label
_atom_site_fract_x
_atom_site_fract_y
_atom_site_fract_z
Si Si1 0.984884 0.925060 0.608821
Si Si2 0.877636 0.410677 0.103750
Si Si3 0.563294 0.206895 0.363007
Si Si4 0.895279 0.728749 0.344676
Si Si5 0.785505 0.911493 0.112636
Si Si6 0.649298 0.826919 0.775872
Si Si7 0.438012 0.824006 0.933246
O O1 0.016032 0.626051 0.514216
O O2 0.071185 0.055349 0.578985
O O3 0.866280 0.928834 0.862838
O O4 0.882899 0.522240 0.241769
O O5 0.794624 0.605995 0.150016
O O6 0.839569 0.102799 0.142108
O O7 0.000576 0.422074 0.850635
O O8 0.526939 0.462492 0.507388
O O9 0.580954 0.337551 0.192455
O O10 0.668817 0.043055 0.255668
O O11 0.777420 0.870143 0.546943
O O12 0.568145 0.853782 0.773812
O O13 0.629121 0.537124 0.874904
O O14 0.602889 0.034938 0.953647
#
# Coordination Sequence:
#
# PCOD9117987 Si02
#       7
#     2   2   2   2   2   2   2
#     4  11  25  41  65  98 134 173 223 269 347 421
#     4  11  25  46  68 107 137 178 243 281 340 420
#     4  12  27  45  75 101 139 189 234 284 360 412
#     4  11  25  44  74  98 137 188 225 288 350 407
#     4  11  26  45  69 100 144 177 226 301 335 408
#     4  10  24  42  74  96 140 179 228 292 343 399
#     4  10  24  47  63 108 135 176 239 283 339 423
#
# _framework density 23.277284000000002
#
# number of rings (size 3 to 8) (size 9 to 14) (size 15 to 20)
#    0.000    1.143    0.000    5.143    8.000    5.714 
#    0.000    0.000    0.000    0.000    0.000    0.000 
#    0.000    0.000    0.000    0.000    0.000    0.000 
#
# Total GULP energy -78430.787982 kJ/mol
# GULP energy per Si atom -5602.199142 kJ/mol
# Density = 2.322430 g / cm^3
# Si number density = 23.277284 Si / 1000 Ang^3
#
#
#
# Elastic Constant Matrix: (Units=GPa)
#
#
# Indices 1 2 3 4 5 6 
#
# 1 73.0202 -14.1672 32.6398 0.0000 -2.5136 0.0000
# 2 -14.1672 46.4831 -6.6466 0.0000 0.8788 0.0000
# 3 32.6398 -6.6466 47.5756 0.0000 -11.8544 0.0000
# 4 0.0000 0.0000 0.0000 26.3392 0.0000 -1.8578
# 5 -2.5136 0.8788 -11.8544 0.0000 41.5071 0.0000
# 6 0.0000 0.0000 0.0000 -1.8578 0.0000 28.1719
#
#
#
# Elastic Compliance Matrix: (Units=1/GPa)
#
#
# Indices 1 2 3 4 5 6 
#
# 1 0.020908 0.004359 -0.014473 0.000000 -0.002959 0.000000
# 2 0.004359 0.022868 0.000161 0.000000 -0.000174 0.000000
# 3 -0.014473 0.000161 0.033108 0.000000 0.008576 0.000000
# 4 0.000000 0.000000 0.000000 0.038144 0.000000 0.002515
# 5 -0.002959 -0.000174 0.008576 0.000000 0.026366 0.000000
# 6 0.000000 0.000000 0.000000 0.002515 0.000000 0.035662
#
#
# Mechanical properties :
#
#
# Convention : Reuss Voigt Hill
#
# Bulk Modulus (GPa) = 17.55067 21.19233 19.37150
# Shear Modulus (GPa) = 23.15315 29.55384 26.35349
#
# Velocity S-wave (km/s) = 3.15726 3.56707 3.36840
# Velocity P-wave (km/s) = 4.56587 5.10778 4.84441
#
# Compressibility (1/GPa) = 0.05697789
#
# Stress axis : x y z
#
# Youngs Moduli (GPa) = 47.82894 43.72923 30.20458
#
# Poissons Ratio (x) = -0.19061 0.43714
# Poissons Ratio (y) = -0.20848 -0.00486
# Poissons Ratio (z) = 0.69221 -0.00704
#
# Static dielectric constant tensor:
#      x y z
#    x 1.884590 0.000000 -0.014300 
#    y 0.000000 1.816350 0.000000 
#    z -0.014300 0.000000 1.851880 
# 
# From -- ./inp_files/9451.got.cif
#   From: 2010.05.17/outbox.cif.g08.bks.cpg/sg4_5_cif.got.tgz:9451.got - 2010.06.03 18:43:04.
