data_PCOD9117576
_publ_section_title
;
Structure prediction by ZEFSAII (Michael W. Deem and Ramdas Pophale) SiO2 
 PCOD9117576
Probable space group: P 21
;
_chemical_formula_sum "Si O2"
_cell_formula_units_Z 14
_cell_length_a 16.592546
_cell_length_b 5.451894
_cell_length_c 7.339117
_cell_angle_alpha 90.000000
_cell_angle_beta 78.733913
_cell_angle_gamma 90.000000
_cell_volume 651.109320
_symmetry_space_group_name_H-M "P 21"
_symmetry_group_IT_number 4
_symmetry_cell_setting 'monoclinic'
loop_
_space_group_symop_operation_xyz
x,y,z
-x,1/2+y,-z
loop_
_atom_site_type_symbol
_atom_site_label
_atom_site_fract_x
_atom_site_fract_y
_atom_site_fract_z
Si Si1 0.177627 0.060850 0.462940
Si Si2 0.643241 0.681849 0.556904
Si Si3 0.114151 0.987116 0.097523
Si Si4 0.944020 0.785982 0.203872
Si Si5 0.379666 0.663040 0.637558
Si Si6 0.803278 0.186764 0.252348
Si Si7 0.513463 0.587525 0.890212
O O1 0.258592 0.216718 0.474235
O O2 0.097804 0.130182 0.616572
O O3 0.159813 0.071934 0.258050
O O4 0.201800 0.801213 0.542440
O O5 0.624346 0.441952 0.438983
O O6 0.604467 0.611831 0.767194
O O7 0.604649 0.939880 0.510198
O O8 0.039967 0.815317 0.198717
O O9 0.175189 0.874954 0.920438
O O10 0.064800 0.181277 0.996371
O O11 0.882610 0.015674 0.224009
O O12 0.288224 0.597480 0.752281
O O13 0.448772 0.642304 0.758518
O O14 0.499084 0.310977 0.964206
#
# Coordination Sequence:
#
# PCOD9117576 Si02
#       7
#     2   2   2   2   2   2   2
#     4  10  25  40  65  92 127 171 225 270 329 403
#     4  11  23  46  68  98 131 181 221 265 342 399
#     4  11  24  39  63  91 130 172 216 283 328 392
#     4  11  22  41  58  94 126 170 219 269 335 395
#     4  11  23  45  71  93 138 179 216 274 331 402
#     4  10  23  43  62  92 129 170 221 265 337 392
#     4  12  26  42  69 106 135 169 222 276 328 405
#
# _framework density 21.501764999999999
#
# number of rings (size 3 to 8) (size 9 to 14) (size 15 to 20)
#    0.000    1.143    2.857    2.571    4.000    2.286 
#    0.000    0.000    0.000    0.000    0.000    0.000 
#    0.000    0.000    0.000    0.000    0.000    0.000 
#
# Total GULP energy -78078.427173 kJ/mol
# GULP energy per Si atom -5577.030512 kJ/mol
# Density = 2.145283 g / cm^3
# Si number density = 21.501765 Si / 1000 Ang^3
#
#
#
# Elastic Constant Matrix: (Units=GPa)
#
#
# Indices 1 2 3 4 5 6 
#
# 1 58.8845 -6.9613 0.0661 0.0000 -6.5194 0.0000
# 2 -6.9613 47.9719 -1.2075 0.0000 10.5369 0.0000
# 3 0.0661 -1.2075 53.3933 0.0000 8.8085 0.0000
# 4 0.0000 0.0000 0.0000 28.5995 0.0000 -3.7285
# 5 -6.5194 10.5369 8.8085 0.0000 36.0557 0.0000
# 6 0.0000 0.0000 0.0000 -3.7285 0.0000 26.0770
#
#
#
# Elastic Compliance Matrix: (Units=1/GPa)
#
#
# Indices 1 2 3 4 5 6 
#
# 1 0.017511 0.001936 -0.000424 0.000000 0.002704 0.000000
# 2 0.001936 0.022629 0.001607 0.000000 -0.006656 0.000000
# 3 -0.000424 0.001607 0.019648 0.000000 -0.005346 0.000000
# 4 0.000000 0.000000 0.000000 0.035630 0.000000 0.005094
# 5 0.002704 -0.006656 -0.005346 0.000000 0.031475 0.000000
# 6 0.000000 0.000000 0.000000 0.005094 0.000000 0.039076
#
#
# Mechanical properties :
#
#
# Convention : Reuss Voigt Hill
#
# Bulk Modulus (GPa) = 15.14513 16.00490 15.57501
# Shear Modulus (GPa) = 27.51205 29.36993 28.44099
#
# Velocity S-wave (km/s) = 3.58093 3.69986 3.64088
# Velocity P-wave (km/s) = 4.91491 5.07066 4.99339
#
# Compressibility (1/GPa) = 0.06602782
#
# Stress axis : x y z
#
# Youngs Moduli (GPa) = 57.10636 44.19123 50.89616
#
# Poissons Ratio (x) = -0.08558 0.02158
# Poissons Ratio (y) = -0.11059 -0.08181
# Poissons Ratio (z) = 0.02421 -0.07103
#
# Static dielectric constant tensor:
#      x y z
#    x 1.814350 0.000000 -0.042840 
#    y 0.000000 1.889310 0.000000 
#    z -0.042840 0.000000 1.755320 
# 
# From -- ./inp_files/3850.got.cif
#   From: 2010.05.17/outbox.cif.g08.bks.cpg/sg4_2_cif.got.tgz:3850.got - 2010.06.03 18:43:04.
