data_PCOD9117957
_publ_section_title
;
Structure prediction by ZEFSAII (Michael W. Deem and Ramdas Pophale) SiO2 
 PCOD9117957
Probable space group: P 21
;
_chemical_formula_sum "Si O2"
_cell_formula_units_Z 10
_cell_length_a 10.023177
_cell_length_b 5.247555
_cell_length_c 7.025648
_cell_angle_alpha 90.000000
_cell_angle_beta 94.127837
_cell_angle_gamma 90.000000
_cell_volume 368.570635
_symmetry_space_group_name_H-M "P 21"
_symmetry_group_IT_number 4
_symmetry_cell_setting 'monoclinic'
loop_
_space_group_symop_operation_xyz
x,y,z
-x,1/2+y,-z
loop_
_atom_site_type_symbol
_atom_site_label
_atom_site_fract_x
_atom_site_fract_y
_atom_site_fract_z
Si Si1 0.468182 0.247990 0.880984
Si Si2 0.988783 0.795060 0.244779
Si Si3 0.828018 0.285127 0.277363
Si Si4 0.706183 0.204198 0.639637
Si Si5 0.220958 0.413896 0.026243
O O1 0.564264 0.292741 0.711327
O O2 0.496396 0.477757 0.027861
O O3 0.307546 0.257321 0.879489
O O4 0.920373 0.531637 0.302283
O O5 0.146864 0.816122 0.289219
O O6 0.919709 0.038094 0.334659
O O7 0.930358 0.823040 0.021020
O O8 0.707339 0.257461 0.415766
O O9 0.774373 0.199996 0.063839
O O10 0.729136 0.930212 0.752116
#
# Coordination Sequence:
#
# PCOD9117957 Si02
#       5
#     2   2   2   2   2
#     4  10  24  42  65  96 131 169 224 267 321 394
#     4  10  24  42  67  97 135 162 229 269 326 396
#     4  10  24  43  64 100 131 170 217 281 316 402
#     4  11  23  44  70  94 132 183 210 273 345 381
#     4   9  25  43  64  95 133 168 222 268 320 397
#
# _framework density 27.131841999999999
#
# number of rings (size 3 to 8) (size 9 to 14) (size 15 to 20)
#    1.200    0.800    0.000    1.200    8.400    6.400 
#    3.600    0.000    0.000    0.000    0.000    0.000 
#    0.000    0.000    0.000    0.000    0.000    0.000 
#
# Total GULP energy -55715.372644 kJ/mol
# GULP energy per Si atom -5571.537264 kJ/mol
# Density = 2.707009 g / cm^3
# Si number density = 27.131842 Si / 1000 Ang^3
#
#
#
# Elastic Constant Matrix: (Units=GPa)
#
#
# Indices 1 2 3 4 5 6 
#
# 1 123.7629 22.2788 0.8881 0.0000 -30.0797 0.0000
# 2 22.2788 124.7225 4.7161 0.0000 -12.6888 0.0000
# 3 0.8881 4.7161 107.1160 0.0000 -33.6780 0.0000
# 4 0.0000 0.0000 0.0000 7.4438 0.0000 -10.9164
# 5 -30.0797 -12.6888 -33.6780 0.0000 60.8899 0.0000
# 6 0.0000 0.0000 0.0000 -10.9164 0.0000 41.1829
#
#
#
# Elastic Compliance Matrix: (Units=1/GPa)
#
#
# Indices 1 2 3 4 5 6 
#
# 1 0.009606 -0.001228 0.001678 0.000000 0.005417 0.000000
# 2 -0.001228 0.008353 -0.000001 0.000000 0.001133 0.000000
# 3 0.001678 -0.000001 0.011599 0.000000 0.007244 0.000000
# 4 0.000000 0.000000 0.000000 0.219774 0.000000 0.058256
# 5 0.005417 0.001133 0.007244 0.000000 0.023342 0.000000
# 6 0.000000 0.000000 0.000000 0.058256 0.000000 0.039724
#
#
# Mechanical properties :
#
#
# Convention : Reuss Voigt Hill
#
# Bulk Modulus (GPa) = 32.83652 45.70750 39.27201
# Shear Modulus (GPa) = 15.54473 43.75122 29.64797
#
# Velocity S-wave (km/s) = 2.39620 4.02000 3.30924
# Velocity P-wave (km/s) = 4.44798 6.19921 5.39513
#
# Compressibility (1/GPa) = 0.03045390
#
# Stress axis : x y z
#
# Youngs Moduli (GPa) = 104.10593 119.72453 86.21131
#
# Poissons Ratio (x) = 0.14704 -0.14463
# Poissons Ratio (y) = 0.12786 0.00011
# Poissons Ratio (z) = -0.17465 0.00015
#
# Static dielectric constant tensor:
#      x y z
#    x 2.345140 0.000000 0.005710 
#    y 0.000000 2.167230 0.000000 
#    z 0.005710 0.000000 2.246880 
# 
# From -- ./inp_files/7153.got.cif
#   From: 2010.05.17/outbox.cif.g08.bks.cpg/sg4_4_cif.got.tgz:7153.got - 2010.06.03 18:43:04.
