data_PCOD9117015
_publ_section_title
;
Structure prediction by ZEFSAII (Michael W. Deem and Ramdas Pophale) SiO2 
 PCOD9117015
Probable space group: P 21
;
_chemical_formula_sum "Si O2"
_cell_formula_units_Z 14
_cell_length_a 5.094149
_cell_length_b 12.784137
_cell_length_c 10.754416
_cell_angle_alpha 90.000000
_cell_angle_beta 65.876623
_cell_angle_gamma 90.000000
_cell_volume 639.208405
_symmetry_space_group_name_H-M "P 21"
_symmetry_group_IT_number 4
_symmetry_cell_setting 'monoclinic'
loop_
_space_group_symop_operation_xyz
x,y,z
-x,1/2+y,-z
loop_
_atom_site_type_symbol
_atom_site_label
_atom_site_fract_x
_atom_site_fract_y
_atom_site_fract_z
Si Si1 0.503722 0.258050 0.619076
Si Si2 0.863587 0.588868 0.192220
Si Si3 0.225880 0.661464 0.911493
Si Si4 0.163197 0.624270 0.647052
Si Si5 0.225478 0.271636 0.137657
Si Si6 0.288736 0.474290 0.268575
Si Si7 0.039443 0.398856 0.572569
O O1 0.299201 0.197999 0.755011
O O2 0.633561 0.168979 0.500786
O O3 0.304806 0.334940 0.577827
O O4 0.756922 0.326843 0.630254
O O5 0.608660 0.504578 0.246673
O O6 0.100146 0.569870 0.252879
O O7 0.030839 0.585069 0.029882
O O8 0.303181 0.618916 0.758748
O O9 0.493555 0.701871 0.938316
O O10 0.016557 0.758959 0.919240
O O11 0.030371 0.512171 0.640327
O O12 0.922556 0.713222 0.715568
O O13 0.300681 0.388226 0.158212
O O14 0.115631 0.425903 0.416065
#
# Coordination Sequence:
#
# PCOD9117015 Si02
#       7
#     2   2   2   2   2   2   2
#     4  12  26  43  69 100 136 172 224 283 337 387
#     4  12  26  45  68 101 141 172 220 288 337 386
#     4  10  23  45  64  95 137 177 214 275 332 394
#     4  10  25  42  71  90 138 173 218 279 325 401
#     4  10  22  42  70  92 131 176 228 261 328 411
#     4  12  23  43  72 101 130 182 226 269 337 414
#     4  12  25  42  68 105 129 174 228 271 342 399
#
# _framework density 21.902093000000001
#
# number of rings (size 3 to 8) (size 9 to 14) (size 15 to 20)
#    0.857    0.000    2.857    4.286    2.000    0.000 
#    7.714    0.000    0.000    0.000    0.000    0.000 
#    0.000    0.000    0.000    0.000    0.000    0.000 
#
# Total GULP energy -78169.507276 kJ/mol
# GULP energy per Si atom -5583.536234 kJ/mol
# Density = 2.185224 g / cm^3
# Si number density = 21.902093 Si / 1000 Ang^3
#
#
#
# Elastic Constant Matrix: (Units=GPa)
#
#
# Indices 1 2 3 4 5 6 
#
# 1 83.1153 3.3034 -2.0126 0.0000 -9.4700 0.0000
# 2 3.3034 68.8558 4.5521 0.0000 -2.4223 0.0000
# 3 -2.0126 4.5521 35.3632 0.0000 -10.5426 0.0000
# 4 0.0000 0.0000 0.0000 15.7911 0.0000 -3.5001
# 5 -9.4700 -2.4223 -10.5426 0.0000 19.5710 0.0000
# 6 0.0000 0.0000 0.0000 -3.5001 0.0000 45.0989
#
#
#
# Elastic Compliance Matrix: (Units=1/GPa)
#
#
# Indices 1 2 3 4 5 6 
#
# 1 0.013037 -0.000556 0.003185 0.000000 0.007955 0.000000
# 2 -0.000556 0.014686 -0.001740 0.000000 0.000611 0.000000
# 3 0.003185 -0.001740 0.034642 0.000000 0.019987 0.000000
# 4 0.000000 0.000000 0.000000 0.064435 0.000000 0.005001
# 5 0.007955 0.000611 0.019987 0.000000 0.065788 0.000000
# 6 0.000000 0.000000 0.000000 0.005001 0.000000 0.022562
#
#
# Mechanical properties :
#
#
# Convention : Reuss Voigt Hill
#
# Bulk Modulus (GPa) = 15.58996 22.11333 18.85165
# Shear Modulus (GPa) = 21.29900 28.19163 24.74531
#
# Velocity S-wave (km/s) = 3.12182 3.59160 3.36492
# Velocity P-wave (km/s) = 4.48640 5.22665 4.87061
#
# Compressibility (1/GPa) = 0.06414383
#
# Stress axis : x y z
#
# Youngs Moduli (GPa) = 76.70388 68.09054 28.86678
#
# Poissons Ratio (x) = 0.03787 -0.09195
# Poissons Ratio (y) = 0.04266 0.05022
# Poissons Ratio (z) = -0.24433 0.11847
#
# Static dielectric constant tensor:
#      x y z
#    x 1.783870 0.000000 0.006910 
#    y 0.000000 1.795340 0.000000 
#    z 0.006910 0.000000 1.807500 
# 
# From -- ./inp_files/2820.got.cif
#   From: 2010.05.17/outbox.cif.g08.bks.cpg/sg4_2_cif.got.tgz:2820.got - 2010.06.03 18:43:04.
