data_PCOD9117893
_publ_section_title
;
Structure prediction by ZEFSAII (Michael W. Deem and Ramdas Pophale) SiO2 
 PCOD9117893
Probable space group: P 21
;
_chemical_formula_sum "Si O2"
_cell_formula_units_Z 16
_cell_length_a 19.950931
_cell_length_b 5.908579
_cell_length_c 5.537590
_cell_angle_alpha 90.000000
_cell_angle_beta 85.288809
_cell_angle_gamma 90.000000
_cell_volume 650.574750
_symmetry_space_group_name_H-M "P 21"
_symmetry_group_IT_number 4
_symmetry_cell_setting 'monoclinic'
loop_
_space_group_symop_operation_xyz
x,y,z
-x,1/2+y,-z
loop_
_atom_site_type_symbol
_atom_site_label
_atom_site_fract_x
_atom_site_fract_y
_atom_site_fract_z
Si Si1 0.109798 0.092570 0.074564
Si Si2 0.432171 0.827065 0.273437
Si Si3 0.233719 0.873765 0.812023
Si Si4 0.984974 0.042106 0.387552
Si Si5 0.777693 0.653700 0.588963
Si Si6 0.663065 0.679822 0.939795
Si Si7 0.422038 0.542224 0.768741
Si Si8 0.153072 0.490306 0.792748
O O1 0.157937 0.064503 0.287692
O O2 0.035322 0.014013 0.144376
O O3 0.113166 0.355131 0.008379
O O4 0.156774 0.970632 0.865162
O O5 0.409963 0.692851 0.527427
O O6 0.508485 0.907666 0.295470
O O7 0.429224 0.681986 0.021843
O O8 0.391408 0.054596 0.212160
O O9 0.214678 0.625419 0.888795
O O10 0.252183 0.933028 0.533935
O O11 0.291294 0.987079 0.947931
O O12 0.989464 0.784891 0.503044
O O13 0.907630 0.088698 0.347785
O O14 0.805928 0.827913 0.392167
O O15 0.720310 0.782000 0.752474
O O16 0.632554 0.850688 0.143658
#
# Coordination Sequence:
#
# PCOD9117893 Si02
#       8
#     2   2   2   2   2   2   2   2
#     4  10  24  44  67 105 144 192 254 329 396 494
#     4  12  28  50  86 121 170 216 274 347 423 502
#     4  10  25  45  73 104 153 201 261 326 407 491
#     4  12  27  45  77 109 146 203 265 337 432 502
#     4  10  23  49  69 104 154 197 258 327 395 497
#     4  11  28  50  78 118 159 213 272 331 419 503
#     4  12  28  51  83 125 167 218 275 347 419 508
#     4  11  25  44  77 104 151 198 261 336 415 491
#
# _framework density 24.593637999999999
#
# number of rings (size 3 to 8) (size 9 to 14) (size 15 to 20)
#    0.000    1.000    2.500    1.500    8.750    6.000 
#    0.000    0.000    0.000    0.000    0.000    0.000 
#    0.000    0.000    0.000    0.000    0.000    0.000 
#
# Total GULP energy -89178.720927 kJ/mol
# GULP energy per Si atom -5573.670058 kJ/mol
# Density = 2.453766 g / cm^3
# Si number density = 24.593638 Si / 1000 Ang^3
#
#
#
# Elastic Constant Matrix: (Units=GPa)
#
#
# Indices 1 2 3 4 5 6 
#
# 1 -41.5714 210.8509 22.6815 0.0000 -42.5002 0.0000
# 2 210.8509 -138.0013 54.9280 0.0000 46.8214 0.0000
# 3 22.6815 54.9280 115.7278 0.0000 -13.2987 0.0000
# 4 0.0000 0.0000 0.0000 23.2386 0.0000 25.6267
# 5 -42.5002 46.8214 -13.2987 0.0000 7.8702 0.0000
# 6 0.0000 0.0000 0.0000 25.6267 0.0000 26.8429
#
#
#
# Elastic Compliance Matrix: (Units=1/GPa)
#
#
# Indices 1 2 3 4 5 6 
#
# 1 0.005826 0.005109 -0.004275 0.000000 -0.006160 0.000000
# 2 0.005109 0.002840 -0.001390 0.000000 0.008349 0.000000
# 3 -0.004275 -0.001390 0.010469 0.000000 0.002873 0.000000
# 4 0.000000 0.000000 0.000000 -0.815037 0.000000 0.778108
# 5 -0.006160 0.008349 0.002873 0.000000 0.048979 0.000000
# 6 0.000000 0.000000 0.000000 0.778108 0.000000 -0.705597
#
#
# Mechanical properties :
#
#
# Convention : Reuss Voigt Hill
#
# Bulk Modulus (GPa) = 55.48286 57.00843 56.24565
# Shear Modulus (GPa) = -3.45924 -11.89668 -7.67796
#
# Velocity S-wave (km/s) = -1.18727 -2.20177 -1.76882
# Velocity P-wave (km/s) = 4.55295 4.09472 4.32990
#
# Compressibility (1/GPa) = 0.01802358
#
# Stress axis : x y z
#
# Youngs Moduli (GPa) = 171.65390 352.14816 95.52387
#
# Poissons Ratio (x) = -1.79926 0.40834
# Poissons Ratio (y) = -0.87704 0.13276
# Poissons Ratio (z) = 0.73378 0.48942
#
# Static dielectric constant tensor:
#      x y z
#    x 1.921450 0.000000 0.026750 
#    y 0.000000 2.489850 0.000000 
#    z 0.026750 0.000000 2.084640 
# 
# From -- ./inp_files/4274.got.cif
#   From: 2010.05.17/outbox.cif.g08.bks.cpg/sg4_3_cif.got.tgz:4274.got - 2010.06.03 18:43:04.
