data_PCOD9117452
_publ_section_title
;
Structure prediction by ZEFSAII (Michael W. Deem and Ramdas Pophale) SiO2 
 PCOD9117452
Probable space group: P 21
;
_chemical_formula_sum "Si O2"
_cell_formula_units_Z 10
_cell_length_a 5.098866
_cell_length_b 8.745773
_cell_length_c 9.586333
_cell_angle_alpha 90.000000
_cell_angle_beta 119.764834
_cell_angle_gamma 90.000000
_cell_volume 371.089969
_symmetry_space_group_name_H-M "P 21"
_symmetry_group_IT_number 4
_symmetry_cell_setting 'monoclinic'
loop_
_space_group_symop_operation_xyz
x,y,z
-x,1/2+y,-z
loop_
_atom_site_type_symbol
_atom_site_label
_atom_site_fract_x
_atom_site_fract_y
_atom_site_fract_z
Si Si1 0.068428 0.170520 0.562833
Si Si2 0.684102 0.499176 0.885203
Si Si3 0.733180 0.451533 0.577350
Si Si4 0.877474 0.903199 0.663269
Si Si5 0.764892 0.186388 0.034680
O O1 0.207932 0.298869 0.495611
O O2 0.838683 0.279264 0.584523
O O3 0.997557 0.054259 0.415926
O O4 0.117554 0.036645 0.691346
O O5 0.663606 0.508086 0.712567
O O6 0.471631 0.602369 0.926629
O O7 0.029260 0.564036 0.994037
O O8 0.620870 0.319862 0.901382
O O9 0.447638 0.479434 0.400477
O O10 0.010203 0.793669 0.814308
#
# Coordination Sequence:
#
# PCOD9117452 Si02
#       5
#     2   2   2   2   2
#     4  10  23  40  69 111 147 198 242 319 377 463
#     4  12  29  54  76 112 155 207 253 322 371 465
#     4  11  24  44  74 109 157 191 258 308 394 436
#     4  11  23  42  72 108 145 193 248 316 374 451
#     4  12  29  52  79 108 156 203 265 307 384 451
#
# _framework density 26.947644
#
# number of rings (size 3 to 8) (size 9 to 14) (size 15 to 20)
#    0.000    0.800    2.000    3.600   11.200    1.600 
#    0.000    0.000    0.000    0.000    0.000    0.000 
#    0.000    0.000    0.000    0.000    0.000    0.000 
#
# Total GULP energy -55689.777485 kJ/mol
# GULP energy per Si atom -5568.977748 kJ/mol
# Density = 2.688631 g / cm^3
# Si number density = 26.947644 Si / 1000 Ang^3
#
#
#
# Elastic Constant Matrix: (Units=GPa)
#
#
# Indices 1 2 3 4 5 6 
#
# 1 131.5557 78.4016 34.3318 0.0000 -51.1004 0.0000
# 2 78.4016 146.5248 3.9522 0.0000 -31.9852 0.0000
# 3 34.3318 3.9522 67.7753 0.0000 -12.4016 0.0000
# 4 0.0000 0.0000 0.0000 51.4631 0.0000 -16.2503
# 5 -51.1004 -31.9852 -12.4016 0.0000 30.8209 0.0000
# 6 0.0000 0.0000 0.0000 -16.2503 0.0000 34.4560
#
#
#
# Elastic Compliance Matrix: (Units=1/GPa)
#
#
# Indices 1 2 3 4 5 6 
#
# 1 0.026919 -0.006564 -0.006836 0.000000 0.035068 0.000000
# 2 -0.006564 0.010524 0.002934 0.000000 0.001219 0.000000
# 3 -0.006836 0.002934 0.017843 0.000000 -0.001109 0.000000
# 4 0.000000 0.000000 0.000000 0.022832 0.000000 0.010768
# 5 0.035068 0.001219 -0.001109 0.000000 0.091407 0.000000
# 6 0.000000 0.000000 0.000000 0.010768 0.000000 0.034101
#
#
# Mechanical properties :
#
#
# Convention : Reuss Voigt Hill
#
# Bulk Modulus (GPa) = 29.10815 64.35853 46.73334
# Shear Modulus (GPa) = 21.18563 38.62601 29.90582
#
# Velocity S-wave (km/s) = 2.80693 3.79010 3.33494
# Velocity P-wave (km/s) = 4.61848 6.56413 5.67530
#
# Compressibility (1/GPa) = 0.03435463
#
# Stress axis : x y z
#
# Youngs Moduli (GPa) = 37.14865 95.02028 56.04290
#
# Poissons Ratio (x) = 0.62372 0.38312
# Poissons Ratio (y) = 0.24385 -0.16446
# Poissons Ratio (z) = 0.25396 -0.27883
#
# Static dielectric constant tensor:
#      x y z
#    x 2.156070 0.000000 0.080070 
#    y 0.000000 2.124780 0.000000 
#    z 0.080070 0.000000 2.210410 
# 
# From -- ./inp_files/974.got.cif
#   From: 2010.05.17/outbox.cif.g08.bks.cpg/sg4_1_cif.got.tgz:974.got - 2010.06.03 18:43:04.
