data_PCOD9117781
_publ_section_title
;
Structure prediction by ZEFSAII (Michael W. Deem and Ramdas Pophale) SiO2 
 PCOD9117781
Probable space group: P 21
;
_chemical_formula_sum "Si O2"
_cell_formula_units_Z 16
_cell_length_a 10.382955
_cell_length_b 11.954345
_cell_length_c 5.178958
_cell_angle_alpha 90.000000
_cell_angle_beta 63.640478
_cell_angle_gamma 90.000000
_cell_volume 575.982904
_symmetry_space_group_name_H-M "P 21"
_symmetry_group_IT_number 4
_symmetry_cell_setting 'monoclinic'
loop_
_space_group_symop_operation_xyz
x,y,z
-x,1/2+y,-z
loop_
_atom_site_type_symbol
_atom_site_label
_atom_site_fract_x
_atom_site_fract_y
_atom_site_fract_z
Si Si1 0.566298 0.815000 0.195665
Si Si2 0.852975 0.628213 0.309743
Si Si3 0.217290 0.360036 0.384280
Si Si4 0.031212 0.770173 0.773952
Si Si5 0.545416 0.568209 0.092265
Si Si6 0.125635 0.591359 0.359815
Si Si7 0.711867 0.407190 0.269079
Si Si8 0.641540 0.041384 0.252866
O O1 0.617294 0.688221 0.102714
O O2 0.409362 0.836878 0.463220
O O3 0.654420 0.907274 0.278948
O O4 0.620327 0.864655 0.871539
O O5 0.790508 0.746985 0.448502
O O6 0.746681 0.526414 0.368327
O O7 0.960298 0.585155 0.432751
O O8 0.953266 0.666924 0.984587
O O9 0.166864 0.485137 0.496822
O O10 0.094578 0.335351 0.266216
O O11 0.139773 0.712004 0.476288
O O12 0.134980 0.843085 0.867427
O O13 0.643582 0.459458 0.066848
O O14 0.420775 0.578751 0.420719
O O15 0.477966 0.570213 0.865941
O O16 0.219045 0.586236 0.014927
#
# Coordination Sequence:
#
# PCOD9117781 Si02
#       8
#     2   2   2   2   2   2   2   2
#     4  10  24  46  74 109 153 206 253 327 389 462
#     4  11  25  44  76 111 150 200 260 327 385 468
#     4  10  23  47  72 105 151 203 258 319 398 465
#     4  11  24  46  73 111 151 200 258 323 393 465
#     4  11  25  48  74 113 154 200 259 327 392 463
#     4  10  23  45  73 106 147 203 257 317 390 467
#     4  11  25  48  74 114 150 201 262 326 388 475
#     4  10  25  46  72 109 150 203 257 316 387 473
#
# _framework density 27.778600999999998
#
# number of rings (size 3 to 8) (size 9 to 14) (size 15 to 20)
#    0.000    1.500    1.250    1.500    8.750    2.000 
#   24.750    0.000    0.000    0.000    0.000    0.000 
#    0.000    0.000    0.000    0.000    0.000    0.000 
#
# Total GULP energy -89351.029496 kJ/mol
# GULP energy per Si atom -5584.439343 kJ/mol
# Density = 2.771538 g / cm^3
# Si number density = 27.778601 Si / 1000 Ang^3
#
#
#
# Elastic Constant Matrix: (Units=GPa)
#
#
# Indices 1 2 3 4 5 6 
#
# 1 121.7247 37.5881 -2.0470 0.0000 -1.8621 0.0000
# 2 37.5881 109.1313 12.6686 0.0000 -4.0249 0.0000
# 3 -2.0470 12.6686 93.9163 0.0000 -11.5957 0.0000
# 4 0.0000 0.0000 0.0000 48.0134 0.0000 -10.9675
# 5 -1.8621 -4.0249 -11.5957 0.0000 26.1711 0.0000
# 6 0.0000 0.0000 0.0000 -10.9675 0.0000 65.6562
#
#
#
# Elastic Compliance Matrix: (Units=1/GPa)
#
#
# Indices 1 2 3 4 5 6 
#
# 1 0.009236 -0.003245 0.000697 0.000000 0.000467 0.000000
# 2 -0.003245 0.010470 -0.001389 0.000000 0.000764 0.000000
# 3 0.000697 -0.001389 0.011457 0.000000 0.004912 0.000000
# 4 0.000000 0.000000 0.000000 0.021654 0.000000 0.003617
# 5 0.000467 0.000764 0.004912 0.000000 0.040537 0.000000
# 6 0.000000 0.000000 0.000000 0.003617 0.000000 0.015835
#
#
# Mechanical properties :
#
#
# Convention : Reuss Voigt Hill
#
# Bulk Modulus (GPa) = 42.93817 46.79909 44.86863
# Shear Modulus (GPa) = 40.05563 46.40563 43.23063
#
# Velocity S-wave (km/s) = 3.80143 4.09167 3.94922
# Velocity P-wave (km/s) = 5.89565 6.26148 6.08132
#
# Compressibility (1/GPa) = 0.02328930
#
# Stress axis : x y z
#
# Youngs Moduli (GPa) = 108.27066 95.50828 87.28441
#
# Poissons Ratio (x) = 0.30991 -0.06081
# Poissons Ratio (y) = 0.35132 0.12122
# Poissons Ratio (z) = -0.07543 0.13264
#
# Static dielectric constant tensor:
#      x y z
#    x 2.317830 0.000000 0.133210 
#    y 0.000000 2.179700 0.000000 
#    z 0.133210 0.000000 2.305940 
# 
# From -- ./inp_files/2807.got.cif
#   From: 2010.05.17/outbox.cif.g08.bks.cpg/sg4_2_cif.got.tgz:2807.got - 2010.06.03 18:43:04.
