data_PCOD9117836
_publ_section_title
;
Structure prediction by ZEFSAII (Michael W. Deem and Ramdas Pophale) SiO2 
 PCOD9117836
Probable space group: P 21
;
_chemical_formula_sum "Si O2"
_cell_formula_units_Z 10
_cell_length_a 6.503819
_cell_length_b 13.315847
_cell_length_c 5.167019
_cell_angle_alpha 90.000000
_cell_angle_beta 85.226405
_cell_angle_gamma 90.000000
_cell_volume 445.931604
_symmetry_space_group_name_H-M "P 21"
_symmetry_group_IT_number 4
_symmetry_cell_setting 'monoclinic'
loop_
_space_group_symop_operation_xyz
x,y,z
-x,1/2+y,-z
loop_
_atom_site_type_symbol
_atom_site_label
_atom_site_fract_x
_atom_site_fract_y
_atom_site_fract_z
Si Si1 0.870631 0.755890 0.050901
Si Si2 0.379656 0.940868 0.444198
Si Si3 0.880322 0.256777 0.490191
Si Si4 0.986020 0.561842 0.273211
Si Si5 0.362702 0.438484 0.071261
O O1 0.852317 0.637445 0.107502
O O2 0.949335 0.797331 0.320200
O O3 0.680373 0.820515 0.974409
O O4 0.043803 0.767281 0.810726
O O5 0.319528 0.823037 0.441653
O O6 0.534074 0.955171 0.664799
O O7 0.169029 0.998626 0.535570
O O8 0.486961 0.974300 0.170367
O O9 0.876952 0.140245 0.572471
O O10 0.140660 0.492442 0.096873
#
# Coordination Sequence:
#
# PCOD9117836 Si02
#       5
#     2   2   2   2   2
#     4  10  23  46  75  95 144 188 226 286 358 406
#     4  12  27  46  75 107 141 185 240 291 350 419
#     4  10  23  46  75  95 144 188 226 286 358 406
#     4  10  28  48  74 100 148 188 230 294 352 420
#     4  12  27  46  75 107 141 185 240 291 350 419
#
# _framework density 22.424965
#
# number of rings (size 3 to 8) (size 9 to 14) (size 15 to 20)
#    1.200    0.000    2.000    2.400    5.600    1.600 
#    0.000    0.000    0.000    0.000    0.000    0.000 
#    0.000    0.000    0.000    0.000    0.000    0.000 
#
# Total GULP energy -55836.396479 kJ/mol
# GULP energy per Si atom -5583.639648 kJ/mol
# Density = 2.237392 g / cm^3
# Si number density = 22.424965 Si / 1000 Ang^3
#
#
#
# Elastic Constant Matrix: (Units=GPa)
#
#
# Indices 1 2 3 4 5 6 
#
# 1 50.1926 42.0169 15.0849 0.0000 -19.0167 0.0000
# 2 42.0169 107.1321 23.5572 0.0000 -15.0803 0.0000
# 3 15.0849 23.5572 59.3566 0.0000 -15.0117 0.0000
# 4 0.0000 0.0000 0.0000 23.6190 0.0000 5.9440
# 5 -19.0167 -15.0803 -15.0117 0.0000 48.0995 0.0000
# 6 0.0000 0.0000 0.0000 5.9440 0.0000 27.4778
#
#
#
# Elastic Compliance Matrix: (Units=1/GPa)
#
#
# Indices 1 2 3 4 5 6 
#
# 1 0.033494 -0.011490 -0.001644 0.000000 0.009127 0.000000
# 2 -0.011490 0.014369 -0.003031 0.000000 -0.000984 0.000000
# 3 -0.001644 -0.003031 0.019611 0.000000 0.004520 0.000000
# 4 0.000000 0.000000 0.000000 0.044776 0.000000 -0.009686
# 5 0.009127 -0.000984 0.004520 0.000000 0.025501 0.000000
# 6 0.000000 0.000000 0.000000 -0.009686 0.000000 0.038488
#
#
# Mechanical properties :
#
#
# Convention : Reuss Voigt Hill
#
# Bulk Modulus (GPa) = 28.45479 41.99993 35.22736
# Shear Modulus (GPa) = 22.69800 28.90741 25.80271
#
# Velocity S-wave (km/s) = 3.18492 3.59426 3.39577
# Velocity P-wave (km/s) = 5.12264 5.99956 5.57836
#
# Compressibility (1/GPa) = 0.03514347
#
# Stress axis : x y z
#
# Youngs Moduli (GPa) = 29.85651 69.59596 50.99082
#
# Poissons Ratio (x) = 0.79965 0.08382
# Poissons Ratio (y) = 0.34305 0.15457
# Poissons Ratio (z) = 0.04908 0.21097
#
# Static dielectric constant tensor:
#      x y z
#    x 1.815460 0.000000 0.025480 
#    y 0.000000 1.847920 0.000000 
#    z 0.025480 0.000000 1.792400 
# 
# From -- ./inp_files/197.got.cif
#   From: 2010.05.17/outbox.cif.g08.bks.cpg/sg4_1_cif.got.tgz:197.got - 2010.06.03 18:43:04.
