data_PCOD9117886
_publ_section_title
;
Structure prediction by ZEFSAII (Michael W. Deem and Ramdas Pophale) SiO2 
 PCOD9117886
Probable space group: P 21
;
_chemical_formula_sum "Si O2"
_cell_formula_units_Z 14
_cell_length_a 5.006559
_cell_length_b 19.122157
_cell_length_c 5.275701
_cell_angle_alpha 90.000000
_cell_angle_beta 85.504708
_cell_angle_gamma 90.000000
_cell_volume 503.521879
_symmetry_space_group_name_H-M "P 21"
_symmetry_group_IT_number 4
_symmetry_cell_setting 'monoclinic'
loop_
_space_group_symop_operation_xyz
x,y,z
-x,1/2+y,-z
loop_
_atom_site_type_symbol
_atom_site_label
_atom_site_fract_x
_atom_site_fract_y
_atom_site_fract_z
Si Si1 0.671992 0.776420 0.687329
Si Si2 0.957247 0.909976 0.517569
Si Si3 0.597581 0.245116 0.794180
Si Si4 0.446021 0.977678 0.288629
Si Si5 0.972496 0.164329 0.102289
Si Si6 0.119505 0.526379 0.135112
Si Si7 0.457046 0.614798 0.481213
O O1 0.821839 0.702438 0.726675
O O2 0.901656 0.831821 0.605641
O O3 0.464229 0.780819 0.469429
O O4 0.531817 0.788808 0.968656
O O5 0.672620 0.937873 0.435823
O O6 0.187296 0.928384 0.299304
O O7 0.027767 0.958164 0.753828
O O8 0.451265 0.170281 0.738004
O O9 0.883060 0.217673 0.881035
O O10 0.368177 0.051258 0.429819
O O11 0.613821 0.000166 0.029934
O O12 0.695550 0.154784 0.281135
O O13 0.032887 0.084779 0.016880
O O14 0.219314 0.572590 0.361244
#
# Coordination Sequence:
#
# PCOD9117886 Si02
#       7
#     2   2   2   2   2   2   2
#     4  12  29  44  76 112 154 212 261 323 406 483
#     4  11  27  48  71 109 159 213 264 326 401 482
#     4  11  25  46  71 109 149 195 256 320 394 467
#     4  10  24  46  73 106 151 202 265 325 396 471
#     4  10  23  48  76 110 155 196 267 336 393 466
#     4   9  22  46  76 112 149 207 264 333 393 468
#     4   9  20  44  73 110 143 195 257 329 391 461
#
# _framework density 27.804154
#
# number of rings (size 3 to 8) (size 9 to 14) (size 15 to 20)
#    0.000    1.714    1.429    0.000   10.000    4.571 
#    0.000    0.000    0.000    0.000    0.000    0.000 
#    0.000    0.000    0.000    0.000    0.000    0.000 
#
# Total GULP energy -78345.825574 kJ/mol
# GULP energy per Si atom -5596.130398 kJ/mol
# Density = 2.774087 g / cm^3
# Si number density = 27.804154 Si / 1000 Ang^3
#
#
#
# Elastic Constant Matrix: (Units=GPa)
#
#
# Indices 1 2 3 4 5 6 
#
# 1 112.6261 32.1757 45.0132 0.0000 14.9953 0.0000
# 2 32.1757 87.2417 28.8253 0.0000 -3.7249 0.0000
# 3 45.0132 28.8253 154.5681 0.0000 20.9817 0.0000
# 4 0.0000 0.0000 0.0000 20.9227 0.0000 -10.2671
# 5 14.9953 -3.7249 20.9817 0.0000 41.5188 0.0000
# 6 0.0000 0.0000 0.0000 -10.2671 0.0000 42.7198
#
#
#
# Elastic Compliance Matrix: (Units=1/GPa)
#
#
# Indices 1 2 3 4 5 6 
#
# 1 0.011191 -0.003556 -0.002151 0.000000 -0.003274 0.000000
# 2 -0.003556 0.013574 -0.001971 0.000000 0.003498 0.000000
# 3 -0.002151 -0.001971 0.007926 0.000000 -0.003405 0.000000
# 4 0.000000 0.000000 0.000000 0.054185 0.000000 0.013023
# 5 -0.003274 0.003498 -0.003405 0.000000 0.027302 0.000000
# 6 0.000000 0.000000 0.000000 0.013023 0.000000 0.026538
#
#
# Mechanical properties :
#
#
# Convention : Reuss Voigt Hill
#
# Bulk Modulus (GPa) = 57.68853 62.94048 60.31450
# Shear Modulus (GPa) = 30.89253 37.59371 34.24312
#
# Velocity S-wave (km/s) = 3.33690 3.68107 3.51320
# Velocity P-wave (km/s) = 5.96990 6.38382 6.18033
#
# Compressibility (1/GPa) = 0.01733447
#
# Stress axis : x y z
#
# Youngs Moduli (GPa) = 89.36101 73.66781 126.16853
#
# Poissons Ratio (x) = 0.26197 0.27143
# Poissons Ratio (y) = 0.31778 0.24864
# Poissons Ratio (z) = 0.19225 0.14518
#
# Static dielectric constant tensor:
#      x y z
#    x 2.126790 0.000000 -0.019150 
#    y 0.000000 2.227140 0.000000 
#    z -0.019150 0.000000 2.220790 
# 
# From -- ./inp_files/679.got.cif
#   From: 2010.05.17/outbox.cif.g08.bks.cpg/sg4_1_cif.got.tgz:679.got - 2010.06.03 18:43:04.
