data_PCOD9117028
_publ_section_title
;
Structure prediction by ZEFSAII (Michael W. Deem and Ramdas Pophale) SiO2 
 PCOD9117028
Probable space group: P 21
;
_chemical_formula_sum "Si O2"
_cell_formula_units_Z 12
_cell_length_a 7.306895
_cell_length_b 5.386934
_cell_length_c 16.702223
_cell_angle_alpha 90.000000
_cell_angle_beta 46.588313
_cell_angle_gamma 90.000000
_cell_volume 477.579047
_symmetry_space_group_name_H-M "P 21"
_symmetry_group_IT_number 4
_symmetry_cell_setting 'monoclinic'
loop_
_space_group_symop_operation_xyz
x,y,z
-x,1/2+y,-z
loop_
_atom_site_type_symbol
_atom_site_label
_atom_site_fract_x
_atom_site_fract_y
_atom_site_fract_z
Si Si1 0.147924 0.639280 0.933686
Si Si2 0.684742 0.129827 0.648288
Si Si3 0.529040 0.115494 0.443399
Si Si4 0.166794 0.362153 0.767764
Si Si5 0.162312 0.129174 0.396215
Si Si6 0.616737 0.265468 0.985967
O O1 0.202772 0.566128 0.827032
O O2 0.378033 0.675522 0.924078
O O3 0.000837 0.397646 0.012306
O O4 0.395153 0.166011 0.711681
O O5 0.757495 0.879667 0.670456
O O6 0.875691 0.129430 0.513920
O O7 0.770349 0.376822 0.667861
O O8 0.554123 0.387900 0.473885
O O9 0.786069 0.006902 0.328430
O O10 0.664598 0.628051 0.574028
O O11 0.895747 0.246324 0.864114
O O12 0.551660 0.556655 0.005103
#
# Coordination Sequence:
#
# PCOD9117028 Si02
#       6
#     2   2   2   2   2   2
#     4  10  22  42  72 100 130 177 232 281 340 414
#     4   9  18  34  63  87 116 166 217 265 312 380
#     4  11  23  39  64  96 138 179 219 270 334 402
#     4  10  23  44  73  95 135 187 229 270 345 409
#     4   9  18  35  57  88 124 162 216 268 307 371
#     4  11  24  44  71 104 143 171 223 298 354 406
#
# _framework density 25.126729000000001
#
# number of rings (size 3 to 8) (size 9 to 14) (size 15 to 20)
#    0.000    2.000    0.000    4.000    0.000   12.000 
#    3.000    0.000   36.667    0.000    0.000    0.000 
#    0.000    0.000    0.000    0.000    0.000    0.000 
#
# Total GULP energy -67081.355332 kJ/mol
# GULP energy per Si atom -5590.112944 kJ/mol
# Density = 2.506954 g / cm^3
# Si number density = 25.126729 Si / 1000 Ang^3
#
#
#
# Elastic Constant Matrix: (Units=GPa)
#
#
# Indices 1 2 3 4 5 6 
#
# 1 53.6363 9.0497 18.2702 0.0000 -14.1141 0.0000
# 2 9.0497 183.5742 34.5875 0.0000 -13.1782 0.0000
# 3 18.2702 34.5875 114.5221 0.0000 -26.2195 0.0000
# 4 0.0000 0.0000 0.0000 26.2387 0.0000 -9.2255
# 5 -14.1141 -13.1782 -26.2195 0.0000 48.3922 0.0000
# 6 0.0000 0.0000 0.0000 -9.2255 0.0000 34.0952
#
#
#
# Elastic Compliance Matrix: (Units=1/GPa)
#
#
# Indices 1 2 3 4 5 6 
#
# 1 0.020676 -0.000276 -0.002114 0.000000 0.004810 0.000000
# 2 -0.000276 0.005802 -0.001558 0.000000 0.000655 0.000000
# 3 -0.002114 -0.001558 0.010619 0.000000 0.004712 0.000000
# 4 0.000000 0.000000 0.000000 0.042119 0.000000 0.011397
# 5 0.004810 0.000655 0.004712 0.000000 0.024799 0.000000
# 6 0.000000 0.000000 0.000000 0.011397 0.000000 0.032413
#
#
# Mechanical properties :
#
#
# Convention : Reuss Voigt Hill
#
# Bulk Modulus (GPa) = 34.24560 52.83859 43.54209
# Shear Modulus (GPa) = 32.45546 41.06691 36.76118
#
# Velocity S-wave (km/s) = 3.59788 4.04715 3.82911
# Velocity P-wave (km/s) = 5.56043 6.55085 6.07586
#
# Compressibility (1/GPa) = 0.02920083
#
# Stress axis : x y z
#
# Youngs Moduli (GPa) = 48.36419 172.36638 94.17345
#
# Poissons Ratio (x) = 0.04752 0.19909
# Poissons Ratio (y) = 0.01333 0.14674
# Poissons Ratio (z) = 0.10225 0.26858
#
# Static dielectric constant tensor:
#      x y z
#    x 2.040360 0.000000 -0.002880 
#    y 0.000000 2.072690 0.000000 
#    z -0.002880 0.000000 2.009140 
# 
# From -- ./inp_files/14813.got.cif
#   From: 2010.05.17/outbox.cif.g08.bks.cpg/sg4_8_cif.got.tgz:14813.got - 2010.06.03 18:43:04.
