data_PCOD9117111
_publ_section_title
;
Structure prediction by ZEFSAII (Michael W. Deem and Ramdas Pophale) SiO2 
 PCOD9117111
Probable space group: P 21
;
_chemical_formula_sum "Si O2"
_cell_formula_units_Z 14
_cell_length_a 10.799830
_cell_length_b 11.034725
_cell_length_c 5.338307
_cell_angle_alpha 90.000000
_cell_angle_beta 120.430608
_cell_angle_gamma 90.000000
_cell_volume 548.544376
_symmetry_space_group_name_H-M "P 21"
_symmetry_group_IT_number 4
_symmetry_cell_setting 'monoclinic'
loop_
_space_group_symop_operation_xyz
x,y,z
-x,1/2+y,-z
loop_
_atom_site_type_symbol
_atom_site_label
_atom_site_fract_x
_atom_site_fract_y
_atom_site_fract_z
Si Si1 0.849615 0.759370 0.294111
Si Si2 0.627473 0.556262 0.213905
Si Si3 0.125107 0.689923 0.857973
Si Si4 0.929399 0.570793 0.012827
Si Si5 0.711785 0.367261 0.635990
Si Si6 0.206284 0.510325 0.582832
Si Si7 0.528112 0.002866 0.454855
O O1 0.749713 0.658013 0.324506
O O2 0.005467 0.767604 0.587570
O O3 0.876313 0.703132 0.047192
O O4 0.774923 0.888588 0.237960
O O5 0.694525 0.420331 0.336388
O O6 0.523956 0.571028 0.348694
O O7 0.541006 0.556971 0.868419
O O8 0.233805 0.630490 0.773572
O O9 0.026161 0.582924 0.867854
O O10 0.201184 0.754028 0.171677
O O11 0.041566 0.525576 0.333264
O O12 0.799804 0.479758 0.847677
O O13 0.550713 0.373358 0.580592
O O14 0.306221 0.498097 0.442460
#
# Coordination Sequence:
#
# PCOD9117111 Si02
#       7
#     2   2   2   2   2   2   2
#     4  11  22  42  71 102 140 189 236 300 360 430
#     4  10  22  45  74  98 141 189 236 282 360 428
#     4  11  24  41  69 103 140 184 238 309 355 428
#     4  11  23  42  67 102 134 183 236 301 347 429
#     4  10  22  43  70  96 139 183 239 281 368 410
#     4  11  27  42  68 107 145 184 244 296 368 430
#     4  10  24  47  71 104 141 186 237 291 354 437
#
# _framework density 25.522092000000001
#
# number of rings (size 3 to 8) (size 9 to 14) (size 15 to 20)
#    0.857    0.571    4.286    0.000    4.000    3.429 
#    0.000    0.000    0.000    0.000    0.000    0.000 
#    0.000    0.000    0.000    0.000    0.000    0.000 
#
# Total GULP energy -78210.594897 kJ/mol
# GULP energy per Si atom -5586.471064 kJ/mol
# Density = 2.546400 g / cm^3
# Si number density = 25.522092 Si / 1000 Ang^3
#
#
#
# Elastic Constant Matrix: (Units=GPa)
#
#
# Indices 1 2 3 4 5 6 
#
# 1 118.0710 9.3001 4.4146 0.0000 -15.6663 0.0000
# 2 9.3001 57.4702 -12.4937 0.0000 6.4492 0.0000
# 3 4.4146 -12.4937 78.5220 0.0000 -9.1686 0.0000
# 4 0.0000 0.0000 0.0000 19.0474 0.0000 -0.6197
# 5 -15.6663 6.4492 -9.1686 0.0000 37.4945 0.0000
# 6 0.0000 0.0000 0.0000 -0.6197 0.0000 22.1270
#
#
#
# Elastic Compliance Matrix: (Units=1/GPa)
#
#
# Indices 1 2 3 4 5 6 
#
# 1 0.009186 -0.002025 -0.000360 0.000000 0.004099 0.000000
# 2 -0.002025 0.018695 0.002691 0.000000 -0.003404 0.000000
# 3 -0.000360 0.002691 0.013497 0.000000 0.002687 0.000000
# 4 0.000000 0.000000 0.000000 0.052549 0.000000 0.001472
# 5 0.004099 -0.003404 0.002687 0.000000 0.029626 0.000000
# 6 0.000000 0.000000 0.000000 0.001472 0.000000 0.045235
#
#
# Mechanical properties :
#
#
# Convention : Reuss Voigt Hill
#
# Bulk Modulus (GPa) = 23.81464 28.50056 26.15760
# Shear Modulus (GPa) = 27.44655 32.58993 30.01824
#
# Velocity S-wave (km/s) = 3.28289 3.57729 3.43325
# Velocity P-wave (km/s) = 4.87043 5.31544 5.09780
#
# Compressibility (1/GPa) = 0.04199098
#
# Stress axis : x y z
#
# Youngs Moduli (GPa) = 108.85847 53.49041 74.08800
#
# Poissons Ratio (x) = 0.10831 0.02668
# Poissons Ratio (y) = 0.22041 -0.19937
# Poissons Ratio (z) = 0.03920 -0.14394
#
# Static dielectric constant tensor:
#      x y z
#    x 1.988030 0.000000 0.012160 
#    y 0.000000 2.046820 0.000000 
#    z 0.012160 0.000000 2.049360 
# 
# From -- ./inp_files/3108.got.cif
#   From: 2010.05.17/outbox.cif.g08.bks.cpg/sg4_2_cif.got.tgz:3108.got - 2010.06.03 18:43:04.
