data_PCOD9117470
_publ_section_title
;
Structure prediction by ZEFSAII (Michael W. Deem and Ramdas Pophale) SiO2 
 PCOD9117470
Probable space group: P 21
;
_chemical_formula_sum "Si O2"
_cell_formula_units_Z 14
_cell_length_a 7.000518
_cell_length_b 8.354065
_cell_length_c 11.427022
_cell_angle_alpha 90.000000
_cell_angle_beta 105.322464
_cell_angle_gamma 90.000000
_cell_volume 644.529141
_symmetry_space_group_name_H-M "P 21"
_symmetry_group_IT_number 4
_symmetry_cell_setting 'monoclinic'
loop_
_space_group_symop_operation_xyz
x,y,z
-x,1/2+y,-z
loop_
_atom_site_type_symbol
_atom_site_label
_atom_site_fract_x
_atom_site_fract_y
_atom_site_fract_z
Si Si1 0.464557 0.321060 0.264071
Si Si2 0.984120 0.397540 0.671690
Si Si3 0.135646 0.238791 0.387410
Si Si4 0.605635 0.981368 0.206046
Si Si5 0.817445 0.318762 0.875154
Si Si6 0.173887 0.980617 0.582819
Si Si7 0.208784 0.475454 0.020992
O O1 0.342390 0.282219 0.361712
O O2 0.584228 0.164674 0.242562
O O3 0.622264 0.459624 0.317417
O O4 0.315206 0.370113 0.137275
O O5 0.219413 0.399813 0.690696
O O6 0.947574 0.586678 0.700824
O O7 0.920413 0.285831 0.766730
O O8 0.839686 0.373932 0.538605
O O9 0.000274 0.397105 0.370700
O O10 0.143535 0.151896 0.516286
O O11 0.389143 0.906037 0.181932
O O12 0.679056 0.960229 0.084567
O O13 0.779952 0.157803 0.938066
O O14 0.980535 0.424078 0.969127
#
# Coordination Sequence:
#
# PCOD9117470 Si02
#       7
#     2   2   2   2   2   2   2
#     4  12  23  42  68  96 130 173 213 268 326 384
#     4   9  22  41  64  92 125 170 205 266 317 374
#     4  10  23  42  64  93 130 170 212 266 316 380
#     4  11  21  43  69  88 131 169 215 269 325 372
#     4  11  23  44  63  94 130 165 221 266 321 385
#     4  10  23  41  65  94 129 170 216 263 324 380
#     4  11  27  39  67  97 127 173 214 268 325 383
#
# _framework density 21.721284000000001
#
# number of rings (size 3 to 8) (size 9 to 14) (size 15 to 20)
#    0.857    0.571    2.857    1.714    2.000    9.143 
#    0.000    0.000    0.000    0.000    0.000    0.000 
#    0.000    0.000    0.000    0.000    0.000    0.000 
#
# Total GULP energy -78088.513617 kJ/mol
# GULP energy per Si atom -5577.750973 kJ/mol
# Density = 2.167184 g / cm^3
# Si number density = 21.721284 Si / 1000 Ang^3
#
#
#
# Elastic Constant Matrix: (Units=GPa)
#
#
# Indices 1 2 3 4 5 6 
#
# 1 101.7989 14.6577 -0.6008 0.0000 11.1058 0.0000
# 2 14.6577 43.4556 7.4680 0.0000 -10.1732 0.0000
# 3 -0.6008 7.4680 43.8137 0.0000 15.2445 0.0000
# 4 0.0000 0.0000 0.0000 39.6826 0.0000 4.5111
# 5 11.1058 -10.1732 15.2445 0.0000 29.4417 0.0000
# 6 0.0000 0.0000 0.0000 4.5111 0.0000 3.8074
#
#
#
# Elastic Compliance Matrix: (Units=1/GPa)
#
#
# Indices 1 2 3 4 5 6 
#
# 1 0.011857 -0.006944 0.004559 0.000000 -0.009233 0.000000
# 2 -0.006944 0.032296 -0.012678 0.000000 0.020344 0.000000
# 3 0.004559 -0.012678 0.033141 0.000000 -0.023260 0.000000
# 4 0.000000 0.000000 0.000000 0.029122 0.000000 -0.034505
# 5 -0.009233 0.020344 -0.023260 0.000000 0.056521 0.000000
# 6 0.000000 0.000000 0.000000 -0.034505 0.000000 0.303525
#
#
# Mechanical properties :
#
#
# Convention : Reuss Voigt Hill
#
# Bulk Modulus (GPa) = 21.20186 25.79087 23.49637
# Shear Modulus (GPa) = 9.75968 25.75590 17.75779
#
# Velocity S-wave (km/s) = 2.12200 3.44720 2.86235
# Velocity P-wave (km/s) = 3.97315 5.26722 4.66527
#
# Compressibility (1/GPa) = 0.04716567
#
# Stress axis : x y z
#
# Youngs Moduli (GPa) = 84.33590 30.96391 30.17448
#
# Poissons Ratio (x) = 0.21502 -0.13756
# Poissons Ratio (y) = 0.58566 0.38256
# Poissons Ratio (z) = -0.38446 0.39257
#
# Static dielectric constant tensor:
#      x y z
#    x 1.757320 0.000000 0.007270 
#    y 0.000000 1.815770 0.000000 
#    z 0.007270 0.000000 1.809740 
# 
# From -- ./inp_files/2612.got.cif
#   From: 2010.05.17/outbox.cif.g08.bks.cpg/sg4_2_cif.got.tgz:2612.got - 2010.06.03 18:43:04.
