data_PCOD9117757
_publ_section_title
;
Structure prediction by ZEFSAII (Michael W. Deem and Ramdas Pophale) SiO2 
 PCOD9117757
Probable space group: P 21
;
_chemical_formula_sum "Si O2"
_cell_formula_units_Z 16
_cell_length_a 10.347161
_cell_length_b 9.338701
_cell_length_c 7.542679
_cell_angle_alpha 90.000000
_cell_angle_beta 118.658886
_cell_angle_gamma 90.000000
_cell_volume 639.551826
_symmetry_space_group_name_H-M "P 21"
_symmetry_group_IT_number 4
_symmetry_cell_setting 'monoclinic'
loop_
_space_group_symop_operation_xyz
x,y,z
-x,1/2+y,-z
loop_
_atom_site_type_symbol
_atom_site_label
_atom_site_fract_x
_atom_site_fract_y
_atom_site_fract_z
Si Si1 0.686880 0.423830 0.937340
Si Si2 0.184809 0.612631 0.939431
Si Si3 0.884691 0.087046 0.494288
Si Si4 0.174774 0.405578 0.232624
Si Si5 0.600354 0.872692 0.021574
Si Si6 0.511537 0.505496 0.476323
Si Si7 0.859890 0.704758 0.126238
Si Si8 0.417246 0.746096 0.629572
O O1 0.535607 0.398581 0.943590
O O2 0.623375 0.471091 0.707405
O O3 0.777276 0.276231 0.001381
O O4 0.792740 0.546662 0.078103
O O5 0.088857 0.586607 0.699297
O O6 0.339367 0.524078 0.014479
O O7 0.121928 0.538080 0.073446
O O8 0.887038 0.940517 0.612847
O O9 0.720839 0.155766 0.399228
O O10 0.987103 0.194811 0.671163
O O11 0.352460 0.424297 0.375636
O O12 0.141129 0.274631 0.074708
O O13 0.754205 0.803490 0.179963
O O14 0.547166 0.744352 0.856531
O O15 0.467005 0.670161 0.478355
O O16 0.598752 0.419031 0.381885
#
# Coordination Sequence:
#
# PCOD9117757 Si02
#       8
#     2   2   2   2   2   2   2   2
#     4  12  22  37  71 101 133 180 244 305 360 425
#     4  11  23  41  69 100 142 190 239 300 363 438
#     4  11  25  45  71 105 151 194 237 303 378 443
#     4  10  23  45  70  95 146 192 241 301 367 435
#     4  11  21  44  65  94 139 180 239 303 353 421
#     4  11  20  38  67 101 129 183 240 301 351 427
#     4  11  25  45  69 103 148 186 249 305 368 453
#     4  11  21  41  66  97 136 179 239 294 358 422
#
# _framework density 25.017517999999999
#
# number of rings (size 3 to 8) (size 9 to 14) (size 15 to 20)
#    0.000    1.000    5.000    3.750    0.000    4.000 
#    0.000    1.250    0.000    0.000    0.000    0.000 
#    0.000    0.000    0.000    0.000    0.000    0.000 
#
# Total GULP energy -89197.145784 kJ/mol
# GULP energy per Si atom -5574.821611 kJ/mol
# Density = 2.496058 g / cm^3
# Si number density = 25.017518 Si / 1000 Ang^3
#
#
#
# Elastic Constant Matrix: (Units=GPa)
#
#
# Indices 1 2 3 4 5 6 
#
# 1 25.5017 5.3769 14.9862 0.0000 -5.0675 0.0000
# 2 5.3769 132.7986 19.2615 0.0000 7.6940 0.0000
# 3 14.9862 19.2615 122.3919 0.0000 -1.7032 0.0000
# 4 0.0000 0.0000 0.0000 42.3862 0.0000 5.1436
# 5 -5.0675 7.6940 -1.7032 0.0000 27.4462 0.0000
# 6 0.0000 0.0000 0.0000 5.1436 0.0000 31.5493
#
#
#
# Elastic Compliance Matrix: (Units=1/GPa)
#
#
# Indices 1 2 3 4 5 6 
#
# 1 0.044146 -0.001534 -0.005049 0.000000 0.008268 0.000000
# 2 -0.001534 0.007899 -0.001091 0.000000 -0.002565 0.000000
# 3 -0.005049 -0.001091 0.008959 0.000000 -0.000070 0.000000
# 4 0.000000 0.000000 0.000000 0.024069 0.000000 -0.003924
# 5 0.008268 -0.002565 -0.000070 0.000000 0.038676 0.000000
# 6 0.000000 0.000000 0.000000 -0.003924 0.000000 0.032336
#
#
# Mechanical properties :
#
#
# Convention : Reuss Voigt Hill
#
# Bulk Modulus (GPa) = 21.90255 39.99352 30.94804
# Shear Modulus (GPa) = 26.78761 36.34750 31.56756
#
# Velocity S-wave (km/s) = 3.27579 3.81580 3.55606
# Velocity P-wave (km/s) = 4.80433 5.95271 5.40908
#
# Compressibility (1/GPa) = 0.04565678
#
# Stress axis : x y z
#
# Youngs Moduli (GPa) = 22.65186 126.59530 111.61443
#
# Poissons Ratio (x) = 0.19422 0.56354
# Poissons Ratio (y) = 0.03475 0.12177
# Poissons Ratio (z) = 0.11437 0.13811
#
# Static dielectric constant tensor:
#      x y z
#    x 2.032680 0.000000 -0.098700 
#    y 0.000000 2.038790 0.000000 
#    z -0.098700 0.000000 2.119780 
# 
# From -- ./inp_files/8067.got.cif
#   From: 2010.05.17/outbox.cif.g08.bks.cpg/sg4_5_cif.got.tgz:8067.got - 2010.06.03 18:43:04.
