data_PCOD9117662
_publ_section_title
;
Structure prediction by ZEFSAII (Michael W. Deem and Ramdas Pophale) SiO2 
 PCOD9117662
Probable space group: P 21
;
_chemical_formula_sum "Si O2"
_cell_formula_units_Z 14
_cell_length_a 13.527149
_cell_length_b 5.099556
_cell_length_c 9.645615
_cell_angle_alpha 90.000000
_cell_angle_beta 57.481068
_cell_angle_gamma 90.000000
_cell_volume 561.056115
_symmetry_space_group_name_H-M "P 21"
_symmetry_group_IT_number 4
_symmetry_cell_setting 'monoclinic'
loop_
_space_group_symop_operation_xyz
x,y,z
-x,1/2+y,-z
loop_
_atom_site_type_symbol
_atom_site_label
_atom_site_fract_x
_atom_site_fract_y
_atom_site_fract_z
Si Si1 0.463130 0.481310 0.834428
Si Si2 0.696226 0.211956 0.266287
Si Si3 0.127585 0.431118 0.518564
Si Si4 0.900982 0.708120 0.753377
Si Si5 0.076377 0.431391 0.970412
Si Si6 0.672935 0.462770 0.001993
Si Si7 0.717101 0.431276 0.548222
O O1 0.411050 0.549709 0.719820
O O2 0.398561 0.700182 0.976310
O O3 0.583308 0.700663 0.085181
O O4 0.724053 0.410392 0.118825
O O5 0.675005 0.360041 0.424349
O O6 0.808782 0.026036 0.197479
O O7 0.219449 0.668618 0.447836
O O8 0.190901 0.168533 0.522266
O O9 0.083121 0.375233 0.396535
O O10 0.885549 0.889601 0.898710
O O11 0.783278 0.538446 0.827097
O O12 0.014156 0.526546 0.688214
O O13 0.980504 0.660839 0.035456
O O14 0.601939 0.502804 0.722619
#
# Coordination Sequence:
#
# PCOD9117662 Si02
#       7
#     2   2   2   2   2   2   2
#     4  10  24  45  75 112 145 200 234 310 380 424
#     4  10  26  41  76 110 149 194 236 307 391 415
#     4  12  31  47  77 107 152 212 235 320 360 451
#     4  12  27  55  74 106 154 194 256 293 393 448
#     4  12  27  45  76 113 146 187 246 318 370 445
#     4  10  23  43  78 104 138 199 241 298 377 434
#     4  12  28  48  72 120 154 186 268 292 369 457
#
# _framework density 24.952939000000001
#
# number of rings (size 3 to 8) (size 9 to 14) (size 15 to 20)
#    0.857    0.000    1.429    3.429    4.000   16.000 
#    0.000    2.857    0.000    0.000    0.000    0.000 
#    0.000    0.000    0.000    0.000    0.000    0.000 
#
# Total GULP energy -78540.387176 kJ/mol
# GULP energy per Si atom -5610.027655 kJ/mol
# Density = 2.489615 g / cm^3
# Si number density = 24.952939 Si / 1000 Ang^3
#
#
#
# Elastic Constant Matrix: (Units=GPa)
#
#
# Indices 1 2 3 4 5 6 
#
# 1 138.2830 28.8528 13.2834 0.0000 0.7400 0.0000
# 2 28.8528 127.8104 8.9350 0.0000 8.2622 0.0000
# 3 13.2834 8.9350 60.2742 0.0000 4.6670 0.0000
# 4 0.0000 0.0000 0.0000 23.8887 0.0000 -10.6814
# 5 0.7400 8.2622 4.6670 0.0000 40.4921 0.0000
# 6 0.0000 0.0000 0.0000 -10.6814 0.0000 23.0238
#
#
#
# Elastic Compliance Matrix: (Units=1/GPa)
#
#
# Indices 1 2 3 4 5 6 
#
# 1 0.007719 -0.001663 -0.001483 0.000000 0.000369 0.000000
# 2 -0.001663 0.008354 -0.000749 0.000000 -0.001588 0.000000
# 3 -0.001483 -0.000749 0.017168 0.000000 -0.001799 0.000000
# 4 0.000000 0.000000 0.000000 0.052817 0.000000 0.024503
# 5 0.000369 -0.001588 -0.001799 0.000000 0.025221 0.000000
# 6 0.000000 0.000000 0.000000 0.024503 0.000000 0.054801
#
#
# Mechanical properties :
#
#
# Convention : Reuss Voigt Hill
#
# Bulk Modulus (GPa) = 39.29047 47.61220 43.45133
# Shear Modulus (GPa) = 27.41915 35.83401 31.62658
#
# Velocity S-wave (km/s) = 3.31846 3.79365 3.56399
# Velocity P-wave (km/s) = 5.51932 6.18961 5.86405
#
# Compressibility (1/GPa) = 0.02545147
#
# Stress axis : x y z
#
# Youngs Moduli (GPa) = 129.55087 119.69655 58.24771
#
# Poissons Ratio (x) = 0.19902 0.08639
# Poissons Ratio (y) = 0.21540 0.04363
# Poissons Ratio (z) = 0.19215 0.08966
#
# Static dielectric constant tensor:
#      x y z
#    x 1.932120 0.000000 0.089400 
#    y 0.000000 1.902300 0.000000 
#    z 0.089400 0.000000 2.025280 
# 
# From -- ./inp_files/9043.got.cif
#   From: 2010.05.17/outbox.cif.g08.bks.cpg/sg4_5_cif.got.tgz:9043.got - 2010.06.03 18:43:04.
