data_PCOD9117609
_publ_section_title
;
Structure prediction by ZEFSAII (Michael W. Deem and Ramdas Pophale) SiO2 
 PCOD9117609
Probable space group: P 21
;
_chemical_formula_sum "Si O2"
_cell_formula_units_Z 12
_cell_length_a 11.691167
_cell_length_b 8.430580
_cell_length_c 5.363766
_cell_angle_alpha 90.000000
_cell_angle_beta 100.613748
_cell_angle_gamma 90.000000
_cell_volume 519.625649
_symmetry_space_group_name_H-M "P 21"
_symmetry_group_IT_number 4
_symmetry_cell_setting 'monoclinic'
loop_
_space_group_symop_operation_xyz
x,y,z
-x,1/2+y,-z
loop_
_atom_site_type_symbol
_atom_site_label
_atom_site_fract_x
_atom_site_fract_y
_atom_site_fract_z
Si Si1 0.388751 0.270490 0.301190
Si Si2 0.369849 0.940608 0.583418
Si Si3 0.211620 0.148677 0.860217
Si Si4 0.173995 0.395458 0.446884
Si Si5 0.854707 0.250173 0.527747
Si Si6 0.044968 0.895620 0.941941
O O1 0.512309 0.349194 0.306180
O O2 0.311394 0.377264 0.455360
O O3 0.394829 0.090682 0.412024
O O4 0.301604 0.262829 0.034287
O O5 0.274176 0.814136 0.453408
O O6 0.301361 0.019182 0.785602
O O7 0.118170 0.059585 0.997444
O O8 0.149694 0.242780 0.610289
O O9 0.147768 0.566527 0.547874
O O10 0.092330 0.401016 0.167941
O O11 0.906612 0.336151 0.306361
O O12 0.925345 0.292117 0.806030
#
# Coordination Sequence:
#
# PCOD9117609 Si02
#       6
#     2   2   2   2   2   2
#     4  11  23  44  69  96 140 179 239 289 363 417
#     4  10  23  43  67  97 137 181 236 294 354 425
#     4  10  24  45  65 102 138 190 231 296 355 426
#     4  11  26  40  70 104 136 185 243 287 359 421
#     4  11  25  45  69 105 137 192 235 295 353 418
#     4  11  25  45  72  98 150 185 238 289 356 421
#
# _framework density 23.093547999999998
#
# number of rings (size 3 to 8) (size 9 to 14) (size 15 to 20)
#    0.000    1.333    1.667    2.000    7.000    4.000 
#    3.000    0.000    0.000    0.000    0.000    0.000 
#    0.000    0.000    0.000    0.000    0.000    0.000 
#
# Total GULP energy -67010.992737 kJ/mol
# GULP energy per Si atom -5584.249395 kJ/mol
# Density = 2.304099 g / cm^3
# Si number density = 23.093548 Si / 1000 Ang^3
#
#
#
# Elastic Constant Matrix: (Units=GPa)
#
#
# Indices 1 2 3 4 5 6 
#
# 1 163.9831 37.0311 29.4740 0.0000 13.7175 0.0000
# 2 37.0311 68.0126 2.9834 0.0000 -3.4387 0.0000
# 3 29.4740 2.9834 66.9249 0.0000 8.0117 0.0000
# 4 0.0000 0.0000 0.0000 27.6146 0.0000 10.0880
# 5 13.7175 -3.4387 8.0117 0.0000 27.1757 0.0000
# 6 0.0000 0.0000 0.0000 10.0880 0.0000 44.0726
#
#
#
# Elastic Compliance Matrix: (Units=1/GPa)
#
#
# Indices 1 2 3 4 5 6 
#
# 1 0.007905 -0.004367 -0.002843 0.000000 -0.003705 0.000000
# 2 -0.004367 0.017264 0.000651 0.000000 0.004197 0.000000
# 3 -0.002843 0.000651 0.016568 0.000000 -0.003367 0.000000
# 4 0.000000 0.000000 0.000000 0.039517 0.000000 -0.009045
# 5 -0.003705 0.004197 -0.003367 0.000000 0.040191 0.000000
# 6 0.000000 0.000000 0.000000 -0.009045 0.000000 0.024760
#
#
# Mechanical properties :
#
#
# Convention : Reuss Voigt Hill
#
# Bulk Modulus (GPa) = 34.94060 48.65528 41.79794
# Shear Modulus (GPa) = 29.60953 35.06807 32.33880
#
# Velocity S-wave (km/s) = 3.58460 3.90105 3.74617
# Velocity P-wave (km/s) = 5.68290 6.43471 6.07045
#
# Compressibility (1/GPa) = 0.02862000
#
# Stress axis : x y z
#
# Youngs Moduli (GPa) = 126.49788 57.92268 60.35590
#
# Poissons Ratio (x) = 0.25294 0.17161
# Poissons Ratio (y) = 0.55239 -0.03930
# Poissons Ratio (z) = 0.35968 -0.03772
#
# Static dielectric constant tensor:
#      x y z
#    x 1.837620 0.000000 -0.002300 
#    y 0.000000 1.926210 0.000000 
#    z -0.002300 0.000000 1.908480 
# 
# From -- ./inp_files/2549.got.cif
#   From: 2010.05.17/outbox.cif.g08.bks.cpg/sg4_2_cif.got.tgz:2549.got - 2010.06.03 18:43:04.
