data_PCOD9117628
_publ_section_title
;
Structure prediction by ZEFSAII (Michael W. Deem and Ramdas Pophale) SiO2 
 PCOD9117628
Probable space group: P 21
;
_chemical_formula_sum "Si O2"
_cell_formula_units_Z 10
_cell_length_a 6.887847
_cell_length_b 4.992466
_cell_length_c 12.427935
_cell_angle_alpha 90.000000
_cell_angle_beta 89.917516
_cell_angle_gamma 90.000000
_cell_volume 427.363208
_symmetry_space_group_name_H-M "P 21"
_symmetry_group_IT_number 4
_symmetry_cell_setting 'monoclinic'
loop_
_space_group_symop_operation_xyz
x,y,z
-x,1/2+y,-z
loop_
_atom_site_type_symbol
_atom_site_label
_atom_site_fract_x
_atom_site_fract_y
_atom_site_fract_z
Si Si1 0.886846 0.725040 0.146967
Si Si2 0.382597 0.227661 0.037568
Si Si3 0.521536 0.959123 0.431110
Si Si4 0.232779 0.980513 0.245980
Si Si5 0.832414 0.212550 0.279223
O O1 0.821649 0.681405 0.025554
O O2 0.806617 0.504339 0.229881
O O3 0.793780 0.006645 0.181568
O O4 0.113350 0.761372 0.175839
O O5 0.470567 0.518424 0.017871
O O6 0.348744 0.159189 0.161185
O O7 0.426030 0.190606 0.505004
O O8 0.374180 0.875007 0.336758
O O9 0.702171 0.113977 0.376880
O O10 0.060074 0.154392 0.300272
#
# Coordination Sequence:
#
# PCOD9117628 Si02
#       5
#     2   2   2   2   2
#     4  10  23  43  70 100 144 176 227 272 349 415
#     4  12  26  41  72 107 146 185 227 276 350 417
#     4  12  27  46  72 100 138 183 239 291 349 401
#     4  10  28  43  74  99 145 180 234 282 345 409
#     4  10  24  45  70 100 141 176 231 285 347 410
#
# _framework density 23.399298000000002
#
# number of rings (size 3 to 8) (size 9 to 14) (size 15 to 20)
#    1.200    0.000    0.000    4.800    8.400    1.600 
#    0.000    0.000    0.000    0.000    0.000    0.000 
#    0.000    0.000    0.000    0.000    0.000    0.000 
#
# Total GULP energy -55886.780116 kJ/mol
# GULP energy per Si atom -5588.678012 kJ/mol
# Density = 2.334604 g / cm^3
# Si number density = 23.399298 Si / 1000 Ang^3
#
#
#
# Elastic Constant Matrix: (Units=GPa)
#
#
# Indices 1 2 3 4 5 6 
#
# 1 86.5829 3.2428 25.1288 0.0000 8.9373 0.0000
# 2 3.2428 72.7290 -0.4589 0.0000 7.4364 0.0000
# 3 25.1288 -0.4589 78.7688 0.0000 13.3300 0.0000
# 4 0.0000 0.0000 0.0000 22.8777 0.0000 -6.5718
# 5 8.9373 7.4364 13.3300 0.0000 23.3296 0.0000
# 6 0.0000 0.0000 0.0000 -6.5718 0.0000 28.8660
#
#
#
# Elastic Compliance Matrix: (Units=1/GPa)
#
#
# Indices 1 2 3 4 5 6 
#
# 1 0.012906 -0.000317 -0.003653 0.000000 -0.002756 0.000000
# 2 -0.000317 0.014284 0.001034 0.000000 -0.005023 0.000000
# 3 -0.003653 0.001034 0.015151 0.000000 -0.007587 0.000000
# 4 0.000000 0.000000 0.000000 0.046769 0.000000 0.010648
# 5 -0.002756 -0.005023 -0.007587 0.000000 0.049856 0.000000
# 6 0.000000 0.000000 0.000000 0.010648 0.000000 0.037067
#
#
# Mechanical properties :
#
#
# Convention : Reuss Voigt Hill
#
# Bulk Modulus (GPa) = 27.41960 32.65622 30.03791
# Shear Modulus (GPa) = 25.76525 29.02587 27.39556
#
# Velocity S-wave (km/s) = 3.32190 3.52584 3.42539
# Velocity P-wave (km/s) = 5.14363 5.52827 5.33941
#
# Compressibility (1/GPa) = 0.03647026
#
# Stress axis : x y z
#
# Youngs Moduli (GPa) = 77.48269 70.00902 66.00374
#
# Poissons Ratio (x) = 0.02217 0.24109
# Poissons Ratio (y) = 0.02454 -0.06826
# Poissons Ratio (z) = 0.28302 -0.07241
#
# Static dielectric constant tensor:
#      x y z
#    x 1.929190 0.000000 0.001980 
#    y 0.000000 1.846600 0.000000 
#    z 0.001980 0.000000 1.846290 
# 
# From -- ./inp_files/9740.got.cif
#   From: 2010.05.17/outbox.cif.g08.bks.cpg/sg4_5_cif.got.tgz:9740.got - 2010.06.03 18:43:04.
