data_PCOD9117053
_publ_section_title
;
Structure prediction by ZEFSAII (Michael W. Deem and Ramdas Pophale) SiO2 
 PCOD9117053
Probable space group: P 21
;
_chemical_formula_sum "Si O2"
_cell_formula_units_Z 16
_cell_length_a 5.044923
_cell_length_b 22.711003
_cell_length_c 5.595433
_cell_angle_alpha 90.000000
_cell_angle_beta 68.789424
_cell_angle_gamma 90.000000
_cell_volume 597.668305
_symmetry_space_group_name_H-M "P 21"
_symmetry_group_IT_number 4
_symmetry_cell_setting 'monoclinic'
loop_
_space_group_symop_operation_xyz
x,y,z
-x,1/2+y,-z
loop_
_atom_site_type_symbol
_atom_site_label
_atom_site_fract_x
_atom_site_fract_y
_atom_site_fract_z
Si Si1 0.471756 0.730040 0.225481
Si Si2 0.670569 0.384028 0.051134
Si Si3 0.481259 0.903697 0.404144
Si Si4 0.974473 0.994990 0.124767
Si Si5 0.495973 0.125988 0.473348
Si Si6 0.015974 0.276045 0.917008
Si Si7 0.865977 0.516299 0.422520
Si Si8 0.970634 0.690831 0.694417
O O1 0.510625 0.658901 0.267350
O O2 0.178367 0.735550 0.490856
O O3 0.283629 0.747509 0.050015
O O4 0.696317 0.768132 0.324456
O O5 0.471610 0.378076 0.346443
O O6 0.940593 0.341850 0.011769
O O7 0.576519 0.365830 0.814483
O O8 0.746795 0.452954 0.997220
O O9 0.727823 0.948463 0.252809
O O10 0.208289 0.946890 0.533519
O O11 0.014782 0.030553 0.354985
O O12 0.945171 0.025371 0.876040
O O13 0.405684 0.058519 0.520475
O O14 0.803978 0.144047 0.271593
O O15 0.252386 0.157385 0.395665
O O16 0.176568 0.232605 0.060138
#
# Coordination Sequence:
#
# PCOD9117053 Si02
#       8
#     2   2   2   2   2   2   2   2
#     4  10  23  43  60  96 134 163 231 271 325 402
#     4  10  25  39  67  94 130 169 226 268 344 394
#     4  10  22  45  63 100 130 169 222 282 327 410
#     4  10  22  43  65  95 134 164 225 278 331 407
#     4  10  22  45  66  95 137 176 222 278 339 393
#     4  12  24  41  69  94 128 185 215 281 337 398
#     4  10  23  41  65 100 127 176 220 274 338 403
#     4  10  23  43  61  96 134 168 225 280 319 407
#
# _framework density 26.770699
#
# number of rings (size 3 to 8) (size 9 to 14) (size 15 to 20)
#    0.750    1.000    1.250    1.500    5.250    2.000 
#    0.000    0.000    0.000    0.000    0.000    0.000 
#    0.000    0.000    0.000    0.000    0.000    0.000 
#
# Total GULP energy -89167.144836 kJ/mol
# GULP energy per Si atom -5572.946552 kJ/mol
# Density = 2.670977 g / cm^3
# Si number density = 26.770699 Si / 1000 Ang^3
#
#
#
# Elastic Constant Matrix: (Units=GPa)
#
#
# Indices 1 2 3 4 5 6 
#
# 1 162.7601 35.0553 35.3644 0.0000 1.6024 0.0000
# 2 35.0553 84.8981 26.7096 0.0000 14.1780 0.0000
# 3 35.3644 26.7096 177.1285 0.0000 13.6100 0.0000
# 4 0.0000 0.0000 0.0000 29.5564 0.0000 0.5689
# 5 1.6024 14.1780 13.6100 0.0000 24.0864 0.0000
# 6 0.0000 0.0000 0.0000 0.5689 0.0000 55.5827
#
#
#
# Elastic Compliance Matrix: (Units=1/GPa)
#
#
# Indices 1 2 3 4 5 6 
#
# 1 0.006978 -0.002839 -0.001106 0.000000 0.001832 0.000000
# 2 -0.002839 0.014580 -0.001032 0.000000 -0.007810 0.000000
# 3 -0.001106 -0.001032 0.006241 0.000000 -0.002845 0.000000
# 4 0.000000 0.000000 0.000000 0.033840 0.000000 -0.000346
# 5 0.001832 -0.007810 -0.002845 0.000000 0.047601 0.000000
# 6 0.000000 0.000000 0.000000 -0.000346 0.000000 0.017995
#
#
# Mechanical properties :
#
#
# Convention : Reuss Voigt Hill
#
# Bulk Modulus (GPa) = 56.03716 68.78280 62.40998
# Shear Modulus (GPa) = 34.93190 43.68892 39.31041
#
# Velocity S-wave (km/s) = 3.61620 4.04414 3.83614
# Velocity P-wave (km/s) = 6.19787 6.89608 6.55627
#
# Compressibility (1/GPa) = 0.01784530
#
# Stress axis : x y z
#
# Youngs Moduli (GPa) = 143.31270 68.58680 160.24161
#
# Poissons Ratio (x) = 0.19473 0.17719
# Poissons Ratio (y) = 0.40690 0.16530
# Poissons Ratio (z) = 0.15847 0.07075
#
# Static dielectric constant tensor:
#      x y z
#    x 2.168220 0.000000 0.071550 
#    y 0.000000 2.119650 0.000000 
#    z 0.071550 0.000000 2.316810 
# 
# From -- ./inp_files/788.got.cif
#   From: 2010.05.17/outbox.cif.g08.bks.cpg/sg4_1_cif.got.tgz:788.got - 2010.06.03 18:43:04.
