data_PCOD9117239
_publ_section_title
;
Structure prediction by ZEFSAII (Michael W. Deem and Ramdas Pophale) SiO2 
 PCOD9117239
Probable space group: P 21
;
_chemical_formula_sum "Si O2"
_cell_formula_units_Z 16
_cell_length_a 12.224563
_cell_length_b 7.634332
_cell_length_c 13.581742
_cell_angle_alpha 90.000000
_cell_angle_beta 146.233493
_cell_angle_gamma 90.000000
_cell_volume 704.508162
_symmetry_space_group_name_H-M "P 21"
_symmetry_group_IT_number 4
_symmetry_cell_setting 'monoclinic'
loop_
_space_group_symop_operation_xyz
x,y,z
-x,1/2+y,-z
loop_
_atom_site_type_symbol
_atom_site_label
_atom_site_fract_x
_atom_site_fract_y
_atom_site_fract_z
Si Si1 0.801634 0.320630 0.266897
Si Si2 0.477136 0.093471 0.701134
Si Si3 0.278095 0.707310 0.288375
Si Si4 0.479946 0.688551 0.647331
Si Si5 0.102913 0.001874 0.055386
Si Si6 0.420389 0.538216 0.810152
Si Si7 0.182032 0.202404 0.642471
Si Si8 0.781635 0.290812 0.043989
O O1 0.604009 0.212468 0.143439
O O2 0.786979 0.527766 0.271215
O O3 0.953797 0.244200 0.460067
O O4 0.887495 0.263931 0.225550
O O5 0.542022 0.208911 0.655278
O O6 0.286062 0.156599 0.616055
O O7 0.651469 0.128001 0.910860
O O8 0.465853 0.894250 0.659911
O O9 0.365209 0.657066 0.459063
O O10 0.162664 0.892499 0.197315
O O11 0.113072 0.579943 0.118497
O O12 0.711663 0.634271 0.816327
O O13 0.386157 0.586444 0.669680
O O14 0.109401 0.865928 0.968616
O O15 0.279445 0.386103 0.745683
O O16 0.630259 0.444585 0.962634
#
# Coordination Sequence:
#
# PCOD9117239 Si02
#       8
#     2   2   2   2   2   2   2   2
#     4  12  23  43  66  94 130 180 216 279 341 386
#     4  10  22  45  62 100 132 167 227 272 332 414
#     4  11  23  42  71  97 136 184 216 278 351 391
#     4  11  22  43  71  97 134 185 217 282 342 391
#     4  10  23  44  61 103 134 165 236 274 320 428
#     4  10  23  41  64  96 136 167 228 275 319 412
#     4  11  24  42  64  96 134 166 228 272 325 413
#     4   9  24  42  65  93 134 172 218 282 336 387
#
# _framework density 22.710881000000001
#
# number of rings (size 3 to 8) (size 9 to 14) (size 15 to 20)
#    0.000    1.500    2.500    2.250    5.250    0.000 
#   13.500    0.000    0.000    0.000    0.000    0.000 
#    0.000    0.000    0.000    0.000    0.000    0.000 
#
# Total GULP energy -89291.178911 kJ/mol
# GULP energy per Si atom -5580.698682 kJ/mol
# Density = 2.265919 g / cm^3
# Si number density = 22.710881 Si / 1000 Ang^3
#
#
#
# Elastic Constant Matrix: (Units=GPa)
#
#
# Indices 1 2 3 4 5 6 
#
# 1 47.2479 -2.2852 30.7848 0.0000 -5.8858 0.0000
# 2 -2.2852 81.8975 26.5398 0.0000 -9.9085 0.0000
# 3 30.7848 26.5398 93.0811 0.0000 -19.3109 0.0000
# 4 0.0000 0.0000 0.0000 23.0947 0.0000 -2.2982
# 5 -5.8858 -9.9085 -19.3109 0.0000 30.7564 0.0000
# 6 0.0000 0.0000 0.0000 -2.2982 0.0000 34.0777
#
#
#
# Elastic Compliance Matrix: (Units=1/GPa)
#
#
# Indices 1 2 3 4 5 6 
#
# 1 0.028233 0.004212 -0.010504 0.000000 0.000165 0.000000
# 2 0.004212 0.014214 -0.004977 0.000000 0.002261 0.000000
# 3 -0.010504 -0.004977 0.017116 0.000000 0.007133 0.000000
# 4 0.000000 0.000000 0.000000 0.043593 0.000000 0.002940
# 5 0.000165 0.002261 0.007133 0.000000 0.037752 0.000000
# 6 0.000000 0.000000 0.000000 0.002940 0.000000 0.029543
#
#
# Mechanical properties :
#
#
# Convention : Reuss Voigt Hill
#
# Bulk Modulus (GPa) = 27.00874 36.92281 31.96577
# Shear Modulus (GPa) = 24.35078 28.73155 26.54116
#
# Velocity S-wave (km/s) = 3.27801 3.56068 3.42227
# Velocity P-wave (km/s) = 5.12302 5.76174 5.45175
#
# Compressibility (1/GPa) = 0.03702505
#
# Stress axis : x y z
#
# Youngs Moduli (GPa) = 35.41897 70.35215 58.42361
#
# Poissons Ratio (x) = -0.29631 0.61371
# Poissons Ratio (y) = -0.14918 0.29076
# Poissons Ratio (z) = 0.37206 0.35013
#
# Static dielectric constant tensor:
#      x y z
#    x 1.865530 0.000000 -0.014270 
#    y 0.000000 1.884170 0.000000 
#    z -0.014270 0.000000 1.869710 
# 
# From -- ./inp_files/12033.got.cif
#   From: 2010.05.17/outbox.cif.g08.bks.cpg/sg4_7_cif.got.tgz:12033.got - 2010.06.03 18:43:04.
