data_PCOD9117446
_publ_section_title
;
Structure prediction by ZEFSAII (Michael W. Deem and Ramdas Pophale) SiO2 
 PCOD9117446
Probable space group: P 21
;
_chemical_formula_sum "Si O2"
_cell_formula_units_Z 14
_cell_length_a 8.733913
_cell_length_b 8.608690
_cell_length_c 8.849595
_cell_angle_alpha 90.000000
_cell_angle_beta 95.014367
_cell_angle_gamma 90.000000
_cell_volume 662.832830
_symmetry_space_group_name_H-M "P 21"
_symmetry_group_IT_number 4
_symmetry_cell_setting 'monoclinic'
loop_
_space_group_symop_operation_xyz
x,y,z
-x,1/2+y,-z
loop_
_atom_site_type_symbol
_atom_site_label
_atom_site_fract_x
_atom_site_fract_y
_atom_site_fract_z
Si Si1 0.033255 0.666680 0.824611
Si Si2 0.560735 0.794050 0.828995
Si Si3 0.828616 0.478373 0.044164
Si Si4 0.613775 0.339141 0.764620
Si Si5 0.391444 0.075204 0.717301
Si Si6 0.641740 0.015394 0.105431
Si Si7 0.238729 0.100845 0.391786
O O1 0.072467 0.846917 0.860855
O O2 0.191410 0.572323 0.837336
O O3 0.937122 0.634889 0.664219
O O4 0.932447 0.592211 0.952205
O O5 0.467126 0.666301 0.915905
O O6 0.671959 0.706694 0.723718
O O7 0.440809 0.894707 0.721889
O O8 0.639084 0.909256 0.956031
O O9 0.722705 0.577758 0.148521
O O10 0.716576 0.382273 0.920350
O O11 0.554861 0.165616 0.736818
O O12 0.448158 0.421182 0.773343
O O13 0.709571 0.424213 0.642648
O O14 0.297461 0.130110 0.564073
#
# Coordination Sequence:
#
# PCOD9117446 Si02
#       7
#     2   2   2   2   2   2   2
#     4  11  23  41  58  95 127 163 211 261 325 380
#     4  11  21  38  69  93 124 162 222 271 311 373
#     4  11  24  39  68  90 124 165 217 272 311 372
#     4  10  23  40  66  98 116 167 220 268 314 364
#     4  12  22  42  66  94 128 168 216 262 320 388
#     4  11  20  38  66  95 122 162 216 277 307 366
#     4  10  25  42  61  93 135 169 202 259 332 391
#
# _framework density 21.121462000000001
#
# number of rings (size 3 to 8) (size 9 to 14) (size 15 to 20)
#    0.000    1.143    2.857    3.429    6.000    0.000 
#    2.571    0.000    3.143    0.000    0.000    0.000 
#    0.000    0.000    0.000    0.000    0.000    0.000 
#
# Total GULP energy -78174.215362 kJ/mol
# GULP energy per Si atom -5583.872526 kJ/mol
# Density = 2.107339 g / cm^3
# Si number density = 21.121462 Si / 1000 Ang^3
#
#
#
# Elastic Constant Matrix: (Units=GPa)
#
#
# Indices 1 2 3 4 5 6 
#
# 1 99.8077 23.3677 38.7224 0.0000 21.7288 0.0000
# 2 23.3677 85.5092 26.0638 0.0000 10.9255 0.0000
# 3 38.7224 26.0638 96.3083 0.0000 34.4793 0.0000
# 4 0.0000 0.0000 0.0000 21.9778 0.0000 1.8558
# 5 21.7288 10.9255 34.4793 0.0000 23.2843 0.0000
# 6 0.0000 0.0000 0.0000 1.8558 0.0000 40.9623
#
#
#
# Elastic Compliance Matrix: (Units=1/GPa)
#
#
# Indices 1 2 3 4 5 6 
#
# 1 0.013017 -0.001954 -0.001456 0.000000 -0.009074 0.000000
# 2 -0.001954 0.013077 -0.002574 0.000000 -0.000501 0.000000
# 3 -0.001456 -0.002574 0.022872 0.000000 -0.031301 0.000000
# 4 0.000000 0.000000 0.000000 0.045675 0.000000 -0.002069
# 5 -0.009074 -0.000501 -0.031301 0.000000 0.098002 0.000000
# 6 0.000000 0.000000 0.000000 -0.002069 0.000000 0.024506
#
#
# Mechanical properties :
#
#
# Convention : Reuss Voigt Hill
#
# Bulk Modulus (GPa) = 27.02892 50.88143 38.95518
# Shear Modulus (GPa) = 20.70814 30.14296 25.42555
#
# Velocity S-wave (km/s) = 3.13458 3.78183 3.47331
# Velocity P-wave (km/s) = 5.09171 6.57357 5.87951
#
# Compressibility (1/GPa) = 0.03699741
#
# Stress axis : x y z
#
# Youngs Moduli (GPa) = 76.82077 76.46877 43.72216
#
# Poissons Ratio (x) = 0.14942 0.06367
# Poissons Ratio (y) = 0.15011 0.11254
# Poissons Ratio (z) = 0.11188 0.19684
#
# Static dielectric constant tensor:
#      x y z
#    x 1.774250 0.000000 0.009400 
#    y 0.000000 1.844150 0.000000 
#    z 0.009400 0.000000 1.787750 
# 
# From -- ./inp_files/5718.got.cif
#   From: 2010.05.17/outbox.cif.g08.bks.cpg/sg4_3_cif.got.tgz:5718.got - 2010.06.03 18:43:04.
