data_PCOD9117319
_publ_section_title
;
Structure prediction by ZEFSAII (Michael W. Deem and Ramdas Pophale) SiO2 
 PCOD9117319
Probable space group: P 21
;
_chemical_formula_sum "Si O2"
_cell_formula_units_Z 14
_cell_length_a 7.129810
_cell_length_b 5.182105
_cell_length_c 20.843248
_cell_angle_alpha 90.000000
_cell_angle_beta 42.933215
_cell_angle_gamma 90.000000
_cell_volume 524.553030
_symmetry_space_group_name_H-M "P 21"
_symmetry_group_IT_number 4
_symmetry_cell_setting 'monoclinic'
loop_
_space_group_symop_operation_xyz
x,y,z
-x,1/2+y,-z
loop_
_atom_site_type_symbol
_atom_site_label
_atom_site_fract_x
_atom_site_fract_y
_atom_site_fract_z
Si Si1 0.180543 0.695290 0.296341
Si Si2 0.362124 0.605231 0.807564
Si Si3 0.331260 0.447124 0.522236
Si Si4 0.587242 0.651998 0.877269
Si Si5 0.948711 0.733586 0.226536
Si Si6 0.179840 0.386598 0.062046
Si Si7 0.402329 0.450271 0.358249
O O1 0.070968 0.577726 0.257076
O O2 0.180871 0.523053 0.359871
O O3 0.955491 0.915795 0.369179
O O4 0.476589 0.838037 0.220609
O O5 0.496930 0.768257 0.832149
O O6 0.439494 0.718643 0.718210
O O7 0.038872 0.658947 0.894833
O O8 0.469128 0.721057 0.502085
O O9 0.290953 0.398885 0.456446
O O10 0.876417 0.495380 0.806864
O O11 0.599859 0.825597 0.937270
O O12 0.339337 0.457411 0.958228
O O13 0.019603 0.615949 0.139197
O O14 0.624339 0.682082 0.312749
#
# Coordination Sequence:
#
# PCOD9117319 Si02
#       7
#     2   2   2   2   2   2   2
#     4  11  25  46  75 105 146 189 245 301 380 448
#     4  10  26  42  68 104 142 190 244 306 368 454
#     4  12  30  50  82 116 156 196 252 316 378 458
#     4  11  22  41  68 100 141 188 240 300 366 436
#     4  10  22  46  68 104 140 186 240 294 372 442
#     4  11  22  41  68 100 141 188 240 300 366 436
#     4  11  25  46  75 105 146 189 245 301 380 448
#
# _framework density 26.68939
#
# number of rings (size 3 to 8) (size 9 to 14) (size 15 to 20)
#    0.000    1.143    2.857    1.714    6.000    5.714 
#   10.286    0.000    0.000    0.000    0.000    0.000 
#    0.000    0.000    0.000    0.000    0.000    0.000 
#
# Total GULP energy -78252.704155 kJ/mol
# GULP energy per Si atom -5589.478868 kJ/mol
# Density = 2.662864 g / cm^3
# Si number density = 26.689390 Si / 1000 Ang^3
#
#
#
# Elastic Constant Matrix: (Units=GPa)
#
#
# Indices 1 2 3 4 5 6 
#
# 1 157.4347 10.2440 7.3636 0.0000 17.7600 0.0000
# 2 10.2440 57.2932 -11.4364 0.0000 -8.0314 0.0000
# 3 7.3636 -11.4364 74.8480 0.0000 15.0279 0.0000
# 4 0.0000 0.0000 0.0000 10.5564 0.0000 -2.6916
# 5 17.7600 -8.0314 15.0279 0.0000 51.3968 0.0000
# 6 0.0000 0.0000 0.0000 -2.6916 0.0000 52.0630
#
#
#
# Elastic Compliance Matrix: (Units=1/GPa)
#
#
# Indices 1 2 3 4 5 6 
#
# 1 0.006756 -0.001638 -0.000419 0.000000 -0.002468 0.000000
# 2 -0.001638 0.018623 0.002453 0.000000 0.002759 0.000000
# 3 -0.000419 0.002453 0.014523 0.000000 -0.003718 0.000000
# 4 0.000000 0.000000 0.000000 0.095995 0.000000 0.004963
# 5 -0.002468 0.002759 -0.003718 0.000000 0.021828 0.000000
# 6 0.000000 0.000000 0.000000 0.004963 0.000000 0.019464
#
#
# Mechanical properties :
#
#
# Convention : Reuss Voigt Hill
#
# Bulk Modulus (GPa) = 24.57376 33.54647 29.06011
# Shear Modulus (GPa) = 26.32094 41.69687 34.00891
#
# Velocity S-wave (km/s) = 3.14378 3.95688 3.57353
# Velocity P-wave (km/s) = 4.73340 5.78553 5.28571
#
# Compressibility (1/GPa) = 0.04069381
#
# Stress axis : x y z
#
# Youngs Moduli (GPa) = 148.00724 53.69640 68.85641
#
# Poissons Ratio (x) = 0.08794 0.02888
# Poissons Ratio (y) = 0.24239 -0.16889
# Poissons Ratio (z) = 0.06208 -0.13170
#
# Static dielectric constant tensor:
#      x y z
#    x 2.067150 0.000000 -0.005750 
#    y 0.000000 2.319790 0.000000 
#    z -0.005750 0.000000 2.073850 
# 
# From -- ./inp_files/4284.got.cif
#   From: 2010.05.17/outbox.cif.g08.bks.cpg/sg4_3_cif.got.tgz:4284.got - 2010.06.03 18:43:04.
