data_PCOD9117119
_publ_section_title
;
Structure prediction by ZEFSAII (Michael W. Deem and Ramdas Pophale) SiO2 
 PCOD9117119
Probable space group: P 21
;
_chemical_formula_sum "Si O2"
_cell_formula_units_Z 16
_cell_length_a 7.309006
_cell_length_b 5.625578
_cell_length_c 18.267615
_cell_angle_alpha 90.000000
_cell_angle_beta 89.026409
_cell_angle_gamma 90.000000
_cell_volume 751.008093
_symmetry_space_group_name_H-M "P 21"
_symmetry_group_IT_number 4
_symmetry_cell_setting 'monoclinic'
loop_
_space_group_symop_operation_xyz
x,y,z
-x,1/2+y,-z
loop_
_atom_site_type_symbol
_atom_site_label
_atom_site_fract_x
_atom_site_fract_y
_atom_site_fract_z
Si Si1 0.314002 0.362560 0.662944
Si Si2 0.799291 0.305338 0.020374
Si Si3 0.491050 0.076698 0.542140
Si Si4 0.910768 0.441441 0.722922
Si Si5 0.394963 0.253708 0.340094
Si Si6 0.586832 0.973144 0.927406
Si Si7 0.108269 0.122179 0.113015
Si Si8 0.410091 0.628529 0.228891
O O1 0.330533 0.169252 0.597616
O O2 0.107491 0.402523 0.687145
O O3 0.429455 0.595813 0.638964
O O4 0.431652 0.276106 0.732273
O O5 0.621261 0.448358 0.047115
O O6 0.946989 0.289180 0.083171
O O7 0.707428 0.060222 0.994619
O O8 0.890268 0.411336 0.946634
O O9 0.548930 0.333347 0.504991
O O10 0.631639 0.963546 0.600560
O O11 0.783756 0.596548 0.669993
O O12 0.928346 0.559119 0.803097
O O13 0.787966 0.210202 0.740843
O O14 0.438765 0.366277 0.260775
O O15 0.588237 0.148445 0.857858
O O16 0.693723 0.744218 0.896584
#
# Coordination Sequence:
#
# PCOD9117119 Si02
#       8
#     2   2   2   2   2   2   2   2
#     4  10  24  42  72 108 138 181 239 284 350 430
#     4  12  26  40  64  89 129 175 239 294 358 430
#     4  11  22  46  81 105 149 199 230 284 358 427
#     4  11  24  42  70 102 141 178 234 300 355 424
#     4  10  22  43  72 104 141 181 231 284 347 423
#     4  12  24  42  61  90 129 183 231 294 363 425
#     4  12  25  41  61  95 131 177 232 303 362 411
#     4  10  23  40  65  95 138 178 228 291 357 422
#
# _framework density 21.304697999999998
#
# number of rings (size 3 to 8) (size 9 to 14) (size 15 to 20)
#    0.000    1.000    6.250    0.000    1.750    5.000 
#    0.000    0.000   11.000    0.000    0.000    0.000 
#    0.000    0.000    0.000    0.000    0.000    0.000 
#
# Total GULP energy -89196.986696 kJ/mol
# GULP energy per Si atom -5574.811668 kJ/mol
# Density = 2.125621 g / cm^3
# Si number density = 21.304698 Si / 1000 Ang^3
#
#
#
# Elastic Constant Matrix: (Units=GPa)
#
#
# Indices 1 2 3 4 5 6 
#
# 1 144.7365 40.1223 47.0637 0.0000 -21.8463 0.0000
# 2 40.1223 84.2109 41.6194 0.0000 -12.0053 0.0000
# 3 47.0637 41.6194 110.1761 0.0000 -11.2750 0.0000
# 4 0.0000 0.0000 0.0000 46.1840 0.0000 4.0283
# 5 -21.8463 -12.0053 -11.2750 0.0000 15.9157 0.0000
# 6 0.0000 0.0000 0.0000 4.0283 0.0000 16.2998
#
#
#
# Elastic Compliance Matrix: (Units=1/GPa)
#
#
# Indices 1 2 3 4 5 6 
#
# 1 0.009785 -0.002036 -0.002365 0.000000 0.010220 0.000000
# 2 -0.002036 0.015946 -0.004538 0.000000 0.006018 0.000000
# 3 -0.002365 -0.004538 0.011987 0.000000 0.001823 0.000000
# 4 0.000000 0.000000 0.000000 0.022130 0.000000 -0.005469
# 5 0.010220 0.006018 0.001823 0.000000 0.082690 0.000000
# 6 0.000000 0.000000 0.000000 -0.005469 0.000000 0.062702
#
#
# Mechanical properties :
#
#
# Convention : Reuss Voigt Hill
#
# Bulk Modulus (GPa) = 50.40252 66.30381 58.35316
# Shear Modulus (GPa) = 21.76453 29.70112 25.73282
#
# Velocity S-wave (km/s) = 3.19969 3.73783 3.47918
# Velocity P-wave (km/s) = 6.11228 7.05817 6.60219
#
# Compressibility (1/GPa) = 0.01984028
#
# Stress axis : x y z
#
# Youngs Moduli (GPa) = 102.19558 62.71213 83.42167
#
# Poissons Ratio (x) = 0.12771 0.19727
# Poissons Ratio (y) = 0.20811 0.37855
# Poissons Ratio (z) = 0.24167 0.28458
#
# Static dielectric constant tensor:
#      x y z
#    x 1.716700 0.000000 0.014510 
#    y 0.000000 1.900290 0.000000 
#    z 0.014510 0.000000 1.832240 
# 
# From -- ./inp_files/4401.got.cif
#   From: 2010.05.17/outbox.cif.g08.bks.cpg/sg4_3_cif.got.tgz:4401.got - 2010.06.03 18:43:04.
