data_PCOD9117642
_publ_section_title
;
Structure prediction by ZEFSAII (Michael W. Deem and Ramdas Pophale) SiO2 
 PCOD9117642
Probable space group: P 21
;
_chemical_formula_sum "Si O2"
_cell_formula_units_Z 16
_cell_length_a 15.974576
_cell_length_b 7.338047
_cell_length_c 12.150086
_cell_angle_alpha 90.000000
_cell_angle_beta 30.440830
_cell_angle_gamma 90.000000
_cell_volume 721.598716
_symmetry_space_group_name_H-M "P 21"
_symmetry_group_IT_number 4
_symmetry_cell_setting 'monoclinic'
loop_
_space_group_symop_operation_xyz
x,y,z
-x,1/2+y,-z
loop_
_atom_site_type_symbol
_atom_site_label
_atom_site_fract_x
_atom_site_fract_y
_atom_site_fract_z
Si Si1 0.859208 0.964230 0.540546
Si Si2 0.117552 0.908161 0.766258
Si Si3 0.720444 0.027065 0.457960
Si Si4 0.611277 0.511999 0.696609
Si Si5 0.474750 0.674917 0.041936
Si Si6 0.778096 0.742929 0.207998
Si Si7 0.588757 0.765112 0.206633
Si Si8 0.804814 0.655693 0.772931
O O1 0.855441 0.776080 0.610751
O O2 0.822191 0.975583 0.452433
O O3 0.701393 0.076221 0.766517
O O4 0.037995 0.042997 0.367668
O O5 0.197218 0.707681 0.688656
O O6 0.201703 0.989583 0.558867
O O7 0.158866 0.049046 0.817196
O O8 0.924903 0.862368 0.986707
O O9 0.537168 0.103654 0.684508
O O10 0.719639 0.856873 0.379155
O O11 0.561927 0.349235 0.838595
O O12 0.505062 0.455621 0.710003
O O13 0.548472 0.688184 0.833720
O O14 0.630962 0.575424 0.925492
O O15 0.639489 0.729296 0.273156
O O16 0.746065 0.763850 0.947833
#
# Coordination Sequence:
#
# PCOD9117642 Si02
#       8
#     2   2   2   2   2   2   2   2
#     4  12  24  46  68 106 141 185 241 293 381 430
#     4  11  24  45  70 101 140 194 234 308 357 414
#     4  11  25  49  70 101 147 191 238 313 354 427
#     4  10  23  43  71  97 142 185 230 303 363 428
#     4  11  21  44  68  98 141 184 230 289 370 427
#     4  12  26  44  73 103 141 195 253 288 367 429
#     4  10  23  44  67  97 141 187 241 300 354 428
#     4  11  26  41  73 101 141 191 229 302 362 447
#
# _framework density 22.172988
#
# number of rings (size 3 to 8) (size 9 to 14) (size 15 to 20)
#    0.000    1.000    7.500    0.750    7.000    0.000 
#    0.000    0.000    0.000    0.000    0.000    0.000 
#    0.000    0.000    0.000    0.000    0.000    0.000 
#
# Total GULP energy -89184.511637 kJ/mol
# GULP energy per Si atom -5574.031977 kJ/mol
# Density = 2.212252 g / cm^3
# Si number density = 22.172988 Si / 1000 Ang^3
#
#
#
# Elastic Constant Matrix: (Units=GPa)
#
#
# Indices 1 2 3 4 5 6 
#
# 1 143.0666 43.6269 33.7733 0.0000 -1.3229 0.0000
# 2 43.6269 65.7765 13.9351 0.0000 8.4314 0.0000
# 3 33.7733 13.9351 108.7700 0.0000 -5.4891 0.0000
# 4 0.0000 0.0000 0.0000 32.5887 0.0000 5.2590
# 5 -1.3229 8.4314 -5.4891 0.0000 24.8773 0.0000
# 6 0.0000 0.0000 0.0000 5.2590 0.0000 27.6107
#
#
#
# Elastic Compliance Matrix: (Units=1/GPa)
#
#
# Indices 1 2 3 4 5 6 
#
# 1 0.009322 -0.006024 -0.002017 0.000000 0.002092 0.000000
# 2 -0.006024 0.020394 -0.001120 0.000000 -0.007479 0.000000
# 3 -0.002017 -0.001120 0.010090 0.000000 0.002498 0.000000
# 4 0.000000 0.000000 0.000000 0.031659 0.000000 -0.006030
# 5 0.002092 -0.007479 0.002498 0.000000 0.043395 0.000000
# 6 0.000000 0.000000 0.000000 -0.006030 0.000000 0.037366
#
#
# Mechanical properties :
#
#
# Convention : Reuss Voigt Hill
#
# Bulk Modulus (GPa) = 46.54567 55.58709 51.06638
# Shear Modulus (GPa) = 28.13586 32.10054 30.11820
#
# Velocity S-wave (km/s) = 3.56606 3.80904 3.68955
# Velocity P-wave (km/s) = 6.16388 6.66852 6.42116
#
# Compressibility (1/GPa) = 0.02148428
#
# Stress axis : x y z
#
# Youngs Moduli (GPa) = 107.27046 49.03314 99.11176
#
# Poissons Ratio (x) = 0.29537 0.19993
# Poissons Ratio (y) = 0.64618 0.11099
# Poissons Ratio (z) = 0.21639 0.05491
#
# Static dielectric constant tensor:
#      x y z
#    x 1.821620 0.000000 0.029030 
#    y 0.000000 1.926790 0.000000 
#    z 0.029030 0.000000 1.894830 
# 
# From -- ./inp_files/12555.got.cif
#   From: 2010.05.17/outbox.cif.g08.bks.cpg/sg4_7_cif.got.tgz:12555.got - 2010.06.03 18:43:04.
