data_PCOD9117585
_publ_section_title
;
Structure prediction by ZEFSAII (Michael W. Deem and Ramdas Pophale) SiO2 
 PCOD9117585
Probable space group: P 21
;
_chemical_formula_sum "Si O2"
_cell_formula_units_Z 16
_cell_length_a 11.780252
_cell_length_b 7.667736
_cell_length_c 9.676030
_cell_angle_alpha 90.000000
_cell_angle_beta 134.201258
_cell_angle_gamma 90.000000
_cell_volume 626.577322
_symmetry_space_group_name_H-M "P 21"
_symmetry_group_IT_number 4
_symmetry_cell_setting 'monoclinic'
loop_
_space_group_symop_operation_xyz
x,y,z
-x,1/2+y,-z
loop_
_atom_site_type_symbol
_atom_site_label
_atom_site_fract_x
_atom_site_fract_y
_atom_site_fract_z
Si Si1 0.646374 0.737200 0.514987
Si Si2 0.396030 0.641414 0.501315
Si Si3 0.051118 0.106670 0.152411
Si Si4 0.610922 0.507057 0.912333
Si Si5 0.036459 0.985158 0.840358
Si Si6 0.618440 0.831887 0.091874
Si Si7 0.313328 0.928649 0.643861
Si Si8 0.021148 0.340258 0.667084
O O1 0.466927 0.698905 0.414642
O O2 0.762521 0.628880 0.714168
O O3 0.684333 0.625004 0.410318
O O4 0.673709 0.945088 0.555607
O O5 0.540712 0.616548 0.729261
O O6 0.307482 0.797079 0.504872
O O7 0.028096 0.289417 0.213163
O O8 0.984919 0.073387 0.943230
O O9 0.994094 0.955623 0.205922
O O10 0.637168 0.632804 0.064873
O O11 0.777715 0.437703 0.009687
O O12 0.472711 0.380213 0.845835
O O13 0.012123 0.136393 0.705391
O O14 0.479766 0.891209 0.863383
O O15 0.802963 0.892020 0.242135
O O16 0.137585 0.886311 0.556863
#
# Coordination Sequence:
#
# PCOD9117585 Si02
#       8
#     2   2   2   2   2   2   2   2
#     4  11  22  37  61  96 133 171 217 269 339 399
#     4  11  21  38  64  94 135 168 219 270 335 396
#     4  11  22  37  61  96 133 171 217 269 339 399
#     4  10  24  42  66  98 126 182 231 265 331 403
#     4  11  21  38  64  94 135 168 219 270 335 396
#     4  10  24  46  68  92 136 174 233 273 323 387
#     4  10  23  43  64  96 128 175 223 276 326 391
#     4  10  23  43  64  96 128 175 223 276 326 391
#
# _framework density 25.535554000000001
#
# number of rings (size 3 to 8) (size 9 to 14) (size 15 to 20)
#    0.000    1.500    3.750    0.750    3.500    0.000 
#    4.500    6.250    0.000    0.000    0.000    0.000 
#    0.000    0.000    0.000    0.000    0.000    0.000 
#
# Total GULP energy -89115.232342 kJ/mol
# GULP energy per Si atom -5569.702021 kJ/mol
# Density = 2.547743 g / cm^3
# Si number density = 25.535554 Si / 1000 Ang^3
#
#
#
# Elastic Constant Matrix: (Units=GPa)
#
#
# Indices 1 2 3 4 5 6 
#
# 1 90.2122 37.0230 32.4730 0.0000 40.0689 0.0000
# 2 37.0230 141.0831 27.6553 0.0000 16.2413 0.0000
# 3 32.4730 27.6553 81.2951 0.0000 30.1127 0.0000
# 4 0.0000 0.0000 0.0000 40.5427 0.0000 2.1331
# 5 40.0689 16.2413 30.1127 0.0000 38.2619 0.0000
# 6 0.0000 0.0000 0.0000 2.1331 0.0000 26.0459
#
#
#
# Elastic Compliance Matrix: (Units=1/GPa)
#
#
# Indices 1 2 3 4 5 6 
#
# 1 0.022106 -0.003353 0.000506 0.000000 -0.022125 0.000000
# 2 -0.003353 0.008180 -0.002058 0.000000 0.001659 0.000000
# 3 0.000506 -0.002058 0.017885 0.000000 -0.013732 0.000000
# 4 0.000000 0.000000 0.000000 0.024772 0.000000 -0.002029
# 5 -0.022125 0.001659 -0.013732 0.000000 0.059409 0.000000
# 6 0.000000 0.000000 0.000000 -0.002029 0.000000 0.038560
#
#
# Mechanical properties :
#
#
# Convention : Reuss Voigt Hill
#
# Bulk Modulus (GPa) = 26.06788 56.32145 41.19467
# Shear Modulus (GPa) = 25.83844 35.33272 30.58558
#
# Velocity S-wave (km/s) = 3.18443 3.72380 3.46463
# Velocity P-wave (km/s) = 4.87354 6.37126 5.67205
#
# Compressibility (1/GPa) = 0.03836138
#
# Stress axis : x y z
#
# Youngs Moduli (GPa) = 45.23649 122.24338 55.91137
#
# Poissons Ratio (x) = 0.40991 -0.02828
# Poissons Ratio (y) = 0.15169 0.11506
# Poissons Ratio (z) = -0.02288 0.25155
#
# Static dielectric constant tensor:
#      x y z
#    x 2.092150 0.000000 -0.012150 
#    y 0.000000 1.987550 0.000000 
#    z -0.012150 0.000000 2.187080 
# 
# From -- ./inp_files/12037.got.cif
#   From: 2010.05.17/outbox.cif.g08.bks.cpg/sg4_7_cif.got.tgz:12037.got - 2010.06.03 18:43:04.
