data_PCOD9117205
_publ_section_title
;
Structure prediction by ZEFSAII (Michael W. Deem and Ramdas Pophale) SiO2 
 PCOD9117205
Probable space group: P 21
;
_chemical_formula_sum "Si O2"
_cell_formula_units_Z 16
_cell_length_a 13.622434
_cell_length_b 9.037774
_cell_length_c 5.203344
_cell_angle_alpha 90.000000
_cell_angle_beta 95.172359
_cell_angle_gamma 90.000000
_cell_volume 638.008807
_symmetry_space_group_name_H-M "P 21"
_symmetry_group_IT_number 4
_symmetry_cell_setting 'monoclinic'
loop_
_space_group_symop_operation_xyz
x,y,z
-x,1/2+y,-z
loop_
_atom_site_type_symbol
_atom_site_label
_atom_site_fract_x
_atom_site_fract_y
_atom_site_fract_z
Si Si1 0.355529 0.424240 0.302915
Si Si2 0.610554 0.666163 0.067591
Si Si3 0.697174 0.125893 0.111776
Si Si4 0.755501 0.436739 0.292419
Si Si5 0.870875 0.503716 0.800357
Si Si6 0.100780 0.460771 0.909178
Si Si7 0.489585 0.437064 0.727531
Si Si8 0.835974 0.820473 0.557337
O O1 0.468688 0.423087 0.418545
O O2 0.276280 0.372521 0.490864
O O3 0.338754 0.296589 0.085868
O O4 0.325287 0.583230 0.189374
O O5 0.682000 0.578219 0.277290
O O6 0.525097 0.768738 0.175574
O O7 0.575472 0.536684 0.862976
O O8 0.694495 0.291785 0.204733
O O9 0.605938 0.038028 0.219106
O O10 0.811829 0.072018 0.159871
O O11 0.817300 0.407097 0.566295
O O12 0.827926 0.466288 0.068614
O O13 0.842660 0.664031 0.691473
O O14 0.988595 0.503688 0.837419
O O15 0.117035 0.325471 0.712883
O O16 0.115760 0.426540 0.213793
#
# Coordination Sequence:
#
# PCOD9117205 Si02
#       8
#     2   2   2   2   2   2   2   2
#     4  10  22  44  71  94 138 187 229 285 353 415
#     4  11  25  43  71 104 137 182 236 289 354 422
#     4  10  25  44  66 104 136 180 236 289 349 413
#     4  12  27  47  68 106 145 184 234 296 347 420
#     4  12  27  43  71 102 142 188 236 292 351 416
#     4  11  25  41  73  98 140 186 236 290 347 417
#     4  11  23  46  72 101 139 182 234 289 355 423
#     4  11  22  46  68  99 139 187 237 286 348 414
#
# _framework density 25.078023000000002
#
# number of rings (size 3 to 8) (size 9 to 14) (size 15 to 20)
#    0.000    1.000    2.500    3.000    7.000    3.000 
#    0.000    0.000    0.000    0.000    0.000    0.000 
#    0.000    0.000    0.000    0.000    0.000    0.000 
#
# Total GULP energy -89361.492782 kJ/mol
# GULP energy per Si atom -5585.093299 kJ/mol
# Density = 2.502094 g / cm^3
# Si number density = 25.078023 Si / 1000 Ang^3
#
#
#
# Elastic Constant Matrix: (Units=GPa)
#
#
# Indices 1 2 3 4 5 6 
#
# 1 89.3357 14.3784 18.2995 0.0000 11.8269 0.0000
# 2 14.3784 86.1193 23.7038 0.0000 13.1984 0.0000
# 3 18.2995 23.7038 89.3204 0.0000 22.2416 0.0000
# 4 0.0000 0.0000 0.0000 26.6104 0.0000 5.7661
# 5 11.8269 13.1984 22.2416 0.0000 35.4881 0.0000
# 6 0.0000 0.0000 0.0000 5.7661 0.0000 22.9324
#
#
#
# Elastic Compliance Matrix: (Units=1/GPa)
#
#
# Indices 1 2 3 4 5 6 
#
# 1 0.012041 -0.001196 -0.001494 0.000000 -0.002632 0.000000
# 2 -0.001196 0.012931 -0.002474 0.000000 -0.002860 0.000000
# 3 -0.001494 -0.002474 0.013988 0.000000 -0.007349 0.000000
# 4 0.000000 0.000000 0.000000 0.039745 0.000000 -0.009993
# 5 -0.002632 -0.002860 -0.007349 0.000000 0.034725 0.000000
# 6 0.000000 0.000000 0.000000 -0.009993 0.000000 0.046119
#
#
# Mechanical properties :
#
#
# Convention : Reuss Voigt Hill
#
# Bulk Modulus (GPa) = 34.92730 41.94877 38.43803
# Shear Modulus (GPa) = 27.86744 30.89910 29.38327
#
# Velocity S-wave (km/s) = 3.33713 3.51396 3.42669
# Velocity P-wave (km/s) = 5.36715 5.76433 5.56928
#
# Compressibility (1/GPa) = 0.02863090
#
# Stress axis : x y z
#
# Youngs Moduli (GPa) = 83.05209 77.33476 71.48805
#
# Poissons Ratio (x) = 0.09247 0.10682
# Poissons Ratio (y) = 0.09931 0.17690
# Poissons Ratio (z) = 0.12410 0.19136
#
# Static dielectric constant tensor:
#      x y z
#    x 2.038310 0.000000 0.042250 
#    y 0.000000 1.990140 0.000000 
#    z 0.042250 0.000000 2.339910 
# 
# From -- ./inp_files/3545.got.cif
#   From: 2010.05.17/outbox.cif.g08.bks.cpg/sg4_2_cif.got.tgz:3545.got - 2010.06.03 18:43:04.
