data_PCOD9117181
_publ_section_title
;
Structure prediction by ZEFSAII (Michael W. Deem and Ramdas Pophale) SiO2 
 PCOD9117181
Probable space group: P 21
;
_chemical_formula_sum "Si O2"
_cell_formula_units_Z 14
_cell_length_a 11.487388
_cell_length_b 5.211946
_cell_length_c 10.696316
_cell_angle_alpha 90.000000
_cell_angle_beta 122.764136
_cell_angle_gamma 90.000000
_cell_volume 538.520977
_symmetry_space_group_name_H-M "P 21"
_symmetry_group_IT_number 4
_symmetry_cell_setting 'monoclinic'
loop_
_space_group_symop_operation_xyz
x,y,z
-x,1/2+y,-z
loop_
_atom_site_type_symbol
_atom_site_label
_atom_site_fract_x
_atom_site_fract_y
_atom_site_fract_z
Si Si1 0.185477 0.529120 0.836411
Si Si2 0.952208 0.662665 0.542170
Si Si3 0.152192 0.153923 0.174166
Si Si4 0.410321 0.568775 0.451346
Si Si5 0.024807 0.660786 0.174664
Si Si6 0.331834 0.412750 0.664669
Si Si7 0.350563 0.790932 0.158638
O O1 0.056946 0.703045 0.718373
O O2 0.280907 0.514776 0.769324
O O3 0.113730 0.255947 0.831794
O O4 0.262720 0.659928 0.997568
O O5 0.987337 0.376342 0.518098
O O6 0.788719 0.713544 0.446237
O O7 0.124104 0.908512 0.246167
O O8 0.283785 0.059683 0.168000
O O9 0.122485 0.410024 0.236400
O O10 0.030784 0.156874 0.999955
O O11 0.533469 0.778510 0.517708
O O12 0.342100 0.597839 0.549035
O O13 0.345517 0.614848 0.278055
O O14 0.487964 0.317662 0.778931
#
# Coordination Sequence:
#
# PCOD9117181 Si02
#       7
#     2   2   2   2   2   2   2
#     4  11  25  48  84 126 162 216 290 354 412 500
#     4  10  25  51  78 113 167 222 266 331 432 512
#     4  10  22  44  69 111 163 202 252 337 414 470
#     4  10  25  51  78 113 167 222 266 331 432 512
#     4  10  22  44  69 111 163 202 252 337 414 470
#     4  10  26  52  80 116 174 222 268 352 428 516
#     4  11  25  48  84 126 162 216 290 354 412 500
#
# _framework density 25.997131
#
# number of rings (size 3 to 8) (size 9 to 14) (size 15 to 20)
#    0.000    1.714    0.000    2.571    0.000   17.143 
#   36.000    0.000    0.000    0.000    0.000    0.000 
#    0.000    0.000    0.000    0.000    0.000    0.000 
#
# Total GULP energy -78122.313387 kJ/mol
# GULP energy per Si atom -5580.165242 kJ/mol
# Density = 2.593796 g / cm^3
# Si number density = 25.997131 Si / 1000 Ang^3
#
#
#
# Elastic Constant Matrix: (Units=GPa)
#
#
# Indices 1 2 3 4 5 6 
#
# 1 228.5953 60.3269 61.5272 0.0000 -2.8289 0.0000
# 2 60.3269 115.5448 62.8076 0.0000 -2.0639 0.0000
# 3 61.5272 62.8076 224.6692 0.0000 -1.5930 0.0000
# 4 0.0000 0.0000 0.0000 37.1426 0.0000 2.9335
# 5 -2.8289 -2.0639 -1.5930 0.0000 50.9062 0.0000
# 6 0.0000 0.0000 0.0000 2.9335 0.0000 37.8948
#
#
#
# Elastic Compliance Matrix: (Units=1/GPa)
#
#
# Indices 1 2 3 4 5 6 
#
# 1 0.005189 -0.002281 -0.000782 0.000000 0.000171 0.000000
# 2 -0.002281 0.011214 -0.002508 0.000000 0.000249 0.000000
# 3 -0.000782 -0.002508 0.005367 0.000000 0.000023 0.000000
# 4 0.000000 0.000000 0.000000 0.027089 0.000000 -0.002097
# 5 0.000171 0.000249 0.000023 0.000000 0.019664 0.000000
# 6 0.000000 0.000000 0.000000 -0.002097 0.000000 0.026551
#
#
# Mechanical properties :
#
#
# Convention : Reuss Voigt Hill
#
# Bulk Modulus (GPa) = 94.10809 104.23697 99.17253
# Shear Modulus (GPa) = 45.55436 50.79855 48.17645
#
# Velocity S-wave (km/s) = 4.19057 4.42521 4.30949
# Velocity P-wave (km/s) = 7.72609 8.14203 7.93678
#
# Compressibility (1/GPa) = 0.01062608
#
# Stress axis : x y z
#
# Youngs Moduli (GPa) = 192.70888 89.17770 186.33821
#
# Poissons Ratio (x) = 0.20342 0.14575
# Poissons Ratio (y) = 0.43958 0.46740
# Poissons Ratio (z) = 0.15073 0.22369
#
# Static dielectric constant tensor:
#      x y z
#    x 2.174030 0.000000 0.019970 
#    y 0.000000 2.174760 0.000000 
#    z 0.019970 0.000000 2.063420 
# 
# From -- ./inp_files/11774.got.cif
#   From: 2010.05.17/outbox.cif.g08.bks.cpg/sg4_6_cif.got.tgz:11774.got - 2010.06.03 18:43:04.
