data_PCOD9117235
_publ_section_title
;
Structure prediction by ZEFSAII (Michael W. Deem and Ramdas Pophale) SiO2 
 PCOD9117235
Probable space group: P 21
;
_chemical_formula_sum "Si O2"
_cell_formula_units_Z 16
_cell_length_a 16.807017
_cell_length_b 6.175797
_cell_length_c 7.337790
_cell_angle_alpha 90.000000
_cell_angle_beta 77.034404
_cell_angle_gamma 90.000000
_cell_volume 742.220569
_symmetry_space_group_name_H-M "P 21"
_symmetry_group_IT_number 4
_symmetry_cell_setting 'monoclinic'
loop_
_space_group_symop_operation_xyz
x,y,z
-x,1/2+y,-z
loop_
_atom_site_type_symbol
_atom_site_label
_atom_site_fract_x
_atom_site_fract_y
_atom_site_fract_z
Si Si1 0.608648 0.272860 0.353690
Si Si2 0.477325 0.577781 0.253530
Si Si3 0.174415 0.397699 0.615415
Si Si4 0.177001 0.737761 0.297982
Si Si5 0.738991 0.986379 0.070667
Si Si6 0.698348 0.564832 0.598426
Si Si7 0.608141 0.776605 0.945658
Si Si8 0.997926 0.752257 0.413373
O O1 0.542152 0.387175 0.260548
O O2 0.559471 0.144130 0.534749
O O3 0.669783 0.129212 0.204964
O O4 0.662845 0.440816 0.442667
O O5 0.405964 0.498379 0.157358
O O6 0.531588 0.748399 0.116232
O O7 0.167236 0.610024 0.494249
O O8 0.192542 0.442618 0.815658
O O9 0.254518 0.275776 0.497165
O O10 0.090326 0.266729 0.636091
O O11 0.085707 0.778743 0.271927
O O12 0.232920 0.938220 0.323772
O O13 0.223225 0.598175 0.124465
O O14 0.689473 0.779019 0.024378
O O15 0.623803 0.608665 0.774868
O O16 0.001289 0.493871 0.479699
#
# Coordination Sequence:
#
# PCOD9117235 Si02
#       8
#     2   2   2   2   2   2   2   2
#     4  12  24  41  64  95 131 178 231 286 351 418
#     4  12  24  42  60  92 132 178 224 290 348 416
#     4  11  23  45  68 105 140 182 228 290 353 418
#     4  11  23  45  68 105 140 182 228 290 353 418
#     4  12  24  43  68 103 136 178 232 295 344 425
#     4  12  22  43  68  99 132 182 226 291 352 415
#     4  12  24  41  64  95 131 178 231 286 351 418
#     4  10  22  44  76 106 148 196 236 290 364 434
#
# _framework density 21.556933999999998
#
# number of rings (size 3 to 8) (size 9 to 14) (size 15 to 20)
#    0.000    0.500    3.750    6.000    0.000    0.000 
#    0.000    7.500    0.000    0.000    0.000    0.000 
#    0.000    0.000    0.000    0.000    0.000    0.000 
#
# Total GULP energy -89287.926535 kJ/mol
# GULP energy per Si atom -5580.495408 kJ/mol
# Density = 2.150787 g / cm^3
# Si number density = 21.556934 Si / 1000 Ang^3
#
#
#
# Elastic Constant Matrix: (Units=GPa)
#
#
# Indices 1 2 3 4 5 6 
#
# 1 93.7725 5.9427 21.8887 0.0000 -7.8195 0.0000
# 2 5.9427 36.8045 0.8977 0.0000 2.8395 0.0000
# 3 21.8887 0.8977 69.6004 0.0000 15.9544 0.0000
# 4 0.0000 0.0000 0.0000 27.6323 0.0000 -0.8793
# 5 -7.8195 2.8395 15.9544 0.0000 30.8517 0.0000
# 6 0.0000 0.0000 0.0000 -0.8793 0.0000 43.3027
#
#
#
# Elastic Compliance Matrix: (Units=1/GPa)
#
#
# Indices 1 2 3 4 5 6 
#
# 1 0.012575 -0.002376 -0.005337 0.000000 0.006166 0.000000
# 2 -0.002376 0.027818 0.001263 0.000000 -0.003816 0.000000
# 3 -0.005337 0.001263 0.018568 0.000000 -0.011071 0.000000
# 4 0.000000 0.000000 0.000000 0.036213 0.000000 0.000735
# 5 0.006166 -0.003816 -0.011071 0.000000 0.040052 0.000000
# 6 0.000000 0.000000 0.000000 0.000735 0.000000 0.023108
#
#
# Mechanical properties :
#
#
# Convention : Reuss Voigt Hill
#
# Bulk Modulus (GPa) = 21.71092 28.62618 25.16855
# Shear Modulus (GPa) = 26.79710 31.78723 29.29217
#
# Velocity S-wave (km/s) = 3.52957 3.84418 3.69023
# Velocity P-wave (km/s) = 5.16757 5.74559 5.46423
#
# Compressibility (1/GPa) = 0.04605978
#
# Stress axis : x y z
#
# Youngs Moduli (GPa) = 79.52465 35.94820 53.85673
#
# Poissons Ratio (x) = 0.08541 0.28745
# Poissons Ratio (y) = 0.18894 -0.06802
# Poissons Ratio (z) = 0.42445 -0.04540
#
# Static dielectric constant tensor:
#      x y z
#    x 1.783210 0.000000 0.009180 
#    y 0.000000 1.852750 0.000000 
#    z 0.009180 0.000000 1.758740 
# 
# From -- ./inp_files/3989.got.cif
#   From: 2010.05.17/outbox.cif.g08.bks.cpg/sg4_2_cif.got.tgz:3989.got - 2010.06.03 18:43:04.
