data_PCOD9117450
_publ_section_title
;
Structure prediction by ZEFSAII (Michael W. Deem and Ramdas Pophale) SiO2 
 PCOD9117450
Probable space group: P 21
;
_chemical_formula_sum "Si O2"
_cell_formula_units_Z 14
_cell_length_a 9.291797
_cell_length_b 7.114253
_cell_length_c 8.548525
_cell_angle_alpha 90.000000
_cell_angle_beta 107.135547
_cell_angle_gamma 90.000000
_cell_volume 540.009095
_symmetry_space_group_name_H-M "P 21"
_symmetry_group_IT_number 4
_symmetry_cell_setting 'monoclinic'
loop_
_space_group_symop_operation_xyz
x,y,z
-x,1/2+y,-z
loop_
_atom_site_type_symbol
_atom_site_label
_atom_site_fract_x
_atom_site_fract_y
_atom_site_fract_z
Si Si1 0.086289 0.445500 0.636232
Si Si2 0.789714 0.278047 0.932366
Si Si3 0.258370 0.957630 0.421413
Si Si4 0.887680 0.656538 0.084815
Si Si5 0.643271 0.175546 0.280248
Si Si6 0.671607 0.870101 0.506864
Si Si7 0.366426 0.415282 0.147075
O O1 0.106597 0.257616 0.745429
O O2 0.197072 0.607046 0.738885
O O3 0.155470 0.413426 0.487218
O O4 0.914664 0.497029 0.589462
O O5 0.746798 0.387905 0.758076
O O6 0.663108 0.122747 0.927696
O O7 0.947235 0.171191 0.941071
O O8 0.172981 0.945188 0.935769
O O9 0.315360 0.795303 0.552625
O O10 0.347157 0.147901 0.487222
O O11 0.481653 0.801545 0.843072
O O12 0.770911 0.782591 0.948729
O O13 0.586102 0.976528 0.337867
O O14 0.640483 0.941213 0.668863
#
# Coordination Sequence:
#
# PCOD9117450 Si02
#       7
#     2   2   2   2   2   2   2
#     4   9  23  46  66 103 151 184 236 293 362 428
#     4  11  22  41  70 110 141 194 242 298 364 425
#     4  11  20  40  72 104 144 186 238 298 350 440
#     4  11  23  43  71 104 149 186 245 298 357 441
#     4  10  25  42  68 104 146 188 235 292 373 417
#     4  10  23  40  68 102 139 185 238 288 362 421
#     4  12  24  42  71 103 148 187 244 301 354 442
#
# _framework density 25.925491000000001
#
# number of rings (size 3 to 8) (size 9 to 14) (size 15 to 20)
#    0.857    0.571    4.286    0.857    2.000    1.143 
#    2.571    1.429    0.000    0.000    0.000    0.000 
#    0.000    0.000    0.000    0.000    0.000    0.000 
#
# Total GULP energy -78358.347856 kJ/mol
# GULP energy per Si atom -5597.024847 kJ/mol
# Density = 2.586648 g / cm^3
# Si number density = 25.925491 Si / 1000 Ang^3
#
#
#
# Elastic Constant Matrix: (Units=GPa)
#
#
# Indices 1 2 3 4 5 6 
#
# 1 106.6758 36.9967 50.5886 0.0000 27.5356 0.0000
# 2 36.9967 203.3961 47.1534 0.0000 20.2983 0.0000
# 3 50.5886 47.1534 66.1825 0.0000 23.2869 0.0000
# 4 0.0000 0.0000 0.0000 52.3721 0.0000 9.5030
# 5 27.5356 20.2983 23.2869 0.0000 32.7789 0.0000
# 6 0.0000 0.0000 0.0000 9.5030 0.0000 40.4286
#
#
#
# Elastic Compliance Matrix: (Units=1/GPa)
#
#
# Indices 1 2 3 4 5 6 
#
# 1 0.015588 0.000047 -0.009775 0.000000 -0.006180 0.000000
# 2 0.000047 0.005909 -0.003926 0.000000 -0.000910 0.000000
# 3 -0.009775 -0.003926 0.028844 0.000000 -0.009849 0.000000
# 4 0.000000 0.000000 0.000000 0.019945 0.000000 -0.004688
# 5 -0.006180 -0.000910 -0.009849 0.000000 0.043259 0.000000
# 6 0.000000 0.000000 0.000000 -0.004688 0.000000 0.025837
#
#
# Mechanical properties :
#
#
# Convention : Reuss Voigt Hill
#
# Bulk Modulus (GPa) = 43.41312 71.74797 57.58055
# Shear Modulus (GPa) = 28.67509 41.21697 34.94603
#
# Velocity S-wave (km/s) = 3.32935 3.99159 3.67541
# Velocity P-wave (km/s) = 5.61793 6.99846 6.34585
#
# Compressibility (1/GPa) = 0.02303451
#
# Stress axis : x y z
#
# Youngs Moduli (GPa) = 64.15012 169.23743 34.66922
#
# Poissons Ratio (x) = -0.00802 0.33888
# Poissons Ratio (y) = -0.00304 0.13611
# Poissons Ratio (z) = 0.62705 0.66443
#
# Static dielectric constant tensor:
#      x y z
#    x 2.080740 0.000000 -0.014800 
#    y 0.000000 2.041190 0.000000 
#    z -0.014800 0.000000 2.065260 
# 
# From -- ./inp_files/12203.got.cif
#   From: 2010.05.17/outbox.cif.g08.bks.cpg/sg4_7_cif.got.tgz:12203.got - 2010.06.03 18:43:04.
