data_PCOD9117382
_publ_section_title
;
Structure prediction by ZEFSAII (Michael W. Deem and Ramdas Pophale) SiO2 
 PCOD9117382
Probable space group: P 21
;
_chemical_formula_sum "Si O2"
_cell_formula_units_Z 14
_cell_length_a 8.289913
_cell_length_b 11.239319
_cell_length_c 11.914921
_cell_angle_alpha 90.000000
_cell_angle_beta 148.521598
_cell_angle_gamma 90.000000
_cell_volume 579.694228
_symmetry_space_group_name_H-M "P 21"
_symmetry_group_IT_number 4
_symmetry_cell_setting 'monoclinic'
loop_
_space_group_symop_operation_xyz
x,y,z
-x,1/2+y,-z
loop_
_atom_site_type_symbol
_atom_site_label
_atom_site_fract_x
_atom_site_fract_y
_atom_site_fract_z
Si Si1 0.859146 0.558530 0.415106
Si Si2 0.842998 0.658749 0.162291
Si Si3 0.564275 0.509279 0.824151
Si Si4 0.211593 0.319252 0.051697
Si Si5 0.711493 0.370068 0.495368
Si Si6 0.660954 0.235764 0.857891
Si Si7 0.902055 0.550669 0.796832
O O1 0.775185 0.588925 0.236503
O O2 0.798528 0.426462 0.426448
O O3 0.635513 0.653927 0.343130
O O4 0.229106 0.565100 0.650534
O O5 0.094722 0.756388 0.350769
O O6 0.839571 0.552951 0.068956
O O7 0.639121 0.749743 0.963862
O O8 0.550639 0.366838 0.826695
O O9 0.657943 0.548875 0.754054
O O10 0.374560 0.322265 0.268279
O O11 0.878054 0.258222 0.878061
O O12 0.154173 0.453737 0.985013
O O13 0.752653 0.482020 0.602944
O O14 0.890286 0.169310 0.082602
#
# Coordination Sequence:
#
# PCOD9117382 Si02
#       7
#     2   2   2   2   2   2   2
#     4  12  27  46  73 113 154 200 262 313 401 456
#     4  11  25  46  76 107 156 204 252 327 387 469
#     4  11  26  48  73 115 155 206 261 325 394 459
#     4  10  22  48  76 104 152 196 261 319 389 463
#     4  11  25  48  78 111 149 209 256 325 392 464
#     4  11  24  49  73 112 152 201 260 324 380 465
#     4  10  23  47  77 108 150 200 260 321 379 466
#
# _framework density 24.150660999999999
#
# number of rings (size 3 to 8) (size 9 to 14) (size 15 to 20)
#    0.000    1.143    2.857    1.714    2.000    4.571 
#   10.286    0.000    0.000    0.000    0.000    0.000 
#    0.000    0.000    0.000    0.000    0.000    0.000 
#
# Total GULP energy -77940.103842 kJ/mol
# GULP energy per Si atom -5567.150274 kJ/mol
# Density = 2.409569 g / cm^3
# Si number density = 24.150661 Si / 1000 Ang^3
#
#
#
# Elastic Constant Matrix: (Units=GPa)
#
#
# Indices 1 2 3 4 5 6 
#
# 1 73.5032 40.4470 55.9171 0.0000 -4.5846 0.0000
# 2 40.4470 157.6151 73.8308 0.0000 5.4053 0.0000
# 3 55.9171 73.8308 123.0906 0.0000 -4.1963 0.0000
# 4 0.0000 0.0000 0.0000 57.8078 0.0000 -3.4520
# 5 -4.5846 5.4053 -4.1963 0.0000 33.3318 0.0000
# 6 0.0000 0.0000 0.0000 -3.4520 0.0000 45.8559
#
#
#
# Elastic Compliance Matrix: (Units=1/GPa)
#
#
# Indices 1 2 3 4 5 6 
#
# 1 0.021109 -0.001429 -0.008662 0.000000 0.002045 0.000000
# 2 -0.001429 0.009070 -0.004869 0.000000 -0.002280 0.000000
# 3 -0.008662 -0.004869 0.015030 0.000000 0.001490 0.000000
# 4 0.000000 0.000000 0.000000 0.017377 0.000000 0.001308
# 5 0.002045 -0.002280 0.001490 0.000000 0.030840 0.000000
# 6 0.000000 0.000000 0.000000 0.001308 0.000000 0.021906
#
#
# Mechanical properties :
#
#
# Convention : Reuss Voigt Hill
#
# Bulk Modulus (GPa) = 65.40871 77.17762 71.29317
# Shear Modulus (GPa) = 33.25608 39.66670 36.46139
#
# Velocity S-wave (km/s) = 3.71486 4.05713 3.88976
# Velocity P-wave (km/s) = 6.74853 7.34665 7.05393
#
# Compressibility (1/GPa) = 0.01528848
#
# Stress axis : x y z
#
# Youngs Moduli (GPa) = 47.37417 110.25036 66.53280
#
# Poissons Ratio (x) = 0.15760 0.57631
# Poissons Ratio (y) = 0.06772 0.32393
# Poissons Ratio (z) = 0.41035 0.53679
#
# Static dielectric constant tensor:
#      x y z
#    x 2.027590 0.000000 0.043580 
#    y 0.000000 1.978760 0.000000 
#    z 0.043580 0.000000 2.037890 
# 
# From -- ./inp_files/11206.got.cif
#   From: 2010.05.17/outbox.cif.g08.bks.cpg/sg4_6_cif.got.tgz:11206.got - 2010.06.03 18:43:04.
