data_PCOD9117831
_publ_section_title
;
Structure prediction by ZEFSAII (Michael W. Deem and Ramdas Pophale) SiO2 
 PCOD9117831
Probable space group: P 21
;
_chemical_formula_sum "Si O2"
_cell_formula_units_Z 14
_cell_length_a 10.614324
_cell_length_b 5.218204
_cell_length_c 9.844005
_cell_angle_alpha 90.000000
_cell_angle_beta 82.424158
_cell_angle_gamma 90.000000
_cell_volume 540.477619
_symmetry_space_group_name_H-M "P 21"
_symmetry_group_IT_number 4
_symmetry_cell_setting 'monoclinic'
loop_
_space_group_symop_operation_xyz
x,y,z
-x,1/2+y,-z
loop_
_atom_site_type_symbol
_atom_site_label
_atom_site_fract_x
_atom_site_fract_y
_atom_site_fract_z
Si Si1 0.642279 0.886570 0.332657
Si Si2 0.024267 0.324267 0.407209
Si Si3 0.195409 0.726754 0.765779
Si Si4 0.360296 0.896040 0.508485
Si Si5 0.481033 0.886273 0.085290
Si Si6 0.078009 0.853336 0.030979
Si Si7 0.223270 0.967655 0.266245
O O1 0.689461 0.662074 0.426930
O O2 0.568254 0.825429 0.202419
O O3 0.790417 0.924975 0.234889
O O4 0.504378 0.925849 0.444678
O O5 0.920104 0.329006 0.302921
O O6 0.017585 0.586037 0.490661
O O7 0.156993 0.229736 0.324678
O O8 0.325131 0.717273 0.646793
O O9 0.199462 0.847347 0.911405
O O10 0.273930 0.820648 0.393128
O O11 0.349875 0.003240 0.161242
O O12 0.460662 0.618038 0.011012
O O13 0.122910 0.835164 0.179606
O O14 0.998200 0.612473 0.987737
#
# Coordination Sequence:
#
# PCOD9117831 Si02
#       7
#     2   2   2   2   2   2   2
#     4  10  23  46  74 104 142 195 244 292 374 422
#     4  12  25  44  73 109 153 188 242 307 369 438
#     4  10  24  43  71  98 148 193 233 296 373 430
#     4  10  24  43  77 105 142 189 242 304 359 441
#     4  12  29  51  77 109 154 197 248 312 363 439
#     4  12  29  42  66 104 149 194 241 296 367 446
#     4  12  28  49  76 115 146 196 256 301 375 444
#
# _framework density 25.903016000000001
#
# number of rings (size 3 to 8) (size 9 to 14) (size 15 to 20)
#    0.857    0.000    2.857    2.571    6.000    5.714 
#    0.000    0.000    0.000    0.000    0.000    0.000 
#    0.000    0.000    0.000    0.000    0.000    0.000 
#
# Total GULP energy -78152.677970 kJ/mol
# GULP energy per Si atom -5582.334141 kJ/mol
# Density = 2.584406 g / cm^3
# Si number density = 25.903016 Si / 1000 Ang^3
#
#
#
# Elastic Constant Matrix: (Units=GPa)
#
#
# Indices 1 2 3 4 5 6 
#
# 1 80.2782 17.7273 14.9484 0.0000 -1.4937 0.0000
# 2 17.7273 87.2893 40.9732 0.0000 -3.8650 0.0000
# 3 14.9484 40.9732 139.5391 0.0000 1.1108 0.0000
# 4 0.0000 0.0000 0.0000 26.8375 0.0000 -5.2034
# 5 -1.4937 -3.8650 1.1108 0.0000 26.0404 0.0000
# 6 0.0000 0.0000 0.0000 -5.2034 0.0000 35.4682
#
#
#
# Elastic Compliance Matrix: (Units=1/GPa)
#
#
# Indices 1 2 3 4 5 6 
#
# 1 0.013109 -0.002299 -0.000733 0.000000 0.000442 0.000000
# 2 -0.002299 0.013811 -0.003826 0.000000 0.002081 0.000000
# 3 -0.000733 -0.003826 0.008376 0.000000 -0.000967 0.000000
# 4 0.000000 0.000000 0.000000 0.038352 0.000000 0.005626
# 5 0.000442 0.002081 -0.000967 0.000000 0.038777 0.000000
# 6 0.000000 0.000000 0.000000 0.005626 0.000000 0.029020
#
#
# Mechanical properties :
#
#
# Convention : Reuss Voigt Hill
#
# Bulk Modulus (GPa) = 46.33606 50.48937 48.41272
# Shear Modulus (GPa) = 30.79703 33.23307 32.01505
#
# Velocity S-wave (km/s) = 3.45184 3.58576 3.51943
# Velocity P-wave (km/s) = 5.81498 6.05620 5.93682
#
# Compressibility (1/GPa) = 0.02158146
#
# Stress axis : x y z
#
# Youngs Moduli (GPa) = 76.28360 72.40671 119.38880
#
# Poissons Ratio (x) = 0.16644 0.08750
# Poissons Ratio (y) = 0.17535 0.45674
# Poissons Ratio (z) = 0.05591 0.27700
#
# Static dielectric constant tensor:
#      x y z
#    x 2.077500 0.000000 -0.150160 
#    y 0.000000 2.072070 0.000000 
#    z -0.150160 0.000000 2.133010 
# 
# From -- ./inp_files/7207.got.cif
#   From: 2010.05.17/outbox.cif.g08.bks.cpg/sg4_4_cif.got.tgz:7207.got - 2010.06.03 18:43:04.
