data_PCOD9117599
_publ_section_title
;
Structure prediction by ZEFSAII (Michael W. Deem and Ramdas Pophale) SiO2 
 PCOD9117599
Probable space group: P 21
;
_chemical_formula_sum "Si O2"
_cell_formula_units_Z 16
_cell_length_a 7.561728
_cell_length_b 11.807859
_cell_length_c 10.848909
_cell_angle_alpha 90.000000
_cell_angle_beta 41.650613
_cell_angle_gamma 90.000000
_cell_volume 643.768632
_symmetry_space_group_name_H-M "P 21"
_symmetry_group_IT_number 4
_symmetry_cell_setting 'monoclinic'
loop_
_space_group_symop_operation_xyz
x,y,z
-x,1/2+y,-z
loop_
_atom_site_type_symbol
_atom_site_label
_atom_site_fract_x
_atom_site_fract_y
_atom_site_fract_z
Si Si1 0.963374 0.416240 0.884178
Si Si2 0.493455 0.055835 0.390057
Si Si3 0.310746 0.735948 0.113566
Si Si4 0.403132 0.514953 0.184924
Si Si5 0.660630 0.633805 0.270941
Si Si6 0.891585 0.237904 0.127107
Si Si7 0.845592 0.776174 0.741067
Si Si8 0.663209 0.332252 0.646102
O O1 0.930209 0.305888 0.815511
O O2 0.228471 0.487550 0.730278
O O3 0.705823 0.490930 0.982699
O O4 0.909848 0.359148 0.047139
O O5 0.334884 0.079370 0.597950
O O6 0.604840 0.177077 0.285075
O O7 0.340897 0.964706 0.384110
O O8 0.251979 0.614904 0.196516
O O9 0.423045 0.809234 0.169700
O O10 0.560105 0.716277 0.892992
O O11 0.458509 0.556509 0.295083
O O12 0.245753 0.403891 0.235318
O O13 0.537381 0.760651 0.335011
O O14 0.926612 0.652767 0.051302
O O15 0.007256 0.252599 0.205156
O O16 0.061114 0.766010 0.521299
#
# Coordination Sequence:
#
# PCOD9117599 Si02
#       8
#     2   2   2   2   2   2   2   2
#     4  11  24  41  72  99 130 181 228 278 339 411
#     4  12  25  42  71 101 136 185 223 288 350 397
#     4  10  23  46  63  95 139 172 229 278 338 410
#     4  10  23  43  66  96 130 184 220 276 340 403
#     4  11  23  42  66  97 140 175 229 278 341 409
#     4  12  24  46  67 101 142 176 227 291 339 413
#     4  11  22  43  68  92 137 178 221 285 337 400
#     4  11  24  43  67  99 134 181 223 280 342 411
#
# _framework density 24.853650999999999
#
# number of rings (size 3 to 8) (size 9 to 14) (size 15 to 20)
#    0.000    1.000    6.250    0.000    3.500    5.000 
#    0.000    5.000    0.000    0.000    0.000    0.000 
#    0.000    0.000    0.000    0.000    0.000    0.000 
#
# Total GULP energy -89363.931963 kJ/mol
# GULP energy per Si atom -5585.245748 kJ/mol
# Density = 2.479708 g / cm^3
# Si number density = 24.853651 Si / 1000 Ang^3
#
#
#
# Elastic Constant Matrix: (Units=GPa)
#
#
# Indices 1 2 3 4 5 6 
#
# 1 69.0881 19.5281 15.9164 0.0000 4.3496 0.0000
# 2 19.5281 71.6602 4.4781 0.0000 16.1879 0.0000
# 3 15.9164 4.4781 101.1539 0.0000 -5.3851 0.0000
# 4 0.0000 0.0000 0.0000 23.5435 0.0000 0.3613
# 5 4.3496 16.1879 -5.3851 0.0000 22.7704 0.0000
# 6 0.0000 0.0000 0.0000 0.3613 0.0000 57.7973
#
#
#
# Elastic Compliance Matrix: (Units=1/GPa)
#
#
# Indices 1 2 3 4 5 6 
#
# 1 0.016238 -0.004104 -0.002414 0.000000 -0.000755 0.000000
# 2 -0.004104 0.017855 -0.000789 0.000000 -0.012096 0.000000
# 3 -0.002414 -0.000789 0.010487 0.000000 0.003502 0.000000
# 4 0.000000 0.000000 0.000000 0.042479 0.000000 -0.000266
# 5 -0.000755 -0.012096 0.003502 0.000000 0.053488 0.000000
# 6 0.000000 0.000000 0.000000 -0.000266 0.000000 0.017304
#
#
# Mechanical properties :
#
#
# Convention : Reuss Voigt Hill
#
# Bulk Modulus (GPa) = 33.36895 35.74975 34.55935
# Shear Modulus (GPa) = 27.40467 34.28754 30.84610
#
# Velocity S-wave (km/s) = 3.32421 3.71830 3.52676
# Velocity P-wave (km/s) = 5.30934 5.73146 5.52443
#
# Compressibility (1/GPa) = 0.02996798
#
# Stress axis : x y z
#
# Youngs Moduli (GPa) = 61.58501 56.00765 95.35584
#
# Poissons Ratio (x) = 0.22983 0.23014
# Poissons Ratio (y) = 0.25271 0.07521
# Poissons Ratio (z) = 0.14864 0.04417
#
# Static dielectric constant tensor:
#      x y z
#    x 2.010620 0.000000 -0.041380 
#    y 0.000000 1.983590 0.000000 
#    z -0.041380 0.000000 2.022320 
# 
# From -- ./inp_files/11237.got.cif
#   From: 2010.05.17/outbox.cif.g08.bks.cpg/sg4_6_cif.got.tgz:11237.got - 2010.06.03 18:43:04.
