data_PCOD9117384
_publ_section_title
;
Structure prediction by ZEFSAII (Michael W. Deem and Ramdas Pophale) SiO2 
 PCOD9117384
Probable space group: P 21
;
_chemical_formula_sum "Si O2"
_cell_formula_units_Z 16
_cell_length_a 21.574625
_cell_length_b 5.446239
_cell_length_c 8.714238
_cell_angle_alpha 90.000000
_cell_angle_beta 142.627684
_cell_angle_gamma 90.000000
_cell_volume 621.515956
_symmetry_space_group_name_H-M "P 21"
_symmetry_group_IT_number 4
_symmetry_cell_setting 'monoclinic'
loop_
_space_group_symop_operation_xyz
x,y,z
-x,1/2+y,-z
loop_
_atom_site_type_symbol
_atom_site_label
_atom_site_fract_x
_atom_site_fract_y
_atom_site_fract_z
Si Si1 0.393767 0.973810 0.681581
Si Si2 0.114327 0.938899 0.348569
Si Si3 0.126581 0.439374 0.201352
Si Si4 0.464670 0.634237 0.595332
Si Si5 0.777126 0.665569 0.884955
Si Si6 0.661595 0.947552 0.900873
Si Si7 0.595878 0.253930 0.005016
Si Si8 0.933934 0.409383 0.388177
O O1 0.414325 0.702608 0.657150
O O2 0.319211 0.088919 0.409324
O O3 0.504382 0.099564 0.899510
O O4 0.360231 0.949942 0.790301
O O5 0.155823 0.701001 0.334869
O O6 0.152504 0.204729 0.361789
O O7 0.114745 0.911458 0.535251
O O8 0.994612 0.942765 0.065551
O O9 0.171655 0.370015 0.123013
O O10 0.551910 0.823990 0.719885
O O11 0.369712 0.629439 0.296263
O O12 0.530838 0.392219 0.747339
O O13 0.740249 0.769316 0.976746
O O14 0.855087 0.454006 0.091562
O O15 0.682174 0.091127 0.096193
O O16 0.992410 0.150445 0.479652
#
# Coordination Sequence:
#
# PCOD9117384 Si02
#       8
#     2   2   2   2   2   2   2   2
#     4  11  24  43  72 108 144 199 258 309 381 458
#     4  10  22  48  78 108 148 203 256 305 407 478
#     4  10  23  45  80 109 149 198 256 321 385 474
#     4  11  20  41  70 100 144 207 242 300 382 461
#     4  12  27  48  77 116 151 197 271 331 381 469
#     4  11  23  41  70 107 149 194 256 313 380 452
#     4  11  22  43  73  99 150 203 244 307 385 461
#     4  12  27  51  84 119 157 207 259 330 411 477
#
# _framework density 25.743507000000001
#
# number of rings (size 3 to 8) (size 9 to 14) (size 15 to 20)
#    0.000    1.000    5.000    1.500    3.500    2.000 
#    2.250    1.250    0.000    0.000    0.000    0.000 
#    0.000    0.000    0.000    0.000    0.000    0.000 
#
# Total GULP energy -89422.015969 kJ/mol
# GULP energy per Si atom -5588.875998 kJ/mol
# Density = 2.568491 g / cm^3
# Si number density = 25.743507 Si / 1000 Ang^3
#
#
#
# Elastic Constant Matrix: (Units=GPa)
#
#
# Indices 1 2 3 4 5 6 
#
# 1 59.0080 32.8141 46.7809 0.0000 -15.9655 0.0000
# 2 32.8141 110.0234 36.9874 0.0000 -6.0954 0.0000
# 3 46.7809 36.9874 100.9744 0.0000 -11.6021 0.0000
# 4 0.0000 0.0000 0.0000 22.8171 0.0000 -1.3657
# 5 -15.9655 -6.0954 -11.6021 0.0000 38.8903 0.0000
# 6 0.0000 0.0000 0.0000 -1.3657 0.0000 38.5968
#
#
#
# Elastic Compliance Matrix: (Units=1/GPa)
#
#
# Indices 1 2 3 4 5 6 
#
# 1 0.031285 -0.004920 -0.011706 0.000000 0.008580 0.000000
# 2 -0.004920 0.011149 -0.001901 0.000000 -0.000839 0.000000
# 3 -0.011706 -0.001901 0.015985 0.000000 -0.000335 0.000000
# 4 0.000000 0.000000 0.000000 0.043920 0.000000 0.001554
# 5 0.008580 -0.000839 -0.000335 0.000000 0.029004 0.000000
# 6 0.000000 0.000000 0.000000 0.001554 0.000000 0.025964
#
#
# Mechanical properties :
#
#
# Convention : Reuss Voigt Hill
#
# Bulk Modulus (GPa) = 46.80679 55.90785 51.35732
# Shear Modulus (GPa) = 24.81623 30.28906 27.55265
#
# Velocity S-wave (km/s) = 3.10817 3.43384 3.27506
# Velocity P-wave (km/s) = 5.57695 6.12259 5.85613
#
# Compressibility (1/GPa) = 0.02136442
#
# Stress axis : x y z
#
# Youngs Moduli (GPa) = 31.96465 89.69513 62.55989
#
# Poissons Ratio (x) = 0.44129 0.73232
# Poissons Ratio (y) = 0.15726 0.11893
# Poissons Ratio (z) = 0.37418 0.17051
#
# Static dielectric constant tensor:
#      x y z
#    x 2.068680 0.000000 -0.017960 
#    y 0.000000 2.093340 0.000000 
#    z -0.017960 0.000000 2.007890 
# 
# From -- ./inp_files/10071.got.cif
#   From: 2010.05.17/outbox.cif.g08.bks.cpg/sg4_6_cif.got.tgz:10071.got - 2010.06.03 18:43:04.
