data_PCOD9117179
_publ_section_title
;
Structure prediction by ZEFSAII (Michael W. Deem and Ramdas Pophale) SiO2 
 PCOD9117179
Probable space group: P 21
;
_chemical_formula_sum "Si O2"
_cell_formula_units_Z 14
_cell_length_a 10.755824
_cell_length_b 8.593899
_cell_length_c 7.679840
_cell_angle_alpha 90.000000
_cell_angle_beta 47.743650
_cell_angle_gamma 90.000000
_cell_volume 525.414551
_symmetry_space_group_name_H-M "P 21"
_symmetry_group_IT_number 4
_symmetry_cell_setting 'monoclinic'
loop_
_space_group_symop_operation_xyz
x,y,z
-x,1/2+y,-z
loop_
_atom_site_type_symbol
_atom_site_label
_atom_site_fract_x
_atom_site_fract_y
_atom_site_fract_z
Si Si1 0.572687 0.736400 0.513206
Si Si2 0.533262 0.802619 0.148057
Si Si3 0.809502 0.417465 0.664948
Si Si4 0.109132 0.042071 0.858154
Si Si5 0.990647 0.663614 0.675882
Si Si6 0.658011 0.988678 0.723231
Si Si7 0.198520 0.728362 0.961623
O O1 0.571748 0.795307 0.314966
O O2 0.725416 0.616216 0.381183
O O3 0.394624 0.374790 0.382571
O O4 0.385669 0.675513 0.734232
O O5 0.362312 0.894974 0.271451
O O6 0.480485 0.626944 0.140585
O O7 0.659558 0.891626 0.900729
O O8 0.861831 0.590361 0.660821
O O9 0.953734 0.335911 0.417397
O O10 0.799329 0.314333 0.853035
O O11 0.142313 0.863621 0.878570
O O12 0.939577 0.093705 0.920094
O O13 0.086888 0.127762 0.065588
O O14 0.163413 0.564226 0.492489
#
# Coordination Sequence:
#
# PCOD9117179 Si02
#       7
#     2   2   2   2   2   2   2
#     4  12  25  46  78 108 155 201 254 313 382 461
#     4  11  26  45  74 109 148 198 251 315 380 459
#     4  10  22  44  69 105 146 188 250 309 378 451
#     4  11  26  46  74 108 151 201 250 319 382 456
#     4  10  24  45  70 105 149 192 252 318 373 464
#     4  11  25  49  72 112 153 194 260 317 384 461
#     4  11  24  47  73 107 154 196 253 319 379 458
#
# _framework density 26.645627000000001
#
# number of rings (size 3 to 8) (size 9 to 14) (size 15 to 20)
#    0.000    1.143    1.429    4.286    4.000    5.714 
#    7.714    0.000    0.000    0.000    0.000    0.000 
#    0.000    0.000    0.000    0.000    0.000    0.000 
#
# Total GULP energy -78641.382087 kJ/mol
# GULP energy per Si atom -5617.241578 kJ/mol
# Density = 2.658498 g / cm^3
# Si number density = 26.645627 Si / 1000 Ang^3
#
#
#
# Elastic Constant Matrix: (Units=GPa)
#
#
# Indices 1 2 3 4 5 6 
#
# 1 127.3648 27.6515 62.5744 0.0000 -9.0754 0.0000
# 2 27.6515 104.4516 69.4060 0.0000 -17.0765 0.0000
# 3 62.5744 69.4060 173.5669 0.0000 -15.9139 0.0000
# 4 0.0000 0.0000 0.0000 39.8641 0.0000 10.3328
# 5 -9.0754 -17.0765 -15.9139 0.0000 69.7656 0.0000
# 6 0.0000 0.0000 0.0000 10.3328 0.0000 29.5254
#
#
#
# Elastic Compliance Matrix: (Units=1/GPa)
#
#
# Indices 1 2 3 4 5 6 
#
# 1 0.009562 -0.000268 -0.003301 0.000000 0.000425 0.000000
# 2 -0.000268 0.013338 -0.005046 0.000000 0.002079 0.000000
# 3 -0.003301 -0.005046 0.009005 0.000000 0.000390 0.000000
# 4 0.000000 0.000000 0.000000 0.027588 0.000000 -0.009655
# 5 0.000425 0.002079 0.000390 0.000000 0.014987 0.000000
# 6 0.000000 0.000000 0.000000 -0.009655 0.000000 0.037248
#
#
# Mechanical properties :
#
#
# Convention : Reuss Voigt Hill
#
# Bulk Modulus (GPa) = 68.14905 80.51635 74.33270
# Shear Modulus (GPa) = 37.35548 44.21444 40.78496
#
# Velocity S-wave (km/s) = 3.74831 4.07793 3.91659
# Velocity P-wave (km/s) = 6.66068 7.24264 6.95775
#
# Compressibility (1/GPa) = 0.01467372
#
# Stress axis : x y z
#
# Youngs Moduli (GPa) = 104.58317 74.97493 111.04823
#
# Poissons Ratio (x) = 0.02012 0.36656
# Poissons Ratio (y) = 0.02807 0.56037
# Poissons Ratio (z) = 0.34522 0.37834
#
# Static dielectric constant tensor:
#      x y z
#    x 2.067780 0.000000 0.006580 
#    y 0.000000 2.024460 0.000000 
#    z 0.006580 0.000000 2.117430 
# 
# From -- ./inp_files/7468.got.cif
#   From: 2010.05.17/outbox.cif.g08.bks.cpg/sg4_4_cif.got.tgz:7468.got - 2010.06.03 18:43:04.
