data_PCOD9117362
_publ_section_title
;
Structure prediction by ZEFSAII (Michael W. Deem and Ramdas Pophale) SiO2 
 PCOD9117362
Probable space group: P 21
;
_chemical_formula_sum "Si O2"
_cell_formula_units_Z 14
_cell_length_a 4.862174
_cell_length_b 11.524983
_cell_length_c 9.403741
_cell_angle_alpha 90.000000
_cell_angle_beta 90.184580
_cell_angle_gamma 90.000000
_cell_volume 526.949741
_symmetry_space_group_name_H-M "P 21"
_symmetry_group_IT_number 4
_symmetry_cell_setting 'monoclinic'
loop_
_space_group_symop_operation_xyz
x,y,z
-x,1/2+y,-z
loop_
_atom_site_type_symbol
_atom_site_label
_atom_site_fract_x
_atom_site_fract_y
_atom_site_fract_z
Si Si1 0.894498 0.037590 0.208888
Si Si2 0.918568 0.343565 0.481216
Si Si3 0.414467 0.093989 0.027546
Si Si4 0.176976 0.931377 0.812614
Si Si5 0.430315 0.496505 0.518404
Si Si6 0.808158 0.144501 0.696211
Si Si7 0.950221 0.797323 0.080967
O O1 0.712120 0.105743 0.093466
O O2 0.205161 0.061801 0.157549
O O3 0.743775 0.058465 0.357783
O O4 0.844870 0.900949 0.180838
O O5 0.787942 0.347147 0.322553
O O6 0.721521 0.439855 0.557622
O O7 0.922579 0.226571 0.570368
O O8 0.227201 0.391533 0.473897
O O9 0.280960 0.204910 0.955846
O O10 0.413941 0.993522 0.906743
O O11 0.994649 0.037370 0.749794
O O12 0.031087 0.858070 0.934863
O O13 0.448681 0.583368 0.383670
O O14 0.812369 0.232179 0.828586
#
# Coordination Sequence:
#
# PCOD9117362 Si02
#       7
#     2   2   2   2   2   2   2
#     4  11  23  45  68 108 142 183 242 293 347 440
#     4  11  24  46  73  99 144 186 234 293 363 412
#     4  10  24  42  70 102 146 184 236 298 355 415
#     4   9  23  44  71 107 142 180 249 290 350 440
#     4  11  25  45  71 106 139 185 245 288 351 441
#     4  10  23  47  73 104 142 190 231 298 356 423
#     4  10  22  47  74 104 143 194 233 298 368 417
#
# _framework density 26.568000999999999
#
# number of rings (size 3 to 8) (size 9 to 14) (size 15 to 20)
#    0.000    1.714    1.429    0.857    4.000   10.286 
#   10.286    0.000    0.000    0.000    0.000    0.000 
#    0.000    0.000    0.000    0.000    0.000    0.000 
#
# Total GULP energy -78316.594593 kJ/mol
# GULP energy per Si atom -5594.042471 kJ/mol
# Density = 2.650753 g / cm^3
# Si number density = 26.568001 Si / 1000 Ang^3
#
#
#
# Elastic Constant Matrix: (Units=GPa)
#
#
# Indices 1 2 3 4 5 6 
#
# 1 104.3093 24.7758 31.5136 0.0000 -7.1562 0.0000
# 2 24.7758 123.1442 53.7408 0.0000 12.0963 0.0000
# 3 31.5136 53.7408 182.9414 0.0000 -24.2156 0.0000
# 4 0.0000 0.0000 0.0000 59.6994 0.0000 12.4738
# 5 -7.1562 12.0963 -24.2156 0.0000 31.3120 0.0000
# 6 0.0000 0.0000 0.0000 12.4738 0.0000 9.7104
#
#
#
# Elastic Compliance Matrix: (Units=1/GPa)
#
#
# Indices 1 2 3 4 5 6 
#
# 1 0.010494 -0.001955 -0.000909 0.000000 0.002451 0.000000
# 2 -0.001955 0.010977 -0.003908 0.000000 -0.007710 0.000000
# 3 -0.000909 -0.003908 0.007735 0.000000 0.007284 0.000000
# 4 0.000000 0.000000 0.000000 0.022896 0.000000 -0.029412
# 5 0.002451 -0.007710 0.007284 0.000000 0.041109 0.000000
# 6 0.000000 0.000000 0.000000 -0.029412 0.000000 0.140764
#
#
# Mechanical properties :
#
#
# Convention : Reuss Voigt Hill
#
# Bulk Modulus (GPa) = 63.85341 70.05057 66.95199
# Shear Modulus (GPa) = 19.78313 40.16866 29.97589
#
# Velocity S-wave (km/s) = 2.73174 3.89256 3.36262
# Velocity P-wave (km/s) = 5.83404 6.82836 6.35069
#
# Compressibility (1/GPa) = 0.01566087
#
# Stress axis : x y z
#
# Youngs Moduli (GPa) = 95.29193 91.10005 129.28102
#
# Poissons Ratio (x) = 0.17814 0.11750
# Poissons Ratio (y) = 0.18634 0.50527
# Poissons Ratio (z) = 0.08661 0.35605
#
# Static dielectric constant tensor:
#      x y z
#    x 2.041680 0.000000 -0.046370 
#    y 0.000000 2.101000 0.000000 
#    z -0.046370 0.000000 2.174930 
# 
# From -- ./inp_files/4565.got.cif
#   From: 2010.05.17/outbox.cif.g08.bks.cpg/sg4_3_cif.got.tgz:4565.got - 2010.06.03 18:43:04.
