data_PCOD9117696
_publ_section_title
;
Structure prediction by ZEFSAII (Michael W. Deem and Ramdas Pophale) SiO2 
 PCOD9117696
Probable space group: P 21
;
_chemical_formula_sum "Si O2"
_cell_formula_units_Z 16
_cell_length_a 5.049494
_cell_length_b 4.953666
_cell_length_c 22.232357
_cell_angle_alpha 90.000000
_cell_angle_beta 99.731961
_cell_angle_gamma 90.000000
_cell_volume 548.106427
_symmetry_space_group_name_H-M "P 21"
_symmetry_group_IT_number 4
_symmetry_cell_setting 'monoclinic'
loop_
_space_group_symop_operation_xyz
x,y,z
-x,1/2+y,-z
loop_
_atom_site_type_symbol
_atom_site_label
_atom_site_fract_x
_atom_site_fract_y
_atom_site_fract_z
Si Si1 0.709642 0.263770 0.762346
Si Si2 0.784057 0.538170 0.928126
Si Si3 0.686445 0.343802 0.031256
Si Si4 0.420755 0.544589 0.367424
Si Si5 0.802803 0.122912 0.261153
Si Si6 0.677614 0.694261 0.487195
Si Si7 0.446476 0.923173 0.845996
Si Si8 0.904151 0.556776 0.608729
O O1 0.611512 0.065485 0.705050
O O2 0.487390 0.493968 0.748078
O O3 0.987923 0.409467 0.758915
O O4 0.669016 0.111751 0.823546
O O5 0.588994 0.639361 0.979920
O O6 0.590677 0.640558 0.869260
O O7 0.067849 0.667870 0.927297
O O8 0.823619 0.271232 0.967724
O O9 0.643479 0.524294 0.092314
O O10 0.677671 0.651591 0.415082
O O11 0.350592 0.244843 0.383929
O O12 0.191524 0.755475 0.381022
O O13 0.779670 0.367258 0.212857
O O14 0.887363 0.162366 0.333626
O O15 0.452609 0.477070 0.500115
O O16 0.932231 0.616608 0.538748
#
# Coordination Sequence:
#
# PCOD9117696 Si02
#       8
#     2   2   2   2   2   2   2   2
#     4  11  27  45  71 103 143 195 241 303 367 444
#     4  10  23  44  68  99 132 177 221 286 350 431
#     4  10  23  44  68  99 132 177 221 286 350 431
#     4   9  19  36  67  97 144 187 247 302 371 432
#     4  11  27  45  71 103 143 195 241 303 367 444
#     4   8  14  30  58  98 130 186 238 304 362 434
#     4  10  28  46  74 102 150 178 248 286 374 438
#     4   9  19  36  67  97 144 187 247 302 371 432
#
# _framework density 29.191410000000001
#
# number of rings (size 3 to 8) (size 9 to 14) (size 15 to 20)
#    0.750    1.500    0.000    0.750   10.500    1.000 
#    0.000    0.000    2.750    1.500    0.000    0.000 
#    0.000    0.000    0.000    0.000    0.000    0.000 
#
# Total GULP energy -89377.262394 kJ/mol
# GULP energy per Si atom -5586.078900 kJ/mol
# Density = 2.912497 g / cm^3
# Si number density = 29.191410 Si / 1000 Ang^3
#
#
#
# Elastic Constant Matrix: (Units=GPa)
#
#
# Indices 1 2 3 4 5 6 
#
# 1 91.1834 37.9079 46.8775 0.0000 -4.3098 0.0000
# 2 37.9079 93.9816 25.7362 0.0000 -13.3584 0.0000
# 3 46.8775 25.7362 165.9241 0.0000 11.3857 0.0000
# 4 0.0000 0.0000 0.0000 55.5583 0.0000 3.7591
# 5 -4.3098 -13.3584 11.3857 0.0000 46.0944 0.0000
# 6 0.0000 0.0000 0.0000 3.7591 0.0000 25.6901
#
#
#
# Elastic Compliance Matrix: (Units=1/GPa)
#
#
# Indices 1 2 3 4 5 6 
#
# 1 0.014842 -0.004914 -0.003488 0.000000 0.000825 0.000000
# 2 -0.004914 0.013400 -0.000941 0.000000 0.003656 0.000000
# 3 -0.003488 -0.000941 0.007323 0.000000 -0.002408 0.000000
# 4 0.000000 0.000000 0.000000 0.018179 0.000000 -0.002660
# 5 0.000825 0.003656 -0.002408 0.000000 0.023426 0.000000
# 6 0.000000 0.000000 0.000000 -0.002660 0.000000 0.039315
#
#
# Mechanical properties :
#
#
# Convention : Reuss Voigt Hill
#
# Bulk Modulus (GPa) = 59.24285 63.57024 61.40654
# Shear Modulus (GPa) = 35.51211 41.50641 38.50926
#
# Velocity S-wave (km/s) = 3.49166 3.77486 3.63602
# Velocity P-wave (km/s) = 6.04932 6.38935 6.22165
#
# Compressibility (1/GPa) = 0.01687967
#
# Stress axis : x y z
#
# Youngs Moduli (GPa) = 67.37704 74.62726 136.54990
#
# Poissons Ratio (x) = 0.36673 0.47622
# Poissons Ratio (y) = 0.33111 0.12849
# Poissons Ratio (z) = 0.23498 0.07022
#
# Static dielectric constant tensor:
#      x y z
#    x 2.251800 0.000000 -0.029240 
#    y 0.000000 2.383350 0.000000 
#    z -0.029240 0.000000 2.454430 
# 
# From -- ./inp_files/16008.got.cif
#   From: 2010.05.17/outbox.cif.g08.bks.cpg/sg4_9_cif.got.tgz:16008.got - 2010.06.03 18:43:04.
