data_PCOD9117499
_publ_section_title
;
Structure prediction by ZEFSAII (Michael W. Deem and Ramdas Pophale) SiO2 
 PCOD9117499
Probable space group: P 21
;
_chemical_formula_sum "Si O2"
_cell_formula_units_Z 14
_cell_length_a 8.675575
_cell_length_b 8.579957
_cell_length_c 11.490171
_cell_angle_alpha 90.000000
_cell_angle_beta 37.250003
_cell_angle_gamma 90.000000
_cell_volume 517.697732
_symmetry_space_group_name_H-M "P 21"
_symmetry_group_IT_number 4
_symmetry_cell_setting 'monoclinic'
loop_
_space_group_symop_operation_xyz
x,y,z
-x,1/2+y,-z
loop_
_atom_site_type_symbol
_atom_site_label
_atom_site_fract_x
_atom_site_fract_y
_atom_site_fract_z
Si Si1 0.840391 0.784200 0.103687
Si Si2 0.869900 0.931388 0.840118
Si Si3 0.543780 0.485883 0.531582
Si Si4 0.437983 0.547731 0.327740
Si Si5 0.152150 0.105020 0.269168
Si Si6 0.351212 0.220839 0.374429
Si Si7 0.867531 0.274101 0.833596
O O1 0.610993 0.849553 0.319300
O O2 0.692882 0.637159 0.136980
O O3 0.049947 0.767305 0.079311
O O4 0.892199 0.897590 0.965153
O O5 0.784326 0.769010 0.832866
O O6 0.160952 0.956417 0.625694
O O7 0.741241 0.100946 0.891502
O O8 0.493906 0.503207 0.427516
O O9 0.454838 0.642004 0.652298
O O10 0.421610 0.382778 0.273126
O O11 0.150570 0.615490 0.509273
O O12 0.291102 0.099219 0.309923
O O13 0.212275 0.948035 0.159608
O O14 0.109882 0.259778 0.600287
#
# Coordination Sequence:
#
# PCOD9117499 Si02
#       7
#     2   2   2   2   2   2   2
#     4  12  23  43  69 112 138 189 241 306 366 425
#     4  11  26  42  71 105 146 184 243 299 371 431
#     4  11  21  45  69 102 142 187 245 303 363 429
#     4  11  21  41  70 104 146 180 251 304 351 446
#     4  11  24  43  73 105 144 200 238 296 376 440
#     4  10  23  41  70 108 140 198 241 299 374 433
#     4  10  24  41  66 110 144 178 245 295 355 440
#
# _framework density 27.042808000000001
#
# number of rings (size 3 to 8) (size 9 to 14) (size 15 to 20)
#    0.000    1.143    7.143    0.000   10.000    0.000 
#    2.571    1.429    0.000    0.000    0.000    0.000 
#    0.000    0.000    0.000    0.000    0.000    0.000 
#
# Total GULP energy -78231.372744 kJ/mol
# GULP energy per Si atom -5587.955196 kJ/mol
# Density = 2.698126 g / cm^3
# Si number density = 27.042808 Si / 1000 Ang^3
#
#
#
# Elastic Constant Matrix: (Units=GPa)
#
#
# Indices 1 2 3 4 5 6 
#
# 1 67.1834 54.9877 25.2261 0.0000 20.5457 0.0000
# 2 54.9877 198.3309 30.5982 0.0000 8.5209 0.0000
# 3 25.2261 30.5982 87.4543 0.0000 11.6997 0.0000
# 4 0.0000 0.0000 0.0000 43.2594 0.0000 7.3707
# 5 20.5457 8.5209 11.6997 0.0000 32.4894 0.0000
# 6 0.0000 0.0000 0.0000 7.3707 0.0000 41.0985
#
#
#
# Elastic Compliance Matrix: (Units=1/GPa)
#
#
# Indices 1 2 3 4 5 6 
#
# 1 0.024901 -0.005820 -0.003408 0.000000 -0.012994 0.000000
# 2 -0.005820 0.006708 -0.000972 0.000000 0.002271 0.000000
# 3 -0.003408 -0.000972 0.013065 0.000000 -0.002294 0.000000
# 4 0.000000 0.000000 0.000000 0.023845 0.000000 -0.004276
# 5 -0.012994 0.002271 -0.002294 0.000000 0.039227 0.000000
# 6 0.000000 0.000000 0.000000 -0.004276 0.000000 0.025099
#
#
# Mechanical properties :
#
#
# Convention : Reuss Voigt Hill
#
# Bulk Modulus (GPa) = 41.19685 63.84362 52.52024
# Shear Modulus (GPa) = 30.99112 39.51320 35.25216
#
# Velocity S-wave (km/s) = 3.38894 3.82663 3.61441
# Velocity P-wave (km/s) = 5.52994 6.57143 6.07305
#
# Compressibility (1/GPa) = 0.02427370
#
# Stress axis : x y z
#
# Youngs Moduli (GPa) = 40.15832 149.07440 76.54201
#
# Poissons Ratio (x) = 0.86760 0.26088
# Poissons Ratio (y) = 0.23372 0.07441
# Poissons Ratio (z) = 0.13687 0.14491
#
# Static dielectric constant tensor:
#      x y z
#    x 2.077690 0.000000 -0.081690 
#    y 0.000000 2.343960 0.000000 
#    z -0.081690 0.000000 2.095730 
# 
# From -- ./inp_files/10996.got.cif
#   From: 2010.05.17/outbox.cif.g08.bks.cpg/sg4_6_cif.got.tgz:10996.got - 2010.06.03 18:43:04.
