data_PCOD9117208
_publ_section_title
;
Structure prediction by ZEFSAII (Michael W. Deem and Ramdas Pophale) SiO2 
 PCOD9117208
Probable space group: P 21
;
_chemical_formula_sum "Si O2"
_cell_formula_units_Z 16
_cell_length_a 8.420819
_cell_length_b 15.675263
_cell_length_c 5.241934
_cell_angle_alpha 90.000000
_cell_angle_beta 113.740703
_cell_angle_gamma 90.000000
_cell_volume 633.374577
_symmetry_space_group_name_H-M "P 21"
_symmetry_group_IT_number 4
_symmetry_cell_setting 'monoclinic'
loop_
_space_group_symop_operation_xyz
x,y,z
-x,1/2+y,-z
loop_
_atom_site_type_symbol
_atom_site_label
_atom_site_fract_x
_atom_site_fract_y
_atom_site_fract_z
Si Si1 0.325276 0.112510 0.610116
Si Si2 0.838676 0.727535 0.883106
Si Si3 0.546387 0.956369 0.652787
Si Si4 0.038481 0.067747 0.787696
Si Si5 0.252150 0.846141 0.692183
Si Si6 0.709722 0.011084 0.278691
Si Si7 0.461556 0.688697 0.876195
Si Si8 0.945227 0.394807 0.934633
O O1 0.186775 0.174705 0.393344
O O2 0.229412 0.068626 0.787058
O O3 0.406046 0.032378 0.520440
O O4 0.483762 0.173221 0.794934
O O5 0.643427 0.720946 0.873063
O O6 0.972371 0.665095 0.120154
O O7 0.906434 0.823648 0.913028
O O8 0.431642 0.883043 0.699985
O O9 0.641456 0.943553 0.445584
O O10 0.674772 0.983325 0.966627
O O11 0.900745 0.038518 0.487940
O O12 0.024253 0.995026 0.994418
O O13 0.295775 0.747063 0.734033
O O14 0.112813 0.874782 0.391290
O O15 0.199049 0.874475 0.941056
O O16 0.596135 0.095673 0.247022
#
# Coordination Sequence:
#
# PCOD9117208 Si02
#       8
#     2   2   2   2   2   2   2   2
#     4  10  22  44  71  96 140 190 227 290 357 416
#     4  11  25  45  73 103 146 189 240 297 358 426
#     4  11  23  45  69  98 133 179 229 285 348 421
#     4  11  26  46  70 107 146 190 240 293 358 430
#     4  12  27  47  70 102 143 182 236 297 362 415
#     4  11  25  42  71 101 131 183 234 281 351 419
#     4  10  25  42  68 100 137 180 234 289 352 415
#     4  12  29  45  74 105 144 189 238 294 362 428
#
# _framework density 25.261512
#
# number of rings (size 3 to 8) (size 9 to 14) (size 15 to 20)
#    0.000    1.000    2.500    2.250   12.250    2.000 
#    0.000    0.000    0.000    0.000    0.000    0.000 
#    0.000    0.000    0.000    0.000    0.000    0.000 
#
# Total GULP energy -89427.740527 kJ/mol
# GULP energy per Si atom -5589.233783 kJ/mol
# Density = 2.520402 g / cm^3
# Si number density = 25.261512 Si / 1000 Ang^3
#
#
#
# Elastic Constant Matrix: (Units=GPa)
#
#
# Indices 1 2 3 4 5 6 
#
# 1 60.9109 14.0350 7.7459 0.0000 -4.4652 0.0000
# 2 14.0350 75.5442 14.9578 0.0000 4.6521 0.0000
# 3 7.7459 14.9578 66.9859 0.0000 23.2842 0.0000
# 4 0.0000 0.0000 0.0000 28.8474 0.0000 10.1558
# 5 -4.4652 4.6521 23.2842 0.0000 39.0714 0.0000
# 6 0.0000 0.0000 0.0000 10.1558 0.0000 39.1513
#
#
#
# Elastic Compliance Matrix: (Units=1/GPa)
#
#
# Indices 1 2 3 4 5 6 
#
# 1 0.017760 -0.002996 -0.002793 0.000000 0.004051 0.000000
# 2 -0.002996 0.014357 -0.002707 0.000000 -0.000439 0.000000
# 3 -0.002793 -0.002707 0.019997 0.000000 -0.011914 0.000000
# 4 0.000000 0.000000 0.000000 0.038149 0.000000 -0.009896
# 5 0.004051 -0.000439 -0.011914 0.000000 0.033209 0.000000
# 6 0.000000 0.000000 0.000000 -0.009896 0.000000 0.028109
#
#
# Mechanical properties :
#
#
# Convention : Reuss Voigt Hill
#
# Bulk Modulus (GPa) = 28.47163 30.76872 29.62018
# Shear Modulus (GPa) = 27.73465 32.52752 30.13109
#
# Velocity S-wave (km/s) = 3.31705 3.59225 3.45739
# Velocity P-wave (km/s) = 5.09565 5.42330 5.26203
#
# Compressibility (1/GPa) = 0.03512268
#
# Stress axis : x y z
#
# Youngs Moduli (GPa) = 56.30681 69.65302 50.00706
#
# Poissons Ratio (x) = 0.20868 0.13965
# Poissons Ratio (y) = 0.16870 0.13537
# Poissons Ratio (z) = 0.15725 0.18855
#
# Static dielectric constant tensor:
#      x y z
#    x 2.025650 0.000000 -0.036190 
#    y 0.000000 1.974020 0.000000 
#    z -0.036190 0.000000 2.100320 
# 
# From -- ./inp_files/1597.got.cif
#   From: 2010.05.17/outbox.cif.g08.bks.cpg/sg4_1_cif.got.tgz:1597.got - 2010.06.03 18:43:04.
