data_PCOD9117498
_publ_section_title
;
Structure prediction by ZEFSAII (Michael W. Deem and Ramdas Pophale) SiO2 
 PCOD9117498
Probable space group: P 21
;
_chemical_formula_sum "Si O2"
_cell_formula_units_Z 14
_cell_length_a 14.646717
_cell_length_b 5.138918
_cell_length_c 21.035200
_cell_angle_alpha 90.000000
_cell_angle_beta 158.920971
_cell_angle_gamma 90.000000
_cell_volume 569.436238
_symmetry_space_group_name_H-M "P 21"
_symmetry_group_IT_number 4
_symmetry_cell_setting 'monoclinic'
loop_
_space_group_symop_operation_xyz
x,y,z
-x,1/2+y,-z
loop_
_atom_site_type_symbol
_atom_site_label
_atom_site_fract_x
_atom_site_fract_y
_atom_site_fract_z
Si Si1 0.943723 0.126870 0.814053
Si Si2 0.797683 0.127836 0.292072
Si Si3 0.498432 0.136871 0.906820
Si Si4 0.844400 0.909427 0.883596
Si Si5 0.503574 0.970283 0.212486
Si Si6 0.662790 0.606189 0.414916
Si Si7 0.923693 0.620238 0.718440
O O1 0.809752 0.030319 0.790930
O O2 0.866025 0.401283 0.733875
O O3 0.907128 0.904942 0.737836
O O4 0.243118 0.117631 0.027229
O O5 0.700398 0.410439 0.208989
O O6 0.082740 0.062527 0.459892
O O7 0.738623 0.104231 0.329180
O O8 0.610255 0.911874 0.139993
O O9 0.520049 0.201740 0.844970
O O10 0.783276 0.074764 0.111980
O O11 0.574183 0.912864 0.742521
O O12 0.023643 0.128222 0.033348
O O13 0.555109 0.875829 0.316534
O O14 0.753076 0.609429 0.545769
#
# Coordination Sequence:
#
# PCOD9117498 Si02
#       7
#     2   2   2   2   2   2   2
#     4  11  23  50  76  97 147 197 236 286 383 435
#     4  10  23  41  70 101 143 189 232 297 355 428
#     4   9  20  42  68  94 143 199 220 272 384 426
#     4  12  28  49  77 106 137 189 244 307 354 432
#     4   9  22  45  70 104 138 196 234 294 358 427
#     4  12  28  45  72 116 142 181 259 306 345 436
#     4  11  24  46  73 110 144 193 235 298 363 442
#
# _framework density 24.585719999999998
#
# number of rings (size 3 to 8) (size 9 to 14) (size 15 to 20)
#    0.857    0.571    2.857    0.857    4.000    5.714 
#    2.571    0.000    0.000    0.000    0.000    0.000 
#    0.000    0.000    0.000    0.000    0.000    0.000 
#
# Total GULP energy -78318.905185 kJ/mol
# GULP energy per Si atom -5594.207513 kJ/mol
# Density = 2.452976 g / cm^3
# Si number density = 24.585720 Si / 1000 Ang^3
#
#
#
# Elastic Constant Matrix: (Units=GPa)
#
#
# Indices 1 2 3 4 5 6 
#
# 1 51.6497 6.9246 30.6939 0.0000 0.3626 0.0000
# 2 6.9246 96.0167 26.0176 0.0000 -9.0105 0.0000
# 3 30.6939 26.0176 106.7671 0.0000 -3.9977 0.0000
# 4 0.0000 0.0000 0.0000 15.2534 0.0000 -3.5169
# 5 0.3626 -9.0105 -3.9977 0.0000 51.9853 0.0000
# 6 0.0000 0.0000 0.0000 -3.5169 0.0000 19.4322
#
#
#
# Elastic Compliance Matrix: (Units=1/GPa)
#
#
# Indices 1 2 3 4 5 6 
#
# 1 0.023375 0.000085 -0.006766 0.000000 -0.000669 0.000000
# 2 0.000085 0.011309 -0.002715 0.000000 0.001751 0.000000
# 3 -0.006766 -0.002715 0.011991 0.000000 0.000499 0.000000
# 4 0.000000 0.000000 0.000000 0.068414 0.000000 0.012382
# 5 -0.000669 0.001751 0.000499 0.000000 0.019583 0.000000
# 6 0.000000 0.000000 0.000000 0.012382 0.000000 0.053702
#
#
# Mechanical properties :
#
#
# Convention : Reuss Voigt Hill
#
# Bulk Modulus (GPa) = 35.86262 42.41174 39.13718
# Shear Modulus (GPa) = 23.09900 30.05400 26.57650
#
# Velocity S-wave (km/s) = 3.06850 3.50010 3.29138
# Velocity P-wave (km/s) = 5.21274 5.79847 5.51339
#
# Compressibility (1/GPa) = 0.02788419
#
# Stress axis : x y z
#
# Youngs Moduli (GPa) = 42.78049 88.42823 83.39323
#
# Poissons Ratio (x) = -0.00750 0.56421
# Poissons Ratio (y) = -0.00363 0.22638
# Poissons Ratio (z) = 0.28944 0.24004
#
# Static dielectric constant tensor:
#      x y z
#    x 2.013170 0.000000 -0.003280 
#    y 0.000000 1.914080 0.000000 
#    z -0.003280 0.000000 1.937670 
# 
# From -- ./inp_files/15750.got.cif
#   From: 2010.05.17/outbox.cif.g08.bks.cpg/sg4_8_cif.got.tgz:15750.got - 2010.06.03 18:43:04.
