data_PCOD9117950
_publ_section_title
;
Structure prediction by ZEFSAII (Michael W. Deem and Ramdas Pophale) SiO2 
 PCOD9117950
Probable space group: P 21
;
_chemical_formula_sum "Si O2"
_cell_formula_units_Z 14
_cell_length_a 10.804132
_cell_length_b 13.653004
_cell_length_c 10.843188
_cell_angle_alpha 90.000000
_cell_angle_beta 154.861574
_cell_angle_gamma 90.000000
_cell_volume 679.463919
_symmetry_space_group_name_H-M "P 21"
_symmetry_group_IT_number 4
_symmetry_cell_setting 'monoclinic'
loop_
_space_group_symop_operation_xyz
x,y,z
-x,1/2+y,-z
loop_
_atom_site_type_symbol
_atom_site_label
_atom_site_fract_x
_atom_site_fract_y
_atom_site_fract_z
Si Si1 0.677471 0.539460 0.195270
Si Si2 0.989292 0.336358 0.822247
Si Si3 0.613731 0.331847 0.038824
Si Si4 0.040695 0.243259 0.613809
Si Si5 0.589888 0.787333 0.590174
Si Si6 0.180030 0.735243 0.015415
Si Si7 0.917097 0.037572 0.215984
O O1 0.724814 0.441783 0.159126
O O2 0.821836 0.635669 0.268297
O O3 0.798228 0.526984 0.443148
O O4 0.336253 0.550120 0.911707
O O5 0.683219 0.356761 0.617423
O O6 0.118319 0.439830 0.895973
O O7 0.922479 0.272916 0.640449
O O8 0.231857 0.277140 0.120274
O O9 0.805228 0.260145 0.296019
O O10 0.293083 0.319975 0.804543
O O11 0.633405 0.293952 0.917556
O O12 0.386934 0.716880 0.321401
O O13 0.884996 0.798230 0.774689
O O14 0.081921 0.632685 0.868920
#
# Coordination Sequence:
#
# PCOD9117950 Si02
#       7
#     2   2   2   2   2   2   2
#     4  12  22  38  61 106 127 172 204 262 336 392
#     4  11  22  42  63  95 127 172 210 270 303 392
#     4  12  22  39  64  95 135 160 206 274 328 375
#     4  12  22  39  64  95 135 160 206 274 328 375
#     4  10  24  42  62  84 126 172 222 244 324 356
#     4  11  22  42  63  95 127 172 210 270 303 392
#     4  12  22  38  69  96 125 160 234 250 312 396
#
# _framework density 20.604479000000001
#
# number of rings (size 3 to 8) (size 9 to 14) (size 15 to 20)
#    0.000    0.571    5.714    3.429    0.000    0.000 
#    0.000    8.571    0.000    0.000    0.000    0.000 
#    0.000    0.000    0.000    0.000    0.000    0.000 
#
# Total GULP energy -77975.394202 kJ/mol
# GULP energy per Si atom -5569.671014 kJ/mol
# Density = 2.055758 g / cm^3
# Si number density = 20.604479 Si / 1000 Ang^3
#
#
#
# Elastic Constant Matrix: (Units=GPa)
#
#
# Indices 1 2 3 4 5 6 
#
# 1 71.3645 28.8260 29.5507 0.0000 -4.4831 0.0000
# 2 28.8260 92.4920 -18.2022 0.0000 -9.2289 0.0000
# 3 29.5507 -18.2022 126.6130 0.0000 -1.9984 0.0000
# 4 0.0000 0.0000 0.0000 24.1413 0.0000 6.1631
# 5 -4.4831 -9.2289 -1.9984 0.0000 30.4737 0.0000
# 6 0.0000 0.0000 0.0000 6.1631 0.0000 10.7656
#
#
#
# Elastic Compliance Matrix: (Units=1/GPa)
#
#
# Indices 1 2 3 4 5 6 
#
# 1 0.019125 -0.007003 -0.005465 0.000000 0.000334 0.000000
# 2 -0.007003 0.014071 0.003712 0.000000 0.003475 0.000000
# 3 -0.005465 0.003712 0.009722 0.000000 0.000958 0.000000
# 4 0.000000 0.000000 0.000000 0.048513 0.000000 -0.027773
# 5 0.000334 0.003475 0.000958 0.000000 0.033980 0.000000
# 6 0.000000 0.000000 0.000000 -0.027773 0.000000 0.108787
#
#
# Mechanical properties :
#
#
# Convention : Reuss Voigt Hill
#
# Bulk Modulus (GPa) = 39.35814 41.20207 40.28010
# Shear Modulus (GPa) = 19.21749 29.76245 24.48997
#
# Velocity S-wave (km/s) = 3.05730 3.80474 3.45131
# Velocity P-wave (km/s) = 5.62192 6.27227 5.95598
#
# Compressibility (1/GPa) = 0.02540771
#
# Stress axis : x y z
#
# Youngs Moduli (GPa) = 52.28707 71.06574 102.85516
#
# Poissons Ratio (x) = 0.49765 0.56212
# Poissons Ratio (y) = 0.36615 -0.38182
# Poissons Ratio (z) = 0.28576 -0.26381
#
# Static dielectric constant tensor:
#      x y z
#    x 1.734760 0.000000 0.046470 
#    y 0.000000 1.730530 0.000000 
#    z 0.046470 0.000000 1.607340 
# 
# From -- ./inp_files/12179.got.cif
#   From: 2010.05.17/outbox.cif.g08.bks.cpg/sg4_7_cif.got.tgz:12179.got - 2010.06.03 18:43:04.
