data_PCOD9117630
_publ_section_title
;
Structure prediction by ZEFSAII (Michael W. Deem and Ramdas Pophale) SiO2 
 PCOD9117630
Probable space group: P 21
;
_chemical_formula_sum "Si O2"
_cell_formula_units_Z 16
_cell_length_a 7.795481
_cell_length_b 10.973694
_cell_length_c 8.926959
_cell_angle_alpha 90.000000
_cell_angle_beta 110.820136
_cell_angle_gamma 90.000000
_cell_volume 713.792412
_symmetry_space_group_name_H-M "P 21"
_symmetry_group_IT_number 4
_symmetry_cell_setting 'monoclinic'
loop_
_space_group_symop_operation_xyz
x,y,z
-x,1/2+y,-z
loop_
_atom_site_type_symbol
_atom_site_label
_atom_site_fract_x
_atom_site_fract_y
_atom_site_fract_z
Si Si1 0.341501 0.262520 0.876796
Si Si2 0.831285 0.980006 0.337951
Si Si3 0.988688 0.177284 0.174626
Si Si4 0.050795 0.640566 0.183575
Si Si5 0.373469 0.662513 0.502939
Si Si6 0.373437 0.308926 0.221819
Si Si7 0.542460 0.548810 0.291909
Si Si8 0.913829 0.412532 0.318965
O O1 0.312197 0.393629 0.792130
O O2 0.133303 0.214007 0.831249
O O3 0.452837 0.168821 0.809121
O O4 0.418873 0.267301 0.067938
O O5 0.960654 0.055357 0.263792
O O6 0.720507 0.076924 0.403477
O O7 0.953501 0.904038 0.495265
O O8 0.883197 0.283995 0.230478
O O9 0.191713 0.237148 0.218194
O O10 0.923085 0.152408 0.985509
O O11 0.008331 0.504493 0.229749
O O12 0.218958 0.692321 0.332295
O O13 0.469599 0.774416 0.612099
O O14 0.527965 0.590114 0.458363
O O15 0.374774 0.455452 0.214149
O O16 0.727474 0.477718 0.309850
#
# Coordination Sequence:
#
# PCOD9117630 Si02
#       8
#     2   2   2   2   2   2   2   2
#     4  10  26  45  70  97 144 183 234 281 349 425
#     4  11  25  42  73 100 139 187 236 283 349 422
#     4  11  24  44  74  99 138 187 237 288 345 420
#     4   9  23  45  67 102 133 185 234 284 347 423
#     4  11  25  42  70 101 138 178 233 292 357 408
#     4  11  25  45  69 105 137 183 234 294 352 411
#     4  11  25  44  69 102 146 177 228 298 351 413
#     4  10  23  43  70 102 135 186 236 284 346 428
#
# _framework density 22.415481
#
# number of rings (size 3 to 8) (size 9 to 14) (size 15 to 20)
#    0.000    1.500    0.000    3.000   17.500    1.000 
#    0.000    0.000    0.000    0.000    0.000    0.000 
#    0.000    0.000    0.000    0.000    0.000    0.000 
#
# Total GULP energy -89488.565769 kJ/mol
# GULP energy per Si atom -5593.035361 kJ/mol
# Density = 2.236446 g / cm^3
# Si number density = 22.415481 Si / 1000 Ang^3
#
#
#
# Elastic Constant Matrix: (Units=GPa)
#
#
# Indices 1 2 3 4 5 6 
#
# 1 111.4476 37.6509 53.4382 0.0000 -18.6485 0.0000
# 2 37.6509 91.1275 61.3875 0.0000 -10.1738 0.0000
# 3 53.4382 61.3875 138.3710 0.0000 -16.6111 0.0000
# 4 0.0000 0.0000 0.0000 32.8725 0.0000 -5.7852
# 5 -18.6485 -10.1738 -16.6111 0.0000 36.3922 0.0000
# 6 0.0000 0.0000 0.0000 -5.7852 0.0000 39.0249
#
#
#
# Elastic Compliance Matrix: (Units=1/GPa)
#
#
# Indices 1 2 3 4 5 6 
#
# 1 0.011929 -0.002426 -0.003045 0.000000 0.004045 0.000000
# 2 -0.002426 0.016201 -0.006195 0.000000 0.000458 0.000000
# 3 -0.003045 -0.006195 0.011380 0.000000 0.001902 0.000000
# 4 0.000000 0.000000 0.000000 0.031235 0.000000 0.004630
# 5 0.004045 0.000458 0.001902 0.000000 0.030547 0.000000
# 6 0.000000 0.000000 0.000000 0.004630 0.000000 0.026311
#
#
# Mechanical properties :
#
#
# Convention : Reuss Voigt Hill
#
# Bulk Modulus (GPa) = 61.81719 71.76658 66.79188
# Shear Modulus (GPa) = 31.98382 34.22257 33.10319
#
# Velocity S-wave (km/s) = 3.78148 3.91159 3.84709
# Velocity P-wave (km/s) = 6.83403 7.24477 7.04239
#
# Compressibility (1/GPa) = 0.01617673
#
# Stress axis : x y z
#
# Youngs Moduli (GPa) = 83.82681 61.72619 87.87410
#
# Poissons Ratio (x) = 0.14973 0.26760
# Poissons Ratio (y) = 0.20335 0.54442
# Poissons Ratio (z) = 0.25528 0.38242
#
# Static dielectric constant tensor:
#      x y z
#    x 1.868690 0.000000 0.009580 
#    y 0.000000 1.836830 0.000000 
#    z 0.009580 0.000000 1.792310 
# 
# From -- ./inp_files/6319.got.cif
#   From: 2010.05.17/outbox.cif.g08.bks.cpg/sg4_4_cif.got.tgz:6319.got - 2010.06.03 18:43:04.
