data_PCOD9117354
_publ_section_title
;
Structure prediction by ZEFSAII (Michael W. Deem and Ramdas Pophale) SiO2 
 PCOD9117354
Probable space group: P 21
;
_chemical_formula_sum "Si O2"
_cell_formula_units_Z 16
_cell_length_a 9.576429
_cell_length_b 9.729795
_cell_length_c 8.699610
_cell_angle_alpha 90.000000
_cell_angle_beta 132.248924
_cell_angle_gamma 90.000000
_cell_volume 600.031695
_symmetry_space_group_name_H-M "P 21"
_symmetry_group_IT_number 4
_symmetry_cell_setting 'monoclinic'
loop_
_space_group_symop_operation_xyz
x,y,z
-x,1/2+y,-z
loop_
_atom_site_type_symbol
_atom_site_label
_atom_site_fract_x
_atom_site_fract_y
_atom_site_fract_z
Si Si1 0.729239 0.995050 0.630930
Si Si2 0.089932 0.968956 0.370556
Si Si3 0.696944 0.005009 0.929842
Si Si4 0.359274 0.903675 0.294671
Si Si5 0.653763 0.628883 0.195269
Si Si6 0.739084 0.682214 0.919284
Si Si7 0.156679 0.366784 0.549702
Si Si8 0.973196 0.290402 0.106670
O O1 0.789377 0.010647 0.496525
O O2 0.923361 0.938346 0.846278
O O3 0.653866 0.069320 0.727651
O O4 0.574266 0.871882 0.495408
O O5 0.224384 0.898764 0.344082
O O6 0.223921 0.052300 0.584580
O O7 0.980330 0.872261 0.407759
O O8 0.908972 0.035033 0.146999
O O9 0.552248 0.065269 0.945653
O O10 0.667356 0.839443 0.891481
O O11 0.377240 0.066188 0.260063
O O12 0.244580 0.822475 0.080502
O O13 0.662409 0.787456 0.253022
O O14 0.747245 0.620640 0.096785
O O15 0.925600 0.704574 0.953645
O O16 0.048686 0.281750 0.336388
#
# Coordination Sequence:
#
# PCOD9117354 Si02
#       8
#     2   2   2   2   2   2   2   2
#     4   9  22  41  68  98 138 177 229 280 335 428
#     4  12  23  44  69 103 140 172 238 294 332 425
#     4  11  24  47  64 101 145 175 232 295 334 429
#     4  12  21  42  71  97 134 191 219 281 360 399
#     4  12  25  43  71  99 139 188 224 293 361 392
#     4  11  24  44  69 100 141 181 233 292 342 421
#     4  10  22  47  66 101 141 171 232 293 333 415
#     4   9  21  44  64  97 138 171 231 288 329 423
#
# _framework density 26.665257
#
# number of rings (size 3 to 8) (size 9 to 14) (size 15 to 20)
#    0.750    0.500    5.000    1.500    1.750    0.000 
#    6.750    5.000    2.750    0.000    0.000    0.000 
#    0.000    0.000    0.000    0.000    0.000    0.000 
#
# Total GULP energy -89142.676385 kJ/mol
# GULP energy per Si atom -5571.417274 kJ/mol
# Density = 2.660457 g / cm^3
# Si number density = 26.665257 Si / 1000 Ang^3
#
#
#
# Elastic Constant Matrix: (Units=GPa)
#
#
# Indices 1 2 3 4 5 6 
#
# 1 142.4328 27.2217 51.9428 0.0000 -22.3429 0.0000
# 2 27.2217 42.8066 -3.5762 0.0000 -2.5264 0.0000
# 3 51.9428 -3.5762 118.4092 0.0000 -14.1909 0.0000
# 4 0.0000 0.0000 0.0000 21.0127 0.0000 0.0861
# 5 -22.3429 -2.5264 -14.1909 0.0000 60.8465 0.0000
# 6 0.0000 0.0000 0.0000 0.0861 0.0000 39.9558
#
#
#
# Elastic Compliance Matrix: (Units=1/GPa)
#
#
# Indices 1 2 3 4 5 6 
#
# 1 0.010325 -0.006791 -0.004438 0.000000 0.002474 0.000000
# 2 -0.006791 0.027967 0.003769 0.000000 -0.000453 0.000000
# 3 -0.004438 0.003769 0.010626 0.000000 0.001005 0.000000
# 4 0.000000 0.000000 0.000000 0.047591 0.000000 -0.000103
# 5 0.002474 -0.000453 0.001005 0.000000 0.017559 0.000000
# 6 0.000000 0.000000 0.000000 -0.000103 0.000000 0.025028
#
#
# Mechanical properties :
#
#
# Convention : Reuss Voigt Hill
#
# Bulk Modulus (GPa) = 29.41157 50.53613 39.97385
# Shear Modulus (GPa) = 30.23903 39.56702 34.90303
#
# Velocity S-wave (km/s) = 3.37118 3.85625 3.62184
# Velocity P-wave (km/s) = 5.11928 6.23063 5.70209
#
# Compressibility (1/GPa) = 0.03400023
#
# Stress axis : x y z
#
# Youngs Moduli (GPa) = 96.84925 35.75579 94.10509
#
# Poissons Ratio (x) = 0.24281 0.41764
# Poissons Ratio (y) = 0.65769 -0.35471
# Poissons Ratio (z) = 0.42981 -0.13477
#
# Static dielectric constant tensor:
#      x y z
#    x 2.098320 0.000000 0.020810 
#    y 0.000000 2.471670 0.000000 
#    z 0.020810 0.000000 2.088550 
# 
# From -- ./inp_files/6484.got.cif
#   From: 2010.05.17/outbox.cif.g08.bks.cpg/sg4_4_cif.got.tgz:6484.got - 2010.06.03 18:43:04.
