data_PCOD9117925
_publ_section_title
;
Structure prediction by ZEFSAII (Michael W. Deem and Ramdas Pophale) SiO2 
 PCOD9117925
Probable space group: P 21
;
_chemical_formula_sum "Si O2"
_cell_formula_units_Z 12
_cell_length_a 10.754034
_cell_length_b 8.427011
_cell_length_c 5.134914
_cell_angle_alpha 90.000000
_cell_angle_beta 93.437132
_cell_angle_gamma 90.000000
_cell_volume 464.511233
_symmetry_space_group_name_H-M "P 21"
_symmetry_group_IT_number 4
_symmetry_cell_setting 'monoclinic'
loop_
_space_group_symop_operation_xyz
x,y,z
-x,1/2+y,-z
loop_
_atom_site_type_symbol
_atom_site_label
_atom_site_fract_x
_atom_site_fract_y
_atom_site_fract_z
Si Si1 0.178197 0.077840 0.723991
Si Si2 0.007768 0.792661 0.498909
Si Si3 0.006574 0.536670 0.909012
Si Si4 0.410567 0.551714 0.749314
Si Si5 0.742413 0.079317 0.753485
Si Si6 0.374151 0.873315 0.491475
O O1 0.133982 0.227349 0.549241
O O2 0.310007 0.008207 0.660299
O O3 0.082375 0.933068 0.648480
O O4 0.127531 0.103160 0.009401
O O5 0.058019 0.643255 0.674164
O O6 0.017487 0.861734 0.205885
O O7 0.120095 0.540140 0.129707
O O8 0.308783 0.503133 0.517587
O O9 0.434322 0.737392 0.681835
O O10 0.531127 0.450283 0.697960
O O11 0.352668 0.538837 0.026008
O O12 0.725997 0.267076 0.682076
#
# Coordination Sequence:
#
# PCOD9117925 Si02
#       6
#     2   2   2   2   2   2
#     4  11  22  44  67 108 143 190 236 305 368 440
#     4  10  24  39  66 107 141 192 245 287 372 444
#     4  11  23  45  71 105 151 196 241 304 373 437
#     4  10  25  46  76 103 143 198 243 304 363 427
#     4  10  25  46  77 101 152 188 244 303 366 431
#     4  10  25  46  75 108 142 192 247 307 364 435
#
# _framework density 25.833608999999999
#
# number of rings (size 3 to 8) (size 9 to 14) (size 15 to 20)
#    1.000    0.667    0.000    3.000    7.000    5.333 
#    0.000    0.000    0.000    0.000    0.000    0.000 
#    0.000    0.000    0.000    0.000    0.000    0.000 
#
# Total GULP energy -66834.091587 kJ/mol
# GULP energy per Si atom -5569.507632 kJ/mol
# Density = 2.577481 g / cm^3
# Si number density = 25.833609 Si / 1000 Ang^3
#
#
#
# Elastic Constant Matrix: (Units=GPa)
#
#
# Indices 1 2 3 4 5 6 
#
# 1 90.3410 30.7059 14.2278 0.0000 -18.2990 0.0000
# 2 30.7059 48.4542 8.5779 0.0000 -3.2608 0.0000
# 3 14.2278 8.5779 110.5601 0.0000 -8.9447 0.0000
# 4 0.0000 0.0000 0.0000 35.3519 0.0000 1.3303
# 5 -18.2990 -3.2608 -8.9447 0.0000 39.9506 0.0000
# 6 0.0000 0.0000 0.0000 1.3303 0.0000 50.2531
#
#
#
# Elastic Compliance Matrix: (Units=1/GPa)
#
#
# Indices 1 2 3 4 5 6 
#
# 1 0.015630 -0.009347 -0.000783 0.000000 0.006221 0.000000
# 2 -0.009347 0.026590 -0.001050 0.000000 -0.002346 0.000000
# 3 -0.000783 -0.001050 0.009361 0.000000 0.001652 0.000000
# 4 0.000000 0.000000 0.000000 0.028315 0.000000 -0.000750
# 5 0.006221 -0.002346 0.001652 0.000000 0.028059 0.000000
# 6 0.000000 0.000000 0.000000 -0.000750 0.000000 0.019919
#
#
# Mechanical properties :
#
#
# Convention : Reuss Voigt Hill
#
# Bulk Modulus (GPa) = 34.22369 39.59760 36.91065
# Shear Modulus (GPa) = 31.25533 38.16737 34.71135
#
# Velocity S-wave (km/s) = 3.48209 3.84791 3.66956
# Velocity P-wave (km/s) = 5.42615 5.92478 5.68094
#
# Compressibility (1/GPa) = 0.02921952
#
# Stress axis : x y z
#
# Youngs Moduli (GPa) = 63.98123 37.60882 106.82996
#
# Poissons Ratio (x) = 0.35154 0.08363
# Poissons Ratio (y) = 0.59806 0.11216
# Poissons Ratio (z) = 0.05009 0.03949
#
# Static dielectric constant tensor:
#      x y z
#    x 2.015170 0.000000 -0.052530 
#    y 0.000000 2.082190 0.000000 
#    z -0.052530 0.000000 2.229960 
# 
# From -- ./inp_files/2548.got.cif
#   From: 2010.05.17/outbox.cif.g08.bks.cpg/sg4_2_cif.got.tgz:2548.got - 2010.06.03 18:43:04.
