data_PCOD9117482
_publ_section_title
;
Structure prediction by ZEFSAII (Michael W. Deem and Ramdas Pophale) SiO2 
 PCOD9117482
Probable space group: P 21
;
_chemical_formula_sum "Si O2"
_cell_formula_units_Z 16
_cell_length_a 8.231448
_cell_length_b 8.299016
_cell_length_c 16.472290
_cell_angle_alpha 90.000000
_cell_angle_beta 143.764775
_cell_angle_gamma 90.000000
_cell_volume 665.149097
_symmetry_space_group_name_H-M "P 21"
_symmetry_group_IT_number 4
_symmetry_cell_setting 'monoclinic'
loop_
_space_group_symop_operation_xyz
x,y,z
-x,1/2+y,-z
loop_
_atom_site_type_symbol
_atom_site_label
_atom_site_fract_x
_atom_site_fract_y
_atom_site_fract_z
Si Si1 0.919910 0.009680 0.144807
Si Si2 0.793129 0.974075 0.391653
Si Si3 0.775475 0.318259 0.872877
Si Si4 0.759072 0.956921 0.644990
Si Si5 0.082973 0.788512 0.642371
Si Si6 0.061100 0.013659 0.921870
Si Si7 0.488939 0.155595 0.414206
Si Si8 0.510415 0.249516 0.059734
O O1 0.722719 0.161653 0.084976
O O2 0.199687 0.058535 0.304160
O O3 0.056448 0.947865 0.115224
O O4 0.710248 0.860691 0.075555
O O5 0.901636 0.098484 0.368502
O O6 0.645645 0.085293 0.400154
O O7 0.547943 0.858650 0.261416
O O8 0.026984 0.878299 0.535108
O O9 0.836436 0.139823 0.865145
O O10 0.907986 0.352892 0.013784
O O11 0.555922 0.845036 0.614023
O O12 0.832815 0.843884 0.598540
O O13 0.004698 0.987755 0.804935
O O14 0.653938 0.118611 0.562631
O O15 0.337612 0.837131 0.803238
O O16 0.343339 0.110769 0.039379
#
# Coordination Sequence:
#
# PCOD9117482 Si02
#       8
#     2   2   2   2   2   2   2   2
#     4  10  23  41  67  98 137 179 226 286 340 406
#     4  10  24  47  67  94 139 176 232 283 339 409
#     4  10  24  45  68 102 136 182 231 282 341 408
#     4  11  25  43  71 101 136 181 230 282 341 405
#     4  11  23  46  67 100 137 181 225 283 343 407
#     4  11  25  42  72 101 137 181 227 287 344 406
#     4  10  24  43  68  99 134 178 234 281 335 406
#     4  11  22  41  66 101 140 176 227 282 351 407
#
# _framework density 24.054758
#
# number of rings (size 3 to 8) (size 9 to 14) (size 15 to 20)
#    0.000    1.500    2.500    0.750   10.500    1.000 
#    4.500    0.000    0.000    0.000    0.000    0.000 
#    0.000    0.000    0.000    0.000    0.000    0.000 
#
# Total GULP energy -89301.863590 kJ/mol
# GULP energy per Si atom -5581.366474 kJ/mol
# Density = 2.400001 g / cm^3
# Si number density = 24.054758 Si / 1000 Ang^3
#
#
#
# Elastic Constant Matrix: (Units=GPa)
#
#
# Indices 1 2 3 4 5 6 
#
# 1 51.6430 17.1762 23.4255 0.0000 1.2900 0.0000
# 2 17.1762 60.2017 10.1762 0.0000 3.1994 0.0000
# 3 23.4255 10.1762 47.8094 0.0000 -15.5343 0.0000
# 4 0.0000 0.0000 0.0000 36.7735 0.0000 -2.6856
# 5 1.2900 3.1994 -15.5343 0.0000 28.4581 0.0000
# 6 0.0000 0.0000 0.0000 -2.6856 0.0000 42.1588
#
#
#
# Elastic Compliance Matrix: (Units=1/GPa)
#
#
# Indices 1 2 3 4 5 6 
#
# 1 0.028489 -0.004923 -0.015986 0.000000 -0.009464 0.000000
# 2 -0.004923 0.018636 -0.002629 0.000000 -0.003307 0.000000
# 3 -0.015986 -0.002629 0.036031 0.000000 0.020688 0.000000
# 4 0.000000 0.000000 0.000000 0.027321 0.000000 0.001740
# 5 -0.009464 -0.003307 0.020688 0.000000 0.047233 0.000000
# 6 0.000000 0.000000 0.000000 0.001740 0.000000 0.023831
#
#
# Mechanical properties :
#
#
# Convention : Reuss Voigt Hill
#
# Bulk Modulus (GPa) = 27.71689 29.02334 28.37012
# Shear Modulus (GPa) = 20.77774 28.73649 24.75712
#
# Velocity S-wave (km/s) = 2.94218 3.46009 3.21159
# Velocity P-wave (km/s) = 4.80514 5.29667 5.05688
#
# Compressibility (1/GPa) = 0.03607908
#
# Stress axis : x y z
#
# Youngs Moduli (GPa) = 35.10148 53.66090 27.75401
#
# Poissons Ratio (x) = 0.26417 0.44368
# Poissons Ratio (y) = 0.17280 0.07296
# Poissons Ratio (z) = 0.56114 0.14107
#
# Static dielectric constant tensor:
#      x y z
#    x 1.955560 0.000000 0.011340 
#    y 0.000000 1.921190 0.000000 
#    z 0.011340 0.000000 1.907080 
# 
# From -- ./inp_files/14947.got.cif
#   From: 2010.05.17/outbox.cif.g08.bks.cpg/sg4_8_cif.got.tgz:14947.got - 2010.06.03 18:43:04.
