data_PCOD9117792
_publ_section_title
;
Structure prediction by ZEFSAII (Michael W. Deem and Ramdas Pophale) SiO2 
 PCOD9117792
Probable space group: P 21
;
_chemical_formula_sum "Si O2"
_cell_formula_units_Z 14
_cell_length_a 5.420362
_cell_length_b 8.901739
_cell_length_c 14.736145
_cell_angle_alpha 90.000000
_cell_angle_beta 48.732052
_cell_angle_gamma 90.000000
_cell_volume 534.432680
_symmetry_space_group_name_H-M "P 21"
_symmetry_group_IT_number 4
_symmetry_cell_setting 'monoclinic'
loop_
_space_group_symop_operation_xyz
x,y,z
-x,1/2+y,-z
loop_
_atom_site_type_symbol
_atom_site_label
_atom_site_fract_x
_atom_site_fract_y
_atom_site_fract_z
Si Si1 0.657136 0.920580 0.165490
Si Si2 0.292642 0.833690 0.764451
Si Si3 0.047536 0.121162 0.588563
Si Si4 0.855556 0.592163 0.632791
Si Si5 0.452332 0.406459 0.497892
Si Si6 0.422174 0.096877 0.862953
Si Si7 0.270651 0.093188 0.097743
O O1 0.754672 0.753709 0.114109
O O2 0.370625 0.941169 0.310211
O O3 0.482725 0.011874 0.124294
O O4 0.977434 0.990055 0.131532
O O5 0.580157 0.716304 0.724477
O O6 0.447670 0.904297 0.634429
O O7 0.946298 0.745508 0.828695
O O8 0.253630 0.954082 0.855188
O O9 0.992553 0.151501 0.497165
O O10 0.304643 0.246637 0.557615
O O11 0.757903 0.113550 0.727886
O O12 0.207509 0.957313 0.544559
O O13 0.183761 0.528091 0.600064
O O14 0.485835 0.101756 0.954557
#
# Coordination Sequence:
#
# PCOD9117792 Si02
#       7
#     2   2   2   2   2   2   2
#     4  11  27  49  77 106 155 203 258 317 390 450
#     4  10  25  45  74 110 144 206 247 318 381 457
#     4  11  26  40  69 108 141 195 244 313 383 459
#     4  10  23  46  65  99 152 184 241 307 389 446
#     4  11  24  41  70 105 146 188 243 311 384 462
#     4  12  25  47  75 114 147 201 268 316 376 467
#     4  11  28  52  76 108 157 209 255 322 385 455
#
# _framework density 26.196003000000001
#
# number of rings (size 3 to 8) (size 9 to 14) (size 15 to 20)
#    0.000    1.143    2.857    0.857    8.000    9.143 
#    0.000    0.000    0.000    0.000    0.000    0.000 
#    0.000    0.000    0.000    0.000    0.000    0.000 
#
# Total GULP energy -78157.298636 kJ/mol
# GULP energy per Si atom -5582.664188 kJ/mol
# Density = 2.613638 g / cm^3
# Si number density = 26.196003 Si / 1000 Ang^3
#
#
#
# Elastic Constant Matrix: (Units=GPa)
#
#
# Indices 1 2 3 4 5 6 
#
# 1 74.8019 41.2167 28.9097 0.0000 8.9289 0.0000
# 2 41.2167 106.9710 29.7900 0.0000 8.0899 0.0000
# 3 28.9097 29.7900 122.8262 0.0000 24.5238 0.0000
# 4 0.0000 0.0000 0.0000 27.5385 0.0000 -1.7828
# 5 8.9289 8.0899 24.5238 0.0000 28.7301 0.0000
# 6 0.0000 0.0000 0.0000 -1.7828 0.0000 28.3557
#
#
#
# Elastic Compliance Matrix: (Units=1/GPa)
#
#
# Indices 1 2 3 4 5 6 
#
# 1 0.017850 -0.006082 -0.002363 0.000000 -0.001818 0.000000
# 2 -0.006082 0.012117 -0.001451 0.000000 -0.000283 0.000000
# 3 -0.002363 -0.001451 0.010634 0.000000 -0.007934 0.000000
# 4 0.000000 0.000000 0.000000 0.036461 0.000000 0.002292
# 5 -0.001818 -0.000283 -0.007934 0.000000 0.042224 0.000000
# 6 0.000000 0.000000 0.000000 0.002292 0.000000 0.035410
#
#
# Mechanical properties :
#
#
# Convention : Reuss Voigt Hill
#
# Bulk Modulus (GPa) = 48.05656 56.04800 52.05228
# Shear Modulus (GPa) = 27.55946 30.57038 29.06492
#
# Velocity S-wave (km/s) = 3.24705 3.41982 3.33456
# Velocity P-wave (km/s) = 5.69584 6.08569 5.89399
#
# Compressibility (1/GPa) = 0.02080881
#
# Stress axis : x y z
#
# Youngs Moduli (GPa) = 56.02112 82.52656 94.03946
#
# Poissons Ratio (x) = 0.50195 0.22225
# Poissons Ratio (y) = 0.34074 0.13643
# Poissons Ratio (z) = 0.13240 0.11972
#
# Static dielectric constant tensor:
#      x y z
#    x 2.112630 0.000000 0.046830 
#    y 0.000000 2.164590 0.000000 
#    z 0.046830 0.000000 2.192400 
# 
# From -- ./inp_files/10296.got.cif
#   From: 2010.05.17/outbox.cif.g08.bks.cpg/sg4_6_cif.got.tgz:10296.got - 2010.06.03 18:43:04.
