data_PCOD9117949
_publ_section_title
;
Structure prediction by ZEFSAII (Michael W. Deem and Ramdas Pophale) SiO2 
 PCOD9117949
Probable space group: P 21
;
_chemical_formula_sum "Si O2"
_cell_formula_units_Z 16
_cell_length_a 9.445812
_cell_length_b 10.152523
_cell_length_c 8.398783
_cell_angle_alpha 90.000000
_cell_angle_beta 123.758958
_cell_angle_gamma 90.000000
_cell_volume 669.623435
_symmetry_space_group_name_H-M "P 21"
_symmetry_group_IT_number 4
_symmetry_cell_setting 'monoclinic'
loop_
_space_group_symop_operation_xyz
x,y,z
-x,1/2+y,-z
loop_
_atom_site_type_symbol
_atom_site_label
_atom_site_fract_x
_atom_site_fract_y
_atom_site_fract_z
Si Si1 0.138640 0.363460 0.018158
Si Si2 0.222548 0.842163 0.062746
Si Si3 0.696210 0.620186 0.962860
Si Si4 0.222764 0.421747 0.706630
Si Si5 0.278166 0.146498 0.651619
Si Si6 0.942369 0.287400 0.377135
Si Si7 0.387377 0.581146 0.314267
Si Si8 0.355618 0.675035 0.653574
O O1 0.161725 0.204471 0.039926
O O2 0.271000 0.454497 0.199281
O O3 0.947563 0.387281 0.952258
O O4 0.167568 0.393940 0.850899
O O5 0.158751 0.803151 0.847106
O O6 0.305967 0.712673 0.187207
O O7 0.332172 0.975731 0.124846
O O8 0.536444 0.718442 0.834210
O O9 0.731199 0.598523 0.171693
O O10 0.335291 0.299769 0.713796
O O11 0.307752 0.560224 0.746600
O O12 0.059106 0.412787 0.489358
O O13 0.419556 0.073026 0.635334
O O14 0.086721 0.171577 0.464881
O O15 0.805194 0.270013 0.432517
O O16 0.382607 0.612610 0.498291
#
# Coordination Sequence:
#
# PCOD9117949 Si02
#       8
#     2   2   2   2   2   2   2   2
#     4  11  24  44  71 106 143 185 242 298 356 432
#     4  12  25  45  74 107 144 193 235 308 359 434
#     4  11  26  45  72 101 145 188 241 297 368 424
#     4   9  21  42  67  96 138 184 235 288 354 428
#     4   9  23  44  68 101 134 187 232 302 348 428
#     4  10  24  41  74  97 139 186 240 285 366 425
#     4  12  26  43  71 106 148 186 249 294 361 421
#     4  12  25  44  69 104 143 193 238 300 354 432
#
# _framework density 23.894027000000001
#
# number of rings (size 3 to 8) (size 9 to 14) (size 15 to 20)
#    0.750    0.500    0.000    5.250    5.250    4.000 
#    0.000    0.000    0.000    0.000    0.000    0.000 
#    0.000    0.000    0.000    0.000    0.000    0.000 
#
# Total GULP energy -89362.916072 kJ/mol
# GULP energy per Si atom -5585.182254 kJ/mol
# Density = 2.383964 g / cm^3
# Si number density = 23.894027 Si / 1000 Ang^3
#
#
#
# Elastic Constant Matrix: (Units=GPa)
#
#
# Indices 1 2 3 4 5 6 
#
# 1 113.1096 16.2774 22.7722 0.0000 9.5175 0.0000
# 2 16.2774 75.4612 5.4408 0.0000 -0.7804 0.0000
# 3 22.7722 5.4408 90.7780 0.0000 -3.4883 0.0000
# 4 0.0000 0.0000 0.0000 28.8697 0.0000 4.2245
# 5 9.5175 -0.7804 -3.4883 0.0000 30.6520 0.0000
# 6 0.0000 0.0000 0.0000 4.2245 0.0000 22.2987
#
#
#
# Elastic Compliance Matrix: (Units=1/GPa)
#
#
# Indices 1 2 3 4 5 6 
#
# 1 0.009919 -0.001995 -0.002500 0.000000 -0.003415 0.000000
# 2 -0.001995 0.013712 -0.000286 0.000000 0.000936 0.000000
# 3 -0.002500 -0.000286 0.011741 0.000000 0.002105 0.000000
# 4 0.000000 0.000000 0.000000 0.035626 0.000000 -0.006749
# 5 -0.003415 0.000936 0.002105 0.000000 0.033948 0.000000
# 6 0.000000 0.000000 0.000000 -0.006749 0.000000 0.046124
#
#
# Mechanical properties :
#
#
# Convention : Reuss Voigt Hill
#
# Bulk Modulus (GPa) = 38.74153 40.92551 39.83352
# Shear Modulus (GPa) = 29.54483 32.02130 30.78306
#
# Velocity S-wave (km/s) = 3.52020 3.66476 3.59321
# Velocity P-wave (km/s) = 5.72464 5.92220 5.82425
#
# Compressibility (1/GPa) = 0.02581210
#
# Stress axis : x y z
#
# Youngs Moduli (GPa) = 100.81999 72.92691 85.17164
#
# Poissons Ratio (x) = 0.14546 0.21292
# Poissons Ratio (y) = 0.20109 0.02432
# Poissons Ratio (z) = 0.25203 0.02082
#
# Static dielectric constant tensor:
#      x y z
#    x 1.948920 0.000000 0.044840 
#    y 0.000000 1.927870 0.000000 
#    z 0.044840 0.000000 1.873250 
# 
# From -- ./inp_files/6206.got.cif
#   From: 2010.05.17/outbox.cif.g08.bks.cpg/sg4_4_cif.got.tgz:6206.got - 2010.06.03 18:43:04.
