data_PCOD9117713
_publ_section_title
;
Structure prediction by ZEFSAII (Michael W. Deem and Ramdas Pophale) SiO2 
 PCOD9117713
Probable space group: P 21
;
_chemical_formula_sum "Si O2"
_cell_formula_units_Z 16
_cell_length_a 21.479096
_cell_length_b 5.918913
_cell_length_c 13.391491
_cell_angle_alpha 90.000000
_cell_angle_beta 158.133288
_cell_angle_gamma 90.000000
_cell_volume 634.093507
_symmetry_space_group_name_H-M "P 21"
_symmetry_group_IT_number 4
_symmetry_cell_setting 'monoclinic'
loop_
_space_group_symop_operation_xyz
x,y,z
-x,1/2+y,-z
loop_
_atom_site_type_symbol
_atom_site_label
_atom_site_fract_x
_atom_site_fract_y
_atom_site_fract_z
Si Si1 0.303124 0.934620 0.035968
Si Si2 0.307690 0.770286 0.738780
Si Si3 0.446243 0.548899 0.135211
Si Si4 0.204698 0.158983 0.701562
Si Si5 0.557963 0.075322 0.543630
Si Si6 0.083302 0.628863 0.000557
Si Si7 0.015668 0.967572 0.741497
Si Si8 0.227957 0.824587 0.410010
O O1 0.363122 0.680334 0.103978
O O2 0.477673 0.064338 0.312497
O O3 0.197166 0.024522 0.971789
O O4 0.192448 0.986668 0.773998
O O5 0.127754 0.650277 0.489090
O O6 0.287030 0.034255 0.730247
O O7 0.332710 0.723669 0.659337
O O8 0.433871 0.689387 0.012283
O O9 0.638119 0.492082 0.441189
O O10 0.325647 0.344347 0.927641
O O11 0.036434 0.262460 0.409601
O O12 0.506592 0.329400 0.507430
O O13 0.758620 0.061665 0.832790
O O14 0.154247 0.662882 0.216848
O O15 0.020751 0.866014 0.859714
O O16 0.929973 0.456739 0.778033
#
# Coordination Sequence:
#
# PCOD9117713 Si02
#       8
#     2   2   2   2   2   2   2   2
#     4  11  26  43  78 105 152 199 254 327 393 479
#     4  10  24  45  70 107 146 199 249 323 391 472
#     4  10  26  46  73 109 146 197 259 319 403 460
#     4  10  23  44  70 110 146 194 252 319 404 463
#     4  12  30  53  83 114 162 211 270 335 406 488
#     4  12  28  47  76 114 150 215 261 330 402 473
#     4  11  24  45  71 111 149 192 253 324 400 472
#     4  12  27  47  75 104 159 201 266 319 385 491
#
# _framework density 25.232869999999998
#
# number of rings (size 3 to 8) (size 9 to 14) (size 15 to 20)
#    0.000    1.000    2.500    1.500   14.000    0.000 
#    2.250    0.000    0.000    0.000    0.000    0.000 
#    0.000    0.000    0.000    0.000    0.000    0.000 
#
# Total GULP energy -89348.741045 kJ/mol
# GULP energy per Si atom -5584.296315 kJ/mol
# Density = 2.517544 g / cm^3
# Si number density = 25.232870 Si / 1000 Ang^3
#
#
#
# Elastic Constant Matrix: (Units=GPa)
#
#
# Indices 1 2 3 4 5 6 
#
# 1 78.9706 25.9214 9.9207 0.0000 1.4498 0.0000
# 2 25.9214 73.7482 21.7766 0.0000 6.3429 0.0000
# 3 9.9207 21.7766 87.7903 0.0000 5.1271 0.0000
# 4 0.0000 0.0000 0.0000 46.1590 0.0000 -11.8078
# 5 1.4498 6.3429 5.1271 0.0000 57.5748 0.0000
# 6 0.0000 0.0000 0.0000 -11.8078 0.0000 34.6896
#
#
#
# Elastic Compliance Matrix: (Units=1/GPa)
#
#
# Indices 1 2 3 4 5 6 
#
# 1 0.014330 -0.004935 -0.000408 0.000000 0.000219 0.000000
# 2 -0.004935 0.016428 -0.003437 0.000000 -0.001379 0.000000
# 3 -0.000408 -0.003437 0.012331 0.000000 -0.000709 0.000000
# 4 0.000000 0.000000 0.000000 0.023731 0.000000 0.008077
# 5 0.000219 -0.001379 -0.000709 0.000000 0.017578 0.000000
# 6 0.000000 0.000000 0.000000 0.008077 0.000000 0.031577
#
#
# Mechanical properties :
#
#
# Convention : Reuss Voigt Hill
#
# Bulk Modulus (GPa) = 39.17127 39.52739 39.34933
# Shear Modulus (GPa) = 35.20051 39.87735 37.53893
#
# Velocity S-wave (km/s) = 3.73906 3.97970 3.86126
# Velocity P-wave (km/s) = 5.84793 6.06765 5.95881
#
# Compressibility (1/GPa) = 0.02552891
#
# Stress axis : x y z
#
# Youngs Moduli (GPa) = 69.78317 60.87260 81.09792
#
# Poissons Ratio (x) = 0.30042 0.03309
# Poissons Ratio (y) = 0.34439 0.27871
# Poissons Ratio (z) = 0.02847 0.20920
#
# Static dielectric constant tensor:
#      x y z
#    x 2.081050 0.000000 -0.003690 
#    y 0.000000 2.068820 0.000000 
#    z -0.003690 0.000000 1.939020 
# 
# From -- ./inp_files/14530.got.cif
#   From: 2010.05.17/outbox.cif.g08.bks.cpg/sg4_8_cif.got.tgz:14530.got - 2010.06.03 18:43:04.
