data_PCOD9117804
_publ_section_title
;
Structure prediction by ZEFSAII (Michael W. Deem and Ramdas Pophale) SiO2 
 PCOD9117804
Probable space group: P 21
;
_chemical_formula_sum "Si O2"
_cell_formula_units_Z 14
_cell_length_a 5.378099
_cell_length_b 9.513554
_cell_length_c 13.993602
_cell_angle_alpha 90.000000
_cell_angle_beta 126.404379
_cell_angle_gamma 90.000000
_cell_volume 576.255661
_symmetry_space_group_name_H-M "P 21"
_symmetry_group_IT_number 4
_symmetry_cell_setting 'monoclinic'
loop_
_space_group_symop_operation_xyz
x,y,z
-x,1/2+y,-z
loop_
_atom_site_type_symbol
_atom_site_label
_atom_site_fract_x
_atom_site_fract_y
_atom_site_fract_z
Si Si1 0.585512 0.853430 0.033977
Si Si2 0.429663 0.045389 0.354350
Si Si3 0.487819 0.254447 0.539850
Si Si4 0.000149 0.618505 0.216898
Si Si5 0.428706 0.449049 0.180052
Si Si6 0.815329 0.223661 0.350888
Si Si7 0.829206 0.137330 0.137897
O O1 0.839772 0.760641 0.144606
O O2 0.582711 0.010375 0.075653
O O3 0.278587 0.755783 0.960975
O O4 0.669589 0.876020 0.941551
O O5 0.484529 0.179254 0.436564
O O6 0.737031 0.063716 0.362509
O O7 0.162143 0.063638 0.214123
O O8 0.390882 0.910566 0.411163
O O9 0.700370 0.154890 0.652124
O O10 0.121759 0.265314 0.476726
O O11 0.146319 0.534693 0.161105
O O12 0.733717 0.538381 0.216690
O O13 0.547036 0.340745 0.287916
O O14 0.855051 0.212025 0.245826
#
# Coordination Sequence:
#
# PCOD9117804 Si02
#       7
#     2   2   2   2   2   2   2
#     4  11  23  48  73 107 148 192 243 308 360 441
#     4  11  25  46  70 102 145 188 249 299 374 433
#     4  11  26  44  72 103 146 192 243 308 363 442
#     4  12  27  48  75 111 147 195 249 297 372 438
#     4  11  28  47  75 108 151 195 244 303 368 435
#     4  10  26  43  73 104 147 193 239 308 365 439
#     4  10  23  46  68 107 140 189 241 299 368 430
#
# _framework density 24.294771999999998
#
# number of rings (size 3 to 8) (size 9 to 14) (size 15 to 20)
#    0.000    1.143    2.857    0.857   12.000    5.714 
#    0.000    0.000    0.000    0.000    0.000    0.000 
#    0.000    0.000    0.000    0.000    0.000    0.000 
#
# Total GULP energy -78084.774538 kJ/mol
# GULP energy per Si atom -5577.483896 kJ/mol
# Density = 2.423948 g / cm^3
# Si number density = 24.294772 Si / 1000 Ang^3
#
#
#
# Elastic Constant Matrix: (Units=GPa)
#
#
# Indices 1 2 3 4 5 6 
#
# 1 31.8164 20.7195 1.7790 0.0000 10.8577 0.0000
# 2 20.7195 107.2826 38.0965 0.0000 8.7225 0.0000
# 3 1.7790 38.0965 140.6602 0.0000 22.0004 0.0000
# 4 0.0000 0.0000 0.0000 37.7083 0.0000 2.8625
# 5 10.8577 8.7225 22.0004 0.0000 23.6026 0.0000
# 6 0.0000 0.0000 0.0000 2.8625 0.0000 29.6376
#
#
#
# Elastic Compliance Matrix: (Units=1/GPa)
#
#
# Indices 1 2 3 4 5 6 
#
# 1 0.044271 -0.008611 0.005221 0.000000 -0.022050 0.000000
# 2 -0.008611 0.012029 -0.003598 0.000000 0.002870 0.000000
# 3 0.005221 -0.003598 0.009582 0.000000 -0.010004 0.000000
# 4 0.000000 0.000000 0.000000 0.026715 0.000000 -0.002580
# 5 -0.022050 0.002870 -0.010004 0.000000 0.060776 0.000000
# 6 0.000000 0.000000 0.000000 -0.002580 0.000000 0.033990
#
#
# Mechanical properties :
#
#
# Convention : Reuss Voigt Hill
#
# Bulk Modulus (GPa) = 19.26556 44.54991 31.90774
# Shear Modulus (GPa) = 22.86850 32.80065 27.83457
#
# Velocity S-wave (km/s) = 3.07138 3.67837 3.38849
# Velocity P-wave (km/s) = 4.53045 6.03470 5.33585
#
# Compressibility (1/GPa) = 0.05190608
#
# Stress axis : x y z
#
# Youngs Moduli (GPa) = 22.58818 83.13560 104.35734
#
# Poissons Ratio (x) = 0.71591 -0.54487
# Poissons Ratio (y) = 0.19451 0.37545
# Poissons Ratio (z) = -0.11794 0.29910
#
# Static dielectric constant tensor:
#      x y z
#    x 2.211670 0.000000 0.023490 
#    y 0.000000 2.037940 0.000000 
#    z 0.023490 0.000000 1.907760 
# 
# From -- ./inp_files/2387.got.cif
#   From: 2010.05.17/outbox.cif.g08.bks.cpg/sg4_2_cif.got.tgz:2387.got - 2010.06.03 18:43:04.
