data_PCOD9117524
_publ_section_title
;
Structure prediction by ZEFSAII (Michael W. Deem and Ramdas Pophale) SiO2 
 PCOD9117524
Probable space group: P 21
;
_chemical_formula_sum "Si O2"
_cell_formula_units_Z 16
_cell_length_a 9.484432
_cell_length_b 7.516751
_cell_length_c 9.484433
_cell_angle_alpha 90.000000
_cell_angle_beta 90.000094
_cell_angle_gamma 90.000000
_cell_volume 676.165276
_symmetry_space_group_name_H-M "P 21"
_symmetry_group_IT_number 4
_symmetry_cell_setting 'monoclinic'
loop_
_space_group_symop_operation_xyz
x,y,z
-x,1/2+y,-z
loop_
_atom_site_type_symbol
_atom_site_label
_atom_site_fract_x
_atom_site_fract_y
_atom_site_fract_z
Si Si1 0.043438 0.912790 0.166744
Si Si2 0.833255 0.162789 0.043439
Si Si3 0.672899 0.812062 0.556242
Si Si4 0.839578 0.355232 0.329861
Si Si5 0.524850 0.251377 0.952568
Si Si6 0.443760 0.062064 0.672900
Si Si7 0.329860 0.105232 0.160421
Si Si8 0.952567 0.001376 0.475150
O O1 0.024818 0.923722 0.333918
O O2 0.168952 0.052082 0.127806
O O3 0.095675 0.728761 0.100966
O O4 0.899034 0.978759 0.095674
O O5 0.872192 0.302080 0.168953
O O6 0.666081 0.173721 0.024819
O O7 0.584329 0.980906 0.607601
O O8 0.607597 0.730907 0.415673
O O9 0.663070 0.663667 0.677975
O O10 0.831760 0.871769 0.531900
O O11 0.677975 0.413670 0.336932
O O12 0.933237 0.509508 0.400104
O O13 0.878108 0.181982 0.422723
O O14 0.577278 0.431982 0.878110
O O15 0.468098 0.121772 0.831761
O O16 0.400104 0.259510 0.066765
#
# Coordination Sequence:
#
# PCOD9117524 Si02
#       8
#     2   2   2   2   2   2   2   2
#     4  10  23  42  64  95 132 175 226 283 345 417
#     4  10  23  42  64  95 132 175 226 283 345 417
#     4  12  25  43  67  99 137 184 236 294 357 424
#     4  11  23  45  69 100 137 178 234 295 358 426
#     4  11  25  44  70 100 138 183 234 296 356 421
#     4  12  25  43  67  99 137 184 236 294 357 424
#     4  11  23  45  69 100 137 178 234 295 358 426
#     4  11  25  44  70 100 138 183 234 296 356 421
#
# _framework density 23.662851
#
# number of rings (size 3 to 8) (size 9 to 14) (size 15 to 20)
#    0.000    1.000    0.000    7.500    0.000   12.000 
#    0.000    0.000    0.000    0.000    0.000    0.000 
#    0.000    0.000    0.000    0.000    0.000    0.000 
#
# Total GULP energy -89628.249040 kJ/mol
# GULP energy per Si atom -5601.765565 kJ/mol
# Density = 2.360899 g / cm^3
# Si number density = 23.662851 Si / 1000 Ang^3
#
#
#
# Elastic Constant Matrix: (Units=GPa)
#
#
# Indices 1 2 3 4 5 6 
#
# 1 108.6507 19.5331 47.6492 0.0000 -8.9248 0.0000
# 2 19.5331 45.4340 19.5324 0.0000 -0.0004 0.0000
# 3 47.6492 19.5324 108.6502 0.0000 8.9241 0.0000
# 4 0.0000 0.0000 0.0000 39.7639 0.0000 0.0001
# 5 -8.9248 -0.0004 8.9241 0.0000 43.4660 0.0000
# 6 0.0000 0.0000 0.0000 0.0001 0.0000 39.7643
#
#
#
# Elastic Compliance Matrix: (Units=1/GPa)
#
#
# Indices 1 2 3 4 5 6 
#
# 1 0.012305 -0.003082 -0.005136 0.000000 0.003581 0.000000
# 2 -0.003082 0.024660 -0.003082 0.000000 0.000000 0.000000
# 3 -0.005136 -0.003082 0.012305 0.000000 -0.003581 0.000000
# 4 0.000000 0.000000 0.000000 0.025148 0.000000 0.000000
# 5 0.003581 0.000000 -0.003581 0.000000 0.024477 0.000000
# 6 0.000000 0.000000 0.000000 0.000000 0.000000 0.025148
#
#
# Mechanical properties :
#
#
# Convention : Reuss Voigt Hill
#
# Bulk Modulus (GPa) = 37.49638 48.46270 42.97954
# Shear Modulus (GPa) = 32.14778 36.33350 34.24064
#
# Velocity S-wave (km/s) = 3.68989 3.92275 3.80810
# Velocity P-wave (km/s) = 5.83388 6.40643 6.12684
#
# Compressibility (1/GPa) = 0.02666924
#
# Stress axis : x y z
#
# Youngs Moduli (GPa) = 81.27063 40.55199 81.27088
#
# Poissons Ratio (x) = 0.12497 0.41743
# Poissons Ratio (y) = 0.25046 0.25044
# Poissons Ratio (z) = 0.41743 0.12497
#
# Static dielectric constant tensor:
#      x y z
#    x 1.845100 0.000000 0.000000 
#    y 0.000000 1.950460 0.000000 
#    z 0.000000 0.000000 1.845100 
# 
# From -- ./inp_files/5748.got.cif
#   From: 2010.05.17/outbox.cif.g08.bks.cpg/sg4_3_cif.got.tgz:5748.got - 2010.06.03 18:43:04.
