data_PCOD9117394
_publ_section_title
;
Structure prediction by ZEFSAII (Michael W. Deem and Ramdas Pophale) SiO2 
 PCOD9117394
Probable space group: P 21
;
_chemical_formula_sum "Si O2"
_cell_formula_units_Z 14
_cell_length_a 4.905977
_cell_length_b 5.432186
_cell_length_c 19.400391
_cell_angle_alpha 90.000000
_cell_angle_beta 94.059712
_cell_angle_gamma 90.000000
_cell_volume 515.726593
_symmetry_space_group_name_H-M "P 21"
_symmetry_group_IT_number 4
_symmetry_cell_setting 'monoclinic'
loop_
_space_group_symop_operation_xyz
x,y,z
-x,1/2+y,-z
loop_
_atom_site_type_symbol
_atom_site_label
_atom_site_fract_x
_atom_site_fract_y
_atom_site_fract_z
Si Si1 0.353183 0.091530 0.365876
Si Si2 0.846416 0.616464 0.489258
Si Si3 0.478038 0.764197 0.249592
Si Si4 0.671497 0.907014 0.008296
Si Si5 0.833836 0.417383 0.343387
Si Si6 0.738143 0.928377 0.862215
Si Si7 0.211349 0.609329 0.845498
O O1 0.330378 0.042448 0.447048
O O2 0.659302 0.176000 0.357354
O O3 0.142069 0.315169 0.344609
O O4 0.310154 0.869621 0.311715
O O5 0.767249 0.590063 0.408355
O O6 0.069917 0.397167 0.496749
O O7 0.686381 0.551622 0.277992
O O8 0.281568 0.664527 0.185853
O O9 0.665805 0.964878 0.216010
O O10 0.849839 0.945797 0.942272
O O11 0.540771 0.636104 0.001849
O O12 0.802811 0.945906 0.085421
O O13 0.079081 0.228936 0.172944
O O14 0.431957 0.824425 0.864405
#
# Coordination Sequence:
#
# PCOD9117394 Si02
#       7
#     2   2   2   2   2   2   2
#     4  11  29  49  81 117 161 211 273 331 410 487
#     4  10  26  52  82 118 158 210 274 340 398 484
#     4  12  28  52  82 118 166 216 262 350 408 500
#     4  10  22  50  84 118 162 214 276 342 404 490
#     4  11  29  49  81 117 161 211 273 331 410 487
#     4  11  27  50  79 117 161 212 272 333 410 488
#     4  11  27  50  79 117 161 212 272 333 410 488
#
# _framework density 27.146163000000001
#
# number of rings (size 3 to 8) (size 9 to 14) (size 15 to 20)
#    0.000    1.143    1.429    0.857   10.000   13.714 
#    0.000    0.000    0.000    0.000    0.000    0.000 
#    0.000    0.000    0.000    0.000    0.000    0.000 
#
# Total GULP energy -78491.770634 kJ/mol
# GULP energy per Si atom -5606.555045 kJ/mol
# Density = 2.708438 g / cm^3
# Si number density = 27.146163 Si / 1000 Ang^3
#
#
#
# Elastic Constant Matrix: (Units=GPa)
#
#
# Indices 1 2 3 4 5 6 
#
# 1 74.5858 42.0548 28.7543 0.0000 -1.8744 0.0000
# 2 42.0548 79.7090 30.1240 0.0000 -12.2837 0.0000
# 3 28.7543 30.1240 164.9630 0.0000 -17.4990 0.0000
# 4 0.0000 0.0000 0.0000 65.4882 0.0000 -2.4239
# 5 -1.8744 -12.2837 -17.4990 0.0000 23.1124 0.0000
# 6 0.0000 0.0000 0.0000 -2.4239 0.0000 38.4205
#
#
#
# Elastic Compliance Matrix: (Units=1/GPa)
#
#
# Indices 1 2 3 4 5 6 
#
# 1 0.020114 -0.010671 -0.002159 0.000000 -0.005675 0.000000
# 2 -0.010671 0.019881 -0.000806 0.000000 0.009090 0.000000
# 3 -0.002159 -0.000806 0.007091 0.000000 0.004765 0.000000
# 4 0.000000 0.000000 0.000000 0.015306 0.000000 0.000966
# 5 -0.005675 0.009090 0.004765 0.000000 0.051246 0.000000
# 6 0.000000 0.000000 0.000000 0.000966 0.000000 0.026089
#
#
# Mechanical properties :
#
#
# Convention : Reuss Voigt Hill
#
# Bulk Modulus (GPa) = 50.47054 57.90267 54.18660
# Shear Modulus (GPa) = 28.80136 39.95921 34.38029
#
# Velocity S-wave (km/s) = 3.26079 3.84083 3.56264
# Velocity P-wave (km/s) = 5.72796 6.40668 6.07680
#
# Compressibility (1/GPa) = 0.01981354
#
# Stress axis : x y z
#
# Youngs Moduli (GPa) = 49.71713 50.29917 141.02223
#
# Poissons Ratio (x) = 0.53672 0.30453
# Poissons Ratio (y) = 0.53051 0.11370
# Poissons Ratio (z) = 0.10736 0.04055
#
# Static dielectric constant tensor:
#      x y z
#    x 2.067950 0.000000 0.026510 
#    y 0.000000 2.134260 0.000000 
#    z 0.026510 0.000000 2.179230 
# 
# From -- ./inp_files/14658.got.cif
#   From: 2010.05.17/outbox.cif.g08.bks.cpg/sg4_8_cif.got.tgz:14658.got - 2010.06.03 18:43:04.
