data_PCOD9117812
_publ_section_title
;
Structure prediction by ZEFSAII (Michael W. Deem and Ramdas Pophale) SiO2 
 PCOD9117812
Probable space group: P 21
;
_chemical_formula_sum "Si O2"
_cell_formula_units_Z 14
_cell_length_a 7.907811
_cell_length_b 4.904251
_cell_length_c 17.311020
_cell_angle_alpha 90.000000
_cell_angle_beta 54.190608
_cell_angle_gamma 90.000000
_cell_volume 544.446617
_symmetry_space_group_name_H-M "P 21"
_symmetry_group_IT_number 4
_symmetry_cell_setting 'monoclinic'
loop_
_space_group_symop_operation_xyz
x,y,z
-x,1/2+y,-z
loop_
_atom_site_type_symbol
_atom_site_label
_atom_site_fract_x
_atom_site_fract_y
_atom_site_fract_z
Si Si1 0.674923 0.574520 0.753177
Si Si2 0.553385 0.160731 0.034481
Si Si3 0.629487 0.520289 0.483220
Si Si4 0.239605 0.379102 0.810741
Si Si5 0.017901 0.396624 0.103169
Si Si6 0.974852 0.670856 0.274031
Si Si7 0.135472 0.299493 0.445015
O O1 0.567031 0.715882 0.854966
O O2 0.477582 0.439809 0.763078
O O3 0.843232 0.355399 0.738945
O O4 0.782895 0.774487 0.663610
O O5 0.577688 0.438227 0.980081
O O6 0.770866 0.005376 0.990541
O O7 0.540140 0.218823 0.510529
O O8 0.690750 0.666414 0.546432
O O9 0.836356 0.529325 0.375744
O O10 0.185850 0.354508 0.734016
O O11 0.069775 0.598467 0.884882
O O12 0.826695 0.594836 0.133470
O O13 0.049610 0.463709 0.186711
O O14 0.062684 0.598018 0.489619
#
# Coordination Sequence:
#
# PCOD9117812 Si02
#       7
#     2   2   2   2   2   2   2
#     4  12  26  49  79 109 149 200 243 316 370 441
#     4  12  25  46  75 113 143 195 255 295 377 456
#     4  12  27  46  76 103 146 199 245 307 377 437
#     4  10  25  45  72 110 145 189 249 294 376 438
#     4  10  23  46  69 105 152 182 246 305 356 444
#     4  10  24  49  74 102 151 190 242 307 364 444
#     4  12  28  49  71 112 148 191 254 304 372 448
#
# _framework density 25.714182999999998
#
# number of rings (size 3 to 8) (size 9 to 14) (size 15 to 20)
#    0.857    0.000    2.857    3.429    4.000    5.714 
#    2.571    0.000    0.000    0.000    0.000    0.000 
#    0.000    0.000    0.000    0.000    0.000    0.000 
#
# Total GULP energy -78480.283494 kJ/mol
# GULP energy per Si atom -5605.734535 kJ/mol
# Density = 2.565566 g / cm^3
# Si number density = 25.714183 Si / 1000 Ang^3
#
#
#
# Elastic Constant Matrix: (Units=GPa)
#
#
# Indices 1 2 3 4 5 6 
#
# 1 156.6633 12.0826 24.7636 0.0000 -16.3757 0.0000
# 2 12.0826 71.0484 3.9000 0.0000 6.2116 0.0000
# 3 24.7636 3.9000 166.7253 0.0000 12.7541 0.0000
# 4 0.0000 0.0000 0.0000 22.4603 0.0000 -18.2585
# 5 -16.3757 6.2116 12.7541 0.0000 38.7849 0.0000
# 6 0.0000 0.0000 0.0000 -18.2585 0.0000 33.7179
#
#
#
# Elastic Compliance Matrix: (Units=1/GPa)
#
#
# Indices 1 2 3 4 5 6 
#
# 1 0.007082 -0.001452 -0.001297 0.000000 0.003649 0.000000
# 2 -0.001452 0.014577 0.000103 0.000000 -0.002981 0.000000
# 3 -0.001297 0.000103 0.006392 0.000000 -0.002666 0.000000
# 4 0.000000 0.000000 0.000000 0.079535 0.000000 0.043069
# 5 0.003649 -0.002981 -0.002666 0.000000 0.028678 0.000000
# 6 0.000000 0.000000 0.000000 0.043069 0.000000 0.052980
#
#
# Mechanical properties :
#
#
# Convention : Reuss Voigt Hill
#
# Bulk Modulus (GPa) = 43.94094 52.88106 48.41100
# Shear Modulus (GPa) = 24.73753 42.57199 33.65476
#
# Velocity S-wave (km/s) = 3.10501 4.07330 3.62166
# Velocity P-wave (km/s) = 5.47541 6.53697 6.02960
#
# Compressibility (1/GPa) = 0.02275782
#
# Stress axis : x y z
#
# Youngs Moduli (GPa) = 141.21201 68.60176 156.44372
#
# Poissons Ratio (x) = 0.09962 0.20291
# Poissons Ratio (y) = 0.20506 -0.01608
# Poissons Ratio (z) = 0.18315 -0.00705
#
# Static dielectric constant tensor:
#      x y z
#    x 2.095250 0.000000 0.049280 
#    y 0.000000 1.949150 0.000000 
#    z 0.049280 0.000000 1.990010 
# 
# From -- ./inp_files/14817.got.cif
#   From: 2010.05.17/outbox.cif.g08.bks.cpg/sg4_8_cif.got.tgz:14817.got - 2010.06.03 18:43:04.
