data_PCOD9117026
_publ_section_title
;
Structure prediction by ZEFSAII (Michael W. Deem and Ramdas Pophale) SiO2 
 PCOD9117026
Probable space group: P 21
;
_chemical_formula_sum "Si O2"
_cell_formula_units_Z 14
_cell_length_a 5.776267
_cell_length_b 10.484548
_cell_length_c 10.521208
_cell_angle_alpha 90.000000
_cell_angle_beta 115.630184
_cell_angle_gamma 90.000000
_cell_volume 574.485116
_symmetry_space_group_name_H-M "P 21"
_symmetry_group_IT_number 4
_symmetry_cell_setting 'monoclinic'
loop_
_space_group_symop_operation_xyz
x,y,z
-x,1/2+y,-z
loop_
_atom_site_type_symbol
_atom_site_label
_atom_site_fract_x
_atom_site_fract_y
_atom_site_fract_z
Si Si1 0.470026 0.301590 0.688260
Si Si2 0.301674 0.545087 0.240854
Si Si3 0.845389 0.989829 0.518342
Si Si4 0.080263 0.361879 0.825048
Si Si5 0.774188 0.602485 0.024118
Si Si6 0.690560 0.395875 0.230598
Si Si7 0.737390 0.109446 0.225852
O O1 0.475840 0.150078 0.704918
O O2 0.367178 0.378035 0.542675
O O3 0.243305 0.339993 0.732949
O O4 0.775505 0.334998 0.768590
O O5 0.197135 0.558604 0.358007
O O6 0.413010 0.409139 0.229012
O O7 0.075468 0.574338 0.089633
O O8 0.118504 0.926057 0.607254
O O9 0.820619 0.081124 0.390774
O O10 0.223731 0.254017 0.942794
O O11 0.116775 0.514179 0.834514
O O12 0.695734 0.501274 0.118391
O O13 0.566230 0.580320 0.865764
O O14 0.768420 0.257400 0.200043
#
# Coordination Sequence:
#
# PCOD9117026 Si02
#       7
#     2   2   2   2   2   2   2
#     4  10  22  42  71  96 140 194 240 290 364 433
#     4  10  23  43  69  96 144 192 245 297 370 429
#     4  10  26  39  67 103 141 185 240 302 362 435
#     4  10  22  45  69 104 139 192 241 299 361 433
#     4  10  22  49  69 103 143 194 245 304 371 445
#     4  11  24  45  71 102 144 191 245 307 368 446
#     4  11  25  45  72 108 143 190 252 305 376 439
#
# _framework density 24.36965
#
# number of rings (size 3 to 8) (size 9 to 14) (size 15 to 20)
#    0.000    1.714    1.429    0.857    8.000    1.143 
#   23.143    0.000    0.000    0.000    0.000    0.000 
#    0.000    0.000    0.000    0.000    0.000    0.000 
#
# Total GULP energy -77985.699836 kJ/mol
# GULP energy per Si atom -5570.407131 kJ/mol
# Density = 2.431418 g / cm^3
# Si number density = 24.369650 Si / 1000 Ang^3
#
#
#
# Elastic Constant Matrix: (Units=GPa)
#
#
# Indices 1 2 3 4 5 6 
#
# 1 62.8985 31.0016 23.2638 0.0000 5.2331 0.0000
# 2 31.0016 124.0795 30.4498 0.0000 -0.9290 0.0000
# 3 23.2638 30.4498 124.5553 0.0000 9.3133 0.0000
# 4 0.0000 0.0000 0.0000 27.1619 0.0000 7.4436
# 5 5.2331 -0.9290 9.3133 0.0000 41.0328 0.0000
# 6 0.0000 0.0000 0.0000 7.4436 0.0000 30.5045
#
#
#
# Elastic Compliance Matrix: (Units=1/GPa)
#
#
# Indices 1 2 3 4 5 6 
#
# 1 0.019003 -0.004179 -0.002380 0.000000 -0.001978 0.000000
# 2 -0.004179 0.009511 -0.001628 0.000000 0.001118 0.000000
# 3 -0.002380 -0.001628 0.009004 0.000000 -0.001777 0.000000
# 4 0.000000 0.000000 0.000000 0.039455 0.000000 -0.009628
# 5 -0.001978 0.001118 -0.001777 0.000000 0.025052 0.000000
# 6 0.000000 0.000000 0.000000 -0.009628 0.000000 0.035131
#
#
# Mechanical properties :
#
#
# Convention : Reuss Voigt Hill
#
# Bulk Modulus (GPa) = 47.29335 53.44043 50.36689
# Shear Modulus (GPa) = 31.13748 34.86104 32.99926
#
# Velocity S-wave (km/s) = 3.57839 3.78631 3.68382
# Velocity P-wave (km/s) = 6.04334 6.41027 6.22951
#
# Compressibility (1/GPa) = 0.02114462
#
# Stress axis : x y z
#
# Youngs Moduli (GPa) = 52.62317 105.13711 111.06176
#
# Poissons Ratio (x) = 0.43934 0.26431
# Poissons Ratio (y) = 0.21990 0.18085
# Poissons Ratio (z) = 0.12523 0.17120
#
# Static dielectric constant tensor:
#      x y z
#    x 2.011800 0.000000 0.005270 
#    y 0.000000 2.113430 0.000000 
#    z 0.005270 0.000000 1.962570 
# 
# From -- ./inp_files/10547.got.cif
#   From: 2010.05.17/outbox.cif.g08.bks.cpg/sg4_6_cif.got.tgz:10547.got - 2010.06.03 18:43:04.
