data_PCOD9117196
_publ_section_title
;
Structure prediction by ZEFSAII (Michael W. Deem and Ramdas Pophale) SiO2 
 PCOD9117196
Probable space group: P 21
;
_chemical_formula_sum "Si O2"
_cell_formula_units_Z 16
_cell_length_a 11.976965
_cell_length_b 10.802497
_cell_length_c 8.887736
_cell_angle_alpha 90.000000
_cell_angle_beta 38.073031
_cell_angle_gamma 90.000000
_cell_volume 709.106818
_symmetry_space_group_name_H-M "P 21"
_symmetry_group_IT_number 4
_symmetry_cell_setting 'monoclinic'
loop_
_space_group_symop_operation_xyz
x,y,z
-x,1/2+y,-z
loop_
_atom_site_type_symbol
_atom_site_label
_atom_site_fract_x
_atom_site_fract_y
_atom_site_fract_z
Si Si1 0.211761 0.501210 0.168148
Si Si2 0.340475 0.768187 0.963858
Si Si3 0.018413 0.320419 0.815888
Si Si4 0.827336 0.602956 0.559912
Si Si5 0.655956 0.937618 0.647096
Si Si6 0.607132 0.664527 0.090079
Si Si7 0.924672 0.779784 0.895082
Si Si8 0.292152 0.838516 0.362510
O O1 0.311083 0.446497 0.208461
O O2 0.014644 0.550430 0.431380
O O3 0.317454 0.620359 0.993064
O O4 0.163808 0.400511 0.092639
O O5 0.540619 0.817369 0.720450
O O6 0.296871 0.816822 0.178294
O O7 0.189321 0.825779 0.015183
O O8 0.102853 0.208009 0.626984
O O9 0.147771 0.434688 0.636259
O O10 0.037624 0.297069 0.970801
O O11 0.735840 0.483953 0.579389
O O12 0.696892 0.651961 0.829168
O O13 0.525238 0.049934 0.744211
O O14 0.775699 0.675422 0.022422
O O15 0.473772 0.781928 0.237411
O O16 0.117293 0.765883 0.609129
#
# Coordination Sequence:
#
# PCOD9117196 Si02
#       8
#     2   2   2   2   2   2   2   2
#     4  10  22  44  71 102 132 178 231 290 346 403
#     4  11  22  44  71 100 133 173 233 288 347 398
#     4  11  26  46  64  98 142 185 223 275 349 422
#     4  10  22  44  71 102 132 178 231 290 346 403
#     4  12  25  41  71 104 129 175 235 292 339 401
#     4  12  25  41  71 104 129 175 235 292 339 401
#     4  11  26  46  64  98 142 185 223 275 349 422
#     4  11  22  44  71 100 133 173 233 288 347 398
#
# _framework density 22.563594999999999
#
# number of rings (size 3 to 8) (size 9 to 14) (size 15 to 20)
#    0.000    1.000    2.500    5.250    0.000    1.000 
#   18.000    0.000    0.000    0.000    0.000    0.000 
#    0.000    0.000    0.000    0.000    0.000    0.000 
#
# Total GULP energy -89550.346509 kJ/mol
# GULP energy per Si atom -5596.896657 kJ/mol
# Density = 2.251224 g / cm^3
# Si number density = 22.563595 Si / 1000 Ang^3
#
#
#
# Elastic Constant Matrix: (Units=GPa)
#
#
# Indices 1 2 3 4 5 6 
#
# 1 137.3625 -2.9690 59.5747 0.0000 -24.5892 0.0000
# 2 -2.9690 35.2966 16.2950 0.0000 -26.0794 0.0000
# 3 59.5747 16.2950 32.7875 0.0000 -27.4196 0.0000
# 4 0.0000 0.0000 0.0000 23.1322 0.0000 -18.8130
# 5 -24.5892 -26.0794 -27.4196 0.0000 41.3380 0.0000
# 6 0.0000 0.0000 0.0000 -18.8130 0.0000 29.1730
#
#
#
# Elastic Compliance Matrix: (Units=1/GPa)
#
#
# Indices 1 2 3 4 5 6 
#
# 1 -0.054703 -0.045185 0.158996 0.000000 0.044417 0.000000
# 2 -0.045185 0.015940 0.134993 0.000000 0.072720 0.000000
# 3 0.158996 0.134993 -0.393383 0.000000 -0.081191 0.000000
# 4 0.000000 0.000000 0.000000 0.090908 0.000000 0.058625
# 5 0.044417 0.072720 -0.081191 0.000000 0.042635 0.000000
# 6 0.000000 0.000000 0.000000 0.058625 0.000000 0.072084
#
#
# Mechanical properties :
#
#
# Convention : Reuss Voigt Hill
#
# Bulk Modulus (GPa) = 15.27585 39.02754 27.15169
# Shear Modulus (GPa) = -7.11941 27.56505 10.22282
#
# Velocity S-wave (km/s) = -1.77823 3.49902 2.13085
# Velocity P-wave (km/s) = 1.60271 5.80159 4.25600
#
# Compressibility (1/GPa) = 0.06546281
#
# Stress axis : x y z
#
# Youngs Moduli (GPa) = -18.28063 62.73349 -2.54205
#
# Poissons Ratio (x) = 2.83461 0.40418
# Poissons Ratio (y) = -0.82601 0.34316
# Poissons Ratio (z) = 2.90654 -8.46861
#
# Static dielectric constant tensor:
#      x y z
#    x 1.789800 0.000000 -0.042030 
#    y 0.000000 1.938210 0.000000 
#    z -0.042030 0.000000 1.824490 
# 
# From -- ./inp_files/8298.got.cif
#   From: 2010.05.17/outbox.cif.g08.bks.cpg/sg4_5_cif.got.tgz:8298.got - 2010.06.03 18:43:04.
