data_PCOD9117001
_publ_section_title
;
Structure prediction by ZEFSAII (Michael W. Deem and Ramdas Pophale) SiO2 
 PCOD9117001
Probable space group: P 21
;
_chemical_formula_sum "Si O2"
_cell_formula_units_Z 12
_cell_length_a 5.342123
_cell_length_b 10.389455
_cell_length_c 8.310178
_cell_angle_alpha 90.000000
_cell_angle_beta 88.701685
_cell_angle_gamma 90.000000
_cell_volume 461.110984
_symmetry_space_group_name_H-M "P 21"
_symmetry_group_IT_number 4
_symmetry_cell_setting 'monoclinic'
loop_
_space_group_symop_operation_xyz
x,y,z
-x,1/2+y,-z
loop_
_atom_site_type_symbol
_atom_site_label
_atom_site_fract_x
_atom_site_fract_y
_atom_site_fract_z
Si Si1 0.523436 0.481290 0.472844
Si Si2 0.979604 0.863167 0.399276
Si Si3 0.223048 0.185122 0.361450
Si Si4 0.487321 0.252722 0.060053
Si Si5 0.278412 0.013665 0.887367
Si Si6 0.879872 0.026639 0.129106
O O1 0.238869 0.435648 0.492743
O O2 0.540180 0.619128 0.558580
O O3 0.645970 0.490039 0.295671
O O4 0.730417 0.397224 0.568916
O O5 0.944509 0.725884 0.485533
O O6 0.865093 0.889320 0.222469
O O7 0.315282 0.277995 0.218770
O O8 0.080353 0.083116 0.252824
O O9 0.591871 0.394093 0.014743
O O10 0.693011 0.147031 0.116922
O O11 0.357295 0.158083 0.934537
O O12 0.993184 0.004670 0.951085
#
# Coordination Sequence:
#
# PCOD9117001 Si02
#       6
#     2   2   2   2   2   2
#     4  11  24  42  68 103 130 183 230 281 346 413
#     4  11  23  43  70  96 136 177 233 280 347 413
#     4  10  22  42  69  96 135 180 231 288 345 417
#     4  11  23  45  68  97 145 183 237 287 360 416
#     4  11  26  43  69 104 139 189 230 298 352 423
#     4  10  24  43  66 100 137 184 231 290 352 420
#
# _framework density 26.024101999999999
#
# number of rings (size 3 to 8) (size 9 to 14) (size 15 to 20)
#    0.000    1.333    3.333    1.000    2.333    5.333 
#    3.000    0.000    0.000    0.000    0.000    0.000 
#    0.000    0.000    0.000    0.000    0.000    0.000 
#
# Total GULP energy -66806.777563 kJ/mol
# GULP energy per Si atom -5567.231464 kJ/mol
# Density = 2.596487 g / cm^3
# Si number density = 26.024102 Si / 1000 Ang^3
#
#
#
# Elastic Constant Matrix: (Units=GPa)
#
#
# Indices 1 2 3 4 5 6 
#
# 1 56.6599 28.9009 14.2290 0.0000 -6.2262 0.0000
# 2 28.9009 112.7788 12.3850 0.0000 16.1025 0.0000
# 3 14.2290 12.3850 50.2196 0.0000 -2.1358 0.0000
# 4 0.0000 0.0000 0.0000 36.1146 0.0000 0.7412
# 5 -6.2262 16.1025 -2.1358 0.0000 28.3351 0.0000
# 6 0.0000 0.0000 0.0000 0.7412 0.0000 40.4971
#
#
#
# Elastic Compliance Matrix: (Units=1/GPa)
#
#
# Indices 1 2 3 4 5 6 
#
# 1 0.023113 -0.006638 -0.004550 0.000000 0.008508 0.000000
# 2 -0.006638 0.011913 -0.001412 0.000000 -0.008335 0.000000
# 3 -0.004550 -0.001412 0.021611 0.000000 0.001431 0.000000
# 4 0.000000 0.000000 0.000000 0.027700 0.000000 -0.000507
# 5 0.008508 -0.008335 0.001431 0.000000 0.042006 0.000000
# 6 0.000000 0.000000 0.000000 -0.000507 0.000000 0.024702
#
#
# Mechanical properties :
#
#
# Convention : Reuss Voigt Hill
#
# Bulk Modulus (GPa) = 31.80913 36.74312 34.27613
# Shear Modulus (GPa) = 26.77767 31.93225 29.35496
#
# Velocity S-wave (km/s) = 3.21122 3.50669 3.36220
# Velocity P-wave (km/s) = 5.09889 5.52679 5.31715
#
# Compressibility (1/GPa) = 0.03143751
#
# Stress axis : x y z
#
# Youngs Moduli (GPa) = 43.26652 83.94125 46.27345
#
# Poissons Ratio (x) = 0.55720 0.21053
# Poissons Ratio (y) = 0.28720 0.06532
# Poissons Ratio (z) = 0.19685 0.11850
#
# Static dielectric constant tensor:
#      x y z
#    x 2.090130 0.000000 -0.017430 
#    y 0.000000 2.497390 0.000000 
#    z -0.017430 0.000000 2.046730 
# 
# From -- ./inp_files/1072.got.cif
#   From: 2010.05.17/outbox.cif.g08.bks.cpg/sg4_1_cif.got.tgz:1072.got - 2010.06.03 18:43:04.
