data_PCOD9117396
_publ_section_title
;
Structure prediction by ZEFSAII (Michael W. Deem and Ramdas Pophale) SiO2 
 PCOD9117396
Probable space group: P 21
;
_chemical_formula_sum "Si O2"
_cell_formula_units_Z 12
_cell_length_a 5.144395
_cell_length_b 5.179807
_cell_length_c 16.968968
_cell_angle_alpha 90.000000
_cell_angle_beta 100.306753
_cell_angle_gamma 90.000000
_cell_volume 444.875375
_symmetry_space_group_name_H-M "P 21"
_symmetry_group_IT_number 4
_symmetry_cell_setting 'monoclinic'
loop_
_space_group_symop_operation_xyz
x,y,z
-x,1/2+y,-z
loop_
_atom_site_type_symbol
_atom_site_label
_atom_site_fract_x
_atom_site_fract_y
_atom_site_fract_z
Si Si1 0.164863 0.141850 0.989638
Si Si2 0.908722 0.598637 0.593481
Si Si3 0.101965 0.931219 0.818398
Si Si4 0.410607 0.098188 0.158723
Si Si5 0.722459 0.268320 0.713209
Si Si6 0.735698 0.594983 0.416966
O O1 0.401337 0.083984 0.063343
O O2 0.208862 0.084274 0.900585
O O3 0.053392 0.428977 0.995267
O O4 0.771963 0.532867 0.668416
O O5 0.106956 0.358910 0.591076
O O6 0.702305 0.587534 0.509885
O O7 0.078454 0.855973 0.595693
O O8 0.531270 0.104933 0.647205
O O9 0.329933 0.746222 0.801022
O O10 0.852809 0.759902 0.833889
O O11 0.392502 0.836153 0.207096
O O12 0.992649 0.125032 0.747704
#
# Coordination Sequence:
#
# PCOD9117396 Si02
#       6
#     2   2   2   2   2   2
#     4  10  22  52  80 116 164 220 272 336 406 488
#     4  10  26  50  79 114 158 213 273 338 412 494
#     4  11  28  49  80 119 166 216 275 338 410 488
#     4  11  28  49  80 119 166 216 275 338 410 488
#     4  12  28  48  82 116 166 208 280 336 426 472
#     4  10  26  50  79 114 158 213 273 338 412 494
#
# _framework density 26.973846000000002
#
# number of rings (size 3 to 8) (size 9 to 14) (size 15 to 20)
#    0.000    1.333    1.667    0.000    9.333    9.333 
#    0.000    0.000    0.000    0.000    0.000    0.000 
#    0.000    0.000    0.000    0.000    0.000    0.000 
#
# Total GULP energy -67429.031355 kJ/mol
# GULP energy per Si atom -5619.085946 kJ/mol
# Density = 2.691245 g / cm^3
# Si number density = 26.973846 Si / 1000 Ang^3
#
#
#
# Elastic Constant Matrix: (Units=GPa)
#
#
# Indices 1 2 3 4 5 6 
#
# 1 128.9736 49.8762 40.9085 0.0000 31.9992 0.0000
# 2 49.8762 116.9801 38.7141 0.0000 19.2611 0.0000
# 3 40.9085 38.7141 177.6608 0.0000 44.4736 0.0000
# 4 0.0000 0.0000 0.0000 36.8740 0.0000 6.4011
# 5 31.9992 19.2611 44.4736 0.0000 48.6927 0.0000
# 6 0.0000 0.0000 0.0000 6.4011 0.0000 50.4937
#
#
#
# Elastic Compliance Matrix: (Units=1/GPa)
#
#
# Indices 1 2 3 4 5 6 
#
# 1 0.010512 -0.003509 -0.000355 0.000000 -0.005196 0.000000
# 2 -0.003509 0.010596 -0.001334 0.000000 -0.000667 0.000000
# 3 -0.000355 -0.001334 0.007533 0.000000 -0.006119 0.000000
# 4 0.000000 0.000000 0.000000 0.027730 0.000000 -0.003515
# 5 -0.005196 -0.000667 -0.006119 0.000000 0.029804 0.000000
# 6 0.000000 0.000000 0.000000 -0.003515 0.000000 0.020250
#
#
# Mechanical properties :
#
#
# Convention : Reuss Voigt Hill
#
# Bulk Modulus (GPa) = 54.81074 75.84579 65.32827
# Shear Modulus (GPa) = 40.68245 46.81980 43.75113
#
# Velocity S-wave (km/s) = 3.88779 4.17075 4.03175
# Velocity P-wave (km/s) = 6.36532 7.16749 6.77828
#
# Compressibility (1/GPa) = 0.01824460
#
# Stress axis : x y z
#
# Youngs Moduli (GPa) = 95.12660 94.37639 132.74936
#
# Poissons Ratio (x) = 0.33117 0.04716
# Poissons Ratio (y) = 0.33380 0.17709
# Poissons Ratio (z) = 0.03380 0.12590
#
# Static dielectric constant tensor:
#      x y z
#    x 2.068500 0.000000 -0.024530 
#    y 0.000000 2.072140 0.000000 
#    z -0.024530 0.000000 2.122210 
# 
# From -- ./inp_files/14666.got.cif
#   From: 2010.05.17/outbox.cif.g08.bks.cpg/sg4_8_cif.got.tgz:14666.got - 2010.06.03 18:43:04.
