data_PCOD9117874
_publ_section_title
;
Structure prediction by ZEFSAII (Michael W. Deem and Ramdas Pophale) SiO2 
 PCOD9117874
Probable space group: P 21
;
_chemical_formula_sum "Si O2"
_cell_formula_units_Z 14
_cell_length_a 9.480059
_cell_length_b 11.007731
_cell_length_c 5.092729
_cell_angle_alpha 90.000000
_cell_angle_beta 82.211825
_cell_angle_gamma 90.000000
_cell_volume 526.544181
_symmetry_space_group_name_H-M "P 21"
_symmetry_group_IT_number 4
_symmetry_cell_setting 'monoclinic'
loop_
_space_group_symop_operation_xyz
x,y,z
-x,1/2+y,-z
loop_
_atom_site_type_symbol
_atom_site_label
_atom_site_fract_x
_atom_site_fract_y
_atom_site_fract_z
Si Si1 0.798751 0.711020 0.102822
Si Si2 0.490749 0.226449 0.581951
Si Si3 0.907776 0.045482 0.409896
Si Si4 0.668200 0.877603 0.699789
Si Si5 0.891801 0.215227 0.913644
Si Si6 0.208512 0.971073 0.142320
Si Si7 0.475257 0.572882 0.909125
O O1 0.682020 0.721878 0.355446
O O2 0.950312 0.771740 0.095945
O O3 0.731639 0.765751 0.854508
O O4 0.826360 0.567486 0.076520
O O5 0.479841 0.354478 0.428371
O O6 0.529739 0.177607 0.860199
O O7 0.559458 0.135358 0.357398
O O8 0.890515 0.146241 0.639711
O O9 0.792298 0.943156 0.505655
O O10 0.875906 0.117462 0.148501
O O11 0.071025 0.995017 0.364038
O O12 0.622362 0.968599 0.947982
O O13 0.790229 0.331160 0.938225
O O14 0.367888 0.013754 0.172300
#
# Coordination Sequence:
#
# PCOD9117874 Si02
#       7
#     2   2   2   2   2   2   2
#     4  10  24  45  75 106 142 200 243 289 375 437
#     4  11  23  48  67 104 139 195 238 288 366 440
#     4  11  28  43  74 111 147 187 246 303 371 425
#     4  12  27  47  78 109 148 192 245 310 365 440
#     4  11  26  44  70 113 146 189 243 309 360 432
#     4  10  23  48  71 101 145 195 239 298 361 443
#     4  11  27  43  73 104 143 190 250 293 362 437
#
# _framework density 26.588463000000001
#
# number of rings (size 3 to 8) (size 9 to 14) (size 15 to 20)
#    0.000    1.143    2.857    1.714   14.000    4.571 
#    0.000    0.000    0.000    0.000    0.000    0.000 
#    0.000    0.000    0.000    0.000    0.000    0.000 
#
# Total GULP energy -78277.524181 kJ/mol
# GULP energy per Si atom -5591.251727 kJ/mol
# Density = 2.652795 g / cm^3
# Si number density = 26.588463 Si / 1000 Ang^3
#
#
#
# Elastic Constant Matrix: (Units=GPa)
#
#
# Indices 1 2 3 4 5 6 
#
# 1 89.4847 40.5792 10.7384 0.0000 -21.4604 0.0000
# 2 40.5792 103.7038 39.5376 0.0000 4.0704 0.0000
# 3 10.7384 39.5376 101.1695 0.0000 4.1919 0.0000
# 4 0.0000 0.0000 0.0000 29.1037 0.0000 -5.0608
# 5 -21.4604 4.0704 4.1919 0.0000 43.6023 0.0000
# 6 0.0000 0.0000 0.0000 -5.0608 0.0000 37.2937
#
#
#
# Elastic Compliance Matrix: (Units=1/GPa)
#
#
# Indices 1 2 3 4 5 6 
#
# 1 0.016328 -0.006969 0.000633 0.000000 0.008626 0.000000
# 2 -0.006969 0.014323 -0.004679 0.000000 -0.004317 0.000000
# 3 0.000633 -0.004679 0.011661 0.000000 -0.000373 0.000000
# 4 0.000000 0.000000 0.000000 0.035190 0.000000 0.004775
# 5 0.008626 -0.004317 -0.000373 0.000000 0.027619 0.000000
# 6 0.000000 0.000000 0.000000 0.004775 0.000000 0.027462
#
#
# Mechanical properties :
#
#
# Convention : Reuss Voigt Hill
#
# Bulk Modulus (GPa) = 49.30362 52.89649 51.10005
# Shear Modulus (GPa) = 30.98368 35.56679 33.27524
#
# Velocity S-wave (km/s) = 3.41736 3.66140 3.54148
# Velocity P-wave (km/s) = 5.84420 6.14916 5.99862
#
# Compressibility (1/GPa) = 0.02028249
#
# Stress axis : x y z
#
# Youngs Moduli (GPa) = 61.24362 69.81674 85.75424
#
# Poissons Ratio (x) = 0.48656 -0.05429
# Poissons Ratio (y) = 0.42682 0.40124
# Poissons Ratio (z) = -0.03877 0.32667
#
# Static dielectric constant tensor:
#      x y z
#    x 2.222080 0.000000 0.093260 
#    y 0.000000 2.251430 0.000000 
#    z 0.093260 0.000000 2.240980 
# 
# From -- ./inp_files/2816.got.cif
#   From: 2010.05.17/outbox.cif.g08.bks.cpg/sg4_2_cif.got.tgz:2816.got - 2010.06.03 18:43:04.
