data_PCOD9117338
_publ_section_title
;
Structure prediction by ZEFSAII (Michael W. Deem and Ramdas Pophale) SiO2 
 PCOD9117338
Probable space group: P 21
;
_chemical_formula_sum "Si O2"
_cell_formula_units_Z 14
_cell_length_a 8.734166
_cell_length_b 12.331872
_cell_length_c 5.184181
_cell_angle_alpha 90.000000
_cell_angle_beta 67.985827
_cell_angle_gamma 90.000000
_cell_volume 517.670059
_symmetry_space_group_name_H-M "P 21"
_symmetry_group_IT_number 4
_symmetry_cell_setting 'monoclinic'
loop_
_space_group_symop_operation_xyz
x,y,z
-x,1/2+y,-z
loop_
_atom_site_type_symbol
_atom_site_label
_atom_site_fract_x
_atom_site_fract_y
_atom_site_fract_z
Si Si1 0.491739 0.908300 0.691923
Si Si2 0.707530 0.899343 0.028580
Si Si3 0.904374 0.694480 0.757166
Si Si4 0.581489 0.179467 0.367033
Si Si5 0.897776 0.097339 0.961278
Si Si6 0.228417 0.784683 0.334279
Si Si7 0.726093 0.527580 0.536681
O O1 0.587210 0.947646 0.883297
O O2 0.423391 0.789187 0.795192
O O3 0.333502 0.975077 0.697543
O O4 0.619494 0.895264 0.366443
O O5 0.760047 0.779001 0.907235
O O6 0.871673 0.974170 0.892967
O O7 0.869568 0.609069 0.547121
O O8 0.069805 0.767066 0.626970
O O9 0.939311 0.620425 0.982451
O O10 0.610635 0.229484 0.633999
O O11 0.428642 0.111184 0.360460
O O12 0.738439 0.101641 0.253859
O O13 0.844694 0.201350 0.829191
O O14 0.254208 0.914960 0.311369
#
# Coordination Sequence:
#
# PCOD9117338 Si02
#       7
#     2   2   2   2   2   2   2
#     4  11  26  48  77 117 147 195 257 318 376 452
#     4  12  27  50  79 109 158 198 253 317 386 449
#     4  11  28  47  71 114 150 208 252 312 387 465
#     4  10  22  46  71 110 146 191 253 314 373 447
#     4  11  26  45  75 108 156 202 249 320 378 461
#     4  10  26  46  73 108 156 194 261 312 385 457
#     4  11  23  48  76 110 149 202 257 317 385 449
#
# _framework density 27.044252
#
# number of rings (size 3 to 8) (size 9 to 14) (size 15 to 20)
#    0.000    1.143    2.857    0.857   12.000    0.000 
#    5.143    0.000    0.000    0.000    0.000    0.000 
#    0.000    0.000    0.000    0.000    0.000    0.000 
#
# Total GULP energy -78018.272825 kJ/mol
# GULP energy per Si atom -5572.733773 kJ/mol
# Density = 2.698270 g / cm^3
# Si number density = 27.044252 Si / 1000 Ang^3
#
#
#
# Elastic Constant Matrix: (Units=GPa)
#
#
# Indices 1 2 3 4 5 6 
#
# 1 112.8847 73.4523 14.9144 0.0000 24.1205 0.0000
# 2 73.4523 191.4084 1.0392 0.0000 -3.0779 0.0000
# 3 14.9144 1.0392 51.2729 0.0000 18.6765 0.0000
# 4 0.0000 0.0000 0.0000 27.7802 0.0000 -4.9140
# 5 24.1205 -3.0779 18.6765 0.0000 39.6229 0.0000
# 6 0.0000 0.0000 0.0000 -4.9140 0.0000 68.6267
#
#
#
# Elastic Compliance Matrix: (Units=1/GPa)
#
#
# Indices 1 2 3 4 5 6 
#
# 1 0.014627 -0.005752 -0.000884 0.000000 -0.008935 0.000000
# 2 -0.005752 0.007497 0.000041 0.000000 0.004065 0.000000
# 3 -0.000884 0.000041 0.023618 0.000000 -0.010591 0.000000
# 4 0.000000 0.000000 0.000000 0.036459 0.000000 0.002611
# 5 -0.008935 0.004065 -0.010591 0.000000 0.035985 0.000000
# 6 0.000000 0.000000 0.000000 0.002611 0.000000 0.014759
#
#
# Mechanical properties :
#
#
# Convention : Reuss Voigt Hill
#
# Bulk Modulus (GPa) = 30.72061 59.37532 45.04796
# Shear Modulus (GPa) = 31.85029 44.94997 38.40013
#
# Velocity S-wave (km/s) = 3.43550 4.08130 3.77224
# Velocity P-wave (km/s) = 5.20778 6.64920 5.97213
#
# Compressibility (1/GPa) = 0.03255144
#
# Stress axis : x y z
#
# Youngs Moduli (GPa) = 68.36588 133.38884 42.34124
#
# Poissons Ratio (x) = 0.76725 0.03742
# Poissons Ratio (y) = 0.39324 -0.00172
# Poissons Ratio (z) = 0.06042 -0.00541
#
# Static dielectric constant tensor:
#      x y z
#    x 2.152110 0.000000 -0.169440 
#    y 0.000000 2.194110 0.000000 
#    z -0.169440 0.000000 2.411510 
# 
# From -- ./inp_files/1380.got.cif
#   From: 2010.05.17/outbox.cif.g08.bks.cpg/sg4_1_cif.got.tgz:1380.got - 2010.06.03 18:43:04.
