data_PCOD9117407
_publ_section_title
;
Structure prediction by ZEFSAII (Michael W. Deem and Ramdas Pophale) SiO2 
 PCOD9117407
Probable space group: P 21
;
_chemical_formula_sum "Si O2"
_cell_formula_units_Z 16
_cell_length_a 20.715286
_cell_length_b 5.449074
_cell_length_c 11.827998
_cell_angle_alpha 90.000000
_cell_angle_beta 29.535387
_cell_angle_gamma 90.000000
_cell_volume 658.169051
_symmetry_space_group_name_H-M "P 21"
_symmetry_group_IT_number 4
_symmetry_cell_setting 'monoclinic'
loop_
_space_group_symop_operation_xyz
x,y,z
-x,1/2+y,-z
loop_
_atom_site_type_symbol
_atom_site_label
_atom_site_fract_x
_atom_site_fract_y
_atom_site_fract_z
Si Si1 0.684517 0.320420 0.504659
Si Si2 0.992240 0.421673 0.355857
Si Si3 0.860366 0.924199 0.627015
Si Si4 0.584339 0.345519 0.889433
Si Si5 0.590485 0.684363 0.491724
Si Si6 0.618884 0.669089 0.041489
Si Si7 0.670584 0.385060 0.164837
Si Si8 0.192476 0.565721 0.887217
O O1 0.693104 0.308423 0.625871
O O2 0.665784 0.597709 0.488551
O O3 0.791872 0.194133 0.259301
O O4 0.536550 0.212121 0.706832
O O5 0.083281 0.425131 0.330544
O O6 0.912697 0.676599 0.486808
O O7 0.069814 0.412166 0.117758
O O8 0.908973 0.173921 0.496846
O O9 0.703737 0.891775 0.864454
O O10 0.633017 0.441484 0.934981
O O11 0.501146 0.594474 0.979234
O O12 0.599577 0.468621 0.387107
O O13 0.438168 0.731458 0.735934
O O14 0.675699 0.903210 0.310288
O O15 0.689719 0.606014 0.051086
O O16 0.795595 0.257857 0.026596
#
# Coordination Sequence:
#
# PCOD9117407 Si02
#       8
#     2   2   2   2   2   2   2   2
#     4  10  23  37  60  95 128 170 210 262 338 391
#     4  10  24  41  59  89 130 174 218 261 312 379
#     4  10  24  41  61  88 128 175 220 260 309 379
#     4  10  23  42  62  94 134 171 215 265 326 397
#     4  11  19  32  51  87 129 163 202 254 321 407
#     4  11  22  40  64  92 133 171 215 270 321 396
#     4  11  20  30  52  91 127 169 208 255 332 391
#     4  11  23  35  59  88 135 169 206 265 325 396
#
# _framework density 24.309861999999999
#
# number of rings (size 3 to 8) (size 9 to 14) (size 15 to 20)
#    0.000    1.500    2.500    2.250   12.250    2.000 
#    0.000    0.000    0.000    0.000    3.250    0.000 
#    0.000    0.000    0.000    0.000    0.000    0.000 
#
# Total GULP energy -89332.893691 kJ/mol
# GULP energy per Si atom -5583.305856 kJ/mol
# Density = 2.425453 g / cm^3
# Si number density = 24.309862 Si / 1000 Ang^3
#
#
#
# Elastic Constant Matrix: (Units=GPa)
#
#
# Indices 1 2 3 4 5 6 
#
# 1 38.9021 10.6560 26.6679 0.0000 19.8984 0.0000
# 2 10.6560 109.5641 53.0499 0.0000 -2.6502 0.0000
# 3 26.6679 53.0499 143.2170 0.0000 19.9125 0.0000
# 4 0.0000 0.0000 0.0000 49.4646 0.0000 -1.1645
# 5 19.8984 -2.6502 19.9125 0.0000 29.3762 0.0000
# 6 0.0000 0.0000 0.0000 -1.1645 0.0000 23.1020
#
#
#
# Elastic Compliance Matrix: (Units=1/GPa)
#
#
# Indices 1 2 3 4 5 6 
#
# 1 0.042489 -0.003393 -0.002882 0.000000 -0.027133 0.000000
# 2 -0.003393 0.011881 -0.004678 0.000000 0.006541 0.000000
# 3 -0.002882 -0.004678 0.009980 0.000000 -0.005234 0.000000
# 4 0.000000 0.000000 0.000000 0.020240 0.000000 0.001020
# 5 -0.027133 0.006541 -0.005234 0.000000 0.056558 0.000000
# 6 0.000000 0.000000 0.000000 0.001020 0.000000 0.043338
#
#
# Mechanical properties :
#
#
# Convention : Reuss Voigt Hill
#
# Bulk Modulus (GPa) = 23.56158 52.49229 38.02693
# Shear Modulus (GPa) = 22.67145 33.80921 28.24033
#
# Velocity S-wave (km/s) = 3.05717 3.73334 3.41204
# Velocity P-wave (km/s) = 4.70903 6.34221 5.58563
#
# Compressibility (1/GPa) = 0.04244198
#
# Stress axis : x y z
#
# Youngs Moduli (GPa) = 23.53525 84.17108 100.20156
#
# Poissons Ratio (x) = 0.28560 0.28882
# Poissons Ratio (y) = 0.07986 0.46879
# Poissons Ratio (z) = 0.06784 0.39379
#
# Static dielectric constant tensor:
#      x y z
#    x 1.933730 0.000000 -0.018110 
#    y 0.000000 2.046800 0.000000 
#    z -0.018110 0.000000 1.982030 
# 
# From -- ./inp_files/11617.got.cif
#   From: 2010.05.17/outbox.cif.g08.bks.cpg/sg4_6_cif.got.tgz:11617.got - 2010.06.03 18:43:04.
