data_PCOD9117956
_publ_section_title
;
Structure prediction by ZEFSAII (Michael W. Deem and Ramdas Pophale) SiO2 
 PCOD9117956
Probable space group: P 21
;
_chemical_formula_sum "Si O2"
_cell_formula_units_Z 16
_cell_length_a 8.535977
_cell_length_b 5.667917
_cell_length_c 18.903628
_cell_angle_alpha 90.000000
_cell_angle_beta 136.712727
_cell_angle_gamma 90.000000
_cell_volume 627.088144
_symmetry_space_group_name_H-M "P 21"
_symmetry_group_IT_number 4
_symmetry_cell_setting 'monoclinic'
loop_
_space_group_symop_operation_xyz
x,y,z
-x,1/2+y,-z
loop_
_atom_site_type_symbol
_atom_site_label
_atom_site_fract_x
_atom_site_fract_y
_atom_site_fract_z
Si Si1 0.517781 0.963220 0.138364
Si Si2 0.649058 0.195811 0.595661
Si Si3 0.748432 0.067934 0.875297
Si Si4 0.144743 0.290967 0.384134
Si Si5 0.040961 0.501751 0.787728
Si Si6 0.825104 0.781286 0.032760
Si Si7 0.369920 0.048963 0.636193
Si Si8 0.791248 0.062553 0.368069
O O1 0.323645 0.779697 0.095706
O O2 0.749678 0.863331 0.180570
O O3 0.606819 0.062669 0.242956
O O4 0.413255 0.141575 0.045202
O O5 0.418105 0.247014 0.476280
O O6 0.797394 0.392501 0.685166
O O7 0.540636 0.057838 0.626433
O O8 0.834523 0.072693 0.604942
O O9 0.522743 0.032193 0.756479
O O10 0.952749 0.118715 0.888771
O O11 0.821614 0.860681 0.950393
O O12 0.027754 0.126462 0.404574
O O13 0.992843 0.248088 0.263890
O O14 0.112981 0.487702 0.892408
O O15 0.245848 0.307796 0.605952
O O16 0.244024 0.795585 0.595374
#
# Coordination Sequence:
#
# PCOD9117956 Si02
#       8
#     2   2   2   2   2   2   2   2
#     4  10  24  42  65 100 147 188 240 294 369 441
#     4  12  26  46  79 103 147 193 256 316 378 447
#     4  11  23  40  65  99 140 186 243 295 367 436
#     4  11  27  47  74 106 145 197 250 319 384 446
#     4  11  27  45  65 108 142 191 246 305 371 444
#     4  12  23  41  67  99 140 188 239 298 360 446
#     4  11  25  46  75 110 149 196 250 310 377 451
#     4  10  25  47  74 107 154 193 246 313 378 449
#
# _framework density 25.514752999999999
#
# number of rings (size 3 to 8) (size 9 to 14) (size 15 to 20)
#    0.000    1.000    5.000    0.000    8.750    3.000 
#    0.000    0.000    0.000    0.000    0.000    0.000 
#    0.000    0.000    0.000    0.000    0.000    0.000 
#
# Total GULP energy -89144.083944 kJ/mol
# GULP energy per Si atom -5571.505246 kJ/mol
# Density = 2.545668 g / cm^3
# Si number density = 25.514753 Si / 1000 Ang^3
#
#
#
# Elastic Constant Matrix: (Units=GPa)
#
#
# Indices 1 2 3 4 5 6 
#
# 1 57.7706 21.1599 11.4451 0.0000 5.7460 0.0000
# 2 21.1599 68.7181 19.5797 0.0000 -1.0350 0.0000
# 3 11.4451 19.5797 138.1935 0.0000 1.2090 0.0000
# 4 0.0000 0.0000 0.0000 17.0257 0.0000 -3.9129
# 5 5.7460 -1.0350 1.2090 0.0000 46.6080 0.0000
# 6 0.0000 0.0000 0.0000 -3.9129 0.0000 36.0196
#
#
#
# Elastic Compliance Matrix: (Units=1/GPa)
#
#
# Indices 1 2 3 4 5 6 
#
# 1 0.019897 -0.005942 -0.000784 0.000000 -0.002565 0.000000
# 2 -0.005942 0.016946 -0.001919 0.000000 0.001159 0.000000
# 3 -0.000784 -0.001919 0.007574 0.000000 -0.000142 0.000000
# 4 0.000000 0.000000 0.000000 0.060239 0.000000 0.006544
# 5 -0.002565 0.001159 -0.000142 0.000000 0.021801 0.000000
# 6 0.000000 0.000000 0.000000 0.006544 0.000000 0.028474
#
#
# Mechanical properties :
#
#
# Convention : Reuss Voigt Hill
#
# Bulk Modulus (GPa) = 36.86240 41.00572 38.93406
# Shear Modulus (GPa) = 27.58439 34.09716 30.84078
#
# Velocity S-wave (km/s) = 3.29160 3.65961 3.48047
# Velocity P-wave (km/s) = 5.37820 5.82780 5.60751
#
# Compressibility (1/GPa) = 0.02712792
#
# Stress axis : x y z
#
# Youngs Moduli (GPa) = 50.26006 59.01063 132.02613
#
# Poissons Ratio (x) = 0.35064 0.10344
# Poissons Ratio (y) = 0.29864 0.25336
# Poissons Ratio (z) = 0.03938 0.11324
#
# Static dielectric constant tensor:
#      x y z
#    x 2.029620 0.000000 -0.001350 
#    y 0.000000 2.237500 0.000000 
#    z -0.001350 0.000000 2.053610 
# 
# From -- ./inp_files/9847.got.cif
#   From: 2010.05.17/outbox.cif.g08.bks.cpg/sg4_5_cif.got.tgz:9847.got - 2010.06.03 18:43:04.
