data_PCOD9117160
_publ_section_title
;
Structure prediction by ZEFSAII (Michael W. Deem and Ramdas Pophale) SiO2 
 PCOD9117160
Probable space group: P 21
;
_chemical_formula_sum "Si O2"
_cell_formula_units_Z 16
_cell_length_a 5.717185
_cell_length_b 11.870483
_cell_length_c 10.298219
_cell_angle_alpha 90.000000
_cell_angle_beta 113.698759
_cell_angle_gamma 90.000000
_cell_volume 639.959309
_symmetry_space_group_name_H-M "P 21"
_symmetry_group_IT_number 4
_symmetry_cell_setting 'monoclinic'
loop_
_space_group_symop_operation_xyz
x,y,z
-x,1/2+y,-z
loop_
_atom_site_type_symbol
_atom_site_label
_atom_site_fract_x
_atom_site_fract_y
_atom_site_fract_z
Si Si1 0.389436 0.796250 0.497847
Si Si2 0.884525 0.677340 0.970165
Si Si3 0.164079 0.389123 0.572568
Si Si4 0.704014 0.518226 0.266155
Si Si5 0.574786 0.113784 0.268276
Si Si6 0.218957 0.600011 0.282983
Si Si7 0.211925 0.796832 0.875554
Si Si8 0.615374 0.754059 0.143120
O O1 0.651924 0.855252 0.507587
O O2 0.443968 0.699200 0.615143
O O3 0.289157 0.724166 0.350838
O O4 0.145853 0.870444 0.498775
O O5 0.697617 0.587367 0.858840
O O6 0.935929 0.761542 0.860366
O O7 0.769592 0.767084 0.045917
O O8 0.080409 0.610944 0.110434
O O9 0.259377 0.507926 0.650590
O O10 0.251023 0.300861 0.702382
O O11 0.485121 0.531692 0.327275
O O12 0.715830 0.401510 0.194416
O O13 0.604004 0.619663 0.152591
O O14 0.008120 0.550869 0.338255
O O15 0.704128 0.185672 0.182929
O O16 0.346884 0.805477 0.046176
#
# Coordination Sequence:
#
# PCOD9117160 Si02
#       8
#     2   2   2   2   2   2   2   2
#     4  12  26  52  77 106 149 203 257 301 381 459
#     4  10  22  47  68 109 158 189 250 316 372 452
#     4  12  27  50  82 107 150 202 253 310 380 458
#     4  11  23  41  71 105 142 197 242 309 361 450
#     4  11  31  47  75 116 153 194 255 321 381 450
#     4  11  22  46  72 106 142 200 255 298 371 455
#     4  11  25  43  70 109 157 191 248 317 377 443
#     4  10  22  44  67 110 141 200 248 302 373 453
#
# _framework density 25.001588999999999
#
# number of rings (size 3 to 8) (size 9 to 14) (size 15 to 20)
#    0.000    1.000    5.000    0.000   12.250    2.000 
#    2.250    0.000    0.000    0.000    0.000    0.000 
#    0.000    0.000    0.000    0.000    0.000    0.000 
#
# Total GULP energy -89169.057169 kJ/mol
# GULP energy per Si atom -5573.066073 kJ/mol
# Density = 2.494468 g / cm^3
# Si number density = 25.001589 Si / 1000 Ang^3
#
#
#
# Elastic Constant Matrix: (Units=GPa)
#
#
# Indices 1 2 3 4 5 6 
#
# 1 175.9114 62.5946 40.6652 0.0000 2.9568 0.0000
# 2 62.5946 93.6312 22.7762 0.0000 7.8706 0.0000
# 3 40.6652 22.7762 115.8875 0.0000 10.8270 0.0000
# 4 0.0000 0.0000 0.0000 17.8303 0.0000 2.4687
# 5 2.9568 7.8706 10.8270 0.0000 36.1906 0.0000
# 6 0.0000 0.0000 0.0000 2.4687 0.0000 44.2349
#
#
#
# Elastic Compliance Matrix: (Units=1/GPa)
#
#
# Indices 1 2 3 4 5 6 
#
# 1 0.007834 -0.004861 -0.001885 0.000000 0.000981 0.000000
# 2 -0.004861 0.014352 -0.000885 0.000000 -0.002459 0.000000
# 3 -0.001885 -0.000885 0.009703 0.000000 -0.002556 0.000000
# 4 0.000000 0.000000 0.000000 0.056521 0.000000 -0.003154
# 5 0.000981 -0.002459 -0.002556 0.000000 0.028851 0.000000
# 6 0.000000 0.000000 0.000000 -0.003154 0.000000 0.022783
#
#
# Mechanical properties :
#
#
# Convention : Reuss Voigt Hill
#
# Bulk Modulus (GPa) = 60.14543 70.83357 65.48950
# Shear Modulus (GPa) = 31.08524 36.94411 34.01468
#
# Velocity S-wave (km/s) = 3.52991 3.84822 3.69250
# Velocity P-wave (km/s) = 6.38143 6.93817 6.66561
#
# Compressibility (1/GPa) = 0.01662637
#
# Stress axis : x y z
#
# Youngs Moduli (GPa) = 127.65499 69.67745 103.05686
#
# Poissons Ratio (x) = 0.33869 0.19428
# Poissons Ratio (y) = 0.62051 0.09123
# Poissons Ratio (z) = 0.24065 0.06168
#
# Static dielectric constant tensor:
#      x y z
#    x 2.267690 0.000000 0.103560 
#    y 0.000000 1.974200 0.000000 
#    z 0.103560 0.000000 2.028850 
# 
# From -- ./inp_files/10549.got.cif
#   From: 2010.05.17/outbox.cif.g08.bks.cpg/sg4_6_cif.got.tgz:10549.got - 2010.06.03 18:43:04.
