data_PCOD9117723
_publ_section_title
;
Structure prediction by ZEFSAII (Michael W. Deem and Ramdas Pophale) SiO2 
 PCOD9117723
Probable space group: P 21
;
_chemical_formula_sum "Si O2"
_cell_formula_units_Z 14
_cell_length_a 8.300434
_cell_length_b 5.634941
_cell_length_c 14.183698
_cell_angle_alpha 90.000000
_cell_angle_beta 126.659099
_cell_angle_gamma 90.000000
_cell_volume 532.185971
_symmetry_space_group_name_H-M "P 21"
_symmetry_group_IT_number 4
_symmetry_cell_setting 'monoclinic'
loop_
_space_group_symop_operation_xyz
x,y,z
-x,1/2+y,-z
loop_
_atom_site_type_symbol
_atom_site_label
_atom_site_fract_x
_atom_site_fract_y
_atom_site_fract_z
Si Si1 0.344039 0.323390 0.263146
Si Si2 0.121273 0.060006 0.030702
Si Si3 0.314917 0.322910 0.946309
Si Si4 0.937957 0.414355 0.391001
Si Si5 0.539802 0.615098 0.178869
Si Si6 0.751674 0.268190 0.517942
Si Si7 0.031629 0.096691 0.268119
O O1 0.293477 0.111464 0.170361
O O2 0.400859 0.555144 0.220881
O O3 0.529822 0.282434 0.398670
O O4 0.148035 0.311826 0.258729
O O5 0.211413 0.092893 0.957333
O O6 0.981372 0.300823 0.994713
O O7 0.434634 0.317817 0.890003
O O8 0.123601 0.487945 0.859080
O O9 0.460781 0.416415 0.078150
O O10 0.766938 0.590465 0.294394
O O11 0.889375 0.373657 0.481938
O O12 0.162513 0.502852 0.451188
O O13 0.909478 0.188599 0.315178
O O14 0.807220 0.407921 0.632656
#
# Coordination Sequence:
#
# PCOD9117723 Si02
#       7
#     2   2   2   2   2   2   2
#     4  10  26  46  68 113 150 193 252 321 392 458
#     4  11  25  49  75 112 159 200 256 324 396 468
#     4  11  23  43  76 112 146 200 253 318 391 472
#     4  11  23  44  71  99 145 191 250 311 376 458
#     4  10  23  44  72 106 146 189 251 309 380 465
#     4  11  24  46  68 106 141 197 251 309 385 460
#     4  12  24  44  74 106 145 196 253 316 390 459
#
# _framework density 26.306594
#
# number of rings (size 3 to 8) (size 9 to 14) (size 15 to 20)
#    0.000    1.143    4.286    0.857    4.000    2.286 
#    2.571    0.000    0.000    0.000    0.000    0.000 
#    0.000    0.000    0.000    0.000    0.000    0.000 
#
# Total GULP energy -78154.803670 kJ/mol
# GULP energy per Si atom -5582.485976 kJ/mol
# Density = 2.624672 g / cm^3
# Si number density = 26.306594 Si / 1000 Ang^3
#
#
#
# Elastic Constant Matrix: (Units=GPa)
#
#
# Indices 1 2 3 4 5 6 
#
# 1 102.0368 39.5336 23.9113 0.0000 -2.4627 0.0000
# 2 39.5336 70.8556 34.8218 0.0000 16.7851 0.0000
# 3 23.9113 34.8218 108.0802 0.0000 5.8148 0.0000
# 4 0.0000 0.0000 0.0000 48.7288 0.0000 3.1208
# 5 -2.4627 16.7851 5.8148 0.0000 41.1277 0.0000
# 6 0.0000 0.0000 0.0000 3.1208 0.0000 39.6882
#
#
#
# Elastic Compliance Matrix: (Units=1/GPa)
#
#
# Indices 1 2 3 4 5 6 
#
# 1 0.013147 -0.008055 -0.000537 0.000000 0.004150 0.000000
# 2 -0.008055 0.023389 -0.005254 0.000000 -0.009285 0.000000
# 3 -0.000537 -0.005254 0.011034 0.000000 0.000552 0.000000
# 4 0.000000 0.000000 0.000000 0.020626 0.000000 -0.001622
# 5 0.004150 -0.009285 0.000552 0.000000 0.028274 0.000000
# 6 0.000000 0.000000 0.000000 -0.001622 0.000000 0.025324
#
#
# Mechanical properties :
#
#
# Convention : Reuss Voigt Hill
#
# Bulk Modulus (GPa) = 50.30409 53.05623 51.68016
# Shear Modulus (GPa) = 32.02834 38.08934 35.05884
#
# Velocity S-wave (km/s) = 3.49306 3.80926 3.65458
# Velocity P-wave (km/s) = 5.95251 6.28963 6.12339
#
# Compressibility (1/GPa) = 0.01987910
#
# Stress axis : x y z
#
# Youngs Moduli (GPa) = 76.06216 42.75525 90.62727
#
# Poissons Ratio (x) = 0.34438 0.04865
# Poissons Ratio (y) = 0.61267 0.47616
# Poissons Ratio (z) = 0.04083 0.22464
#
# Static dielectric constant tensor:
#      x y z
#    x 2.127020 0.000000 0.021540 
#    y 0.000000 2.174900 0.000000 
#    z 0.021540 0.000000 2.043770 
# 
# From -- ./inp_files/7274.got.cif
#   From: 2010.05.17/outbox.cif.g08.bks.cpg/sg4_4_cif.got.tgz:7274.got - 2010.06.03 18:43:04.
