data_PCOD9117267
_publ_section_title
;
Structure prediction by ZEFSAII (Michael W. Deem and Ramdas Pophale) SiO2 
 PCOD9117267
Probable space group: P 21
;
_chemical_formula_sum "Si O2"
_cell_formula_units_Z 16
_cell_length_a 30.888910
_cell_length_b 5.071951
_cell_length_c 24.483735
_cell_angle_alpha 90.000000
_cell_angle_beta 170.533376
_cell_angle_gamma 90.000000
_cell_volume 630.884762
_symmetry_space_group_name_H-M "P 21"
_symmetry_group_IT_number 4
_symmetry_cell_setting 'monoclinic'
loop_
_space_group_symop_operation_xyz
x,y,z
-x,1/2+y,-z
loop_
_atom_site_type_symbol
_atom_site_label
_atom_site_fract_x
_atom_site_fract_y
_atom_site_fract_z
Si Si1 0.159380 0.065370 0.920468
Si Si2 0.309908 0.919824 0.686234
Si Si3 0.423813 0.751462 0.370996
Si Si4 0.917583 0.208455 0.263332
Si Si5 0.048550 0.899153 0.249857
Si Si6 0.175011 0.252484 0.227781
Si Si7 0.559348 0.409720 0.350716
Si Si8 0.076780 0.498856 0.562321
O O1 0.871707 0.157228 0.537972
O O2 0.125679 0.169017 0.939262
O O3 0.174593 0.780454 0.913250
O O4 0.404300 0.218908 0.198799
O O5 0.221668 0.014764 0.515527
O O6 0.620639 0.920374 0.071301
O O7 0.196452 0.075595 0.597396
O O8 0.567335 0.511558 0.581575
O O9 0.585472 0.794856 0.516289
O O10 0.139969 0.626702 0.006206
O O11 0.934510 0.439608 0.327907
O O12 0.676086 0.024964 0.979757
O O13 0.231010 0.786613 0.429543
O O14 0.282219 0.127681 0.417260
O O15 0.982794 0.025370 0.964377
O O16 0.042030 0.792517 0.541564
#
# Coordination Sequence:
#
# PCOD9117267 Si02
#       8
#     2   2   2   2   2   2   2   2
#     4   9  23  43  70  99 137 189 237 295 361 430
#     4   9  24  45  68 100 141 185 244 287 370 422
#     4  12  25  46  69 105 143 189 241 298 359 433
#     4  11  25  44  77  99 145 194 243 302 370 433
#     4  10  22  45  68  99 140 186 238 294 365 430
#     4  12  26  46  72 108 147 194 246 303 367 432
#     4  11  23  47  68 105 145 189 242 305 361 441
#     4  12  30  46  74 111 148 190 247 304 365 441
#
# _framework density 25.361208999999999
#
# number of rings (size 3 to 8) (size 9 to 14) (size 15 to 20)
#    0.750    0.500    1.250    3.000   10.500    2.000 
#    4.500    0.000    0.000    0.000    0.000    0.000 
#    0.000    0.000    0.000    0.000    0.000    0.000 
#
# Total GULP energy -89480.918554 kJ/mol
# GULP energy per Si atom -5592.557410 kJ/mol
# Density = 2.530349 g / cm^3
# Si number density = 25.361209 Si / 1000 Ang^3
#
#
#
# Elastic Constant Matrix: (Units=GPa)
#
#
# Indices 1 2 3 4 5 6 
#
# 1 121.5238 5.9209 39.1978 0.0000 22.0542 0.0000
# 2 5.9209 52.2613 4.4104 0.0000 3.5340 0.0000
# 3 39.1978 4.4104 114.6899 0.0000 19.6730 0.0000
# 4 0.0000 0.0000 0.0000 17.6737 0.0000 -1.6207
# 5 22.0542 3.5340 19.6730 0.0000 56.9365 0.0000
# 6 0.0000 0.0000 0.0000 -1.6207 0.0000 42.8987
#
#
#
# Elastic Compliance Matrix: (Units=1/GPa)
#
#
# Indices 1 2 3 4 5 6 
#
# 1 0.009663 -0.000673 -0.002808 0.000000 -0.002731 0.000000
# 2 -0.000673 0.019297 -0.000373 0.000000 -0.000808 0.000000
# 3 -0.002808 -0.000373 0.010101 0.000000 -0.002379 0.000000
# 4 0.000000 0.000000 0.000000 0.056778 0.000000 0.002145
# 5 -0.002731 -0.000808 -0.002379 0.000000 0.019493 0.000000
# 6 0.000000 0.000000 0.000000 0.002145 0.000000 0.023392
#
#
# Mechanical properties :
#
#
# Convention : Reuss Voigt Hill
#
# Bulk Modulus (GPa) = 31.89593 43.05923 37.47758
# Shear Modulus (GPa) = 31.87051 39.43151 35.65101
#
# Velocity S-wave (km/s) = 3.54879 3.94737 3.75337
# Velocity P-wave (km/s) = 5.42179 6.14743 5.79598
#
# Compressibility (1/GPa) = 0.03135197
#
# Stress axis : x y z
#
# Youngs Moduli (GPa) = 103.48711 51.82142 98.99584
#
# Poissons Ratio (x) = 0.03488 0.27800
# Poissons Ratio (y) = 0.06966 0.03697
# Poissons Ratio (z) = 0.29062 0.01935
#
# Static dielectric constant tensor:
#      x y z
#    x 2.004810 0.000000 -0.050560 
#    y 0.000000 2.035790 0.000000 
#    z -0.050560 0.000000 2.049240 
# 
# From -- ./inp_files/16250.got.cif
#   From: 2010.05.17/outbox.cif.g08.bks.cpg/sg4_9_cif.got.tgz:16250.got - 2010.06.03 18:43:04.
