data_PCOD9117406
_publ_section_title
;
Structure prediction by ZEFSAII (Michael W. Deem and Ramdas Pophale) SiO2 
 PCOD9117406
Probable space group: P 21
;
_chemical_formula_sum "Si O2"
_cell_formula_units_Z 14
_cell_length_a 11.316185
_cell_length_b 5.133749
_cell_length_c 14.635757
_cell_angle_alpha 90.000000
_cell_angle_beta 137.334432
_cell_angle_gamma 90.000000
_cell_volume 576.233916
_symmetry_space_group_name_H-M "P 21"
_symmetry_group_IT_number 4
_symmetry_cell_setting 'monoclinic'
loop_
_space_group_symop_operation_xyz
x,y,z
-x,1/2+y,-z
loop_
_atom_site_type_symbol
_atom_site_label
_atom_site_fract_x
_atom_site_fract_y
_atom_site_fract_z
Si Si1 0.480357 0.267530 0.432523
Si Si2 0.856393 0.312860 0.052055
Si Si3 0.183769 0.662146 0.487399
Si Si4 0.311417 0.637311 0.225008
Si Si5 0.503905 0.695477 0.058590
Si Si6 0.698186 0.672506 0.351779
Si Si7 0.049460 0.815261 0.219293
O O1 0.544069 0.556999 0.501691
O O2 0.631540 0.141187 0.459849
O O3 0.325972 0.345432 0.275087
O O4 0.928516 0.603660 0.099724
O O5 0.980348 0.107151 0.173636
O O6 0.669900 0.306282 0.994159
O O7 0.821761 0.199867 0.931671
O O8 0.175929 0.397793 0.539212
O O9 0.060731 0.724404 0.331444
O O10 0.211087 0.903236 0.570123
O O11 0.504635 0.682362 0.290606
O O12 0.230707 0.788682 0.266168
O O13 0.655185 0.694340 0.220377
O O14 0.462362 0.402679 0.002369
#
# Coordination Sequence:
#
# PCOD9117406 Si02
#       7
#     2   2   2   2   2   2   2
#     4  11  21  33  54  85 118 167 230 246 279 338
#     4  11  26  42  58  96 121 161 213 250 305 383
#     4  11  22  36  59  89 133 169 207 250 298 350
#     4  10  23  37  60  86 133 171 210 251 290 348
#     4  11  23  46  77  92 114 151 205 278 330 356
#     4  10  23  39  63  99 121 155 222 265 292 358
#     4  12  24  37  61  85 140 176 195 230 304 381
#
# _framework density 24.295687999999998
#
# number of rings (size 3 to 8) (size 9 to 14) (size 15 to 20)
#    0.000    1.143    1.429    5.143    2.000    8.000 
#    0.000    0.000    0.000   17.143    0.000    0.000 
#    0.000    0.000    0.000    0.000    0.000    0.000 
#
# Total GULP energy -78235.192448 kJ/mol
# GULP energy per Si atom -5588.228032 kJ/mol
# Density = 2.424039 g / cm^3
# Si number density = 24.295688 Si / 1000 Ang^3
#
#
#
# Elastic Constant Matrix: (Units=GPa)
#
#
# Indices 1 2 3 4 5 6 
#
# 1 45.3084 2.6941 12.6324 0.0000 -2.7571 0.0000
# 2 2.6941 102.9499 9.4241 0.0000 -12.3546 0.0000
# 3 12.6324 9.4241 87.1542 0.0000 -33.8285 0.0000
# 4 0.0000 0.0000 0.0000 40.8525 0.0000 0.4724
# 5 -2.7571 -12.3546 -33.8285 0.0000 33.1720 0.0000
# 6 0.0000 0.0000 0.0000 0.4724 0.0000 14.3635
#
#
#
# Elastic Compliance Matrix: (Units=1/GPa)
#
#
# Indices 1 2 3 4 5 6 
#
# 1 0.023150 -0.000533 -0.004350 0.000000 -0.002710 0.000000
# 2 -0.000533 0.010200 0.000714 0.000000 0.004483 0.000000
# 3 -0.004350 0.000714 0.019845 0.000000 0.020143 0.000000
# 4 0.000000 0.000000 0.000000 0.024488 0.000000 -0.000805
# 5 -0.002710 0.004483 0.020143 0.000000 0.052132 0.000000
# 6 0.000000 0.000000 0.000000 -0.000805 0.000000 0.069647
#
#
# Mechanical properties :
#
#
# Convention : Reuss Voigt Hill
#
# Bulk Modulus (GPa) = 22.29188 31.65708 26.97448
# Shear Modulus (GPa) = 22.44646 31.72173 27.08410
#
# Velocity S-wave (km/s) = 3.04285 3.61730 3.34244
# Velocity P-wave (km/s) = 4.64116 5.52311 5.10123
#
# Compressibility (1/GPa) = 0.04485938
#
# Stress axis : x y z
#
# Youngs Moduli (GPa) = 43.19562 98.03898 50.38945
#
# Poissons Ratio (x) = 0.05224 0.21919
# Poissons Ratio (y) = 0.02302 -0.03600
# Poissons Ratio (z) = 0.18789 -0.07004
#
# Static dielectric constant tensor:
#      x y z
#    x 1.980660 0.000000 0.006670 
#    y 0.000000 1.909280 0.000000 
#    z 0.006670 0.000000 2.050940 
# 
# From -- ./inp_files/13860.got.cif
#   From: 2010.05.17/outbox.cif.g08.bks.cpg/sg4_7_cif.got.tgz:13860.got - 2010.06.03 18:43:04.
