data_PCOD9117575
_publ_section_title
;
Structure prediction by ZEFSAII (Michael W. Deem and Ramdas Pophale) SiO2 
 PCOD9117575
Probable space group: P 21
;
_chemical_formula_sum "Si O2"
_cell_formula_units_Z 16
_cell_length_a 17.514102
_cell_length_b 7.085811
_cell_length_c 5.231182
_cell_angle_alpha 90.000000
_cell_angle_beta 94.969207
_cell_angle_gamma 90.000000
_cell_volume 646.758064
_symmetry_space_group_name_H-M "P 21"
_symmetry_group_IT_number 4
_symmetry_cell_setting 'monoclinic'
loop_
_space_group_symop_operation_xyz
x,y,z
-x,1/2+y,-z
loop_
_atom_site_type_symbol
_atom_site_label
_atom_site_fract_x
_atom_site_fract_y
_atom_site_fract_z
Si Si1 0.401433 0.180470 0.946088
Si Si2 0.822649 0.247317 0.146903
Si Si3 0.660201 0.075283 0.145327
Si Si4 0.527568 0.349254 0.328124
Si Si5 0.361600 0.861364 0.260904
Si Si6 0.046263 0.447375 0.726973
Si Si7 0.913752 0.721373 0.764250
Si Si8 0.790906 0.466860 0.614497
O O1 0.449587 0.271163 0.194271
O O2 0.347072 0.016424 0.037300
O O3 0.358278 0.357551 0.815132
O O4 0.457378 0.054522 0.789093
O O5 0.748551 0.126290 0.218678
O O6 0.827348 0.414423 0.353850
O O7 0.897071 0.120024 0.194834
O O8 0.810707 0.324685 0.856242
O O9 0.594863 0.199767 0.268211
O O10 0.651377 0.153266 0.850954
O O11 0.550067 0.377013 0.629051
O O12 0.300139 0.937677 0.444266
O O13 0.062166 0.366452 0.450421
O O14 0.961205 0.529399 0.729268
O O15 0.064144 0.295294 0.950886
O O16 0.824497 0.667437 0.709944
#
# Coordination Sequence:
#
# PCOD9117575 Si02
#       8
#     2   2   2   2   2   2   2   2
#     4  11  24  38  64  90 126 168 224 278 336 411
#     4  11  23  44  69  96 135 176 220 275 339 395
#     4  10  23  43  62  90 129 169 220 274 338 401
#     4  11  22  42  59  92 123 171 214 282 337 399
#     4  10  25  40  63  91 128 169 220 271 347 395
#     4  12  25  43  69 104 135 182 223 271 331 395
#     4  12  25  43  70 101 140 176 226 272 327 398
#     4  11  23  45  68  96 136 175 217 283 331 398
#
# _framework density 24.738772999999998
#
# number of rings (size 3 to 8) (size 9 to 14) (size 15 to 20)
#    0.000    1.000    2.500    3.750    3.500    2.000 
#    0.000    0.000    0.000    0.000    0.000    0.000 
#    0.000    0.000    0.000    0.000    0.000    0.000 
#
# Total GULP energy -89459.436617 kJ/mol
# GULP energy per Si atom -5591.214789 kJ/mol
# Density = 2.468247 g / cm^3
# Si number density = 24.738773 Si / 1000 Ang^3
#
#
#
# Elastic Constant Matrix: (Units=GPa)
#
#
# Indices 1 2 3 4 5 6 
#
# 1 51.3462 -9.9220 -3.5758 0.0000 3.8742 0.0000
# 2 -9.9220 78.9821 5.9066 0.0000 -8.3384 0.0000
# 3 -3.5758 5.9066 69.7815 0.0000 10.1296 0.0000
# 4 0.0000 0.0000 0.0000 40.9818 0.0000 0.6467
# 5 3.8742 -8.3384 10.1296 0.0000 31.5074 0.0000
# 6 0.0000 0.0000 0.0000 0.6467 0.0000 36.2284
#
#
#
# Elastic Compliance Matrix: (Units=1/GPa)
#
#
# Indices 1 2 3 4 5 6 
#
# 1 0.020155 0.002204 0.001176 0.000000 -0.002273 0.000000
# 2 0.002204 0.013457 -0.001577 0.000000 0.003797 0.000000
# 3 0.001176 -0.001577 0.015321 0.000000 -0.005488 0.000000
# 4 0.000000 0.000000 0.000000 0.024408 0.000000 -0.000436
# 5 -0.002273 0.003797 -0.005488 0.000000 0.034787 0.000000
# 6 0.000000 0.000000 0.000000 -0.000436 0.000000 0.027610
#
#
# Mechanical properties :
#
#
# Convention : Reuss Voigt Hill
#
# Bulk Modulus (GPa) = 19.03370 20.54748 19.79059
# Shear Modulus (GPa) = 33.41231 35.59025 34.50128
#
# Velocity S-wave (km/s) = 3.67904 3.79706 3.73852
# Velocity P-wave (km/s) = 5.07521 5.24856 5.16261
#
# Compressibility (1/GPa) = 0.05253838
#
# Stress axis : x y z
#
# Youngs Moduli (GPa) = 49.61557 74.31165 65.27058
#
# Poissons Ratio (x) = -0.16378 -0.07677
# Poissons Ratio (y) = -0.10935 0.10295
# Poissons Ratio (z) = -0.05836 0.11722
#
# Static dielectric constant tensor:
#      x y z
#    x 1.980340 0.000000 -0.043370 
#    y 0.000000 1.912300 0.000000 
#    z -0.043370 0.000000 2.049240 
# 
# From -- ./inp_files/4011.got.cif
#   From: 2010.05.17/outbox.cif.g08.bks.cpg/sg4_3_cif.got.tgz:4011.got - 2010.06.03 18:43:04.
