data_PCOD9117635
_publ_section_title
;
Structure prediction by ZEFSAII (Michael W. Deem and Ramdas Pophale) SiO2 
 PCOD9117635
Probable space group: P 21
;
_chemical_formula_sum "Si O2"
_cell_formula_units_Z 14
_cell_length_a 10.623083
_cell_length_b 8.648832
_cell_length_c 9.345305
_cell_angle_alpha 90.000000
_cell_angle_beta 138.938067
_cell_angle_gamma 90.000000
_cell_volume 564.006199
_symmetry_space_group_name_H-M "P 21"
_symmetry_group_IT_number 4
_symmetry_cell_setting 'monoclinic'
loop_
_space_group_symop_operation_xyz
x,y,z
-x,1/2+y,-z
loop_
_atom_site_type_symbol
_atom_site_label
_atom_site_fract_x
_atom_site_fract_y
_atom_site_fract_z
Si Si1 0.533926 0.800630 0.871069
Si Si2 0.667984 0.366655 0.587882
Si Si3 0.142554 0.354298 0.345773
Si Si4 0.283789 0.517987 0.738909
Si Si5 0.006090 0.025409 0.281421
Si Si6 0.184846 0.060471 0.031000
Si Si7 0.785429 0.068580 0.826705
O O1 0.467316 0.882024 0.666108
O O2 0.366202 0.688103 0.785028
O O3 0.706243 0.683447 0.973226
O O4 0.587166 0.915805 0.044261
O O5 0.874808 0.387344 0.685561
O O6 0.680163 0.484803 0.731597
O O7 0.650434 0.199776 0.647967
O O8 0.264385 0.441636 0.568397
O O9 0.136327 0.176196 0.376983
O O10 0.232533 0.407329 0.272506
O O11 0.924905 0.423806 0.151161
O O12 0.072576 0.511504 0.627740
O O13 0.817935 0.052470 0.021807
O O14 0.000198 0.123836 0.959635
#
# Coordination Sequence:
#
# PCOD9117635 Si02
#       7
#     2   2   2   2   2   2   2
#     4  12  28  47  61 107 146 184 218 277 372 405
#     4  11  22  44  72 100 134 176 231 290 330 404
#     4  10  23  43  70  97 126 181 233 283 318 404
#     4  12  30  42  70  96 147 185 219 287 336 433
#     4  11  23  41  72 103 123 181 235 278 336 394
#     4   9  22  43  71  97 135 175 231 291 327 403
#     4   9  18  44  72 100 123 172 247 284 315 387
#
# _framework density 24.822420000000001
#
# number of rings (size 3 to 8) (size 9 to 14) (size 15 to 20)
#    0.857    0.571    2.857    0.857    8.000    2.286 
#    5.143    0.000    0.000    0.000    0.000    0.000 
#    0.000    0.000    0.000    0.000    0.000    0.000 
#
# Total GULP energy -78266.764241 kJ/mol
# GULP energy per Si atom -5590.483160 kJ/mol
# Density = 2.476592 g / cm^3
# Si number density = 24.822420 Si / 1000 Ang^3
#
#
#
# Elastic Constant Matrix: (Units=GPa)
#
#
# Indices 1 2 3 4 5 6 
#
# 1 67.6968 -4.4745 8.1645 0.0000 -12.5313 0.0000
# 2 -4.4745 56.6356 38.5178 0.0000 0.3682 0.0000
# 3 8.1645 38.5178 112.6836 0.0000 -9.6208 0.0000
# 4 0.0000 0.0000 0.0000 44.6257 0.0000 2.6048
# 5 -12.5313 0.3682 -9.6208 0.0000 28.5889 0.0000
# 6 0.0000 0.0000 0.0000 2.6048 0.0000 25.7684
#
#
#
# Elastic Compliance Matrix: (Units=1/GPa)
#
#
# Indices 1 2 3 4 5 6 
#
# 1 0.016312 0.002166 -0.001353 0.000000 0.006667 0.000000
# 2 0.002166 0.023550 -0.008393 0.000000 -0.002179 0.000000
# 3 -0.001353 -0.008393 0.012149 0.000000 0.003603 0.000000
# 4 0.000000 0.000000 0.000000 0.022542 0.000000 -0.002279
# 5 0.006667 -0.002179 0.003603 0.000000 0.039142 0.000000
# 6 0.000000 0.000000 0.000000 -0.002279 0.000000 0.039038
#
#
# Mechanical properties :
#
#
# Convention : Reuss Voigt Hill
#
# Bulk Modulus (GPa) = 27.13657 35.71460 31.42559
# Shear Modulus (GPa) = 27.75067 32.78380 30.26723
#
# Velocity S-wave (km/s) = 3.34723 3.63813 3.49571
# Velocity P-wave (km/s) = 5.08867 5.66280 5.38340
#
# Compressibility (1/GPa) = 0.03685065
#
# Stress axis : x y z
#
# Youngs Moduli (GPa) = 61.30396 42.46295 82.31167
#
# Poissons Ratio (x) = -0.09195 0.11136
# Poissons Ratio (y) = -0.13275 0.69083
# Poissons Ratio (z) = 0.08294 0.35638
#
# Static dielectric constant tensor:
#      x y z
#    x 1.966030 0.000000 0.085690 
#    y 0.000000 1.956930 0.000000 
#    z 0.085690 0.000000 1.992810 
# 
# From -- ./inp_files/7602.got.cif
#   From: 2010.05.17/outbox.cif.g08.bks.cpg/sg4_4_cif.got.tgz:7602.got - 2010.06.03 18:43:04.
