data_PCOD9117821
_publ_section_title
;
Structure prediction by ZEFSAII (Michael W. Deem and Ramdas Pophale) SiO2 
 PCOD9117821
Probable space group: P 21
;
_chemical_formula_sum "Si O2"
_cell_formula_units_Z 12
_cell_length_a 9.043047
_cell_length_b 8.529986
_cell_length_c 6.978984
_cell_angle_alpha 90.000000
_cell_angle_beta 123.295991
_cell_angle_gamma 90.000000
_cell_volume 449.967825
_symmetry_space_group_name_H-M "P 21"
_symmetry_group_IT_number 4
_symmetry_cell_setting 'monoclinic'
loop_
_space_group_symop_operation_xyz
x,y,z
-x,1/2+y,-z
loop_
_atom_site_type_symbol
_atom_site_label
_atom_site_fract_x
_atom_site_fract_y
_atom_site_fract_z
Si Si1 0.340742 0.221260 0.470046
Si Si2 0.580573 0.893212 0.121462
Si Si3 0.096651 0.615582 0.580804
Si Si4 0.368111 0.839903 0.585915
Si Si5 0.729821 0.508983 0.826120
Si Si6 0.033173 0.376251 0.244317
O O1 0.372152 0.235080 0.726739
O O2 0.535811 0.246877 0.515190
O O3 0.242650 0.399112 0.394227
O O4 0.224271 0.186453 0.175404
O O5 0.426358 0.974513 0.141388
O O6 0.750739 0.005376 0.220870
O O7 0.489427 0.859490 0.855051
O O8 0.194404 0.749640 0.527273
O O9 0.991753 0.708411 0.669817
O O10 0.974782 0.511081 0.356528
O O11 0.329078 0.007182 0.448939
O O12 0.895525 0.400717 0.978061
#
# Coordination Sequence:
#
# PCOD9117821 Si02
#       6
#     2   2   2   2   2   2
#     4  10  25  44  68 103 138 184 237 292 358 425
#     4  10  23  46  71 103 137 190 245 291 352 442
#     4  11  25  48  71 102 146 192 239 292 363 429
#     4  11  24  43  73  98 139 192 234 296 352 436
#     4  11  24  41  71 104 139 182 239 296 358 423
#     4  11  27  46  70 112 147 184 244 301 367 423
#
# _framework density 26.668574
#
# number of rings (size 3 to 8) (size 9 to 14) (size 15 to 20)
#    0.000    1.333    3.333    0.000    7.000    4.000 
#    0.000    0.000    0.000    0.000    0.000    0.000 
#    0.000    0.000    0.000    0.000    0.000    0.000 
#
# Total GULP energy -66908.196531 kJ/mol
# GULP energy per Si atom -5575.683044 kJ/mol
# Density = 2.660788 g / cm^3
# Si number density = 26.668574 Si / 1000 Ang^3
#
#
#
# Elastic Constant Matrix: (Units=GPa)
#
#
# Indices 1 2 3 4 5 6 
#
# 1 86.6920 12.5875 16.2737 0.0000 -0.8179 0.0000
# 2 12.5875 93.8904 35.6400 0.0000 -2.9496 0.0000
# 3 16.2737 35.6400 152.2185 0.0000 0.4299 0.0000
# 4 0.0000 0.0000 0.0000 56.2525 0.0000 2.5200
# 5 -0.8179 -2.9496 0.4299 0.0000 34.3840 0.0000
# 6 0.0000 0.0000 0.0000 2.5200 0.0000 57.5818
#
#
#
# Elastic Compliance Matrix: (Units=1/GPa)
#
#
# Indices 1 2 3 4 5 6 
#
# 1 0.011899 -0.001214 -0.000988 0.000000 0.000191 0.000000
# 2 -0.001214 0.011851 -0.002648 0.000000 0.001021 0.000000
# 3 -0.000988 -0.002648 0.007296 0.000000 -0.000342 0.000000
# 4 0.000000 0.000000 0.000000 0.017812 0.000000 -0.000780
# 5 0.000191 0.001021 -0.000342 0.000000 0.029180 0.000000
# 6 0.000000 0.000000 0.000000 -0.000780 0.000000 0.017401
#
#
# Mechanical properties :
#
#
# Convention : Reuss Voigt Hill
#
# Bulk Modulus (GPa) = 46.84925 51.31149 49.08037
# Shear Modulus (GPa) = 44.54220 47.53030 46.03625
#
# Velocity S-wave (km/s) = 4.09126 4.22626 4.15931
# Velocity P-wave (km/s) = 6.31848 6.56485 6.44284
#
# Compressibility (1/GPa) = 0.02134506
#
# Stress axis : x y z
#
# Youngs Moduli (GPa) = 84.04277 84.38380 137.05998
#
# Poissons Ratio (x) = 0.10244 0.13547
# Poissons Ratio (y) = 0.10203 0.36290
# Poissons Ratio (z) = 0.08307 0.22343
#
# Static dielectric constant tensor:
#      x y z
#    x 2.129250 0.000000 -0.059810 
#    y 0.000000 2.197610 0.000000 
#    z -0.059810 0.000000 2.299790 
# 
# From -- ./inp_files/1031.got.cif
#   From: 2010.05.17/outbox.cif.g08.bks.cpg/sg4_1_cif.got.tgz:1031.got - 2010.06.03 18:43:04.
