data_PCOD9117946
_publ_section_title
;
Structure prediction by ZEFSAII (Michael W. Deem and Ramdas Pophale) SiO2 
 PCOD9117946
Probable space group: P 21
;
_chemical_formula_sum "Si O2"
_cell_formula_units_Z 16
_cell_length_a 12.738896
_cell_length_b 7.846254
_cell_length_c 6.337908
_cell_angle_alpha 90.000000
_cell_angle_beta 75.628280
_cell_angle_gamma 90.000000
_cell_volume 613.665887
_symmetry_space_group_name_H-M "P 21"
_symmetry_group_IT_number 4
_symmetry_cell_setting 'monoclinic'
loop_
_space_group_symop_operation_xyz
x,y,z
-x,1/2+y,-z
loop_
_atom_site_type_symbol
_atom_site_label
_atom_site_fract_x
_atom_site_fract_y
_atom_site_fract_z
Si Si1 0.018871 0.150560 0.652585
Si Si2 0.225981 0.023596 0.357984
Si Si3 0.584147 0.523656 0.454578
Si Si4 0.663020 0.321214 0.041229
Si Si5 0.843279 0.155962 0.420018
Si Si6 0.002914 0.858516 0.964071
Si Si7 0.239331 0.467443 0.910754
Si Si8 0.538798 0.809558 0.161077
O O1 0.119990 0.136827 0.445681
O O2 0.915980 0.085338 0.574000
O O3 0.987189 0.323306 0.790806
O O4 0.049620 0.029780 0.834580
O O5 0.319317 0.104934 0.457674
O O6 0.272863 0.974926 0.105923
O O7 0.205963 0.831960 0.464411
O O8 0.532535 0.642829 0.306321
O O9 0.499266 0.461417 0.667519
O O10 0.635037 0.370425 0.293006
O O11 0.548700 0.297507 0.979190
O O12 0.734597 0.151025 0.998058
O O13 0.767699 0.021414 0.335925
O O14 0.929106 0.217117 0.197105
O O15 0.874790 0.877653 0.988918
O O16 0.336437 0.349169 0.941964
#
# Coordination Sequence:
#
# PCOD9117946 Si02
#       8
#     2   2   2   2   2   2   2   2
#     4  11  25  44  70 104 140 188 238 297 349 428
#     4  10  24  41  70  98 137 188 223 293 357 410
#     4  11  23  47  67 102 142 176 236 301 354 425
#     4  11  24  46  73 102 140 189 239 290 364 422
#     4  11  25  43  69 103 146 185 237 292 355 427
#     4  11  25  45  70 104 147 184 244 293 350 435
#     4  12  24  46  73 106 143 197 237 300 359 424
#     4  11  26  44  74 103 139 185 242 298 360 425
#
# _framework density 26.072818999999999
#
# number of rings (size 3 to 8) (size 9 to 14) (size 15 to 20)
#    0.000    1.000    2.500    3.000    5.250    3.000 
#    2.250    0.000    0.000    0.000    0.000    0.000 
#    0.000    0.000    0.000    0.000    0.000    0.000 
#
# Total GULP energy -89553.119454 kJ/mol
# GULP energy per Si atom -5597.069966 kJ/mol
# Density = 2.601348 g / cm^3
# Si number density = 26.072819 Si / 1000 Ang^3
#
#
#
# Elastic Constant Matrix: (Units=GPa)
#
#
# Indices 1 2 3 4 5 6 
#
# 1 135.1678 12.5128 25.5107 0.0000 12.3889 0.0000
# 2 12.5128 69.6570 19.9681 0.0000 12.1768 0.0000
# 3 25.5107 19.9681 65.3331 0.0000 11.5672 0.0000
# 4 0.0000 0.0000 0.0000 31.5953 0.0000 2.7665
# 5 12.3889 12.1768 11.5672 0.0000 39.5764 0.0000
# 6 0.0000 0.0000 0.0000 2.7665 0.0000 41.6623
#
#
#
# Elastic Compliance Matrix: (Units=1/GPa)
#
#
# Indices 1 2 3 4 5 6 
#
# 1 0.008103 -0.000382 -0.002762 0.000000 -0.001612 0.000000
# 2 -0.000382 0.016261 -0.004172 0.000000 -0.003664 0.000000
# 3 -0.002762 -0.004172 0.018222 0.000000 -0.003178 0.000000
# 4 0.000000 0.000000 0.000000 0.031835 0.000000 -0.002114
# 5 -0.001612 -0.003664 -0.003178 0.000000 0.027828 0.000000
# 6 0.000000 0.000000 0.000000 -0.002114 0.000000 0.024143
#
#
# Mechanical properties :
#
#
# Convention : Reuss Voigt Hill
#
# Bulk Modulus (GPa) = 35.77257 42.90455 39.33856
# Shear Modulus (GPa) = 33.25743 36.71123 34.98433
#
# Velocity S-wave (km/s) = 3.57537 3.75644 3.66702
# Velocity P-wave (km/s) = 5.54927 5.94187 5.74892
#
# Compressibility (1/GPa) = 0.02795438
#
# Stress axis : x y z
#
# Youngs Moduli (GPa) = 123.41836 61.49597 54.87792
#
# Poissons Ratio (x) = 0.02350 0.15155
# Poissons Ratio (y) = 0.04716 0.22895
# Poissons Ratio (z) = 0.34084 0.25657
#
# Static dielectric constant tensor:
#      x y z
#    x 2.047950 0.000000 -0.042750 
#    y 0.000000 2.143190 0.000000 
#    z -0.042750 0.000000 2.037240 
# 
# From -- ./inp_files/2632.got.cif
#   From: 2010.05.17/outbox.cif.g08.bks.cpg/sg4_2_cif.got.tgz:2632.got - 2010.06.03 18:43:04.
