data_PCOD9117738
_publ_section_title
;
Structure prediction by ZEFSAII (Michael W. Deem and Ramdas Pophale) SiO2 
 PCOD9117738
Probable space group: P 21
;
_chemical_formula_sum "Si O2"
_cell_formula_units_Z 16
_cell_length_a 27.023018
_cell_length_b 5.034880
_cell_length_c 11.524319
_cell_angle_alpha 90.000000
_cell_angle_beta 157.174608
_cell_angle_gamma 90.000000
_cell_volume 608.254038
_symmetry_space_group_name_H-M "P 21"
_symmetry_group_IT_number 4
_symmetry_cell_setting 'monoclinic'
loop_
_space_group_symop_operation_xyz
x,y,z
-x,1/2+y,-z
loop_
_atom_site_type_symbol
_atom_site_label
_atom_site_fract_x
_atom_site_fract_y
_atom_site_fract_z
Si Si1 0.608807 0.235060 0.346527
Si Si2 0.846028 0.899788 0.901544
Si Si3 0.535493 0.229828 0.917378
Si Si4 0.814099 0.571452 0.044607
Si Si5 0.264845 0.339195 0.763777
Si Si6 0.964736 0.757410 0.595030
Si Si7 0.091401 0.109757 0.188268
Si Si8 0.415557 0.053436 0.299317
O O1 0.749332 0.123403 0.652308
O O2 0.581600 0.521502 0.340630
O O3 0.516863 0.025299 0.214891
O O4 0.573483 0.235435 0.134875
O O5 0.851489 0.678304 0.814422
O O6 0.988181 0.013895 0.225152
O O7 0.795886 0.815577 0.919242
O O8 0.648374 0.083815 0.091467
O O9 0.906115 0.390264 0.167819
O O10 0.896127 0.660279 0.331843
O O11 0.686995 0.458703 0.826384
O O12 0.205504 0.173005 0.526980
O O13 0.136967 0.432172 0.555230
O O14 0.341044 0.163002 0.024423
O O15 0.024269 0.823431 0.044910
O O16 0.490920 0.305452 0.515645
#
# Coordination Sequence:
#
# PCOD9117738 Si02
#       8
#     2   2   2   2   2   2   2   2
#     4  10  24  41  68  99 136 190 230 289 353 427
#     4  12  25  43  74 104 143 192 246 301 370 444
#     4  10  23  45  65  99 143 182 235 284 359 426
#     4  11  26  46  75 102 150 191 252 308 369 446
#     4  11  25  49  75 110 153 195 246 318 371 452
#     4  11  24  48  71 107 141 197 244 308 379 438
#     4  12  27  47  72 112 154 195 246 305 382 457
#     4  11  30  51  78 113 148 202 255 311 379 440
#
# _framework density 26.304798999999999
#
# number of rings (size 3 to 8) (size 9 to 14) (size 15 to 20)
#    0.000    1.000    3.750    0.750    7.000    2.000 
#    2.250    0.000    0.000    0.000    0.000    0.000 
#    0.000    0.000    0.000    0.000    0.000    0.000 
#
# Total GULP energy -89725.147431 kJ/mol
# GULP energy per Si atom -5607.821714 kJ/mol
# Density = 2.624493 g / cm^3
# Si number density = 26.304799 Si / 1000 Ang^3
#
#
#
# Elastic Constant Matrix: (Units=GPa)
#
#
# Indices 1 2 3 4 5 6 
#
# 1 123.4998 20.1873 44.2488 0.0000 21.7888 0.0000
# 2 20.1873 88.9016 32.7386 0.0000 1.5234 0.0000
# 3 44.2488 32.7386 111.9937 0.0000 -5.3659 0.0000
# 4 0.0000 0.0000 0.0000 35.0759 0.0000 11.4592
# 5 21.7888 1.5234 -5.3659 0.0000 57.2636 0.0000
# 6 0.0000 0.0000 0.0000 11.4592 0.0000 37.9940
#
#
#
# Elastic Compliance Matrix: (Units=1/GPa)
#
#
# Indices 1 2 3 4 5 6 
#
# 1 0.010467 -0.000787 -0.004113 0.000000 -0.004347 0.000000
# 2 -0.000787 0.012691 -0.003416 0.000000 -0.000358 0.000000
# 3 -0.004113 -0.003416 0.011685 0.000000 0.002751 0.000000
# 4 0.000000 0.000000 0.000000 0.031626 0.000000 -0.009539
# 5 -0.004347 -0.000358 0.002751 0.000000 0.019384 0.000000
# 6 0.000000 0.000000 0.000000 -0.009539 0.000000 0.029197
#
#
# Mechanical properties :
#
#
# Convention : Reuss Voigt Hill
#
# Bulk Modulus (GPa) = 54.91844 57.63826 56.27835
# Shear Modulus (GPa) = 36.29679 41.21474 38.75576
#
# Velocity S-wave (km/s) = 3.71867 3.96259 3.84257
# Velocity P-wave (km/s) = 6.27384 6.54946 6.41313
#
# Compressibility (1/GPa) = 0.01820882
#
# Stress axis : x y z
#
# Youngs Moduli (GPa) = 95.54152 78.79404 85.58190
#
# Poissons Ratio (x) = 0.06204 0.35204
# Poissons Ratio (y) = 0.07523 0.29235
# Poissons Ratio (z) = 0.39301 0.26916
#
# Static dielectric constant tensor:
#      x y z
#    x 2.045130 0.000000 0.032040 
#    y 0.000000 2.129120 0.000000 
#    z 0.032040 0.000000 2.044550 
# 
# From -- ./inp_files/13129.got.cif
#   From: 2010.05.17/outbox.cif.g08.bks.cpg/sg4_7_cif.got.tgz:13129.got - 2010.06.03 18:43:04.
