data_PCOD9117345
_publ_section_title
;
Structure prediction by ZEFSAII (Michael W. Deem and Ramdas Pophale) SiO2 
 PCOD9117345
Probable space group: P 21
;
_chemical_formula_sum "Si O2"
_cell_formula_units_Z 16
_cell_length_a 11.200292
_cell_length_b 8.894712
_cell_length_c 9.682335
_cell_angle_alpha 90.000000
_cell_angle_beta 140.538991
_cell_angle_gamma 90.000000
_cell_volume 613.046039
_symmetry_space_group_name_H-M "P 21"
_symmetry_group_IT_number 4
_symmetry_cell_setting 'monoclinic'
loop_
_space_group_symop_operation_xyz
x,y,z
-x,1/2+y,-z
loop_
_atom_site_type_symbol
_atom_site_label
_atom_site_fract_x
_atom_site_fract_y
_atom_site_fract_z
Si Si1 0.667311 0.976600 0.515447
Si Si2 0.729401 0.334672 0.218886
Si Si3 0.286537 0.370475 0.136163
Si Si4 0.621790 0.662997 0.020879
Si Si5 0.760481 0.452836 0.834393
Si Si6 0.344252 0.008271 0.576582
Si Si7 0.065856 0.716337 0.144542
Si Si8 0.150020 0.289441 0.537016
O O1 0.703892 0.876450 0.687669
O O2 0.783591 0.938044 0.481875
O O3 0.447823 0.953679 0.289689
O O4 0.747335 0.140384 0.627668
O O5 0.673574 0.489602 0.090412
O O6 0.736155 0.391667 0.383376
O O7 0.572537 0.206636 0.078934
O O8 0.927890 0.279742 0.343052
O O9 0.427324 0.502653 0.215054
O O10 0.065980 0.348576 0.908853
O O11 0.377409 0.232401 0.131709
O O12 0.773341 0.762539 0.240983
O O13 0.709590 0.471852 0.627061
O O14 0.915817 0.579453 0.005472
O O15 0.254583 0.163935 0.540385
O O16 0.136304 0.791739 0.064898
#
# Coordination Sequence:
#
# PCOD9117345 Si02
#       8
#     2   2   2   2   2   2   2   2
#     4  11  26  43  69 111 146 184 234 303 354 423
#     4  10  23  46  72 106 142 186 244 289 364 424
#     4  10  22  46  73  99 144 182 242 287 361 421
#     4  10  24  47  70 104 140 191 235 303 344 428
#     4  11  27  45  72 103 149 187 244 297 358 431
#     4   9  23  45  71 101 144 189 233 301 355 419
#     4  12  25  44  71 107 139 192 237 295 360 426
#     4  11  24  44  72 105 144 185 239 289 360 426
#
# _framework density 26.099183
#
# number of rings (size 3 to 8) (size 9 to 14) (size 15 to 20)
#    0.000    1.500    1.250    1.500    8.750    4.000 
#    6.750    0.000    0.000    0.000    0.000    0.000 
#    0.000    0.000    0.000    0.000    0.000    0.000 
#
# Total GULP energy -89408.086774 kJ/mol
# GULP energy per Si atom -5588.005423 kJ/mol
# Density = 2.603978 g / cm^3
# Si number density = 26.099183 Si / 1000 Ang^3
#
#
#
# Elastic Constant Matrix: (Units=GPa)
#
#
# Indices 1 2 3 4 5 6 
#
# 1 151.3266 29.6287 52.7696 0.0000 52.1883 0.0000
# 2 29.6287 69.3935 23.3548 0.0000 22.6006 0.0000
# 3 52.7696 23.3548 93.7301 0.0000 3.1635 0.0000
# 4 0.0000 0.0000 0.0000 42.9662 0.0000 5.2591
# 5 52.1883 22.6006 3.1635 0.0000 73.6875 0.0000
# 6 0.0000 0.0000 0.0000 5.2591 0.0000 48.5223
#
#
#
# Elastic Compliance Matrix: (Units=1/GPa)
#
#
# Indices 1 2 3 4 5 6 
#
# 1 0.011488 -0.000309 -0.006128 0.000000 -0.007779 0.000000
# 2 -0.000309 0.017519 -0.004023 0.000000 -0.004981 0.000000
# 3 -0.006128 -0.004023 0.014955 0.000000 0.004932 0.000000
# 4 0.000000 0.000000 0.000000 0.023587 0.000000 -0.002556
# 5 -0.007779 -0.004981 0.004932 0.000000 0.020396 0.000000
# 6 0.000000 0.000000 0.000000 -0.002556 0.000000 0.020886
#
#
# Mechanical properties :
#
#
# Convention : Reuss Voigt Hill
#
# Bulk Modulus (GPa) = 43.40021 58.43960 50.91990
# Shear Modulus (GPa) = 36.38129 46.94834 41.66481
#
# Velocity S-wave (km/s) = 3.73763 4.24588 3.99984
# Velocity P-wave (km/s) = 5.94067 6.81738 6.39407
#
# Compressibility (1/GPa) = 0.02304137
#
# Stress axis : x y z
#
# Youngs Moduli (GPa) = 87.04408 57.08102 66.86684
#
# Poissons Ratio (x) = 0.01765 0.40978
# Poissons Ratio (y) = 0.02692 0.26900
# Poissons Ratio (z) = 0.53344 0.22963
#
# Static dielectric constant tensor:
#      x y z
#    x 2.046240 0.000000 -0.022230 
#    y 0.000000 2.157380 0.000000 
#    z -0.022230 0.000000 2.076890 
# 
# From -- ./inp_files/8173.got.cif
#   From: 2010.05.17/outbox.cif.g08.bks.cpg/sg4_5_cif.got.tgz:8173.got - 2010.06.03 18:43:04.
