data_PCOD9117248
_publ_section_title
;
Structure prediction by ZEFSAII (Michael W. Deem and Ramdas Pophale) SiO2 
 PCOD9117248
Probable space group: P 21
;
_chemical_formula_sum "Si O2"
_cell_formula_units_Z 14
_cell_length_a 5.476075
_cell_length_b 8.867324
_cell_length_c 13.506440
_cell_angle_alpha 90.000000
_cell_angle_beta 55.975407
_cell_angle_gamma 90.000000
_cell_volume 543.564741
_symmetry_space_group_name_H-M "P 21"
_symmetry_group_IT_number 4
_symmetry_cell_setting 'monoclinic'
loop_
_space_group_symop_operation_xyz
x,y,z
-x,1/2+y,-z
loop_
_atom_site_type_symbol
_atom_site_label
_atom_site_fract_x
_atom_site_fract_y
_atom_site_fract_z
Si Si1 0.743404 0.361110 0.071707
Si Si2 0.818965 0.943344 0.373830
Si Si3 0.814092 0.408880 0.430868
Si Si4 0.135879 0.371089 0.151089
Si Si5 0.710495 0.831165 0.179868
Si Si6 0.186698 0.684391 0.391254
Si Si7 0.638581 0.593042 0.819911
O O1 0.456094 0.445156 0.095941
O O2 0.595743 0.218299 0.161826
O O3 0.950390 0.437926 0.104640
O O4 0.966198 0.304609 0.936675
O O5 0.512692 0.979065 0.496265
O O6 0.749402 0.925615 0.272516
O O7 0.951734 0.786118 0.383139
O O8 0.091603 0.058400 0.314199
O O9 0.781090 0.268900 0.512126
O O10 0.940429 0.379452 0.293896
O O11 0.050253 0.520456 0.426621
O O12 0.225935 0.191889 0.119774
O O13 0.494890 0.697475 0.262631
O O14 0.529567 0.934145 0.141884
#
# Coordination Sequence:
#
# PCOD9117248 Si02
#       7
#     2   2   2   2   2   2   2
#     4  10  24  44  70 102 143 189 235 301 354 444
#     4  10  23  41  71  99 141 190 240 308 364 433
#     4  11  26  44  71 105 149 185 255 298 375 432
#     4  10  25  44  69 106 138 189 236 297 361 432
#     4  10  22  45  66 104 139 186 245 296 371 424
#     4  10  26  43  71 103 140 196 238 314 360 443
#     4   9  22  39  70  97 138 185 241 284 371 420
#
# _framework density 25.755901000000001
#
# number of rings (size 3 to 8) (size 9 to 14) (size 15 to 20)
#    0.857    1.143    0.000    0.857   14.000    2.286 
#    5.143    0.000    0.000    0.000    0.000    0.000 
#    0.000    0.000    0.000    0.000    0.000    0.000 
#
# Total GULP energy -78216.245492 kJ/mol
# GULP energy per Si atom -5586.874678 kJ/mol
# Density = 2.569728 g / cm^3
# Si number density = 25.755901 Si / 1000 Ang^3
#
#
#
# Elastic Constant Matrix: (Units=GPa)
#
#
# Indices 1 2 3 4 5 6 
#
# 1 139.4604 7.7899 81.3420 0.0000 -31.0422 0.0000
# 2 7.7899 61.6958 31.5885 0.0000 -13.1481 0.0000
# 3 81.3420 31.5885 188.9533 0.0000 -40.9230 0.0000
# 4 0.0000 0.0000 0.0000 25.3598 0.0000 -7.1997
# 5 -31.0422 -13.1481 -40.9230 0.0000 45.8018 0.0000
# 6 0.0000 0.0000 0.0000 -7.1997 0.0000 31.2340
#
#
#
# Elastic Compliance Matrix: (Units=1/GPa)
#
#
# Indices 1 2 3 4 5 6 
#
# 1 0.010165 0.001488 -0.003769 0.000000 0.003948 0.000000
# 2 0.001488 0.018289 -0.002905 0.000000 0.003663 0.000000
# 3 -0.003769 -0.002905 0.008266 0.000000 0.003997 0.000000
# 4 0.000000 0.000000 0.000000 0.042194 0.000000 0.009726
# 5 0.003948 0.003663 0.003997 0.000000 0.029132 0.000000
# 6 0.000000 0.000000 0.000000 0.009726 0.000000 0.034258
#
#
# Mechanical properties :
#
#
# Convention : Reuss Voigt Hill
#
# Bulk Modulus (GPa) = 37.95412 70.17226 54.06319
# Shear Modulus (GPa) = 30.96767 38.43839 34.70303
#
# Velocity S-wave (km/s) = 3.47126 3.86736 3.67465
# Velocity P-wave (km/s) = 5.55286 6.87359 6.24822
#
# Compressibility (1/GPa) = 0.02634760
#
# Stress axis : x y z
#
# Youngs Moduli (GPa) = 98.37847 54.67903 120.97325
#
# Poissons Ratio (x) = -0.08136 0.45600
# Poissons Ratio (y) = -0.14639 0.35138
# Poissons Ratio (z) = 0.37083 0.15882
#
# Static dielectric constant tensor:
#      x y z
#    x 2.040280 0.000000 0.011740 
#    y 0.000000 2.033480 0.000000 
#    z 0.011740 0.000000 1.985450 
# 
# From -- ./inp_files/13403.got.cif
#   From: 2010.05.17/outbox.cif.g08.bks.cpg/sg4_7_cif.got.tgz:13403.got - 2010.06.03 18:43:04.
