data_PCOD9117261
_publ_section_title
;
Structure prediction by ZEFSAII (Michael W. Deem and Ramdas Pophale) SiO2 
 PCOD9117261
Probable space group: P 21
;
_chemical_formula_sum "Si O2"
_cell_formula_units_Z 12
_cell_length_a 11.023420
_cell_length_b 8.051371
_cell_length_c 9.559744
_cell_angle_alpha 90.000000
_cell_angle_beta 39.482354
_cell_angle_gamma 90.000000
_cell_volume 539.486614
_symmetry_space_group_name_H-M "P 21"
_symmetry_group_IT_number 4
_symmetry_cell_setting 'monoclinic'
loop_
_space_group_symop_operation_xyz
x,y,z
-x,1/2+y,-z
loop_
_atom_site_type_symbol
_atom_site_label
_atom_site_fract_x
_atom_site_fract_y
_atom_site_fract_z
Si Si1 0.222037 0.467250 0.157092
Si Si2 0.676713 0.159295 0.463694
Si Si3 0.077724 0.732664 0.496391
Si Si4 0.712062 0.621716 0.321713
Si Si5 0.371042 0.983201 0.327044
Si Si6 0.099691 0.462772 0.946678
O O1 0.139302 0.626294 0.310076
O O2 0.140227 0.295478 0.297208
O O3 0.448418 0.487753 0.934895
O O4 0.142121 0.461990 0.072296
O O5 0.829066 0.129912 0.455266
O O6 0.473626 0.078191 0.605512
O O7 0.601269 0.338859 0.579930
O O8 0.799422 0.117390 0.218824
O O9 0.192654 0.908307 0.401583
O O10 0.666807 0.630037 0.529575
O O11 0.807793 0.798143 0.199508
O O12 0.874432 0.488581 0.139455
#
# Coordination Sequence:
#
# PCOD9117261 Si02
#       6
#     2   2   2   2   2   2
#     4  12  23  48  68  96 143 182 231 284 341 416
#     4  10  22  45  68 103 134 178 238 281 348 402
#     4  10  26  46  67  98 139 181 232 278 348 412
#     4  12  21  42  72 102 143 173 234 285 345 409
#     4  10  23  46  67  98 140 176 229 287 339 411
#     4  12  23  39  74 103 135 182 224 295 343 404
#
# _framework density 22.243369000000001
#
# number of rings (size 3 to 8) (size 9 to 14) (size 15 to 20)
#    1.000    0.000    5.000    2.000    0.000    2.667 
#    3.000    1.667    0.000    0.000    0.000    0.000 
#    0.000    0.000    0.000    0.000    0.000    0.000 
#
# Total GULP energy -66804.338274 kJ/mol
# GULP energy per Si atom -5567.028189 kJ/mol
# Density = 2.219274 g / cm^3
# Si number density = 22.243369 Si / 1000 Ang^3
#
#
#
# Elastic Constant Matrix: (Units=GPa)
#
#
# Indices 1 2 3 4 5 6 
#
# 1 45.5681 22.9250 48.9055 0.0000 -3.1876 0.0000
# 2 22.9250 74.5939 65.1714 0.0000 27.8330 0.0000
# 3 48.9055 65.1714 188.6301 0.0000 12.2322 0.0000
# 4 0.0000 0.0000 0.0000 55.9604 0.0000 2.8284
# 5 -3.1876 27.8330 12.2322 0.0000 55.9107 0.0000
# 6 0.0000 0.0000 0.0000 2.8284 0.0000 20.4694
#
#
#
# Elastic Compliance Matrix: (Units=1/GPa)
#
#
# Indices 1 2 3 4 5 6 
#
# 1 0.032971 -0.006876 -0.006610 0.000000 0.006749 0.000000
# 2 -0.006876 0.025262 -0.006192 0.000000 -0.011613 0.000000
# 3 -0.006610 -0.006192 0.009108 0.000000 0.000713 0.000000
# 4 0.000000 0.000000 0.000000 0.017995 0.000000 -0.002487
# 5 0.006749 -0.011613 0.000713 0.000000 0.023896 0.000000
# 6 0.000000 0.000000 0.000000 -0.002487 0.000000 0.049197
#
#
# Mechanical properties :
#
#
# Convention : Reuss Voigt Hill
#
# Bulk Modulus (GPa) = 35.73370 64.75510 50.24440
# Shear Modulus (GPa) = 24.14118 37.92079 31.03098
#
# Velocity S-wave (km/s) = 3.29799 4.13342 3.73911
# Velocity P-wave (km/s) = 5.53192 7.20801 6.42486
#
# Compressibility (1/GPa) = 0.02798479
#
# Stress axis : x y z
#
# Youngs Moduli (GPa) = 30.32977 39.58451 109.78825
#
# Poissons Ratio (x) = 0.27217 0.72574
# Poissons Ratio (y) = 0.20854 0.67985
# Poissons Ratio (z) = 0.20049 0.24512
#
# Static dielectric constant tensor:
#      x y z
#    x 1.855190 0.000000 -0.042150 
#    y 0.000000 1.869110 0.000000 
#    z -0.042150 0.000000 1.831100 
# 
# From -- ./inp_files/7901.got.cif
#   From: 2010.05.17/outbox.cif.g08.bks.cpg/sg4_4_cif.got.tgz:7901.got - 2010.06.03 18:43:04.
