data_PCOD9117088
_publ_section_title
;
Structure prediction by ZEFSAII (Michael W. Deem and Ramdas Pophale) SiO2 
 PCOD9117088
Probable space group: P 21
;
_chemical_formula_sum "Si O2"
_cell_formula_units_Z 16
_cell_length_a 8.654289
_cell_length_b 11.973929
_cell_length_c 10.060863
_cell_angle_alpha 90.000000
_cell_angle_beta 139.831410
_cell_angle_gamma 90.000000
_cell_volume 672.495209
_symmetry_space_group_name_H-M "P 21"
_symmetry_group_IT_number 4
_symmetry_cell_setting 'monoclinic'
loop_
_space_group_symop_operation_xyz
x,y,z
-x,1/2+y,-z
loop_
_atom_site_type_symbol
_atom_site_label
_atom_site_fract_x
_atom_site_fract_y
_atom_site_fract_z
Si Si1 0.411662 0.752720 0.381941
Si Si2 0.839400 0.053442 0.253420
Si Si3 0.343565 0.401674 0.654504
Si Si4 0.106307 0.249122 0.885515
Si Si5 0.912293 0.276327 0.458626
Si Si6 0.641063 0.441328 0.435656
Si Si7 0.647436 0.598383 0.754707
Si Si8 0.837477 0.004151 0.976488
O O1 0.499534 0.797969 0.297043
O O2 0.380040 0.865193 0.449227
O O3 0.587396 0.677460 0.588976
O O4 0.141907 0.708000 0.208856
O O5 0.675142 0.956196 0.210189
O O6 0.765545 0.078492 0.055835
O O7 0.114939 0.011223 0.416660
O O8 0.848133 0.160709 0.350413
O O9 0.077169 0.350801 0.469635
O O10 0.433551 0.509944 0.633325
O O11 0.053115 0.250986 0.691721
O O12 0.148679 0.375331 0.963732
O O13 0.306725 0.169604 0.080738
O O14 0.685323 0.351042 0.348197
O O15 0.396758 0.508585 0.267924
O O16 0.899088 0.534873 0.899128
#
# Coordination Sequence:
#
# PCOD9117088 Si02
#       8
#     2   2   2   2   2   2   2   2
#     4  11  22  44  69  99 138 179 224 285 340 401
#     4  11  23  44  68 100 133 184 223 273 342 411
#     4  11  22  41  71  99 134 178 231 277 338 415
#     4  11  23  47  66  98 141 176 221 286 342 401
#     4  10  23  46  70  96 140 184 227 275 347 409
#     4  10  22  43  68  90 138 177 215 285 334 389
#     4  12  26  42  74 102 133 181 233 284 341 403
#     4  12  23  45  68  98 139 173 226 281 336 407
#
# _framework density 23.791992
#
# number of rings (size 3 to 8) (size 9 to 14) (size 15 to 20)
#    0.000    1.000    6.250    2.250    0.000    5.000 
#    0.000    5.000    0.000    0.000    0.000    0.000 
#    0.000    0.000    0.000    0.000    0.000    0.000 
#
# Total GULP energy -89280.435268 kJ/mol
# GULP energy per Si atom -5580.027204 kJ/mol
# Density = 2.373784 g / cm^3
# Si number density = 23.791992 Si / 1000 Ang^3
#
#
#
# Elastic Constant Matrix: (Units=GPa)
#
#
# Indices 1 2 3 4 5 6 
#
# 1 114.1269 44.9567 30.3220 0.0000 23.9056 0.0000
# 2 44.9567 100.0193 47.2639 0.0000 3.2826 0.0000
# 3 30.3220 47.2639 91.6296 0.0000 14.1693 0.0000
# 4 0.0000 0.0000 0.0000 41.4409 0.0000 6.4931
# 5 23.9056 3.2826 14.1693 0.0000 24.1165 0.0000
# 6 0.0000 0.0000 0.0000 6.4931 0.0000 41.8031
#
#
#
# Elastic Compliance Matrix: (Units=1/GPa)
#
#
# Indices 1 2 3 4 5 6 
#
# 1 0.013727 -0.006020 0.000594 0.000000 -0.013137 0.000000
# 2 -0.006020 0.015991 -0.007526 0.000000 0.008212 0.000000
# 3 0.000594 -0.007526 0.015984 0.000000 -0.008955 0.000000
# 4 0.000000 0.000000 0.000000 0.024733 0.000000 -0.003842
# 5 -0.013137 0.008212 -0.008955 0.000000 0.058631 0.000000
# 6 0.000000 0.000000 0.000000 -0.003842 0.000000 0.024518
#
#
# Mechanical properties :
#
#
# Convention : Reuss Voigt Hill
#
# Bulk Modulus (GPa) = 50.51006 61.20679 55.85842
# Shear Modulus (GPa) = 26.86907 33.68765 30.27836
#
# Velocity S-wave (km/s) = 3.36420 3.76696 3.57126
# Velocity P-wave (km/s) = 6.03046 6.68593 6.36663
#
# Compressibility (1/GPa) = 0.01979804
#
# Stress axis : x y z
#
# Youngs Moduli (GPa) = 72.84715 62.53630 62.56282
#
# Poissons Ratio (x) = 0.37645 -0.03715
# Poissons Ratio (y) = 0.43851 0.47086
# Poissons Ratio (z) = -0.04326 0.47066
#
# Static dielectric constant tensor:
#      x y z
#    x 1.944570 0.000000 -0.006600 
#    y 0.000000 1.973030 0.000000 
#    z -0.006600 0.000000 1.909110 
# 
# From -- ./inp_files/8303.got.cif
#   From: 2010.05.17/outbox.cif.g08.bks.cpg/sg4_5_cif.got.tgz:8303.got - 2010.06.03 18:43:04.
