data_PCOD9117124
_publ_section_title
;
Structure prediction by ZEFSAII (Michael W. Deem and Ramdas Pophale) SiO2 
 PCOD9117124
Probable space group: P 21
;
_chemical_formula_sum "Si O2"
_cell_formula_units_Z 12
_cell_length_a 13.591451
_cell_length_b 4.904583
_cell_length_c 26.207087
_cell_angle_alpha 90.000000
_cell_angle_beta 14.807097
_cell_angle_gamma 90.000000
_cell_volume 446.466533
_symmetry_space_group_name_H-M "P 21"
_symmetry_group_IT_number 4
_symmetry_cell_setting 'monoclinic'
loop_
_space_group_symop_operation_xyz
x,y,z
-x,1/2+y,-z
loop_
_atom_site_type_symbol
_atom_site_label
_atom_site_fract_x
_atom_site_fract_y
_atom_site_fract_z
Si Si1 0.418722 0.747560 0.573935
Si Si2 0.417387 0.476067 0.010647
Si Si3 0.461602 0.009774 0.653831
Si Si4 0.785549 0.250763 0.585424
Si Si5 0.780079 0.784334 0.049695
Si Si6 0.339021 0.774377 0.951916
O O1 0.480692 0.444346 0.523816
O O2 0.610149 0.847918 0.530373
O O3 0.968149 0.809386 0.809113
O O4 0.548989 0.649671 0.895628
O O5 0.333157 0.725202 0.092416
O O6 0.757614 0.167173 0.540751
O O7 0.121097 0.220153 0.807258
O O8 0.225369 0.804733 0.810162
O O9 0.353059 0.227346 0.826521
O O10 0.032767 0.042452 0.495429
O O11 0.603692 0.076817 0.124686
O O12 0.601320 0.574783 0.098221
#
# Coordination Sequence:
#
# PCOD9117124 Si02
#       6
#     2   2   2   2   2   2
#     4  11  25  46  67 100 139 181 224 279 339 403
#     4  11  22  41  66  99 132 171 230 289 321 394
#     4   9  26  44  74  93 134 187 236 258 330 424
#     4  12  28  45  66 107 145 165 219 296 353 383
#     4  10  22  43  73  89 131 179 234 257 329 416
#     4   9  21  39  70  94 123 173 241 257 316 404
#
# _framework density 26.877715999999999
#
# number of rings (size 3 to 8) (size 9 to 14) (size 15 to 20)
#    1.000    0.667    0.000    3.000    9.333    0.000 
#   18.000    0.000    0.000    0.000    0.000    0.000 
#    0.000    0.000    0.000    0.000    0.000    0.000 
#
# Total GULP energy -67123.920425 kJ/mol
# GULP energy per Si atom -5593.660035 kJ/mol
# Density = 2.681654 g / cm^3
# Si number density = 26.877716 Si / 1000 Ang^3
#
#
#
# Elastic Constant Matrix: (Units=GPa)
#
#
# Indices 1 2 3 4 5 6 
#
# 1 99.8234 -5.6953 13.3658 0.0001 14.7345 0.0002
# 2 -5.6953 81.9488 -0.8410 -0.0001 -1.6014 0.0001
# 3 13.3658 -0.8410 54.3950 0.0001 10.4241 -0.0003
# 4 0.0001 -0.0001 0.0001 32.9073 -0.0003 2.6718
# 5 14.7345 -1.6014 10.4241 -0.0003 39.0189 -0.0004
# 6 0.0002 0.0001 -0.0003 2.6718 -0.0004 32.8089
#
#
#
# Elastic Compliance Matrix: (Units=1/GPa)
#
#
# Indices 1 2 3 4 5 6 
#
# 1 0.010843 0.000664 -0.001976 0.000000 -0.003539 0.000000
# 2 0.000664 0.012254 -0.000023 0.000000 0.000258 0.000000
# 3 -0.001976 -0.000023 0.019737 0.000000 -0.004528 0.000000
# 4 0.000000 0.000000 0.000000 0.030591 0.000000 -0.002491
# 5 -0.003539 0.000258 -0.004528 0.000000 0.028185 0.000000
# 6 0.000000 0.000000 0.000000 -0.002491 0.000000 0.030682
#
#
# Mechanical properties :
#
#
# Convention : Reuss Voigt Hill
#
# Bulk Modulus (GPa) = 24.89825 27.75847 26.32836
# Shear Modulus (GPa) = 33.70432 36.23619 34.97025
#
# Velocity S-wave (km/s) = 3.54501 3.67575 3.61097
# Velocity P-wave (km/s) = 5.10292 5.32588 5.21559
#
# Compressibility (1/GPa) = 0.04016347
#
# Stress axis : x y z
#
# Youngs Moduli (GPa) = 92.22932 81.60795 50.66668
#
# Poissons Ratio (x) = -0.05420 0.10010
# Poissons Ratio (y) = -0.06125 0.00118
# Poissons Ratio (z) = 0.18221 0.00190
#
# Static dielectric constant tensor:
#      x y z
#    x 2.074590 0.000000 -0.000880 
#    y 0.000000 2.027750 0.000000 
#    z -0.000880 0.000000 2.200040 
# 
# From -- ./inp_files/16104.got.cif
#   From: 2010.05.17/outbox.cif.g08.bks.cpg/sg4_9_cif.got.tgz:16104.got - 2010.06.03 18:43:04.
