data_PCOD9117169
_publ_section_title
;
Structure prediction by ZEFSAII (Michael W. Deem and Ramdas Pophale) SiO2 
 PCOD9117169
Probable space group: P 21
;
_chemical_formula_sum "Si O2"
_cell_formula_units_Z 16
_cell_length_a 19.241013
_cell_length_b 8.623727
_cell_length_c 5.187573
_cell_angle_alpha 90.000000
_cell_angle_beta 125.286225
_cell_angle_gamma 90.000000
_cell_volume 702.626369
_symmetry_space_group_name_H-M "P 21"
_symmetry_group_IT_number 4
_symmetry_cell_setting 'monoclinic'
loop_
_space_group_symop_operation_xyz
x,y,z
-x,1/2+y,-z
loop_
_atom_site_type_symbol
_atom_site_label
_atom_site_fract_x
_atom_site_fract_y
_atom_site_fract_z
Si Si1 0.537581 0.683160 0.937705
Si Si2 0.266323 0.189658 0.669446
Si Si3 0.533803 0.337741 0.714712
Si Si4 0.887895 0.239494 0.592645
Si Si5 0.876987 0.891703 0.722436
Si Si6 0.728293 0.382380 0.013855
Si Si7 0.856815 0.473512 0.916424
Si Si8 0.951279 0.734039 0.384662
O O1 0.518342 0.510776 0.791132
O O2 0.519743 0.794601 0.654486
O O3 0.637555 0.693780 0.222697
O O4 0.485897 0.727239 0.083792
O O5 0.221370 0.356559 0.577093
O O6 0.269927 0.068359 0.916705
O O7 0.198236 0.103355 0.344741
O O8 0.631950 0.330801 0.833292
O O9 0.790373 0.283767 0.327571
O O10 0.912948 0.379689 0.835305
O O11 0.949618 0.236462 0.477678
O O12 0.895532 0.072261 0.733375
O O13 0.926775 0.791247 0.613137
O O14 0.904360 0.840380 0.067893
O O15 0.781223 0.367629 0.866220
O O16 0.913531 0.562471 0.248349
#
# Coordination Sequence:
#
# PCOD9117169 Si02
#       8
#     2   2   2   2   2   2   2   2
#     4  11  25  44  72 105 135 181 222 287 333 412
#     4   9  22  43  70  91 135 178 228 260 351 406
#     4  11  26  44  71 101 141 174 231 274 347 401
#     4  11  26  38  67 100 132 173 229 286 331 390
#     4  11  25  43  65 100 130 174 223 290 326 395
#     4  10  23  43  69  93 136 184 220 269 345 410
#     4  10  22  44  68  94 131 189 219 274 335 418
#     4  11  25  43  66  94 138 175 228 270 344 400
#
# _framework density 22.771705000000001
#
# number of rings (size 3 to 8) (size 9 to 14) (size 15 to 20)
#    0.000    1.500    1.250    1.500   14.000    2.000 
#    0.000    0.000    0.000    0.000    0.000    0.000 
#    0.000    0.000    0.000    0.000    0.000    0.000 
#
# Total GULP energy -89363.028033 kJ/mol
# GULP energy per Si atom -5585.189252 kJ/mol
# Density = 2.271988 g / cm^3
# Si number density = 22.771705 Si / 1000 Ang^3
#
#
#
# Elastic Constant Matrix: (Units=GPa)
#
#
# Indices 1 2 3 4 5 6 
#
# 1 113.0386 22.9640 25.8940 0.0000 0.8403 0.0000
# 2 22.9640 74.8026 20.3834 0.0000 14.0861 0.0000
# 3 25.8940 20.3834 65.9810 0.0000 -3.7375 0.0000
# 4 0.0000 0.0000 0.0000 27.7797 0.0000 -2.3500
# 5 0.8403 14.0861 -3.7375 0.0000 31.6236 0.0000
# 6 0.0000 0.0000 0.0000 -2.3500 0.0000 35.1769
#
#
#
# Elastic Compliance Matrix: (Units=1/GPa)
#
#
# Indices 1 2 3 4 5 6 
#
# 1 0.010043 -0.002275 -0.003218 0.000000 0.000366 0.000000
# 2 -0.002275 0.016879 -0.004776 0.000000 -0.008022 0.000000
# 3 -0.003218 -0.004776 0.018141 0.000000 0.004357 0.000000
# 4 0.000000 0.000000 0.000000 0.036202 0.000000 0.002418
# 5 0.000366 -0.008022 0.004357 0.000000 0.035701 0.000000
# 6 0.000000 0.000000 0.000000 0.002418 0.000000 0.028589
#
#
# Mechanical properties :
#
#
# Convention : Reuss Voigt Hill
#
# Bulk Modulus (GPa) = 40.77444 43.58943 42.18194
# Shear Modulus (GPa) = 28.69138 31.22142 29.95640
#
# Velocity S-wave (km/s) = 3.55344 3.70680 3.63093
# Velocity P-wave (km/s) = 5.89750 6.12405 6.01184
#
# Compressibility (1/GPa) = 0.02452517
#
# Stress axis : x y z
#
# Youngs Moduli (GPa) = 99.57037 59.24454 55.12408
#
# Poissons Ratio (x) = 0.13480 0.17737
# Poissons Ratio (y) = 0.22656 0.26327
# Poissons Ratio (z) = 0.32039 0.28295
#
# Static dielectric constant tensor:
#      x y z
#    x 1.843890 0.000000 -0.026080 
#    y 0.000000 1.918230 0.000000 
#    z -0.026080 0.000000 1.871280 
# 
# From -- ./inp_files/3475.got.cif
#   From: 2010.05.17/outbox.cif.g08.bks.cpg/sg4_2_cif.got.tgz:3475.got - 2010.06.03 18:43:04.
