data_PCOD9117815
_publ_section_title
;
Structure prediction by ZEFSAII (Michael W. Deem and Ramdas Pophale) SiO2 
 PCOD9117815
Probable space group: P 21
;
_chemical_formula_sum "Si O2"
_cell_formula_units_Z 14
_cell_length_a 14.477341
_cell_length_b 7.008937
_cell_length_c 7.493664
_cell_angle_alpha 90.000000
_cell_angle_beta 49.841763
_cell_angle_gamma 90.000000
_cell_volume 581.138820
_symmetry_space_group_name_H-M "P 21"
_symmetry_group_IT_number 4
_symmetry_cell_setting 'monoclinic'
loop_
_space_group_symop_operation_xyz
x,y,z
-x,1/2+y,-z
loop_
_atom_site_type_symbol
_atom_site_label
_atom_site_fract_x
_atom_site_fract_y
_atom_site_fract_z
Si Si1 0.812161 0.511360 0.240339
Si Si2 0.561488 0.422930 0.683459
Si Si3 0.993178 0.511934 0.720949
Si Si4 0.650996 0.677245 0.152474
Si Si5 0.422817 0.785523 0.936872
Si Si6 0.212443 0.481427 0.230594
Si Si7 0.976098 0.460001 0.347876
O O1 0.699368 0.388807 0.453945
O O2 0.741005 0.664876 0.207964
O O3 0.888340 0.035465 0.792967
O O4 0.890845 0.561751 0.314600
O O5 0.469531 0.302679 0.677379
O O6 0.540309 0.361124 0.914392
O O7 0.523960 0.645674 0.728360
O O8 0.130660 0.451346 0.507468
O O9 0.913072 0.430313 0.978788
O O10 0.007830 0.739617 0.725906
O O11 0.613654 0.465389 0.138267
O O12 0.723302 0.787998 0.907879
O O13 0.309049 0.647691 0.114824
O O14 0.071605 0.972187 0.389052
#
# Coordination Sequence:
#
# PCOD9117815 Si02
#       7
#     2   2   2   2   2   2   2
#     4  12  26  43  77 108 151 191 243 309 372 441
#     4  11  26  46  77 115 139 200 257 298 379 429
#     4  10  23  46  69 109 154 186 240 303 360 459
#     4  11  25  49  72 106 151 190 253 311 358 444
#     4  11  23  48  80 104 147 198 245 315 359 437
#     4   9  23  45  76 107 147 191 247 295 375 443
#     4  10  24  45  71 111 149 196 241 295 383 441
#
# _framework density 24.090627000000001
#
# number of rings (size 3 to 8) (size 9 to 14) (size 15 to 20)
#    0.857    0.571    2.857    0.857    6.000    2.286 
#    2.571    0.000    3.143    0.000    0.000    0.000 
#    0.000    0.000    0.000    0.000    0.000    0.000 
#
# Total GULP energy -78211.324571 kJ/mol
# GULP energy per Si atom -5586.523184 kJ/mol
# Density = 2.403580 g / cm^3
# Si number density = 24.090627 Si / 1000 Ang^3
#
#
#
# Elastic Constant Matrix: (Units=GPa)
#
#
# Indices 1 2 3 4 5 6 
#
# 1 95.3970 33.3171 20.5790 0.0000 -5.9420 0.0000
# 2 33.3171 129.2947 34.0347 0.0000 -1.3385 0.0000
# 3 20.5790 34.0347 138.3428 0.0000 -16.3918 0.0000
# 4 0.0000 0.0000 0.0000 9.6656 0.0000 -0.1908
# 5 -5.9420 -1.3385 -16.3918 0.0000 39.5019 0.0000
# 6 0.0000 0.0000 0.0000 -0.1908 0.0000 -14.1790
#
#
#
# Elastic Compliance Matrix: (Units=1/GPa)
#
#
# Indices 1 2 3 4 5 6 
#
# 1 0.011726 -0.002769 -0.000910 0.000000 0.001292 0.000000
# 2 -0.002769 0.008937 -0.001893 0.000000 -0.000899 0.000000
# 3 -0.000910 -0.001893 0.008209 0.000000 0.003206 0.000000
# 4 0.000000 0.000000 0.000000 0.103432 0.000000 -0.001392
# 5 0.001292 -0.000899 0.003206 0.000000 0.026809 0.000000
# 6 0.000000 0.000000 0.000000 -0.001392 0.000000 -0.070508
#
#
# Mechanical properties :
#
#
# Convention : Reuss Voigt Hill
#
# Bulk Modulus (GPa) = 56.40688 59.87735 58.14212
# Shear Modulus (GPa) = 47.32192 25.33795 36.32993
#
# Velocity S-wave (km/s) = 4.43688 3.24663 3.88758
# Velocity P-wave (km/s) = 7.05076 6.24205 6.65869
#
# Compressibility (1/GPa) = 0.01772833
#
# Stress axis : x y z
#
# Youngs Moduli (GPa) = 85.27844 111.89688 121.81177
#
# Poissons Ratio (x) = 0.30981 0.11085
# Poissons Ratio (y) = 0.23611 0.23063
# Poissons Ratio (z) = 0.07761 0.21185
#
# Static dielectric constant tensor:
#      x y z
#    x 1.898810 0.000000 0.002110 
#    y 0.000000 1.920430 0.000000 
#    z 0.002110 0.000000 1.952840 
# 
# From -- ./inp_files/9450.got.cif
#   From: 2010.05.17/outbox.cif.g08.bks.cpg/sg4_5_cif.got.tgz:9450.got - 2010.06.03 18:43:04.
