data_PCOD9117432
_publ_section_title
;
Structure prediction by ZEFSAII (Michael W. Deem and Ramdas Pophale) SiO2 
 PCOD9117432
Probable space group: P 21
;
_chemical_formula_sum "Si O2"
_cell_formula_units_Z 12
_cell_length_a 9.642006
_cell_length_b 11.749386
_cell_length_c 5.071616
_cell_angle_alpha 90.000000
_cell_angle_beta 59.439330
_cell_angle_gamma 90.000000
_cell_volume 494.741235
_symmetry_space_group_name_H-M "P 21"
_symmetry_group_IT_number 4
_symmetry_cell_setting 'monoclinic'
loop_
_space_group_symop_operation_xyz
x,y,z
-x,1/2+y,-z
loop_
_atom_site_type_symbol
_atom_site_label
_atom_site_fract_x
_atom_site_fract_y
_atom_site_fract_z
Si Si1 0.265548 0.703790 0.516727
Si Si2 0.489975 0.034883 0.553814
Si Si3 0.187953 0.958554 0.591667
Si Si4 0.986854 0.007668 0.268412
Si Si5 0.282283 0.331555 0.618416
Si Si6 0.395087 0.213155 0.023393
O O1 0.369836 0.629458 0.630067
O O2 0.191533 0.824251 0.666433
O O3 0.129052 0.615265 0.556860
O O4 0.411228 0.734100 0.172445
O O5 0.388845 0.092269 0.884658
O O6 0.372930 0.997461 0.436446
O O7 0.577054 0.922744 0.570583
O O8 0.098872 0.975805 0.403740
O O9 0.087660 0.028389 0.906424
O O10 0.876988 0.899042 0.300460
O O11 0.304761 0.294836 0.899107
O O12 0.315613 0.230983 0.381253
#
# Coordination Sequence:
#
# PCOD9117432 Si02
#       6
#     2   2   2   2   2   2
#     4   9  24  50  68 106 135 188 231 293 330 421
#     4   9  22  44  69  99 129 181 238 282 328 408
#     4  12  25  46  71 104 140 188 223 289 352 412
#     4  11  28  44  70 101 152 175 227 281 363 410
#     4  11  22  45  66 101 132 185 224 286 337 411
#     4  10  23  39  76  95 130 175 241 279 328 398
#
# _framework density 24.255106999999999
#
# number of rings (size 3 to 8) (size 9 to 14) (size 15 to 20)
#    1.000    0.667    1.667    1.000    2.333    9.333 
#    0.000    0.000    0.000    0.000    0.000    0.000 
#    0.000    0.000    0.000    0.000    0.000    0.000 
#
# Total GULP energy -67037.946718 kJ/mol
# GULP energy per Si atom -5586.495560 kJ/mol
# Density = 2.419990 g / cm^3
# Si number density = 24.255107 Si / 1000 Ang^3
#
#
#
# Elastic Constant Matrix: (Units=GPa)
#
#
# Indices 1 2 3 4 5 6 
#
# 1 165.0488 64.4158 25.5970 0.0000 2.4899 0.0000
# 2 64.4158 98.3964 15.1162 0.0000 14.5677 0.0000
# 3 25.5970 15.1162 59.3192 0.0000 4.3918 0.0000
# 4 0.0000 0.0000 0.0000 27.2559 0.0000 -6.9962
# 5 2.4899 14.5677 4.3918 0.0000 22.5852 0.0000
# 6 0.0000 0.0000 0.0000 -6.9962 0.0000 41.4466
#
#
#
# Elastic Compliance Matrix: (Units=1/GPa)
#
#
# Indices 1 2 3 4 5 6 
#
# 1 0.008644 -0.005755 -0.002504 0.000000 0.003246 0.000000
# 2 -0.005755 0.015403 -0.000764 0.000000 -0.009152 0.000000
# 3 -0.002504 -0.000764 0.018340 0.000000 -0.002797 0.000000
# 4 0.000000 0.000000 0.000000 0.038351 0.000000 0.006474
# 5 0.003246 -0.009152 -0.002797 0.000000 0.050366 0.000000
# 6 0.000000 0.000000 0.000000 0.006474 0.000000 0.025220
#
#
# Mechanical properties :
#
#
# Convention : Reuss Voigt Hill
#
# Bulk Modulus (GPa) = 41.08236 59.22472 50.15354
# Shear Modulus (GPa) = 27.39962 32.76655 30.08309
#
# Velocity S-wave (km/s) = 3.36466 3.67946 3.52558
# Velocity P-wave (km/s) = 5.66295 6.52087 6.10699
#
# Compressibility (1/GPa) = 0.02434135
#
# Stress axis : x y z
#
# Youngs Moduli (GPa) = 115.68438 64.92329 54.52487
#
# Poissons Ratio (x) = 0.37363 0.13653
# Poissons Ratio (y) = 0.66575 0.04167
# Poissons Ratio (z) = 0.28966 0.04961
#
# Static dielectric constant tensor:
#      x y z
#    x 1.935320 0.000000 -0.032640 
#    y 0.000000 1.968980 0.000000 
#    z -0.032640 0.000000 1.904290 
# 
# From -- ./inp_files/1069.got.cif
#   From: 2010.05.17/outbox.cif.g08.bks.cpg/sg4_1_cif.got.tgz:1069.got - 2010.06.03 18:43:04.
