data_PCOD9117659
_publ_section_title
;
Structure prediction by ZEFSAII (Michael W. Deem and Ramdas Pophale) SiO2 
 PCOD9117659
Probable space group: P 21
;
_chemical_formula_sum "Si O2"
_cell_formula_units_Z 14
_cell_length_a 12.851071
_cell_length_b 5.694020
_cell_length_c 9.549827
_cell_angle_alpha 90.000000
_cell_angle_beta 122.216516
_cell_angle_gamma 90.000000
_cell_volume 591.213671
_symmetry_space_group_name_H-M "P 21"
_symmetry_group_IT_number 4
_symmetry_cell_setting 'monoclinic'
loop_
_space_group_symop_operation_xyz
x,y,z
-x,1/2+y,-z
loop_
_atom_site_type_symbol
_atom_site_label
_atom_site_fract_x
_atom_site_fract_y
_atom_site_fract_z
Si Si1 0.560831 0.456720 0.883258
Si Si2 0.850630 0.173577 0.264865
Si Si3 0.559133 0.934579 0.492632
Si Si4 0.982002 0.960098 0.120640
Si Si5 0.840811 0.819672 0.740702
Si Si6 0.989405 0.558559 0.355544
Si Si7 0.376489 0.456431 0.997113
O O1 0.460998 0.463019 0.688435
O O2 0.500878 0.448210 0.995160
O O3 0.633208 0.706862 0.930752
O O4 0.623807 0.199788 0.914546
O O5 0.952814 0.114053 0.453236
O O6 0.852617 0.453049 0.283932
O O7 0.733555 0.012025 0.189188
O O8 0.900765 0.153096 0.142697
O O9 0.490254 0.687204 0.484030
O O10 0.699909 0.890388 0.637958
O O11 0.972822 0.756586 0.227688
O O12 0.123191 0.044808 0.216427
O O13 0.919136 0.921550 0.927399
O O14 0.903268 0.904490 0.641769
#
# Coordination Sequence:
#
# PCOD9117659 Si02
#       7
#     2   2   2   2   2   2   2
#     4  10  23  47  65 106 134 189 237 289 358 417
#     4  11  24  39  69 103 132 186 225 307 345 428
#     4  12  29  47  74 105 144 191 243 294 352 423
#     4  11  24  44  70 101 137 185 235 288 364 418
#     4  11  26  46  71 100 144 189 234 293 355 435
#     4  11  23  44  65 104 142 174 240 284 368 419
#     4  10  23  43  74  95 143 180 240 293 356 422
#
# _framework density 23.680102999999999
#
# number of rings (size 3 to 8) (size 9 to 14) (size 15 to 20)
#    0.000    1.143    2.857    1.714    8.000    0.000 
#    7.714    0.000    0.000    0.000    0.000    0.000 
#    0.000    0.000    0.000    0.000    0.000    0.000 
#
# Total GULP energy -77958.729064 kJ/mol
# GULP energy per Si atom -5568.480647 kJ/mol
# Density = 2.362621 g / cm^3
# Si number density = 23.680103 Si / 1000 Ang^3
#
#
#
# Elastic Constant Matrix: (Units=GPa)
#
#
# Indices 1 2 3 4 5 6 
#
# 1 61.1104 26.4901 25.3586 0.0000 6.9044 0.0000
# 2 26.4901 125.4982 47.2397 0.0000 13.2025 0.0000
# 3 25.3586 47.2397 132.4730 0.0000 -3.3915 0.0000
# 4 0.0000 0.0000 0.0000 37.5183 0.0000 -0.8744
# 5 6.9044 13.2025 -3.3915 0.0000 38.7403 0.0000
# 6 0.0000 0.0000 0.0000 -0.8744 0.0000 28.4416
#
#
#
# Elastic Compliance Matrix: (Units=1/GPa)
#
#
# Indices 1 2 3 4 5 6 
#
# 1 0.018973 -0.002688 -0.002743 0.000000 -0.002706 0.000000
# 2 -0.002688 0.010063 -0.003157 0.000000 -0.003227 0.000000
# 3 -0.002743 -0.003157 0.009260 0.000000 0.002375 0.000000
# 4 0.000000 0.000000 0.000000 0.026673 0.000000 0.000820
# 5 -0.002706 -0.003227 0.002375 0.000000 0.027603 0.000000
# 6 0.000000 0.000000 0.000000 0.000820 0.000000 0.035185
#
#
# Mechanical properties :
#
#
# Convention : Reuss Voigt Hill
#
# Bulk Modulus (GPa) = 47.34395 57.47315 52.40855
# Shear Modulus (GPa) = 32.90093 35.60626 34.25360
#
# Velocity S-wave (km/s) = 3.73150 3.88188 3.80743
# Velocity P-wave (km/s) = 6.21305 6.66448 6.44272
#
# Compressibility (1/GPa) = 0.02112202
#
# Stress axis : x y z
#
# Youngs Moduli (GPa) = 52.70732 99.37149 107.98918
#
# Poissons Ratio (x) = 0.26708 0.29618
# Poissons Ratio (y) = 0.14166 0.34088
# Poissons Ratio (z) = 0.14456 0.31368
#
# Static dielectric constant tensor:
#      x y z
#    x 1.932140 0.000000 0.044450 
#    y 0.000000 2.266500 0.000000 
#    z 0.044450 0.000000 1.866930 
# 
# From -- ./inp_files/9071.got.cif
#   From: 2010.05.17/outbox.cif.g08.bks.cpg/sg4_5_cif.got.tgz:9071.got - 2010.06.03 18:43:04.
