data_PCOD9117479
_publ_section_title
;
Structure prediction by ZEFSAII (Michael W. Deem and Ramdas Pophale) SiO2 
 PCOD9117479
Probable space group: P 21
;
_chemical_formula_sum "Si O2"
_cell_formula_units_Z 14
_cell_length_a 8.305798
_cell_length_b 9.038373
_cell_length_c 7.738583
_cell_angle_alpha 90.000000
_cell_angle_beta 71.687087
_cell_angle_gamma 90.000000
_cell_volume 551.520385
_symmetry_space_group_name_H-M "P 21"
_symmetry_group_IT_number 4
_symmetry_cell_setting 'monoclinic'
loop_
_space_group_symop_operation_xyz
x,y,z
-x,1/2+y,-z
loop_
_atom_site_type_symbol
_atom_site_label
_atom_site_fract_x
_atom_site_fract_y
_atom_site_fract_z
Si Si1 0.022029 0.694580 0.633771
Si Si2 0.527951 0.721820 0.503042
Si Si3 0.258532 0.947408 0.611366
Si Si4 0.595167 0.102214 0.827377
Si Si5 0.016023 0.652655 0.243372
Si Si6 0.319740 0.305035 0.073695
Si Si7 0.810018 0.918901 0.242860
O O1 0.128481 0.841970 0.555375
O O2 0.129842 0.576837 0.709024
O O3 0.979702 0.633625 0.459870
O O4 0.854159 0.743334 0.790406
O O5 0.383445 0.819476 0.642484
O O6 0.619583 0.567406 0.526654
O O7 0.443258 0.670168 0.348530
O O8 0.680829 0.836413 0.416013
O O9 0.130860 0.041136 0.780098
O O10 0.783894 0.134670 0.832752
O O11 0.596021 0.925902 0.831716
O O12 0.449613 0.173994 0.992359
O O13 0.972337 0.812704 0.187409
O O14 0.277736 0.395723 0.911978
#
# Coordination Sequence:
#
# PCOD9117479 Si02
#       7
#     2   2   2   2   2   2   2
#     4  12  24  42  75 104 132 187 239 286 350 408
#     4  10  23  41  67 100 141 179 223 287 342 410
#     4  11  22  41  67 102 138 175 228 290 350 401
#     4  11  25  46  67 101 140 186 234 285 350 411
#     4  11  24  45  74  99 143 177 238 294 337 415
#     4  11  28  45  70 101 143 189 229 286 354 419
#     4  10  26  44  68 101 143 185 227 284 349 416
#
# _framework density 25.384377000000001
#
# number of rings (size 3 to 8) (size 9 to 14) (size 15 to 20)
#    0.000    1.143    2.857    1.714    4.000    4.571 
#    0.000    0.000    0.000    0.000    0.000    0.000 
#    0.000    0.000    0.000    0.000    0.000    0.000 
#
# Total GULP energy -78214.630850 kJ/mol
# GULP energy per Si atom -5586.759346 kJ/mol
# Density = 2.532660 g / cm^3
# Si number density = 25.384377 Si / 1000 Ang^3
#
#
#
# Elastic Constant Matrix: (Units=GPa)
#
#
# Indices 1 2 3 4 5 6 
#
# 1 137.2383 83.2629 43.2875 0.0000 -23.4814 0.0000
# 2 83.2629 178.9397 38.9497 0.0000 -13.9240 0.0000
# 3 43.2875 38.9497 63.2646 0.0000 -9.6558 0.0000
# 4 0.0000 0.0000 0.0000 19.4985 0.0000 -10.8748
# 5 -23.4814 -13.9240 -9.6558 0.0000 32.0688 0.0000
# 6 0.0000 0.0000 0.0000 -10.8748 0.0000 79.2876
#
#
#
# Elastic Compliance Matrix: (Units=1/GPa)
#
#
# Indices 1 2 3 4 5 6 
#
# 1 0.012425 -0.004243 -0.005012 0.000000 0.005746 0.000000
# 2 -0.004243 0.007990 -0.002055 0.000000 -0.000257 0.000000
# 3 -0.005012 -0.002055 0.020759 0.000000 0.001688 0.000000
# 4 0.000000 0.000000 0.000000 0.055534 0.000000 0.007617
# 5 0.005746 -0.000257 0.001688 0.000000 0.035787 0.000000
# 6 0.000000 0.000000 0.000000 0.007617 0.000000 0.013657
#
#
# Mechanical properties :
#
#
# Convention : Reuss Voigt Hill
#
# Bulk Modulus (GPa) = 53.89876 78.93807 66.41842
# Shear Modulus (GPa) = 28.57814 40.43382 34.50598
#
# Velocity S-wave (km/s) = 3.35896 3.99540 3.69092
# Velocity P-wave (km/s) = 6.02682 7.24216 6.66226
#
# Compressibility (1/GPa) = 0.01855330
#
# Stress axis : x y z
#
# Youngs Moduli (GPa) = 80.48126 125.15055 48.17206
#
# Poissons Ratio (x) = 0.53108 0.24144
# Poissons Ratio (y) = 0.34152 0.09899
# Poissons Ratio (z) = 0.40338 0.25719
#
# Static dielectric constant tensor:
#      x y z
#    x 2.000940 0.000000 -0.018610 
#    y 0.000000 2.058370 0.000000 
#    z -0.018610 0.000000 2.020790 
# 
# From -- ./inp_files/5366.got.cif
#   From: 2010.05.17/outbox.cif.g08.bks.cpg/sg4_3_cif.got.tgz:5366.got - 2010.06.03 18:43:04.
