data_PCOD9117842
_publ_section_title
;
Structure prediction by ZEFSAII (Michael W. Deem and Ramdas Pophale) SiO2 
 PCOD9117842
Probable space group: P 21
;
_chemical_formula_sum "Si O2"
_cell_formula_units_Z 16
_cell_length_a 8.879545
_cell_length_b 4.882228
_cell_length_c 26.521283
_cell_angle_alpha 90.000000
_cell_angle_beta 148.149186
_cell_angle_gamma 90.000000
_cell_volume 606.733641
_symmetry_space_group_name_H-M "P 21"
_symmetry_group_IT_number 4
_symmetry_cell_setting 'monoclinic'
loop_
_space_group_symop_operation_xyz
x,y,z
-x,1/2+y,-z
loop_
_atom_site_type_symbol
_atom_site_label
_atom_site_fract_x
_atom_site_fract_y
_atom_site_fract_z
Si Si1 0.327981 0.065710 0.165614
Si Si2 0.816188 0.816541 0.440808
Si Si3 0.717922 0.262389 0.192086
Si Si4 0.148539 0.399688 0.855031
Si Si5 0.512944 0.124338 0.440574
Si Si6 0.168078 0.626745 0.370880
Si Si7 0.347159 0.570729 0.238801
Si Si8 0.283859 0.590324 0.006515
O O1 0.587816 0.094898 0.201525
O O2 0.370015 0.259267 0.227025
O O3 0.299536 0.753550 0.175297
O O4 0.021051 0.161460 0.056696
O O5 0.603175 0.993237 0.414299
O O6 0.637046 0.677909 0.345706
O O7 0.960252 0.556366 0.509970
O O8 0.440595 0.354396 0.081700
O O9 0.881449 0.518165 0.264186
O O10 0.921635 0.114277 0.208955
O O11 0.914812 0.161686 0.798857
O O12 0.456998 0.298852 0.924488
O O13 0.205138 0.523905 0.926152
O O14 0.252210 0.940729 0.387390
O O15 0.776853 0.077509 0.554248
O O16 0.408813 0.435056 0.412810
#
# Coordination Sequence:
#
# PCOD9117842 Si02
#       8
#     2   2   2   2   2   2   2   2
#     4  11  29  48  72 107 152 193 240 308 375 444
#     4  12  26  43  74 106 144 190 237 295 360 431
#     4  12  28  42  76 108 145 190 250 300 373 442
#     4  11  24  46  73 102 140 191 246 300 354 448
#     4  10  23  47  67 102 140 181 234 287 352 420
#     4  10  24  43  72 100 140 182 228 295 349 425
#     4  11  27  49  74 104 151 195 250 297 368 443
#     4  11  25  44  72 101 144 186 237 302 367 425
#
# _framework density 26.370715000000001
#
# number of rings (size 3 to 8) (size 9 to 14) (size 15 to 20)
#    0.000    1.000    1.250    3.000   14.000    0.000 
#    0.000    0.000    0.000    0.000    0.000    0.000 
#    0.000    0.000    0.000    0.000    0.000    0.000 
#
# Total GULP energy -89604.696478 kJ/mol
# GULP energy per Si atom -5600.293530 kJ/mol
# Density = 2.631069 g / cm^3
# Si number density = 26.370715 Si / 1000 Ang^3
#
#
#
# Elastic Constant Matrix: (Units=GPa)
#
#
# Indices 1 2 3 4 5 6 
#
# 1 87.7715 10.1625 36.6942 0.0000 13.4879 0.0000
# 2 10.1625 84.3365 19.2776 0.0000 3.1261 0.0000
# 3 36.6942 19.2776 114.4050 0.0000 0.6567 0.0000
# 4 0.0000 0.0000 0.0000 44.4625 0.0000 2.5768
# 5 13.4879 3.1261 0.6567 0.0000 35.1294 0.0000
# 6 0.0000 0.0000 0.0000 2.5768 0.0000 34.5688
#
#
#
# Elastic Compliance Matrix: (Units=1/GPa)
#
#
# Indices 1 2 3 4 5 6 
#
# 1 0.014108 -0.000496 -0.004411 0.000000 -0.005290 0.000000
# 2 -0.000496 0.012389 -0.001924 0.000000 -0.000876 0.000000
# 3 -0.004411 -0.001924 0.010470 0.000000 0.001669 0.000000
# 4 0.000000 0.000000 0.000000 0.022588 0.000000 -0.001684
# 5 -0.005290 -0.000876 0.001669 0.000000 0.030544 0.000000
# 6 0.000000 0.000000 0.000000 -0.001684 0.000000 0.029053
#
#
# Mechanical properties :
#
#
# Convention : Reuss Voigt Hill
#
# Bulk Modulus (GPa) = 42.90641 46.53129 44.71885
# Shear Modulus (GPa) = 35.56639 37.52405 36.54522
#
# Velocity S-wave (km/s) = 3.67646 3.77629 3.72671
# Velocity P-wave (km/s) = 5.85898 6.05782 5.95923
#
# Compressibility (1/GPa) = 0.02330654
#
# Stress axis : x y z
#
# Youngs Moduli (GPa) = 70.88368 80.71567 95.50899
#
# Poissons Ratio (x) = 0.04000 0.42129
# Poissons Ratio (y) = 0.03513 0.18372
# Poissons Ratio (z) = 0.31267 0.15527
#
# Static dielectric constant tensor:
#      x y z
#    x 2.062090 0.000000 0.013840 
#    y 0.000000 2.063530 0.000000 
#    z 0.013840 0.000000 2.065680 
# 
# From -- ./inp_files/10134.got.cif
#   From: 2010.05.17/outbox.cif.g08.bks.cpg/sg4_6_cif.got.tgz:10134.got - 2010.06.03 18:43:04.
