data_PCOD9117246
_publ_section_title
;
Structure prediction by ZEFSAII (Michael W. Deem and Ramdas Pophale) SiO2 
 PCOD9117246
Probable space group: P 21
;
_chemical_formula_sum "Si O2"
_cell_formula_units_Z 16
_cell_length_a 23.510990
_cell_length_b 5.272130
_cell_length_c 9.723645
_cell_angle_alpha 90.000000
_cell_angle_beta 144.161023
_cell_angle_gamma 90.000000
_cell_volume 705.699664
_symmetry_space_group_name_H-M "P 21"
_symmetry_group_IT_number 4
_symmetry_cell_setting 'monoclinic'
loop_
_space_group_symop_operation_xyz
x,y,z
-x,1/2+y,-z
loop_
_atom_site_type_symbol
_atom_site_label
_atom_site_fract_x
_atom_site_fract_y
_atom_site_fract_z
Si Si1 0.753463 0.441940 0.454706
Si Si2 0.419235 0.166140 0.692779
Si Si3 0.941728 0.743584 0.921894
Si Si4 0.302469 0.217104 0.906584
Si Si5 0.900337 0.945061 0.426069
Si Si6 0.442419 0.050962 0.420714
Si Si7 0.014314 0.440651 0.707542
Si Si8 0.628871 0.039330 0.210291
O O1 0.660523 0.522200 0.367938
O O2 0.846306 0.602452 0.677710
O O3 0.734078 0.483942 0.256080
O O4 0.739617 0.142854 0.437131
O O5 0.417286 0.081208 0.532292
O O6 0.388127 0.451344 0.666385
O O7 0.527543 0.169883 0.968957
O O8 0.017413 0.502482 0.069469
O O9 0.925482 0.851436 0.043048
O O10 0.210820 0.385386 0.765936
O O11 0.365768 0.355192 0.913076
O O12 0.357961 0.129067 0.149986
O O13 0.965238 0.717961 0.620659
O O14 0.923994 0.930244 0.310295
O O15 0.932445 0.223534 0.534766
O O16 0.523972 0.265722 0.548420
#
# Coordination Sequence:
#
# PCOD9117246 Si02
#       8
#     2   2   2   2   2   2   2   2
#     4  11  26  43  74 100 136 189 235 281 356 414
#     4  11  24  43  69 100 140 183 229 294 336 420
#     4  12  27  45  71 102 144 179 232 292 342 413
#     4  11  25  43  69 100 134 183 235 282 344 416
#     4  10  23  42  73  94 137 178 227 284 340 420
#     4  12  28  45  68 101 142 181 227 282 348 402
#     4  10  22  45  66 101 133 181 224 282 353 395
#     4  11  23  44  70  98 138 184 235 281 353 406
#
# _framework density 22.672536999999998
#
# number of rings (size 3 to 8) (size 9 to 14) (size 15 to 20)
#    0.000    1.000    2.500    3.000   12.250    0.000 
#    0.000    1.250    0.000    0.000    0.000    0.000 
#    0.000    0.000    0.000    0.000    0.000    0.000 
#
# Total GULP energy -89184.652932 kJ/mol
# GULP energy per Si atom -5574.040808 kJ/mol
# Density = 2.262093 g / cm^3
# Si number density = 22.672537 Si / 1000 Ang^3
#
#
#
# Elastic Constant Matrix: (Units=GPa)
#
#
# Indices 1 2 3 4 5 6 
#
# 1 88.2202 12.0412 30.6003 0.0000 -7.0578 0.0000
# 2 12.0412 61.1843 0.8061 0.0000 0.9544 0.0000
# 3 30.6003 0.8061 68.5910 0.0000 -14.5495 0.0000
# 4 0.0000 0.0000 0.0000 27.0082 0.0000 3.9845
# 5 -7.0578 0.9544 -14.5495 0.0000 36.6862 0.0000
# 6 0.0000 0.0000 0.0000 3.9845 0.0000 34.7584
#
#
#
# Elastic Compliance Matrix: (Units=1/GPa)
#
#
# Indices 1 2 3 4 5 6 
#
# 1 0.013827 -0.002646 -0.006069 0.000000 0.000322 0.000000
# 2 -0.002646 0.016863 0.000853 0.000000 -0.000609 0.000000
# 3 -0.006069 0.000853 0.018588 0.000000 0.006182 0.000000
# 4 0.000000 0.000000 0.000000 0.037663 0.000000 -0.004317
# 5 0.000322 -0.000609 0.006182 0.000000 0.029788 0.000000
# 6 0.000000 0.000000 0.000000 -0.004317 0.000000 0.029265
#
#
# Mechanical properties :
#
#
# Convention : Reuss Voigt Hill
#
# Bulk Modulus (GPa) = 29.80303 33.87675 31.83989
# Shear Modulus (GPa) = 28.91776 31.32709 30.12243
#
# Velocity S-wave (km/s) = 3.57522 3.72118 3.64893
# Velocity P-wave (km/s) = 5.49695 5.78248 5.64152
#
# Compressibility (1/GPa) = 0.03355363
#
# Stress axis : x y z
#
# Youngs Moduli (GPa) = 72.31976 59.30093 53.79751
#
# Poissons Ratio (x) = 0.15693 0.32652
# Poissons Ratio (y) = 0.19138 -0.04590
# Poissons Ratio (z) = 0.43894 -0.05059
#
# Static dielectric constant tensor:
#      x y z
#    x 1.850630 0.000000 0.034790 
#    y 0.000000 2.246070 0.000000 
#    z 0.034790 0.000000 1.853220 
# 
# From -- ./inp_files/7313.got.cif
#   From: 2010.05.17/outbox.cif.g08.bks.cpg/sg4_4_cif.got.tgz:7313.got - 2010.06.03 18:43:04.
