data_PCOD9117732
_publ_section_title
;
Structure prediction by ZEFSAII (Michael W. Deem and Ramdas Pophale) SiO2 
 PCOD9117732
Probable space group: P 21
;
_chemical_formula_sum "Si O2"
_cell_formula_units_Z 16
_cell_length_a 4.936846
_cell_length_b 12.290852
_cell_length_c 10.118256
_cell_angle_alpha 90.000000
_cell_angle_beta 91.173783
_cell_angle_gamma 90.000000
_cell_volume 613.827146
_symmetry_space_group_name_H-M "P 21"
_symmetry_group_IT_number 4
_symmetry_cell_setting 'monoclinic'
loop_
_space_group_symop_operation_xyz
x,y,z
-x,1/2+y,-z
loop_
_atom_site_type_symbol
_atom_site_label
_atom_site_fract_x
_atom_site_fract_y
_atom_site_fract_z
Si Si1 0.613682 0.806390 0.140087
Si Si2 0.706701 0.405227 0.451655
Si Si3 0.475411 0.512478 0.713378
Si Si4 0.334149 0.224620 0.347204
Si Si5 0.935459 0.081535 0.499803
Si Si6 0.075073 0.688748 0.228394
Si Si7 0.141819 0.376561 0.119820
Si Si8 0.643987 0.505055 0.171168
O O1 0.539070 0.931443 0.167023
O O2 0.346485 0.732614 0.160066
O O3 0.864330 0.788086 0.245225
O O4 0.752163 0.803402 0.998432
O O5 0.595978 0.441210 0.593084
O O6 0.596821 0.287653 0.409392
O O7 0.621233 0.481215 0.327664
O O8 0.008426 0.453677 0.467033
O O9 0.629093 0.622641 0.750998
O O10 0.220941 0.568063 0.638626
O O11 0.181036 0.312997 0.257496
O O12 0.183959 0.162321 0.464911
O O13 0.830779 0.135671 0.633103
O O14 0.845134 0.608093 0.161523
O O15 0.337918 0.483675 0.121995
O O16 0.829570 0.409951 0.109580
#
# Coordination Sequence:
#
# PCOD9117732 Si02
#       8
#     2   2   2   2   2   2   2   2
#     4  12  28  47  67 106 145 189 232 297 355 417
#     4   9  22  40  67 101 135 177 229 295 352 425
#     4  11  26  41  67 103 144 177 232 298 361 422
#     4  10  24  41  69  98 136 188 235 281 361 425
#     4  10  24  41  70 103 139 182 233 300 361 428
#     4  11  26  45  75 101 139 187 236 290 366 423
#     4  11  25  47  70 103 142 188 241 293 340 430
#     4  10  23  44  75 101 132 182 246 290 344 420
#
# _framework density 26.065971000000001
#
# number of rings (size 3 to 8) (size 9 to 14) (size 15 to 20)
#    0.000    1.500    0.000    2.250   21.000    2.000 
#    2.250    0.000    0.000    0.000    0.000    0.000 
#    0.000    0.000    0.000    0.000    0.000    0.000 
#
# Total GULP energy -89208.667057 kJ/mol
# GULP energy per Si atom -5575.541691 kJ/mol
# Density = 2.600664 g / cm^3
# Si number density = 26.065971 Si / 1000 Ang^3
#
#
#
# Elastic Constant Matrix: (Units=GPa)
#
#
# Indices 1 2 3 4 5 6 
#
# 1 93.8921 31.9300 4.9074 0.0000 -8.2031 0.0000
# 2 31.9300 121.5105 36.0898 0.0000 -17.1752 0.0000
# 3 4.9074 36.0898 95.1266 0.0000 -14.5264 0.0000
# 4 0.0000 0.0000 0.0000 34.9049 0.0000 -1.9759
# 5 -8.2031 -17.1752 -14.5264 0.0000 26.3903 0.0000
# 6 0.0000 0.0000 0.0000 -1.9759 0.0000 43.6027
#
#
#
# Elastic Compliance Matrix: (Units=1/GPa)
#
#
# Indices 1 2 3 4 5 6 
#
# 1 0.011837 -0.003066 0.000884 0.000000 0.002170 0.000000
# 2 -0.003066 0.010580 -0.003220 0.000000 0.004160 0.000000
# 3 0.000884 -0.003220 0.012458 0.000000 0.005036 0.000000
# 4 0.000000 0.000000 0.000000 0.028723 0.000000 0.001302
# 5 0.002170 0.004160 0.005036 0.000000 0.044047 0.000000
# 6 0.000000 0.000000 0.000000 0.001302 0.000000 0.022993
#
#
# Mechanical properties :
#
#
# Convention : Reuss Voigt Hill
#
# Bulk Modulus (GPa) = 41.54732 50.70928 46.12830
# Shear Modulus (GPa) = 33.45256 36.81970 35.13613
#
# Velocity S-wave (km/s) = 3.58632 3.76248 3.67545
# Velocity P-wave (km/s) = 5.75524 6.19447 5.97889
#
# Compressibility (1/GPa) = 0.02406894
#
# Stress axis : x y z
#
# Youngs Moduli (GPa) = 84.48337 94.51837 80.27258
#
# Poissons Ratio (x) = 0.28981 -0.07097
# Poissons Ratio (y) = 0.25904 0.25852
# Poissons Ratio (z) = -0.07469 0.30440
#
# Static dielectric constant tensor:
#      x y z
#    x 2.157530 0.000000 0.001000 
#    y 0.000000 2.171620 0.000000 
#    z 0.001000 0.000000 1.972920 
# 
# From -- ./inp_files/10451.got.cif
#   From: 2010.05.17/outbox.cif.g08.bks.cpg/sg4_6_cif.got.tgz:10451.got - 2010.06.03 18:43:04.
