data_PCOD9117127
_publ_section_title
;
Structure prediction by ZEFSAII (Michael W. Deem and Ramdas Pophale) SiO2 
 PCOD9117127
Probable space group: P 21
;
_chemical_formula_sum "Si O2"
_cell_formula_units_Z 14
_cell_length_a 5.244937
_cell_length_b 22.467725
_cell_length_c 5.173190
_cell_angle_alpha 90.000000
_cell_angle_beta 84.924667
_cell_angle_gamma 90.000000
_cell_volume 607.227869
_symmetry_space_group_name_H-M "P 21"
_symmetry_group_IT_number 4
_symmetry_cell_setting 'monoclinic'
loop_
_space_group_symop_operation_xyz
x,y,z
-x,1/2+y,-z
loop_
_atom_site_type_symbol
_atom_site_label
_atom_site_fract_x
_atom_site_fract_y
_atom_site_fract_z
Si Si1 0.249932 0.330280 0.749894
Si Si2 0.934604 0.650017 0.489668
Si Si3 0.419982 0.020292 0.982743
Si Si4 0.250076 0.747891 0.249999
Si Si5 0.079913 0.020292 0.517314
Si Si6 0.750003 0.912241 0.750114
Si Si7 0.434458 0.150019 0.989730
O O1 0.503180 0.289683 0.742429
O O2 0.303876 0.369860 0.489227
O O3 0.996695 0.289676 0.757530
O O4 0.195998 0.369909 0.010418
O O5 0.060031 0.583838 0.500075
O O6 0.750090 0.656452 0.249956
O O7 0.150155 0.700435 0.469917
O O8 0.750059 0.656341 0.749959
O O9 0.249945 0.031968 0.750031
O O10 0.559908 0.083842 0.000123
O O11 0.559057 0.959642 0.899159
O O12 0.249953 0.011023 0.250033
O O13 0.350015 0.700443 0.030056
O O14 0.940828 0.959646 0.600920
#
# Coordination Sequence:
#
# PCOD9117127 Si02
#       7
#     2   2   2   2   2   2   2
#     4  12  32  44  80  96 154 190 256 268 372 402
#     4  10  23  44  75 109 139 183 234 300 363 422
#     4  10  22  43  74 105 138 178 234 298 363 420
#     4  12  27  54  68 112 139 202 230 312 330 448
#     4  10  22  43  74 105 138 178 234 298 363 420
#     4  12  27  48  66 110 135 204 226 314 326 450
#     4  10  23  44  75 109 139 183 234 300 363 422
#
# _framework density 23.055599000000001
#
# number of rings (size 3 to 8) (size 9 to 14) (size 15 to 20)
#    0.000    1.143    1.429    2.571    8.000    3.429 
#    0.000    8.571    0.000    0.000    0.000    0.000 
#    0.000    0.000    0.000    0.000    0.000    0.000 
#
# Total GULP energy -78115.576842 kJ/mol
# GULP energy per Si atom -5579.684060 kJ/mol
# Density = 2.300312 g / cm^3
# Si number density = 23.055599 Si / 1000 Ang^3
#
#
#
# Elastic Constant Matrix: (Units=GPa)
#
#
# Indices 1 2 3 4 5 6 
#
# 1 96.9513 82.5167 47.5868 0.0000 -20.0456 0.0000
# 2 82.5167 234.2874 79.9635 0.0000 -19.5402 0.0000
# 3 47.5868 79.9635 219.8720 0.0000 -16.2110 0.0000
# 4 0.0000 0.0000 0.0000 73.6098 0.0000 -13.0350
# 5 -20.0456 -19.5402 -16.2110 0.0000 40.1388 0.0000
# 6 0.0000 0.0000 0.0000 -13.0350 0.0000 12.3269
#
#
#
# Elastic Compliance Matrix: (Units=1/GPa)
#
#
# Indices 1 2 3 4 5 6 
#
# 1 0.016125 -0.004780 -0.001370 0.000000 0.005172 0.000000
# 2 -0.004780 0.006406 -0.001280 0.000000 0.000215 0.000000
# 3 -0.001370 -0.001280 0.005374 0.000000 0.000863 0.000000
# 4 0.000000 0.000000 0.000000 0.016715 0.000000 0.017675
# 5 0.005172 0.000215 0.000863 0.000000 0.027950 0.000000
# 6 0.000000 0.000000 0.000000 0.017675 0.000000 0.099814
#
#
# Mechanical properties :
#
#
# Convention : Reuss Voigt Hill
#
# Bulk Modulus (GPa) = 76.65544 107.91610 92.28577
# Shear Modulus (GPa) = 26.09707 47.95135 37.02421
#
# Velocity S-wave (km/s) = 3.36805 4.56544 4.01167
# Velocity P-wave (km/s) = 6.96026 8.64289 7.84681
#
# Compressibility (1/GPa) = 0.01304539
#
# Stress axis : x y z
#
# Youngs Moduli (GPa) = 62.01583 156.09177 186.09516
#
# Poissons Ratio (x) = 0.74616 0.25496
# Poissons Ratio (y) = 0.29645 0.23811
# Poissons Ratio (z) = 0.08497 0.19972
#
# Static dielectric constant tensor:
#      x y z
#    x 1.942730 0.000000 0.003430 
#    y 0.000000 1.963060 0.000000 
#    z 0.003430 0.000000 1.832450 
# 
# From -- ./inp_files/596.got.cif
#   From: 2010.05.17/outbox.cif.g08.bks.cpg/sg4_1_cif.got.tgz:596.got - 2010.06.03 18:43:04.
