data_PCOD9117603
_publ_section_title
;
Structure prediction by ZEFSAII (Michael W. Deem and Ramdas Pophale) SiO2 
 PCOD9117603
Probable space group: P 21
;
_chemical_formula_sum "Si O2"
_cell_formula_units_Z 16
_cell_length_a 15.333005
_cell_length_b 5.977528
_cell_length_c 10.645538
_cell_angle_alpha 90.000000
_cell_angle_beta 43.804441
_cell_angle_gamma 90.000000
_cell_volume 675.378997
_symmetry_space_group_name_H-M "P 21"
_symmetry_group_IT_number 4
_symmetry_cell_setting 'monoclinic'
loop_
_space_group_symop_operation_xyz
x,y,z
-x,1/2+y,-z
loop_
_atom_site_type_symbol
_atom_site_label
_atom_site_fract_x
_atom_site_fract_y
_atom_site_fract_z
Si Si1 0.047291 0.327140 0.760740
Si Si2 0.680991 0.879723 0.539905
Si Si3 0.836387 0.602107 0.109869
Si Si4 0.360607 0.727471 0.628791
Si Si5 0.681418 0.521702 0.720661
Si Si6 0.038061 0.113070 0.514542
Si Si7 0.611880 0.884763 0.225166
Si Si8 0.488913 0.659984 0.126973
O O1 0.174637 0.441587 0.573604
O O2 0.092987 0.217846 0.845507
O O3 0.004801 0.152872 0.697335
O O4 0.938896 0.499107 0.909426
O O5 0.670294 0.004083 0.418809
O O6 0.555215 0.956355 0.741929
O O7 0.681749 0.618643 0.578583
O O8 0.750448 0.404876 0.257399
O O9 0.737984 0.755048 0.135138
O O10 0.491369 0.812524 0.435905
O O11 0.372715 0.644600 0.759022
O O12 0.811146 0.586445 0.648262
O O13 0.648867 0.263157 0.753921
O O14 0.567088 0.611643 0.923430
O O15 0.007475 0.361906 0.484397
O O16 0.571149 0.823206 0.128075
#
# Coordination Sequence:
#
# PCOD9117603 Si02
#       8
#     2   2   2   2   2   2   2   2
#     4  11  27  46  77 104 151 206 257 318 387 467
#     4  10  23  43  67 102 136 189 236 302 365 458
#     4  12  26  48  70 111 142 198 251 310 382 470
#     4  11  23  41  67 102 146 178 237 294 385 444
#     4  11  25  45  75 105 144 193 252 313 383 457
#     4  11  30  52  79 114 158 215 265 325 389 467
#     4  11  25  40  69 105 145 183 229 315 374 456
#     4  11  25  43  72 105 144 188 247 313 385 465
#
# _framework density 23.690403
#
# number of rings (size 3 to 8) (size 9 to 14) (size 15 to 20)
#    0.000    1.000    3.750    0.750   14.000    2.000 
#    0.000    0.000    0.000    0.000    0.000    0.000 
#    0.000    0.000    0.000    0.000    0.000    0.000 
#
# Total GULP energy -89213.486281 kJ/mol
# GULP energy per Si atom -5575.842893 kJ/mol
# Density = 2.363648 g / cm^3
# Si number density = 23.690403 Si / 1000 Ang^3
#
#
#
# Elastic Constant Matrix: (Units=GPa)
#
#
# Indices 1 2 3 4 5 6 
#
# 1 93.1103 51.6433 35.3414 0.0000 -10.0703 0.0000
# 2 51.6433 69.2319 31.0801 0.0000 -13.2678 0.0000
# 3 35.3414 31.0801 98.8984 0.0000 -17.1854 0.0000
# 4 0.0000 0.0000 0.0000 35.1344 0.0000 -12.3162
# 5 -10.0703 -13.2678 -17.1854 0.0000 31.8619 0.0000
# 6 0.0000 0.0000 0.0000 -12.3162 0.0000 41.7075
#
#
#
# Elastic Compliance Matrix: (Units=1/GPa)
#
#
# Indices 1 2 3 4 5 6 
#
# 1 0.018949 -0.013047 -0.002841 0.000000 -0.000976 0.000000
# 2 -0.013047 0.026428 -0.002701 0.000000 0.005425 0.000000
# 3 -0.002841 -0.002701 0.012826 0.000000 0.004896 0.000000
# 4 0.000000 0.000000 0.000000 0.031749 0.000000 0.009375
# 5 -0.000976 0.005425 0.004896 0.000000 0.035977 0.000000
# 6 0.000000 0.000000 0.000000 0.009375 0.000000 0.026745
#
#
# Mechanical properties :
#
#
# Convention : Reuss Voigt Hill
#
# Bulk Modulus (GPa) = 47.55784 55.26335 51.41059
# Shear Modulus (GPa) = 25.39894 31.28580 28.34237
#
# Velocity S-wave (km/s) = 3.27788 3.63796 3.46260
# Velocity P-wave (km/s) = 5.86892 6.40502 6.14282
#
# Compressibility (1/GPa) = 0.02102703
#
# Stress axis : x y z
#
# Youngs Moduli (GPa) = 52.77331 37.83824 77.96678
#
# Poissons Ratio (x) = 0.49366 0.22150
# Poissons Ratio (y) = 0.68851 0.21055
# Poissons Ratio (z) = 0.14993 0.10218
#
# Static dielectric constant tensor:
#      x y z
#    x 1.963670 0.000000 0.027890 
#    y 0.000000 2.032790 0.000000 
#    z 0.027890 0.000000 1.864670 
# 
# From -- ./inp_files/12463.got.cif
#   From: 2010.05.17/outbox.cif.g08.bks.cpg/sg4_7_cif.got.tgz:12463.got - 2010.06.03 18:43:04.
