data_PCOD9117511
_publ_section_title
;
Structure prediction by ZEFSAII (Michael W. Deem and Ramdas Pophale) SiO2 
 PCOD9117511
Probable space group: P 21
;
_chemical_formula_sum "Si O2"
_cell_formula_units_Z 12
_cell_length_a 9.066917
_cell_length_b 8.541431
_cell_length_c 7.623864
_cell_angle_alpha 90.000000
_cell_angle_beta 132.641845
_cell_angle_gamma 90.000000
_cell_volume 434.318812
_symmetry_space_group_name_H-M "P 21"
_symmetry_group_IT_number 4
_symmetry_cell_setting 'monoclinic'
loop_
_space_group_symop_operation_xyz
x,y,z
-x,1/2+y,-z
loop_
_atom_site_type_symbol
_atom_site_label
_atom_site_fract_x
_atom_site_fract_y
_atom_site_fract_z
Si Si1 0.063230 0.184540 0.196185
Si Si2 0.411010 0.897039 0.874833
Si Si3 0.052804 0.680807 0.535529
Si Si4 0.645625 0.956900 0.419250
Si Si5 0.337774 0.568392 0.194973
Si Si6 0.241660 0.240379 0.008094
O O1 0.020082 0.100693 0.345222
O O2 0.226169 0.309413 0.404281
O O3 0.163933 0.127023 0.096932
O O4 0.827065 0.206474 0.944975
O O5 0.184820 0.834751 0.690954
O O6 0.495592 0.043583 0.824195
O O7 0.491305 0.914388 0.138407
O O8 0.529160 0.759410 0.863338
O O9 0.191340 0.564597 0.541029
O O10 0.872799 0.718402 0.263056
O O11 0.572349 0.043157 0.539179
O O12 0.200083 0.413180 0.052585
#
# Coordination Sequence:
#
# PCOD9117511 Si02
#       6
#     2   2   2   2   2   2
#     4  11  20  41  72  90 132 178 216 278 331 386
#     4  10  23  42  60  96 134 171 219 271 326 393
#     4  12  22  41  68  94 134 174 217 274 330 393
#     4  11  22  42  67  97 135 169 224 275 323 400
#     4   9  20  41  65  93 130 167 223 271 326 387
#     4   9  21  41  64  96 125 171 221 269 330 389
#
# _framework density 27.629472
#
# number of rings (size 3 to 8) (size 9 to 14) (size 15 to 20)
#    1.000    0.667    5.000    0.000    0.000    1.333 
#    6.000    1.667    0.000    0.000    0.000    0.000 
#    0.000    0.000    0.000    0.000    0.000    0.000 
#
# Total GULP energy -66933.470183 kJ/mol
# GULP energy per Si atom -5577.789182 kJ/mol
# Density = 2.756659 g / cm^3
# Si number density = 27.629472 Si / 1000 Ang^3
#
#
#
# Elastic Constant Matrix: (Units=GPa)
#
#
# Indices 1 2 3 4 5 6 
#
# 1 148.2959 28.9245 84.8451 0.0000 -36.5678 0.0000
# 2 28.9245 56.2131 27.1375 0.0000 0.6332 0.0000
# 3 84.8451 27.1375 160.2435 0.0000 -35.9307 0.0000
# 4 0.0000 0.0000 0.0000 34.7125 0.0000 -2.6272
# 5 -36.5678 0.6332 -35.9307 0.0000 69.0646 0.0000
# 6 0.0000 0.0000 0.0000 -2.6272 0.0000 32.8258
#
#
#
# Elastic Compliance Matrix: (Units=1/GPa)
#
#
# Indices 1 2 3 4 5 6 
#
# 1 0.010754 -0.003485 -0.004325 0.000000 0.003476 0.000000
# 2 -0.003485 0.020784 -0.002412 0.000000 -0.003291 0.000000
# 3 -0.004325 -0.002412 0.009544 0.000000 0.002697 0.000000
# 4 0.000000 0.000000 0.000000 0.028984 0.000000 0.002320
# 5 0.003476 -0.003291 0.002697 0.000000 0.017753 0.000000
# 6 0.000000 0.000000 0.000000 0.002320 0.000000 0.030650
#
#
# Mechanical properties :
#
#
# Convention : Reuss Voigt Hill
#
# Bulk Modulus (GPa) = 48.45382 71.84076 60.14729
# Shear Modulus (GPa) = 34.29524 42.24359 38.26942
#
# Velocity S-wave (km/s) = 3.52697 3.91440 3.72572
# Velocity P-wave (km/s) = 5.84475 6.81821 6.35016
#
# Compressibility (1/GPa) = 0.02063821
#
# Stress axis : x y z
#
# Youngs Moduli (GPa) = 92.98459 48.11281 104.78189
#
# Poissons Ratio (x) = 0.16768 0.45313
# Poissons Ratio (y) = 0.32407 0.25279
# Poissons Ratio (z) = 0.40212 0.11607
#
# Static dielectric constant tensor:
#      x y z
#    x 2.061940 0.000000 0.031230 
#    y 0.000000 2.426260 0.000000 
#    z 0.031230 0.000000 2.114570 
# 
# From -- ./inp_files/8372.got.cif
#   From: 2010.05.17/outbox.cif.g08.bks.cpg/sg4_5_cif.got.tgz:8372.got - 2010.06.03 18:43:04.
