data_PCOD9117051
_publ_section_title
;
Structure prediction by ZEFSAII (Michael W. Deem and Ramdas Pophale) SiO2 
 PCOD9117051
Probable space group: P 21
;
_chemical_formula_sum "Si O2"
_cell_formula_units_Z 16
_cell_length_a 13.705848
_cell_length_b 8.486289
_cell_length_c 18.363760
_cell_angle_alpha 90.000000
_cell_angle_beta 19.034120
_cell_angle_gamma 90.000000
_cell_volume 696.590634
_symmetry_space_group_name_H-M "P 21"
_symmetry_group_IT_number 4
_symmetry_cell_setting 'monoclinic'
loop_
_space_group_symop_operation_xyz
x,y,z
-x,1/2+y,-z
loop_
_atom_site_type_symbol
_atom_site_label
_atom_site_fract_x
_atom_site_fract_y
_atom_site_fract_z
Si Si1 0.235808 0.926560 0.380735
Si Si2 0.663382 0.056924 0.714094
Si Si3 0.135278 0.813257 0.864431
Si Si4 0.911897 0.483948 0.959790
Si Si5 0.900573 0.002135 0.897615
Si Si6 0.865394 0.848990 0.777908
Si Si7 0.839246 0.820359 0.353095
Si Si8 0.291960 0.997076 0.124019
O O1 0.310639 0.743426 0.314912
O O2 0.085498 0.936751 0.566840
O O3 0.989755 0.983198 0.495912
O O4 0.545109 0.019874 0.159704
O O5 0.487235 0.021434 0.912955
O O6 0.441268 0.986577 0.810489
O O7 0.492425 0.803426 0.613653
O O8 0.995787 0.653169 0.932632
O O9 0.023543 0.856621 0.023569
O O10 0.042478 0.949436 0.873147
O O11 0.096494 0.446875 0.756523
O O12 0.031016 0.158933 0.770548
O O13 0.960528 0.866482 0.794367
O O14 0.836874 0.670071 0.770224
O O15 0.536122 0.927299 0.006334
O O16 0.031559 0.876147 0.286839
#
# Coordination Sequence:
#
# PCOD9117051 Si02
#       8
#     2   2   2   2   2   2   2   2
#     4  11  25  41  73 101 137 184 218 281 357 404
#     4  10  23  45  66 104 139 179 225 283 343 412
#     4  12  26  47  72  99 135 189 229 286 339 397
#     4  11  25  48  69 103 139 178 240 283 337 407
#     4  12  25  46  66 100 141 173 232 288 328 416
#     4  11  24  40  68  99 139 180 223 280 354 410
#     4  11  26  44  71  97 136 183 229 286 341 402
#     4  10  22  43  65 103 138 176 230 283 339 420
#
# _framework density 22.969013
#
# number of rings (size 3 to 8) (size 9 to 14) (size 15 to 20)
#    0.000    1.000    2.500    3.000    8.750    3.000 
#    2.250    0.000    0.000    0.000    0.000    0.000 
#    0.000    0.000    0.000    0.000    0.000    0.000 
#
# Total GULP energy -89630.953893 kJ/mol
# GULP energy per Si atom -5601.934618 kJ/mol
# Density = 2.291673 g / cm^3
# Si number density = 22.969013 Si / 1000 Ang^3
#
#
#
# Elastic Constant Matrix: (Units=GPa)
#
#
# Indices 1 2 3 4 5 6 
#
# 1 59.4795 -10.4467 11.3768 0.0000 -0.1100 0.0000
# 2 -10.4467 51.8100 -9.5845 0.0000 -0.2822 0.0000
# 3 11.3768 -9.5845 101.7531 0.0000 -6.4749 0.0000
# 4 0.0000 0.0000 0.0000 35.7129 0.0000 -5.9669
# 5 -0.1100 -0.2822 -6.4749 0.0000 19.5919 0.0000
# 6 0.0000 0.0000 0.0000 -5.9669 0.0000 37.8548
#
#
#
# Elastic Compliance Matrix: (Units=1/GPa)
#
#
# Indices 1 2 3 4 5 6 
#
# 1 0.017708 0.003254 -0.001700 0.000000 -0.000416 0.000000
# 2 0.003254 0.020257 0.001598 0.000000 0.000838 0.000000
# 3 -0.001700 0.001598 0.010388 0.000000 0.003446 0.000000
# 4 0.000000 0.000000 0.000000 0.028758 0.000000 0.004533
# 5 -0.000416 0.000838 0.003446 0.000000 0.052190 0.000000
# 6 0.000000 0.000000 0.000000 0.004533 0.000000 0.027131
#
#
# Mechanical properties :
#
#
# Convention : Reuss Voigt Hill
#
# Bulk Modulus (GPa) = 18.29598 21.74819 20.02209
# Shear Modulus (GPa) = 29.70022 33.41174 31.55598
#
# Velocity S-wave (km/s) = 3.59981 3.81812 3.71057
# Velocity P-wave (km/s) = 5.02603 5.37833 5.20516
#
# Compressibility (1/GPa) = 0.05465681
#
# Stress axis : x y z
#
# Youngs Moduli (GPa) = 56.47041 49.36444 96.26893
#
# Poissons Ratio (x) = -0.16063 0.16365
# Poissons Ratio (y) = -0.18375 -0.15380
# Poissons Ratio (z) = 0.09599 -0.07887
#
# Static dielectric constant tensor:
#      x y z
#    x 1.869640 0.000000 0.011720 
#    y 0.000000 1.836640 0.000000 
#    z 0.011720 0.000000 1.838050 
# 
# From -- ./inp_files/12554.got.cif
#   From: 2010.05.17/outbox.cif.g08.bks.cpg/sg4_7_cif.got.tgz:12554.got - 2010.06.03 18:43:04.
