data_PCOD9117185
_publ_section_title
;
Structure prediction by ZEFSAII (Michael W. Deem and Ramdas Pophale) SiO2 
 PCOD9117185
Probable space group: P 21
;
_chemical_formula_sum "Si O2"
_cell_formula_units_Z 16
_cell_length_a 12.550583
_cell_length_b 8.416279
_cell_length_c 9.877484
_cell_angle_alpha 90.000000
_cell_angle_beta 144.176596
_cell_angle_gamma 90.000000
_cell_volume 610.661678
_symmetry_space_group_name_H-M "P 21"
_symmetry_group_IT_number 4
_symmetry_cell_setting 'monoclinic'
loop_
_space_group_symop_operation_xyz
x,y,z
-x,1/2+y,-z
loop_
_atom_site_type_symbol
_atom_site_label
_atom_site_fract_x
_atom_site_fract_y
_atom_site_fract_z
Si Si1 0.779787 0.751350 0.057029
Si Si2 0.761490 0.964747 0.779354
Si Si3 0.860362 0.245925 0.426830
Si Si4 0.360068 0.457289 0.844230
Si Si5 0.686049 0.525548 0.325781
Si Si6 0.941671 0.807707 0.619204
Si Si7 0.415222 0.133081 0.503842
Si Si8 0.854719 0.479142 0.950293
O O1 0.671839 0.825431 0.072248
O O2 0.970443 0.690767 0.312691
O O3 0.733490 0.596696 0.920890
O O4 0.803356 0.892126 0.971460
O O5 0.606978 0.098218 0.631355
O O6 0.676618 0.804803 0.619399
O O7 0.945359 0.030400 0.900282
O O8 0.738189 0.344438 0.403418
O O9 0.946755 0.355080 0.399528
O O10 0.747345 0.116240 0.232479
O O11 0.251360 0.402545 0.597680
O O12 0.570089 0.506845 0.067951
O O13 0.868854 0.629357 0.521470
O O14 0.561935 0.602705 0.312854
O O15 0.072559 0.835086 0.881315
O O16 0.275313 0.992252 0.313526
#
# Coordination Sequence:
#
# PCOD9117185 Si02
#       8
#     2   2   2   2   2   2   2   2
#     4  10  22  44  69  97 144 184 237 297 353 430
#     4  11  24  48  71 108 147 188 249 298 363 430
#     4  11  24  41  69 103 132 189 235 290 363 430
#     4  11  23  44  70 100 142 185 233 294 361 429
#     4  12  24  45  71 102 143 182 241 306 361 419
#     4  11  23  45  67 101 141 184 239 285 365 438
#     4  11  26  46  74 107 141 196 243 306 361 429
#     4  11  24  45  71 104 144 190 239 296 361 431
#
# _framework density 26.201084999999999
#
# number of rings (size 3 to 8) (size 9 to 14) (size 15 to 20)
#    0.000    1.000    3.750    3.000    1.750    4.000 
#    4.500    0.000    0.000    0.000    0.000    0.000 
#    0.000    0.000    0.000    0.000    0.000    0.000 
#
# Total GULP energy -89237.071040 kJ/mol
# GULP energy per Si atom -5577.316940 kJ/mol
# Density = 2.614145 g / cm^3
# Si number density = 26.201085 Si / 1000 Ang^3
#
#
#
# Elastic Constant Matrix: (Units=GPa)
#
#
# Indices 1 2 3 4 5 6 
#
# 1 67.1932 17.7940 7.3530 0.0000 1.8011 0.0000
# 2 17.7940 89.5181 24.2061 0.0000 1.3391 0.0000
# 3 7.3530 24.2061 102.2599 0.0000 -2.4357 0.0000
# 4 0.0000 0.0000 0.0000 32.6770 0.0000 -1.5432
# 5 1.8011 1.3391 -2.4357 0.0000 32.9868 0.0000
# 6 0.0000 0.0000 0.0000 -1.5432 0.0000 31.4179
#
#
#
# Elastic Compliance Matrix: (Units=1/GPa)
#
#
# Indices 1 2 3 4 5 6 
#
# 1 0.015746 -0.002999 -0.000441 0.000000 -0.000770 0.000000
# 2 -0.002999 0.012522 -0.002762 0.000000 -0.000548 0.000000
# 3 -0.000441 -0.002762 0.010486 0.000000 0.000910 0.000000
# 4 0.000000 0.000000 0.000000 0.030674 0.000000 0.001507
# 5 -0.000770 -0.000548 0.000910 0.000000 0.030447 0.000000
# 6 0.000000 0.000000 0.000000 0.001507 0.000000 0.031903
#
#
# Mechanical properties :
#
#
# Convention : Reuss Voigt Hill
#
# Bulk Modulus (GPa) = 37.94911 39.74192 38.84552
# Shear Modulus (GPa) = 32.68759 33.39089 33.03924
#
# Velocity S-wave (km/s) = 3.53592 3.57376 3.55489
# Velocity P-wave (km/s) = 5.58440 5.67715 5.63097
#
# Compressibility (1/GPa) = 0.02635108
#
# Stress axis : x y z
#
# Youngs Moduli (GPa) = 63.50999 79.85936 95.36481
#
# Poissons Ratio (x) = 0.23951 0.04202
# Poissons Ratio (y) = 0.19048 0.26335
# Poissons Ratio (z) = 0.02798 0.22053
#
# Static dielectric constant tensor:
#      x y z
#    x 2.080770 0.000000 -0.005790 
#    y 0.000000 2.152910 0.000000 
#    z -0.005790 0.000000 2.056810 
# 
# From -- ./inp_files/12668.got.cif
#   From: 2010.05.17/outbox.cif.g08.bks.cpg/sg4_7_cif.got.tgz:12668.got - 2010.06.03 18:43:04.
