data_PCOD9117200
_publ_section_title
;
Structure prediction by ZEFSAII (Michael W. Deem and Ramdas Pophale) SiO2 
 PCOD9117200
Probable space group: P 21
;
_chemical_formula_sum "Si O2"
_cell_formula_units_Z 16
_cell_length_a 10.205609
_cell_length_b 7.990355
_cell_length_c 12.568530
_cell_angle_alpha 90.000000
_cell_angle_beta 144.563346
_cell_angle_gamma 90.000000
_cell_volume 594.250538
_symmetry_space_group_name_H-M "P 21"
_symmetry_group_IT_number 4
_symmetry_cell_setting 'monoclinic'
loop_
_space_group_symop_operation_xyz
x,y,z
-x,1/2+y,-z
loop_
_atom_site_type_symbol
_atom_site_label
_atom_site_fract_x
_atom_site_fract_y
_atom_site_fract_z
Si Si1 0.693795 0.826560 0.385409
Si Si2 0.315712 0.733085 0.974066
Si Si3 0.729682 0.615077 0.106373
Si Si4 0.890886 0.609487 0.788809
Si Si5 0.930211 0.168179 0.481698
Si Si6 0.415740 0.549897 0.502295
Si Si7 0.842470 0.977961 0.851200
Si Si8 0.515300 0.792406 0.766741
O O1 0.461092 0.778198 0.175432
O O2 0.886434 0.691364 0.489195
O O3 0.798387 0.991446 0.395184
O O4 0.651219 0.882782 0.477576
O O5 0.497171 0.649519 0.016166
O O6 0.105485 0.610802 0.854169
O O7 0.236676 0.916417 0.883506
O O8 0.930940 0.680381 0.315345
O O9 0.684345 0.704164 0.962894
O O10 0.651957 0.536508 0.596035
O O11 0.878608 0.801643 0.818345
O O12 0.948475 0.519025 0.937878
O O13 0.730311 0.305593 0.342182
O O14 0.227803 0.597728 0.291723
O O15 0.461590 0.678153 0.627869
O O16 0.636330 0.951578 0.797101
#
# Coordination Sequence:
#
# PCOD9117200 Si02
#       8
#     2   2   2   2   2   2   2   2
#     4  10  22  44  71 104 148 177 245 293 358 434
#     4  11  25  45  72 106 140 191 238 307 357 450
#     4  11  25  44  71 104 145 185 243 297 376 429
#     4  11  27  47  77 104 144 198 244 303 374 429
#     4  10  23  40  70 104 138 198 220 299 371 425
#     4  10  23  47  67 104 143 190 239 303 344 435
#     4  11  27  46  72 108 141 196 250 305 362 437
#     4  10  24  45  68 100 153 181 245 305 350 445
#
# _framework density 26.924671
#
# number of rings (size 3 to 8) (size 9 to 14) (size 15 to 20)
#    0.000    1.500    2.500    0.750    8.750    6.000 
#    2.250    0.000    0.000    0.000    0.000    0.000 
#    0.000    0.000    0.000    0.000    0.000    0.000 
#
# Total GULP energy -89660.203499 kJ/mol
# GULP energy per Si atom -5603.762719 kJ/mol
# Density = 2.686339 g / cm^3
# Si number density = 26.924671 Si / 1000 Ang^3
#
#
#
# Elastic Constant Matrix: (Units=GPa)
#
#
# Indices 1 2 3 4 5 6 
#
# 1 74.5640 23.6457 24.7162 0.0000 12.9223 0.0000
# 2 23.6457 65.5223 -2.4634 0.0000 -4.1807 0.0000
# 3 24.7162 -2.4634 95.0175 0.0000 -1.6422 0.0000
# 4 0.0000 0.0000 0.0000 25.9947 0.0000 7.4705
# 5 12.9223 -4.1807 -1.6422 0.0000 52.7652 0.0000
# 6 0.0000 0.0000 0.0000 7.4705 0.0000 45.9049
#
#
#
# Elastic Compliance Matrix: (Units=1/GPa)
#
#
# Indices 1 2 3 4 5 6 
#
# 1 0.018221 -0.007094 -0.005013 0.000000 -0.005180 0.000000
# 2 -0.007094 0.018119 0.002371 0.000000 0.003247 0.000000
# 3 -0.005013 0.002371 0.011921 0.000000 0.001787 0.000000
# 4 0.000000 0.000000 0.000000 0.040357 0.000000 -0.006568
# 5 -0.005180 0.003247 0.001787 0.000000 0.020533 0.000000
# 6 0.000000 0.000000 0.000000 -0.006568 0.000000 0.022853
#
#
# Mechanical properties :
#
#
# Convention : Reuss Voigt Hill
#
# Bulk Modulus (GPa) = 34.73738 36.32230 35.52984
# Shear Modulus (GPa) = 31.04216 37.54666 34.29441
#
# Velocity S-wave (km/s) = 3.39916 3.73836 3.57279
# Velocity P-wave (km/s) = 5.32310 5.67040 5.49949
#
# Compressibility (1/GPa) = 0.02878743
#
# Stress axis : x y z
#
# Youngs Moduli (GPa) = 54.88303 55.19204 83.88748
#
# Poissons Ratio (x) = 0.39156 0.42053
# Poissons Ratio (y) = 0.38937 -0.19892
# Poissons Ratio (z) = 0.27513 -0.13088
#
# Static dielectric constant tensor:
#      x y z
#    x 2.199760 0.000000 0.048450 
#    y 0.000000 2.120240 0.000000 
#    z 0.048450 0.000000 2.098490 
# 
# From -- ./inp_files/13983.got.cif
#   From: 2010.05.17/outbox.cif.g08.bks.cpg/sg4_7_cif.got.tgz:13983.got - 2010.06.03 18:43:04.
