data_PCOD9117138
_publ_section_title
;
Structure prediction by ZEFSAII (Michael W. Deem and Ramdas Pophale) SiO2 
 PCOD9117138
Probable space group: P 21
;
_chemical_formula_sum "Si O2"
_cell_formula_units_Z 16
_cell_length_a 8.961911
_cell_length_b 13.367597
_cell_length_c 6.277759
_cell_angle_alpha 90.000000
_cell_angle_beta 115.238546
_cell_angle_gamma 90.000000
_cell_volume 680.278241
_symmetry_space_group_name_H-M "P 21"
_symmetry_group_IT_number 4
_symmetry_cell_setting 'monoclinic'
loop_
_space_group_symop_operation_xyz
x,y,z
-x,1/2+y,-z
loop_
_atom_site_type_symbol
_atom_site_label
_atom_site_fract_x
_atom_site_fract_y
_atom_site_fract_z
Si Si1 0.992541 0.425260 0.433794
Si Si2 0.796507 0.941564 0.038594
Si Si3 0.926168 0.559896 0.041643
Si Si4 0.443041 0.976266 0.210053
Si Si5 0.915876 0.249181 0.064426
Si Si6 0.297367 0.846526 0.449038
Si Si7 0.536201 0.799354 0.937313
Si Si8 0.371774 0.622704 0.926312
O O1 0.147575 0.424546 0.683169
O O2 0.981296 0.533054 0.314527
O O3 0.832978 0.403716 0.481749
O O4 0.992359 0.336746 0.256900
O O5 0.664919 0.031304 0.934634
O O6 0.958584 0.983754 0.024127
O O7 0.704826 0.838027 0.936354
O O8 0.963611 0.668971 0.972783
O O9 0.736648 0.527082 0.919776
O O10 0.578325 0.060879 0.253559
O O11 0.430013 0.920680 0.424689
O O12 0.470343 0.889275 0.048540
O O13 0.802881 0.294269 0.804157
O O14 0.793964 0.186698 0.144883
O O15 0.405354 0.778594 0.670310
O O16 0.524503 0.697200 0.063830
#
# Coordination Sequence:
#
# PCOD9117138 Si02
#       8
#     2   2   2   2   2   2   2   2
#     4  12  22  44  73  98 141 181 232 290 339 421
#     4  10  25  41  71 101 136 184 235 288 350 408
#     4  11  23  43  67 105 136 179 236 285 347 420
#     4  11  22  44  68  98 142 176 229 283 354 409
#     4  11  24  43  73 102 135 184 233 287 354 408
#     4  12  21  43  73  94 134 188 222 280 351 408
#     4  11  23  46  66  97 143 180 228 288 345 415
#     4  10  22  44  65 103 137 176 235 285 338 421
#
# _framework density 23.519788999999999
#
# number of rings (size 3 to 8) (size 9 to 14) (size 15 to 20)
#    0.000    1.000    6.250    0.000    1.750    4.000 
#    4.500    2.500    0.000    0.000    0.000    0.000 
#    0.000    0.000    0.000    0.000    0.000    0.000 
#
# Total GULP energy -89247.148016 kJ/mol
# GULP energy per Si atom -5577.946751 kJ/mol
# Density = 2.346626 g / cm^3
# Si number density = 23.519789 Si / 1000 Ang^3
#
#
#
# Elastic Constant Matrix: (Units=GPa)
#
#
# Indices 1 2 3 4 5 6 
#
# 1 97.1944 60.2152 25.4756 0.0000 -17.8165 0.0000
# 2 60.2152 127.5875 29.2529 0.0000 -23.9283 0.0000
# 3 25.4756 29.2529 91.7343 0.0000 -2.4653 0.0000
# 4 0.0000 0.0000 0.0000 21.9007 0.0000 -12.0579
# 5 -17.8165 -23.9283 -2.4653 0.0000 24.8780 0.0000
# 6 0.0000 0.0000 0.0000 -12.0579 0.0000 56.9605
#
#
#
# Elastic Compliance Matrix: (Units=1/GPa)
#
#
# Indices 1 2 3 4 5 6 
#
# 1 0.015432 -0.005765 -0.002306 0.000000 0.005279 0.000000
# 2 -0.005765 0.012497 -0.002178 0.000000 0.007676 0.000000
# 3 -0.002306 -0.002178 0.012168 0.000000 -0.002540 0.000000
# 4 0.000000 0.000000 0.000000 0.051684 0.000000 0.010941
# 5 0.005279 0.007676 -0.002540 0.000000 0.051108 0.000000
# 6 0.000000 0.000000 0.000000 0.010941 0.000000 0.019872
#
#
# Mechanical properties :
#
#
# Convention : Reuss Voigt Hill
#
# Bulk Modulus (GPa) = 51.01882 60.71152 55.86517
# Shear Modulus (GPa) = 26.34476 34.18601 30.26538
#
# Velocity S-wave (km/s) = 3.35044 3.81662 3.59110
# Velocity P-wave (km/s) = 6.05856 6.72986 6.40302
#
# Compressibility (1/GPa) = 0.01960061
#
# Stress axis : x y z
#
# Youngs Moduli (GPa) = 64.80083 80.01700 82.18540
#
# Poissons Ratio (x) = 0.46126 0.18948
# Poissons Ratio (y) = 0.37355 0.17901
# Poissons Ratio (z) = 0.14940 0.17428
#
# Static dielectric constant tensor:
#      x y z
#    x 1.930550 0.000000 -0.029050 
#    y 0.000000 1.951230 0.000000 
#    z -0.029050 0.000000 1.900490 
# 
# From -- ./inp_files/1680.got.cif
#   From: 2010.05.17/outbox.cif.g08.bks.cpg/sg4_1_cif.got.tgz:1680.got - 2010.06.03 18:43:04.
