data_PCOD9117048
_publ_section_title
;
Structure prediction by ZEFSAII (Michael W. Deem and Ramdas Pophale) SiO2 
 PCOD9117048
Probable space group: P 21
;
_chemical_formula_sum "Si O2"
_cell_formula_units_Z 16
_cell_length_a 11.198641
_cell_length_b 9.230614
_cell_length_c 15.256387
_cell_angle_alpha 90.000000
_cell_angle_beta 151.759291
_cell_angle_gamma 90.000000
_cell_volume 746.227188
_symmetry_space_group_name_H-M "P 21"
_symmetry_group_IT_number 4
_symmetry_cell_setting 'monoclinic'
loop_
_space_group_symop_operation_xyz
x,y,z
-x,1/2+y,-z
loop_
_atom_site_type_symbol
_atom_site_label
_atom_site_fract_x
_atom_site_fract_y
_atom_site_fract_z
Si Si1 0.368269 0.406580 0.513578
Si Si2 0.907200 0.209160 0.262875
Si Si3 0.753661 0.219100 0.843449
Si Si4 0.852510 0.929880 0.335689
Si Si5 0.076436 0.442409 0.141744
Si Si6 0.530318 0.587212 0.779132
Si Si7 0.372700 0.858729 0.764772
Si Si8 0.523943 0.186350 0.876122
O O1 0.626223 0.312521 0.683397
O O2 0.441046 0.543319 0.623139
O O3 0.154139 0.307725 0.422099
O O4 0.248399 0.434826 0.340316
O O5 0.699484 0.279904 0.191991
O O6 0.924509 0.042902 0.305742
O O7 0.793363 0.215872 0.092978
O O8 0.553438 0.222116 0.793438
O O9 0.795396 0.056583 0.840644
O O10 0.005754 0.294187 0.045127
O O11 0.685021 0.786400 0.212600
O O12 0.110130 0.878247 0.544618
O O13 0.685717 0.020700 0.297361
O O14 0.797008 0.513060 0.975869
O O15 0.541301 0.755230 0.813094
O O16 0.470787 0.017310 0.849776
#
# Coordination Sequence:
#
# PCOD9117048 Si02
#       8
#     2   2   2   2   2   2   2   2
#     4  11  21  46  70  97 132 173 225 279 339 399
#     4  11  22  39  67  97 130 178 220 265 336 404
#     4  11  25  45  69  95 130 176 222 284 344 382
#     4  11  20  39  63  94 130 179 214 264 335 397
#     4  11  25  46  72  92 135 173 228 287 335 392
#     4  10  22  43  64  96 131 175 219 271 332 393
#     4  11  23  38  63  97 137 174 220 264 330 406
#     4  12  22  42  62  96 137 174 218 280 327 403
#
# _framework density 21.441191
#
# number of rings (size 3 to 8) (size 9 to 14) (size 15 to 20)
#    0.000    1.000    5.000    3.000    1.750    3.000 
#    2.250    0.000    0.000    0.000    0.000    0.000 
#    0.000    0.000    0.000    0.000    0.000    0.000 
#
# Total GULP energy -89308.497187 kJ/mol
# GULP energy per Si atom -5581.781074 kJ/mol
# Density = 2.139239 g / cm^3
# Si number density = 21.441191 Si / 1000 Ang^3
#
#
#
# Elastic Constant Matrix: (Units=GPa)
#
#
# Indices 1 2 3 4 5 6 
#
# 1 35.2853 16.1686 22.3158 0.0000 -13.0984 0.0000
# 2 16.1686 117.7148 16.4369 0.0000 -18.7375 0.0000
# 3 22.3158 16.4369 124.6160 0.0000 -37.4135 0.0000
# 4 0.0000 0.0000 0.0000 22.7107 0.0000 -0.9080
# 5 -13.0984 -18.7375 -37.4135 0.0000 26.4368 0.0000
# 6 0.0000 0.0000 0.0000 -0.9080 0.0000 22.0976
#
#
#
# Elastic Compliance Matrix: (Units=1/GPa)
#
#
# Indices 1 2 3 4 5 6 
#
# 1 0.035635 -0.002565 -0.002240 0.000000 0.012668 0.000000
# 2 -0.002565 0.009892 0.001527 0.000000 0.007900 0.000000
# 3 -0.002240 0.001527 0.014286 0.000000 0.020190 0.000000
# 4 0.000000 0.000000 0.000000 0.044105 0.000000 0.001812
# 5 0.012668 0.007900 0.020190 0.000000 0.078274 0.000000
# 6 0.000000 0.000000 0.000000 0.001812 0.000000 0.045328
#
#
# Mechanical properties :
#
#
# Convention : Reuss Voigt Hill
#
# Bulk Modulus (GPa) = 18.77741 43.05098 30.91419
# Shear Modulus (GPa) = 19.85471 29.09532 24.47502
#
# Velocity S-wave (km/s) = 3.04634 3.68772 3.38227
# Velocity P-wave (km/s) = 4.59894 6.18503 5.44999
#
# Compressibility (1/GPa) = 0.05325549
#
# Stress axis : x y z
#
# Youngs Moduli (GPa) = 28.06233 101.09294 69.99878
#
# Poissons Ratio (x) = 0.25935 0.15678
# Poissons Ratio (y) = 0.07199 -0.10686
# Poissons Ratio (z) = 0.06285 -0.15433
#
# Static dielectric constant tensor:
#      x y z
#    x 1.804790 0.000000 -0.023760 
#    y 0.000000 1.871870 0.000000 
#    z -0.023760 0.000000 1.777610 
# 
# From -- ./inp_files/11840.got.cif
#   From: 2010.05.17/outbox.cif.g08.bks.cpg/sg4_6_cif.got.tgz:11840.got - 2010.06.03 18:43:04.
