data_PCOD9117876
_publ_section_title
;
Structure prediction by ZEFSAII (Michael W. Deem and Ramdas Pophale) SiO2 
 PCOD9117876
Probable space group: P 21
;
_chemical_formula_sum "Si O2"
_cell_formula_units_Z 14
_cell_length_a 8.495218
_cell_length_b 5.866152
_cell_length_c 15.040476
_cell_angle_alpha 90.000000
_cell_angle_beta 48.455487
_cell_angle_gamma 90.000000
_cell_volume 560.979280
_symmetry_space_group_name_H-M "P 21"
_symmetry_group_IT_number 4
_symmetry_cell_setting 'monoclinic'
loop_
_space_group_symop_operation_xyz
x,y,z
-x,1/2+y,-z
loop_
_atom_site_type_symbol
_atom_site_label
_atom_site_fract_x
_atom_site_fract_y
_atom_site_fract_z
Si Si1 0.182139 0.583520 0.690731
Si Si2 0.287263 0.620311 0.374180
Si Si3 0.020930 0.857723 0.598482
Si Si4 0.684640 0.693786 0.136740
Si Si5 0.564609 0.009286 0.935015
Si Si6 0.036876 0.418714 0.107693
Si Si7 0.651453 0.754431 0.492297
O O1 0.027715 0.663653 0.669614
O O2 0.405399 0.704560 0.588661
O O3 0.253223 0.331305 0.638622
O O4 0.071908 0.680210 0.819414
O O5 0.082437 0.758179 0.479739
O O6 0.484903 0.769087 0.270858
O O7 0.331326 0.453718 0.440192
O O8 0.203558 0.471331 0.323993
O O9 0.210190 0.034231 0.540506
O O10 0.576195 0.531931 0.102668
O O11 0.849306 0.572605 0.140317
O O12 0.807163 0.879640 0.033536
O O13 0.817428 0.009682 0.865588
O O14 0.502171 0.755479 0.995107
#
# Coordination Sequence:
#
# PCOD9117876 Si02
#       7
#     2   2   2   2   2   2   2
#     4  11  23  42  67  96 135 177 235 286 354 432
#     4  11  23  43  68 101 136 174 234 291 350 434
#     4  11  23  42  68  98 133 180 225 289 359 413
#     4  11  24  45  72 106 144 189 243 297 367 439
#     4  10  23  48  71 104 149 194 249 300 359 440
#     4  11  24  46  69 105 143 191 240 298 367 442
#     4  11  22  42  65  98 132 175 226 289 354 420
#
# _framework density 24.956356
#
# number of rings (size 3 to 8) (size 9 to 14) (size 15 to 20)
#    0.000    1.143    4.286    1.714    0.000    1.143 
#   23.143    0.000    0.000    0.000    0.000    0.000 
#    0.000    0.000    0.000    0.000    0.000    0.000 
#
# Total GULP energy -78059.869609 kJ/mol
# GULP energy per Si atom -5575.704972 kJ/mol
# Density = 2.489955 g / cm^3
# Si number density = 24.956356 Si / 1000 Ang^3
#
#
#
# Elastic Constant Matrix: (Units=GPa)
#
#
# Indices 1 2 3 4 5 6 
#
# 1 144.4078 12.9226 25.3777 0.0000 -1.2317 0.0000
# 2 12.9226 44.6917 5.3861 0.0000 3.3173 0.0000
# 3 25.3777 5.3861 57.7465 0.0000 -3.4923 0.0000
# 4 0.0000 0.0000 0.0000 20.0513 0.0000 -0.7595
# 5 -1.2317 3.3173 -3.4923 0.0000 40.0489 0.0000
# 6 0.0000 0.0000 0.0000 -0.7595 0.0000 41.2364
#
#
#
# Elastic Compliance Matrix: (Units=1/GPa)
#
#
# Indices 1 2 3 4 5 6 
#
# 1 0.007650 -0.001836 -0.003184 0.000000 0.000110 0.000000
# 2 -0.001836 0.023243 -0.001489 0.000000 -0.002111 0.000000
# 3 -0.003184 -0.001489 0.018957 0.000000 0.001678 0.000000
# 4 0.000000 0.000000 0.000000 0.049907 0.000000 0.000919
# 5 0.000110 -0.002111 0.001678 0.000000 0.025294 0.000000
# 6 0.000000 0.000000 0.000000 0.000919 0.000000 0.024267
#
#
# Mechanical properties :
#
#
# Convention : Reuss Voigt Hill
#
# Bulk Modulus (GPa) = 27.15077 37.13542 32.14309
# Shear Modulus (GPa) = 28.63496 33.81128 31.22312
#
# Velocity S-wave (km/s) = 3.39101 3.68478 3.54094
# Velocity P-wave (km/s) = 5.12199 5.74595 5.44292
#
# Compressibility (1/GPa) = 0.03683137
#
# Stress axis : x y z
#
# Youngs Moduli (GPa) = 130.72553 43.02441 52.75208
#
# Poissons Ratio (x) = 0.07901 0.16795
# Poissons Ratio (y) = 0.24005 0.07852
# Poissons Ratio (z) = 0.41621 0.06404
#
# Static dielectric constant tensor:
#      x y z
#    x 1.983080 0.000000 0.085060 
#    y 0.000000 2.055560 0.000000 
#    z 0.085060 0.000000 2.013250 
# 
# From -- ./inp_files/7084.got.cif
#   From: 2010.05.17/outbox.cif.g08.bks.cpg/sg4_4_cif.got.tgz:7084.got - 2010.06.03 18:43:04.
