data_PCOD9117583
_publ_section_title
;
Structure prediction by ZEFSAII (Michael W. Deem and Ramdas Pophale) SiO2 
 PCOD9117583
Probable space group: P 21
;
_chemical_formula_sum "Si O2"
_cell_formula_units_Z 10
_cell_length_a 6.629071
_cell_length_b 8.717768
_cell_length_c 7.856468
_cell_angle_alpha 90.000000
_cell_angle_beta 124.650040
_cell_angle_gamma 90.000000
_cell_volume 373.503960
_symmetry_space_group_name_H-M "P 21"
_symmetry_group_IT_number 4
_symmetry_cell_setting 'monoclinic'
loop_
_space_group_symop_operation_xyz
x,y,z
-x,1/2+y,-z
loop_
_atom_site_type_symbol
_atom_site_label
_atom_site_fract_x
_atom_site_fract_y
_atom_site_fract_z
Si Si1 0.557371 0.123960 0.025646
Si Si2 0.030514 0.229331 0.091108
Si Si3 0.823506 0.290735 0.639164
Si Si4 0.486492 0.525918 0.641321
Si Si5 0.187320 0.914480 0.723814
O O1 0.789388 0.124939 0.012817
O O2 0.563803 0.002438 0.183315
O O3 0.595917 0.285505 0.143512
O O4 0.313798 0.078903 0.806657
O O5 0.991771 0.364514 0.209799
O O6 0.269631 0.132045 0.241578
O O7 0.002848 0.284666 0.885297
O O8 0.577673 0.376354 0.588773
O O9 0.736450 0.122162 0.541646
O O10 0.907187 0.380750 0.510261
#
# Coordination Sequence:
#
# PCOD9117583 Si02
#       5
#     2   2   2   2   2
#     4   9  19  41  63  90 135 160 211 271 314 373
#     4  10  23  43  64  93 134 171 213 267 326 378
#     4  11  23  43  70  96 129 175 218 265 330 387
#     4  11  23  44  68  97 132 175 215 270 325 388
#     4   9  20  41  63  98 126 169 215 263 323 384
#
# _framework density 26.773475000000001
#
# number of rings (size 3 to 8) (size 9 to 14) (size 15 to 20)
#    1.200    0.800    2.000    1.200    0.000    4.800 
#   10.800    0.000    0.000    0.000    0.000    0.000 
#    0.000    0.000    0.000    0.000    0.000    0.000 
#
# Total GULP energy -55977.638337 kJ/mol
# GULP energy per Si atom -5597.763834 kJ/mol
# Density = 2.671254 g / cm^3
# Si number density = 26.773475 Si / 1000 Ang^3
#
#
#
# Elastic Constant Matrix: (Units=GPa)
#
#
# Indices 1 2 3 4 5 6 
#
# 1 97.1920 20.8320 61.2253 0.0000 2.4781 0.0000
# 2 20.8320 61.1340 43.5145 0.0000 -4.1423 0.0000
# 3 61.2253 43.5145 151.1244 0.0000 -35.0598 0.0000
# 4 0.0000 0.0000 0.0000 52.5191 0.0000 8.4874
# 5 2.4781 -4.1423 -35.0598 0.0000 50.8535 0.0000
# 6 0.0000 0.0000 0.0000 8.4874 0.0000 46.7114
#
#
#
# Elastic Compliance Matrix: (Units=1/GPa)
#
#
# Indices 1 2 3 4 5 6 
#
# 1 0.015184 -0.000279 -0.007438 0.000000 -0.005891 0.000000
# 2 -0.000279 0.020937 -0.006567 0.000000 -0.002808 0.000000
# 3 -0.007438 -0.006567 0.013667 0.000000 0.009250 0.000000
# 4 0.000000 0.000000 0.000000 0.019617 0.000000 -0.003564
# 5 -0.005891 -0.002808 0.009250 0.000000 0.026100 0.000000
# 6 0.000000 0.000000 0.000000 -0.003564 0.000000 0.022056
#
#
# Mechanical properties :
#
#
# Convention : Reuss Voigt Hill
#
# Bulk Modulus (GPa) = 47.12459 62.28821 54.70640
# Shear Modulus (GPa) = 32.63675 42.27537 37.45606
#
# Velocity S-wave (km/s) = 3.49520 3.97798 3.74438
# Velocity P-wave (km/s) = 5.82477 6.66442 6.25869
#
# Compressibility (1/GPa) = 0.02122034
#
# Stress axis : x y z
#
# Youngs Moduli (GPa) = 65.85736 47.76334 73.16809
#
# Poissons Ratio (x) = 0.01333 0.54421
# Poissons Ratio (y) = 0.01839 0.48048
# Poissons Ratio (z) = 0.48984 0.31365
#
# Static dielectric constant tensor:
#      x y z
#    x 2.041590 0.000000 0.009670 
#    y 0.000000 2.111830 0.000000 
#    z 0.009670 0.000000 2.022980 
# 
# From -- ./inp_files/1047.got.cif
#   From: 2010.05.17/outbox.cif.g08.bks.cpg/sg4_1_cif.got.tgz:1047.got - 2010.06.03 18:43:04.
