data_PCOD9117569
_publ_section_title
;
Structure prediction by ZEFSAII (Michael W. Deem and Ramdas Pophale) SiO2 
 PCOD9117569
Probable space group: P 21
;
_chemical_formula_sum "Si O2"
_cell_formula_units_Z 16
_cell_length_a 22.248311
_cell_length_b 5.170394
_cell_length_c 9.325753
_cell_angle_alpha 90.000000
_cell_angle_beta 37.009051
_cell_angle_gamma 90.000000
_cell_volume 645.741423
_symmetry_space_group_name_H-M "P 21"
_symmetry_group_IT_number 4
_symmetry_cell_setting 'monoclinic'
loop_
_space_group_symop_operation_xyz
x,y,z
-x,1/2+y,-z
loop_
_atom_site_type_symbol
_atom_site_label
_atom_site_fract_x
_atom_site_fract_y
_atom_site_fract_z
Si Si1 0.364598 0.176170 0.765371
Si Si2 0.445547 0.386937 0.065025
Si Si3 0.873820 0.343723 0.408253
Si Si4 0.575288 0.170041 0.198670
Si Si5 0.910492 0.696495 0.108830
Si Si6 0.786881 0.369711 0.124365
Si Si7 0.740782 0.066887 0.450417
Si Si8 0.932224 0.201068 0.613746
O O1 0.463846 0.166331 0.477895
O O2 0.359237 0.463414 0.837012
O O3 0.269182 0.091555 0.856550
O O4 0.381525 0.956721 0.856249
O O5 0.340242 0.362130 0.346436
O O6 0.492744 0.103827 0.962474
O O7 0.431414 0.542355 0.944344
O O8 0.886239 0.632513 0.321370
O O9 0.774435 0.232438 0.524305
O O10 0.883665 0.289634 0.555882
O O11 0.974173 0.223527 0.145431
O O12 0.864896 0.481510 0.091241
O O13 0.842333 0.938412 0.202400
O O14 0.705586 0.229944 0.380722
O O15 0.848509 0.201564 0.894841
O O16 0.012313 0.426218 0.500296
#
# Coordination Sequence:
#
# PCOD9117569 Si02
#       8
#     2   2   2   2   2   2   2   2
#     4  10  23  42  71  97 138 181 228 294 346 431
#     4  12  28  48  74 105 148 185 241 302 353 428
#     4  11  24  43  69 102 144 189 235 303 344 433
#     4  10  23  44  67 102 137 180 233 285 366 403
#     4  11  23  44  69 101 143 189 244 285 364 417
#     4  11  26  44  71 102 139 189 241 290 354 428
#     4  11  27  44  76 102 140 195 243 286 370 425
#     4  12  28  45  69 103 145 186 235 291 357 411
#
# _framework density 24.777723000000002
#
# number of rings (size 3 to 8) (size 9 to 14) (size 15 to 20)
#    0.000    1.000    2.500    2.250   12.250    2.000 
#    0.000    0.000    0.000    0.000    0.000    0.000 
#    0.000    0.000    0.000    0.000    0.000    0.000 
#
# Total GULP energy -89555.736042 kJ/mol
# GULP energy per Si atom -5597.233503 kJ/mol
# Density = 2.472133 g / cm^3
# Si number density = 24.777723 Si / 1000 Ang^3
#
#
#
# Elastic Constant Matrix: (Units=GPa)
#
#
# Indices 1 2 3 4 5 6 
#
# 1 88.3826 1.2469 27.1540 0.0000 16.0245 0.0000
# 2 1.2469 76.4632 0.4295 0.0000 -10.9200 0.0000
# 3 27.1540 0.4295 44.3148 0.0000 0.4523 0.0000
# 4 0.0000 0.0000 0.0000 17.6977 0.0000 -1.1079
# 5 16.0245 -10.9200 0.4523 0.0000 41.2056 0.0000
# 6 0.0000 0.0000 0.0000 -1.1079 0.0000 29.0823
#
#
#
# Elastic Compliance Matrix: (Units=1/GPa)
#
#
# Indices 1 2 3 4 5 6 
#
# 1 0.015299 -0.001073 -0.009302 0.000000 -0.006132 0.000000
# 2 -0.001073 0.013669 0.000484 0.000000 0.004034 0.000000
# 3 -0.009302 0.000484 0.028226 0.000000 0.003436 0.000000
# 4 0.000000 0.000000 0.000000 0.056640 0.000000 0.002158
# 5 -0.006132 0.004034 0.003436 0.000000 0.027685 0.000000
# 6 0.000000 0.000000 0.000000 0.002158 0.000000 0.034467
#
#
# Mechanical properties :
#
#
# Convention : Reuss Voigt Hill
#
# Bulk Modulus (GPa) = 26.72910 29.64681 28.18795
# Shear Modulus (GPa) = 24.01099 29.61913 26.81506
#
# Velocity S-wave (km/s) = 3.11634 3.46120 3.29329
# Velocity P-wave (km/s) = 4.87440 5.28812 5.08547
#
# Compressibility (1/GPa) = 0.03741241
#
# Stress axis : x y z
#
# Youngs Moduli (GPa) = 65.36328 73.15747 35.42874
#
# Poissons Ratio (x) = 0.07849 0.32954
# Poissons Ratio (y) = 0.07013 -0.01714
# Poissons Ratio (z) = 0.60798 -0.03539
#
# Static dielectric constant tensor:
#      x y z
#    x 1.982880 0.000000 0.001060 
#    y 0.000000 2.026310 0.000000 
#    z 0.001060 0.000000 1.923850 
# 
# From -- ./inp_files/8688.got.cif
#   From: 2010.05.17/outbox.cif.g08.bks.cpg/sg4_5_cif.got.tgz:8688.got - 2010.06.03 18:43:04.
