data_PCOD9117690
_publ_section_title
;
Structure prediction by ZEFSAII (Michael W. Deem and Ramdas Pophale) SiO2 
 PCOD9117690
Probable space group: P 21
;
_chemical_formula_sum "Si O2"
_cell_formula_units_Z 14
_cell_length_a 11.595371
_cell_length_b 8.873644
_cell_length_c 5.376279
_cell_angle_alpha 90.000000
_cell_angle_beta 84.931557
_cell_angle_gamma 90.000000
_cell_volume 551.019507
_symmetry_space_group_name_H-M "P 21"
_symmetry_group_IT_number 4
_symmetry_cell_setting 'monoclinic'
loop_
_space_group_symop_operation_xyz
x,y,z
-x,1/2+y,-z
loop_
_atom_site_type_symbol
_atom_site_label
_atom_site_fract_x
_atom_site_fract_y
_atom_site_fract_z
Si Si1 0.198657 0.738800 0.627920
Si Si2 0.186722 0.036954 0.367858
Si Si3 0.530943 0.244836 0.311611
Si Si4 0.110165 0.275360 0.010641
Si Si5 0.089666 0.612750 0.160851
Si Si6 0.661640 0.731919 0.302662
Si Si7 0.414567 0.984657 0.060542
O O1 0.337980 0.746682 0.619840
O O2 0.158979 0.635792 0.404031
O O3 0.151144 0.905476 0.563063
O O4 0.153775 0.678452 0.901839
O O5 0.256159 0.164168 0.500838
O O6 0.104905 0.133507 0.203586
O O7 0.284770 0.955162 0.180644
O O8 0.441035 0.310492 0.528309
O O9 0.524961 0.339034 0.058197
O O10 0.486362 0.080768 0.242950
O O11 0.244194 0.301129 0.903119
O O12 0.026917 0.214505 0.807767
O O13 0.070745 0.435768 0.119718
O O14 0.604731 0.591531 0.173082
#
# Coordination Sequence:
#
# PCOD9117690 Si02
#       7
#     2   2   2   2   2   2   2
#     4  12  28  50  78 120 157 210 265 331 398 488
#     4  10  23  48  77 103 157 207 262 323 400 469
#     4  11  25  45  75 111 160 206 263 318 400 483
#     4  11  28  53  78 114 155 206 275 332 406 480
#     4  12  31  50  84 115 159 209 269 338 401 478
#     4  10  24  44  76 108 151 204 255 326 394 458
#     4  10  23  44  68 111 151 212 251 318 391 470
#
# _framework density 25.407447999999999
#
# number of rings (size 3 to 8) (size 9 to 14) (size 15 to 20)
#    0.000    1.143    1.429    1.714   12.000    4.571 
#    0.000    0.000    0.000    0.000    0.000    0.000 
#    0.000    0.000    0.000    0.000    0.000    0.000 
#
# Total GULP energy -78381.864547 kJ/mol
# GULP energy per Si atom -5598.704611 kJ/mol
# Density = 2.534962 g / cm^3
# Si number density = 25.407448 Si / 1000 Ang^3
#
#
#
# Elastic Constant Matrix: (Units=GPa)
#
#
# Indices 1 2 3 4 5 6 
#
# 1 107.9064 47.3093 36.1810 0.0000 -4.4544 0.0000
# 2 47.3093 109.1211 25.1280 0.0000 -6.9020 0.0000
# 3 36.1810 25.1280 117.4396 0.0000 -2.4061 0.0000
# 4 0.0000 0.0000 0.0000 32.0095 0.0000 1.0368
# 5 -4.4544 -6.9020 -2.4061 0.0000 48.1552 0.0000
# 6 0.0000 0.0000 0.0000 1.0368 0.0000 22.2330
#
#
#
# Elastic Compliance Matrix: (Units=1/GPa)
#
#
# Indices 1 2 3 4 5 6 
#
# 1 0.012250 -0.004652 -0.002772 0.000000 0.000328 0.000000
# 2 -0.004652 0.011485 -0.001000 0.000000 0.001166 0.000000
# 3 -0.002772 -0.001000 0.009585 0.000000 0.000079 0.000000
# 4 0.000000 0.000000 0.000000 0.031288 0.000000 -0.001459
# 5 0.000328 0.001166 0.000079 0.000000 0.020968 0.000000
# 6 0.000000 0.000000 0.000000 -0.001459 0.000000 0.045046
#
#
# Mechanical properties :
#
#
# Convention : Reuss Voigt Hill
#
# Bulk Modulus (GPa) = 60.71176 61.30040 61.00608
# Shear Modulus (GPa) = 32.68836 35.53613 34.11224
#
# Velocity S-wave (km/s) = 3.59076 3.74391 3.66814
# Velocity P-wave (km/s) = 6.41394 6.54740 6.48101
#
# Compressibility (1/GPa) = 0.01647127
#
# Stress axis : x y z
#
# Youngs Moduli (GPa) = 81.63447 87.06991 104.33354
#
# Poissons Ratio (x) = 0.40503 0.28920
# Poissons Ratio (y) = 0.37975 0.10437
# Poissons Ratio (z) = 0.22628 0.08710
#
# Static dielectric constant tensor:
#      x y z
#    x 2.025400 0.000000 -0.076900 
#    y 0.000000 2.007240 0.000000 
#    z -0.076900 0.000000 2.052210 
# 
# From -- ./inp_files/2606.got.cif
#   From: 2010.05.17/outbox.cif.g08.bks.cpg/sg4_2_cif.got.tgz:2606.got - 2010.06.03 18:43:04.
