data_PCOD9117944
_publ_section_title
;
Structure prediction by ZEFSAII (Michael W. Deem and Ramdas Pophale) SiO2 
 PCOD9117944
Probable space group: P 21
;
_chemical_formula_sum "Si O2"
_cell_formula_units_Z 12
_cell_length_a 10.958475
_cell_length_b 10.425318
_cell_length_c 7.644812
_cell_angle_alpha 90.000000
_cell_angle_beta 39.178398
_cell_angle_gamma 90.000000
_cell_volume 551.750345
_symmetry_space_group_name_H-M "P 21"
_symmetry_group_IT_number 4
_symmetry_cell_setting 'monoclinic'
loop_
_space_group_symop_operation_xyz
x,y,z
-x,1/2+y,-z
loop_
_atom_site_type_symbol
_atom_site_label
_atom_site_fract_x
_atom_site_fract_y
_atom_site_fract_z
Si Si1 0.642982 0.307810 0.744480
Si Si2 0.810205 0.934931 0.232342
Si Si3 0.458823 0.539652 0.756225
Si Si4 0.867362 0.210261 0.799175
Si Si5 0.906118 0.214424 0.150652
Si Si6 0.298207 0.245912 0.367675
O O1 0.583815 0.441492 0.727604
O O2 0.791391 0.310002 0.741625
O O3 0.746644 0.229294 0.476505
O O4 0.446450 0.251696 0.043995
O O5 0.750895 0.881738 0.487991
O O6 0.623379 0.979335 0.329802
O O7 0.945378 0.061776 0.093389
O O8 0.921606 0.816541 0.014404
O O9 0.593988 0.664757 0.600544
O O10 0.264486 0.584150 0.074243
O O11 0.094402 0.187716 0.537019
O O12 0.830073 0.251695 0.041326
#
# Coordination Sequence:
#
# PCOD9117944 Si02
#       6
#     2   2   2   2   2   2
#     4  11  25  40  72 102 136 188 239 289 362 414
#     4  10  24  46  73 101 147 187 241 292 359 425
#     4  10  24  41  69 103 143 181 238 290 362 413
#     4   9  23  48  63  99 144 180 240 294 342 429
#     4  10  24  47  71 104 139 193 236 291 363 414
#     4  10  24  46  70 103 143 187 238 304 344 431
#
# _framework density 21.748968000000001
#
# number of rings (size 3 to 8) (size 9 to 14) (size 15 to 20)
#    0.000    2.000    0.000    0.000   21.000    0.000 
#    3.000    0.000    0.000    0.000    0.000    0.000 
#    0.000    0.000    0.000    0.000    0.000    0.000 
#
# Total GULP energy -66920.024127 kJ/mol
# GULP energy per Si atom -5576.668677 kJ/mol
# Density = 2.169947 g / cm^3
# Si number density = 21.748968 Si / 1000 Ang^3
#
#
#
# Elastic Constant Matrix: (Units=GPa)
#
#
# Indices 1 2 3 4 5 6 
#
# 1 58.0714 20.0231 18.3159 0.0000 -8.4643 0.0000
# 2 20.0231 88.1895 15.8748 0.0000 -8.0375 0.0000
# 3 18.3159 15.8748 121.9882 0.0000 -1.1551 0.0000
# 4 0.0000 0.0000 0.0000 21.9076 0.0000 -9.9339
# 5 -8.4643 -8.0375 -1.1551 0.0000 39.7751 0.0000
# 6 0.0000 0.0000 0.0000 -9.9339 0.0000 38.2035
#
#
#
# Elastic Compliance Matrix: (Units=1/GPa)
#
#
# Indices 1 2 3 4 5 6 
#
# 1 0.019776 -0.003741 -0.002450 0.000000 0.003381 0.000000
# 2 -0.003741 0.012534 -0.001053 0.000000 0.001706 0.000000
# 3 -0.002450 -0.001053 0.008698 0.000000 -0.000482 0.000000
# 4 0.000000 0.000000 0.000000 0.051748 0.000000 0.013456
# 5 0.003381 0.001706 -0.000482 0.000000 0.026192 0.000000
# 6 0.000000 0.000000 0.000000 0.013456 0.000000 0.029674
#
#
# Mechanical properties :
#
#
# Convention : Reuss Voigt Hill
#
# Bulk Modulus (GPa) = 37.70952 41.85295 39.78124
# Shear Modulus (GPa) = 29.07832 34.24626 31.66229
#
# Velocity S-wave (km/s) = 3.66046 3.97245 3.81964
# Velocity P-wave (km/s) = 5.93646 6.35027 6.14684
#
# Compressibility (1/GPa) = 0.02651850
#
# Stress axis : x y z
#
# Youngs Moduli (GPa) = 50.56707 79.78545 114.96982
#
# Poissons Ratio (x) = 0.29846 0.28172
# Poissons Ratio (y) = 0.18916 0.12109
# Poissons Ratio (z) = 0.12391 0.08403
#
# Static dielectric constant tensor:
#      x y z
#    x 1.812520 0.000000 0.001400 
#    y 0.000000 1.850350 0.000000 
#    z 0.001400 0.000000 1.803190 
# 
# From -- ./inp_files/4533.got.cif
#   From: 2010.05.17/outbox.cif.g08.bks.cpg/sg4_3_cif.got.tgz:4533.got - 2010.06.03 18:43:04.
