data_PCOD9117056
_publ_section_title
;
Structure prediction by ZEFSAII (Michael W. Deem and Ramdas Pophale) SiO2 
 PCOD9117056
Probable space group: P 21
;
_chemical_formula_sum "Si O2"
_cell_formula_units_Z 16
_cell_length_a 8.298765
_cell_length_b 12.232939
_cell_length_c 7.238750
_cell_angle_alpha 90.000000
_cell_angle_beta 122.856094
_cell_angle_gamma 90.000000
_cell_volume 617.313363
_symmetry_space_group_name_H-M "P 21"
_symmetry_group_IT_number 4
_symmetry_cell_setting 'monoclinic'
loop_
_space_group_symop_operation_xyz
x,y,z
-x,1/2+y,-z
loop_
_atom_site_type_symbol
_atom_site_label
_atom_site_fract_x
_atom_site_fract_y
_atom_site_fract_z
Si Si1 0.586178 0.907510 0.194365
Si Si2 0.709444 0.272872 0.221326
Si Si3 0.377988 0.274179 0.462386
Si Si4 0.390066 0.108891 0.188391
Si Si5 0.060672 0.054110 0.708573
Si Si6 0.926196 0.905949 0.913218
Si Si7 0.909779 0.064400 0.224403
Si Si8 0.177247 0.757193 0.327705
O O1 0.681395 0.809608 0.369400
O O2 0.483884 0.990657 0.273957
O O3 0.738064 0.981582 0.181886
O O4 0.419495 0.860204 0.962979
O O5 0.552466 0.192259 0.220246
O O6 0.832723 0.188830 0.174264
O O7 0.824059 0.314763 0.471648
O O8 0.310154 0.161399 0.326668
O O9 0.607982 0.266393 0.615539
O O10 0.286683 0.364493 0.267289
O O11 0.245123 0.099414 0.928149
O O12 0.057831 0.057602 0.486640
O O13 0.887363 0.134301 0.664024
O O14 0.019053 0.936475 0.774241
O O15 0.956494 0.014196 0.055516
O O16 0.032235 0.813822 0.097348
#
# Coordination Sequence:
#
# PCOD9117056 Si02
#       8
#     2   2   2   2   2   2   2   2
#     4  11  22  41  70  99 132 184 229 274 346 404
#     4   9  22  42  65  96 133 177 223 280 337 398
#     4  11  23  42  69  93 134 183 217 280 339 394
#     4  10  22  43  65  96 141 173 227 289 327 408
#     4  11  23  44  63  98 140 171 221 284 333 398
#     4  12  24  44  69  98 132 180 223 274 340 407
#     4  10  23  41  64  98 134 172 223 280 330 404
#     4  10  23  43  65  94 132 174 223 279 332 395
#
# _framework density 25.918766999999999
#
# number of rings (size 3 to 8) (size 9 to 14) (size 15 to 20)
#    0.000    1.500    2.500    3.000    3.500    0.000 
#    2.250    0.000    0.000    0.000    0.000    0.000 
#    0.000    0.000    0.000    0.000    0.000    0.000 
#
# Total GULP energy -89582.212593 kJ/mol
# GULP energy per Si atom -5598.888287 kJ/mol
# Density = 2.585977 g / cm^3
# Si number density = 25.918767 Si / 1000 Ang^3
#
#
#
# Elastic Constant Matrix: (Units=GPa)
#
#
# Indices 1 2 3 4 5 6 
#
# 1 40.6198 9.3398 28.8087 0.0000 -7.6153 0.0000
# 2 9.3398 86.7899 31.7410 0.0000 -9.8169 0.0000
# 3 28.8087 31.7410 165.9399 0.0000 -0.3847 0.0000
# 4 0.0000 0.0000 0.0000 60.0851 0.0000 -1.0110
# 5 -7.6153 -9.8169 -0.3847 0.0000 44.4427 0.0000
# 6 0.0000 0.0000 0.0000 -1.0110 0.0000 40.1689
#
#
#
# Elastic Compliance Matrix: (Units=1/GPa)
#
#
# Indices 1 2 3 4 5 6 
#
# 1 0.029175 -0.000807 -0.004900 0.000000 0.004778 0.000000
# 2 -0.000807 0.012748 -0.002292 0.000000 0.002658 0.000000
# 3 -0.004900 -0.002292 0.007312 0.000000 -0.001283 0.000000
# 4 0.000000 0.000000 0.000000 0.016650 0.000000 0.000419
# 5 0.004778 0.002658 -0.001283 0.000000 0.023896 0.000000
# 6 0.000000 0.000000 0.000000 0.000419 0.000000 0.024905
#
#
# Mechanical properties :
#
#
# Convention : Reuss Voigt Hill
#
# Bulk Modulus (GPa) = 30.08668 48.12538 39.10603
# Shear Modulus (GPa) = 35.27011 43.83669 39.55340
#
# Velocity S-wave (km/s) = 3.69290 4.11702 3.91071
# Velocity P-wave (km/s) = 5.46046 6.41933 5.95921
#
# Compressibility (1/GPa) = 0.03323730
#
# Stress axis : x y z
#
# Youngs Moduli (GPa) = 34.27604 78.44472 136.75510
#
# Poissons Ratio (x) = 0.06332 0.67004
# Poissons Ratio (y) = 0.02767 0.31346
# Poissons Ratio (z) = 0.16794 0.17980
#
# Static dielectric constant tensor:
#      x y z
#    x 2.078690 0.000000 -0.001760 
#    y 0.000000 2.062230 0.000000 
#    z -0.001760 0.000000 1.989500 
# 
# From -- ./inp_files/8157.got.cif
#   From: 2010.05.17/outbox.cif.g08.bks.cpg/sg4_5_cif.got.tgz:8157.got - 2010.06.03 18:43:04.
