data_PCOD9117447
_publ_section_title
;
Structure prediction by ZEFSAII (Michael W. Deem and Ramdas Pophale) SiO2 
 PCOD9117447
Probable space group: P 21
;
_chemical_formula_sum "Si O2"
_cell_formula_units_Z 16
_cell_length_a 6.293322
_cell_length_b 14.845161
_cell_length_c 7.887031
_cell_angle_alpha 90.000000
_cell_angle_beta 63.024529
_cell_angle_gamma 90.000000
_cell_volume 656.680290
_symmetry_space_group_name_H-M "P 21"
_symmetry_group_IT_number 4
_symmetry_cell_setting 'monoclinic'
loop_
_space_group_symop_operation_xyz
x,y,z
-x,1/2+y,-z
loop_
_atom_site_type_symbol
_atom_site_label
_atom_site_fract_x
_atom_site_fract_y
_atom_site_fract_z
Si Si1 0.738464 0.144550 0.964302
Si Si2 0.242745 0.177473 0.228727
Si Si3 0.126909 0.830584 0.178836
Si Si4 0.604854 0.760331 0.471501
Si Si5 0.999252 0.488369 0.995875
Si Si6 0.623862 0.856254 0.982940
Si Si7 0.523489 0.439171 0.328247
Si Si8 0.748351 0.118548 0.561645
O O1 0.785761 0.250593 0.980996
O O2 0.803088 0.126466 0.743675
O O3 0.898193 0.087777 0.034475
O O4 0.458825 0.117686 0.076507
O O5 0.358248 0.210316 0.363495
O O6 0.238118 0.263691 0.106056
O O7 0.986605 0.140124 0.370472
O O8 0.874470 0.792055 0.329046
O O9 0.383252 0.838447 0.178254
O O10 0.083860 0.932924 0.136871
O O11 0.467288 0.853968 0.552044
O O12 0.459479 0.690395 0.408708
O O13 0.210346 0.425708 0.985073
O O14 0.780629 0.482445 0.205423
O O15 0.559437 0.899516 0.823971
O O16 0.345664 0.518627 0.443835
#
# Coordination Sequence:
#
# PCOD9117447 Si02
#       8
#     2   2   2   2   2   2   2   2
#     4  11  24  46  70 102 134 180 236 280 338 411
#     4  10  24  43  66  98 139 174 230 280 340 411
#     4  10  23  40  67 101 138 173 230 277 337 416
#     4  11  24  44  67 103 140 179 227 282 345 408
#     4  11  22  43  68  96 136 181 224 283 342 398
#     4   9  20  42  65  97 133 179 224 277 337 397
#     4  10  23  41  65  99 138 177 225 285 337 404
#     4  12  24  45  72  98 138 183 226 284 346 399
#
# _framework density 24.364974
#
# number of rings (size 3 to 8) (size 9 to 14) (size 15 to 20)
#    0.000    1.500    2.500    2.250    3.500    2.000 
#    2.250    0.000    0.000    0.000    0.000    0.000 
#    0.000    0.000    0.000    0.000    0.000    0.000 
#
# Total GULP energy -89399.133913 kJ/mol
# GULP energy per Si atom -5587.445870 kJ/mol
# Density = 2.430952 g / cm^3
# Si number density = 24.364974 Si / 1000 Ang^3
#
#
#
# Elastic Constant Matrix: (Units=GPa)
#
#
# Indices 1 2 3 4 5 6 
#
# 1 51.6071 18.9158 31.2848 0.0000 -13.3079 0.0000
# 2 18.9158 108.6982 11.6405 0.0000 2.0878 0.0000
# 3 31.2848 11.6405 93.1669 0.0000 -26.2609 0.0000
# 4 0.0000 0.0000 0.0000 29.1990 0.0000 -6.6135
# 5 -13.3079 2.0878 -26.2609 0.0000 54.8003 0.0000
# 6 0.0000 0.0000 0.0000 -6.6135 0.0000 51.0889
#
#
#
# Elastic Compliance Matrix: (Units=1/GPa)
#
#
# Indices 1 2 3 4 5 6 
#
# 1 0.026029 -0.003787 -0.007451 0.000000 0.002895 0.000000
# 2 -0.003787 0.009929 -0.000387 0.000000 -0.001483 0.000000
# 3 -0.007451 -0.000387 0.014773 0.000000 0.005285 0.000000
# 4 0.000000 0.000000 0.000000 0.035282 0.000000 0.004567
# 5 0.002895 -0.001483 0.005285 0.000000 0.021540 0.000000
# 6 0.000000 0.000000 0.000000 0.004567 0.000000 0.020165
#
#
# Mechanical properties :
#
#
# Convention : Reuss Voigt Hill
#
# Bulk Modulus (GPa) = 36.38971 41.90605 39.14788
# Shear Modulus (GPa) = 31.22480 39.79303 35.50892
#
# Velocity S-wave (km/s) = 3.58375 4.04568 3.82170
# Velocity P-wave (km/s) = 5.66498 6.24980 5.96456
#
# Compressibility (1/GPa) = 0.02748030
#
# Stress axis : x y z
#
# Youngs Moduli (GPa) = 38.41907 100.71749 67.68882
#
# Poissons Ratio (x) = 0.38144 0.50436
# Poissons Ratio (y) = 0.14550 0.02619
# Poissons Ratio (z) = 0.28627 0.03897
#
# Static dielectric constant tensor:
#      x y z
#    x 1.962370 0.000000 -0.019310 
#    y 0.000000 1.942370 0.000000 
#    z -0.019310 0.000000 1.992380 
# 
# From -- ./inp_files/4792.got.cif
#   From: 2010.05.17/outbox.cif.g08.bks.cpg/sg4_3_cif.got.tgz:4792.got - 2010.06.03 18:43:04.
