data_PCOD9117139
_publ_section_title
;
Structure prediction by ZEFSAII (Michael W. Deem and Ramdas Pophale) SiO2 
 PCOD9117139
Probable space group: P 21
;
_chemical_formula_sum "Si O2"
_cell_formula_units_Z 16
_cell_length_a 11.971424
_cell_length_b 9.915138
_cell_length_c 9.912586
_cell_angle_alpha 90.000000
_cell_angle_beta 142.396905
_cell_angle_gamma 90.000000
_cell_volume 717.951618
_symmetry_space_group_name_H-M "P 21"
_symmetry_group_IT_number 4
_symmetry_cell_setting 'monoclinic'
loop_
_space_group_symop_operation_xyz
x,y,z
-x,1/2+y,-z
loop_
_atom_site_type_symbol
_atom_site_label
_atom_site_fract_x
_atom_site_fract_y
_atom_site_fract_z
Si Si1 0.849041 0.142170 0.175784
Si Si2 0.932450 0.525349 0.867396
Si Si3 0.596649 0.903226 0.025624
Si Si4 0.996130 0.736230 0.137328
Si Si5 0.431118 0.320215 0.286892
Si Si6 0.910941 0.681231 0.331617
Si Si7 0.536227 0.552246 0.572316
Si Si8 0.679581 0.432968 0.992264
O O1 0.778193 0.289769 0.068124
O O2 0.984694 0.154305 0.431583
O O3 0.685009 0.045403 0.067051
O O4 0.954918 0.071561 0.154462
O O5 0.019696 0.597340 0.080849
O O6 0.722591 0.573919 0.664670
O O7 0.924714 0.364367 0.863915
O O8 0.758643 0.796282 0.208580
O O9 0.497119 0.852113 0.793757
O O10 0.471580 0.915772 0.035983
O O11 0.776395 0.767068 0.930871
O O12 0.047139 0.729646 0.342712
O O13 0.421501 0.450355 0.372335
O O14 0.539560 0.199266 0.463037
O O15 0.816595 0.546979 0.181008
O O16 0.593187 0.483638 0.768861
#
# Coordination Sequence:
#
# PCOD9117139 Si02
#       8
#     2   2   2   2   2   2   2   2
#     4  12  26  40  73 101 129 180 229 268 340 403
#     4  11  22  43  67  98 129 175 216 276 333 387
#     4  11  24  47  68  96 139 180 219 285 332 391
#     4  10  22  44  65  92 139 168 218 277 327 392
#     4  10  23  44  65  96 134 173 220 272 333 395
#     4  11  23  48  64  99 140 174 224 280 332 395
#     4  11  25  43  68  98 134 175 219 277 333 399
#     4  12  25  45  68 100 138 175 229 273 334 402
#
# _framework density 22.285623000000001
#
# number of rings (size 3 to 8) (size 9 to 14) (size 15 to 20)
#    0.000    1.000    6.250    2.250    3.500    3.000 
#    2.250    0.000    0.000    0.000    0.000    0.000 
#    0.000    0.000    0.000    0.000    0.000    0.000 
#
# Total GULP energy -89523.271599 kJ/mol
# GULP energy per Si atom -5595.204475 kJ/mol
# Density = 2.223490 g / cm^3
# Si number density = 22.285623 Si / 1000 Ang^3
#
#
#
# Elastic Constant Matrix: (Units=GPa)
#
#
# Indices 1 2 3 4 5 6 
#
# 1 93.9035 23.3949 29.8781 0.0000 -24.9768 0.0000
# 2 23.3949 117.6767 13.9606 0.0000 0.8460 0.0000
# 3 29.8781 13.9606 67.2340 0.0000 -22.8975 0.0000
# 4 0.0000 0.0000 0.0000 40.9839 0.0000 -19.8348
# 5 -24.9768 0.8460 -22.8975 0.0000 24.2233 0.0000
# 6 0.0000 0.0000 0.0000 -19.8348 0.0000 82.2000
#
#
#
# Elastic Compliance Matrix: (Units=1/GPa)
#
#
# Indices 1 2 3 4 5 6 
#
# 1 0.015897 -0.003132 -0.001172 0.000000 0.015393 0.000000
# 2 -0.003132 0.009477 -0.002638 0.000000 -0.006054 0.000000
# 3 -0.001172 -0.002638 0.022950 0.000000 0.020578 0.000000
# 4 0.000000 0.000000 0.000000 0.027626 0.000000 0.006666
# 5 0.015393 -0.006054 0.020578 0.000000 0.076817 0.000000
# 6 0.000000 0.000000 0.000000 0.006666 0.000000 0.013774
#
#
# Mechanical properties :
#
#
# Convention : Reuss Voigt Hill
#
# Bulk Modulus (GPa) = 29.03538 45.92015 37.47777
# Shear Modulus (GPa) = 26.05474 43.58680 34.82077
#
# Velocity S-wave (km/s) = 3.42296 4.42727 3.95711
# Velocity P-wave (km/s) = 5.35530 6.83991 6.14262
#
# Compressibility (1/GPa) = 0.03444074
#
# Stress axis : x y z
#
# Youngs Moduli (GPa) = 62.90645 105.51900 43.57331
#
# Poissons Ratio (x) = 0.33049 0.05105
# Poissons Ratio (y) = 0.19702 0.11493
# Poissons Ratio (z) = 0.07370 0.27832
#
# Static dielectric constant tensor:
#      x y z
#    x 1.822920 0.000000 0.019420 
#    y 0.000000 1.842550 0.000000 
#    z 0.019420 0.000000 1.793620 
# 
# From -- ./inp_files/5592.got.cif
#   From: 2010.05.17/outbox.cif.g08.bks.cpg/sg4_3_cif.got.tgz:5592.got - 2010.06.03 18:43:04.
