data_PCOD9117142
_publ_section_title
;
Structure prediction by ZEFSAII (Michael W. Deem and Ramdas Pophale) SiO2 
 PCOD9117142
Probable space group: P 21
;
_chemical_formula_sum "Si O2"
_cell_formula_units_Z 16
_cell_length_a 8.563740
_cell_length_b 8.270480
_cell_length_c 9.166911
_cell_angle_alpha 90.000000
_cell_angle_beta 88.468724
_cell_angle_gamma 90.000000
_cell_volume 649.025984
_symmetry_space_group_name_H-M "P 21"
_symmetry_group_IT_number 4
_symmetry_cell_setting 'monoclinic'
loop_
_space_group_symop_operation_xyz
x,y,z
-x,1/2+y,-z
loop_
_atom_site_type_symbol
_atom_site_label
_atom_site_fract_x
_atom_site_fract_y
_atom_site_fract_z
Si Si1 0.006290 0.657950 0.067209
Si Si2 0.240149 0.874931 0.241198
Si Si3 0.844228 0.327805 0.170597
Si Si4 0.553427 0.439997 0.007858
Si Si5 0.933366 0.304577 0.492695
Si Si6 0.233426 0.472732 0.502211
Si Si7 0.476515 0.613137 0.294802
Si Si8 0.713750 0.829884 0.204274
O O1 0.943786 0.482261 0.109867
O O2 0.867361 0.777293 0.117204
O O3 0.151011 0.734144 0.152752
O O4 0.061987 0.676248 0.899468
O O5 0.123762 0.920443 0.373405
O O6 0.382777 0.781197 0.314861
O O7 0.320036 0.994488 0.120892
O O8 0.668869 0.334834 0.109241
O O9 0.849725 0.337433 0.342760
O O10 0.470272 0.552610 0.128203
O O11 0.413737 0.369107 0.915547
O O12 0.118491 0.324271 0.471150
O O13 0.875521 0.125672 0.535505
O O14 0.392077 0.490106 0.405427
O O15 0.268652 0.466011 0.673556
O O16 0.654415 0.672577 0.298874
#
# Coordination Sequence:
#
# PCOD9117142 Si02
#       8
#     2   2   2   2   2   2   2   2
#     4  11  23  43  68 103 137 184 234 294 350 414
#     4   9  21  42  66  95 140 176 230 297 339 416
#     4  11  25  42  71 104 140 186 236 295 351 421
#     4  10  23  41  65  97 138 188 226 282 356 420
#     4  11  24  45  73 108 140 184 244 299 358 420
#     4  11  26  45  74 108 142 191 239 303 360 428
#     4  10  22  44  65  98 145 186 228 288 362 425
#     4  11  24  44  70 103 144 187 231 296 358 436
#
# _framework density 24.652325999999999
#
# number of rings (size 3 to 8) (size 9 to 14) (size 15 to 20)
#    0.000    1.500    2.500    1.500    5.250    5.000 
#    0.000    1.250    0.000    0.000    0.000    0.000 
#    0.000    0.000    0.000    0.000    0.000    0.000 
#
# Total GULP energy -89278.765265 kJ/mol
# GULP energy per Si atom -5579.922829 kJ/mol
# Density = 2.459622 g / cm^3
# Si number density = 24.652326 Si / 1000 Ang^3
#
#
#
# Elastic Constant Matrix: (Units=GPa)
#
#
# Indices 1 2 3 4 5 6 
#
# 1 101.1880 15.9277 35.9677 0.0000 -2.6842 0.0000
# 2 15.9277 53.6187 18.7133 0.0000 -9.3563 0.0000
# 3 35.9677 18.7133 143.3517 0.0000 -15.3563 0.0000
# 4 0.0000 0.0000 0.0000 31.7578 0.0000 -7.7042
# 5 -2.6842 -9.3563 -15.3563 0.0000 49.1065 0.0000
# 6 0.0000 0.0000 0.0000 -7.7042 0.0000 37.6631
#
#
#
# Elastic Compliance Matrix: (Units=1/GPa)
#
#
# Indices 1 2 3 4 5 6 
#
# 1 0.011169 -0.002548 -0.002542 0.000000 -0.000670 0.000000
# 2 -0.002548 0.020566 -0.001698 0.000000 0.003248 0.000000
# 3 -0.002542 -0.001698 0.008055 0.000000 0.002057 0.000000
# 4 0.000000 0.000000 0.000000 0.033132 0.000000 0.006777
# 5 -0.000670 0.003248 0.002057 0.000000 0.021589 0.000000
# 6 0.000000 0.000000 0.000000 0.006777 0.000000 0.027937
#
#
# Mechanical properties :
#
#
# Convention : Reuss Voigt Hill
#
# Bulk Modulus (GPa) = 38.14267 48.81954 43.48110
# Shear Modulus (GPa) = 34.53918 38.87548 36.70733
#
# Velocity S-wave (km/s) = 3.74712 3.97539 3.86294
# Velocity P-wave (km/s) = 5.85039 6.39671 6.12964
#
# Compressibility (1/GPa) = 0.02621736
#
# Stress axis : x y z
#
# Youngs Moduli (GPa) = 89.53128 48.62323 124.13930
#
# Poissons Ratio (x) = 0.12388 0.31551
# Poissons Ratio (y) = 0.22810 0.21073
# Poissons Ratio (z) = 0.22755 0.08254
#
# Static dielectric constant tensor:
#      x y z
#    x 1.988130 0.000000 -0.033130 
#    y 0.000000 2.114920 0.000000 
#    z -0.033130 0.000000 1.988200 
# 
# From -- ./inp_files/5679.got.cif
#   From: 2010.05.17/outbox.cif.g08.bks.cpg/sg4_3_cif.got.tgz:5679.got - 2010.06.03 18:43:04.
