data_PCOD9117825
_publ_section_title
;
Structure prediction by ZEFSAII (Michael W. Deem and Ramdas Pophale) SiO2 
 PCOD9117825
Probable space group: P 21
;
_chemical_formula_sum "Si O2"
_cell_formula_units_Z 14
_cell_length_a 7.858895
_cell_length_b 11.115147
_cell_length_c 6.722564
_cell_angle_alpha 90.000000
_cell_angle_beta 108.289958
_cell_angle_gamma 90.000000
_cell_volume 557.567807
_symmetry_space_group_name_H-M "P 21"
_symmetry_group_IT_number 4
_symmetry_cell_setting 'monoclinic'
loop_
_space_group_symop_operation_xyz
x,y,z
-x,1/2+y,-z
loop_
_atom_site_type_symbol
_atom_site_label
_atom_site_fract_x
_atom_site_fract_y
_atom_site_fract_z
Si Si1 0.876249 0.234910 0.038720
Si Si2 0.243967 0.918273 0.711267
Si Si3 0.559088 0.055471 0.399722
Si Si4 0.207237 0.315571 0.951519
Si Si5 0.530631 0.803837 0.586478
Si Si6 0.922047 0.034977 0.359535
Si Si7 0.488485 0.131184 0.918711
O O1 0.836587 0.367324 0.113753
O O2 0.021029 0.245703 0.918865
O O3 0.959373 0.154840 0.247750
O O4 0.684269 0.175151 0.923459
O O5 0.346528 0.808134 0.646189
O O6 0.093460 0.974970 0.519562
O O7 0.401415 0.013872 0.793927
O O8 0.467456 0.165913 0.487326
O O9 0.511452 0.918257 0.435864
O O10 0.774613 0.057247 0.475588
O O11 0.503437 0.088486 0.155073
O O12 0.303763 0.327287 0.202239
O O13 0.163287 0.439758 0.827596
O O14 0.345772 0.239503 0.870437
#
# Coordination Sequence:
#
# PCOD9117825 Si02
#       7
#     2   2   2   2   2   2   2
#     4  11  25  48  71 107 143 185 249 292 360 445
#     4  12  25  46  74 104 147 190 241 300 366 435
#     4  10  23  46  72 104 151 186 251 302 363 443
#     4  11  25  47  75 101 144 194 239 297 370 431
#     4  11  23  46  73 110 141 198 243 303 371 436
#     4  11  26  47  69 104 147 189 240 304 361 437
#     4  10  25  48  72 102 147 190 239 302 367 431
#
# _framework density 25.109051999999998
#
# number of rings (size 3 to 8) (size 9 to 14) (size 15 to 20)
#    0.000    1.143    4.286    2.571    8.000    1.143 
#   10.286    0.000    0.000    0.000    0.000    0.000 
#    0.000    0.000    0.000    0.000    0.000    0.000 
#
# Total GULP energy -78398.752550 kJ/mol
# GULP energy per Si atom -5599.910896 kJ/mol
# Density = 2.505190 g / cm^3
# Si number density = 25.109052 Si / 1000 Ang^3
#
#
#
# Elastic Constant Matrix: (Units=GPa)
#
#
# Indices 1 2 3 4 5 6 
#
# 1 122.0462 50.0231 30.2730 0.0000 18.1609 0.0000
# 2 50.0231 163.9787 49.2827 0.0000 11.6564 0.0000
# 3 30.2730 49.2827 76.7244 0.0000 25.5079 0.0000
# 4 0.0000 0.0000 0.0000 30.5508 0.0000 -2.5395
# 5 18.1609 11.6564 25.5079 0.0000 30.3343 0.0000
# 6 0.0000 0.0000 0.0000 -2.5395 0.0000 53.1195
#
#
#
# Elastic Compliance Matrix: (Units=1/GPa)
#
#
# Indices 1 2 3 4 5 6 
#
# 1 0.010087 -0.002484 -0.000964 0.000000 -0.004274 0.000000
# 2 -0.002484 0.008228 -0.005203 0.000000 0.002700 0.000000
# 3 -0.000964 -0.005203 0.022069 0.000000 -0.015982 0.000000
# 4 0.000000 0.000000 0.000000 0.032863 0.000000 0.001571
# 5 -0.004274 0.002700 -0.015982 0.000000 0.047926 0.000000
# 6 0.000000 0.000000 0.000000 0.001571 0.000000 0.018901
#
#
# Mechanical properties :
#
#
# Convention : Reuss Voigt Hill
#
# Bulk Modulus (GPa) = 43.32092 69.10078 56.21085
# Shear Modulus (GPa) = 30.29075 38.34563 34.31819
#
# Velocity S-wave (km/s) = 3.47705 3.91213 3.70099
# Velocity P-wave (km/s) = 5.78017 6.92722 6.37953
#
# Compressibility (1/GPa) = 0.02308354
#
# Stress axis : x y z
#
# Youngs Moduli (GPa) = 99.14166 121.54099 45.31255
#
# Poissons Ratio (x) = 0.30186 0.04366
# Poissons Ratio (y) = 0.24623 0.23575
# Poissons Ratio (z) = 0.09553 0.63234
#
# Static dielectric constant tensor:
#      x y z
#    x 1.975750 0.000000 -0.068580 
#    y 0.000000 1.998270 0.000000 
#    z -0.068580 0.000000 2.030630 
# 
# From -- ./inp_files/5847.got.cif
#   From: 2010.05.17/outbox.cif.g08.bks.cpg/sg4_3_cif.got.tgz:5847.got - 2010.06.03 18:43:04.
