data_PCOD9117568
_publ_section_title
;
Structure prediction by ZEFSAII (Michael W. Deem and Ramdas Pophale) SiO2 
 PCOD9117568
Probable space group: P 21
;
_chemical_formula_sum "Si O2"
_cell_formula_units_Z 14
_cell_length_a 9.302082
_cell_length_b 7.829308
_cell_length_c 13.752948
_cell_angle_alpha 90.000000
_cell_angle_beta 33.302819
_cell_angle_gamma 90.000000
_cell_volume 549.948808
_symmetry_space_group_name_H-M "P 21"
_symmetry_group_IT_number 4
_symmetry_cell_setting 'monoclinic'
loop_
_space_group_symop_operation_xyz
x,y,z
-x,1/2+y,-z
loop_
_atom_site_type_symbol
_atom_site_label
_atom_site_fract_x
_atom_site_fract_y
_atom_site_fract_z
Si Si1 0.988568 0.712760 0.213776
Si Si2 0.143192 0.006727 0.882422
Si Si3 0.714576 0.002379 0.466836
Si Si4 0.212848 0.910769 0.313285
Si Si5 0.050268 0.186208 0.128133
Si Si6 0.938519 0.022344 0.642646
Si Si7 0.429463 0.226583 0.092615
O O1 0.978279 0.551965 0.292858
O O2 0.985165 0.661412 0.105269
O O3 0.753739 0.832862 0.379646
O O4 0.272557 0.788609 0.080254
O O5 0.443941 0.012961 0.675821
O O6 0.105662 0.037040 0.017801
O O7 0.010125 0.844694 0.906887
O O8 0.943978 0.981513 0.416782
O O9 0.809334 0.145707 0.337149
O O10 0.183399 0.704749 0.323376
O O11 0.424478 0.038692 0.145163
O O12 0.187630 0.967658 0.439120
O O13 0.293480 0.208783 0.064275
O O14 0.735746 0.866129 0.754878
#
# Coordination Sequence:
#
# PCOD9117568 Si02
#       7
#     2   2   2   2   2   2   2
#     4  11  26  46  75 108 145 194 260 311 381 453
#     4  12  25  49  74 106 145 204 248 306 379 463
#     4  10  25  47  72 104 148 194 247 312 365 452
#     4  10  23  42  71 114 146 202 249 312 387 450
#     4  11  26  46  76 107 147 199 249 307 386 441
#     4  11  22  42  72 108 153 193 248 312 385 442
#     4  11  25  48  72 113 156 192 257 328 369 453
#
# _framework density 25.456914999999999
#
# number of rings (size 3 to 8) (size 9 to 14) (size 15 to 20)
#    0.000    1.143    2.857    1.714    8.000    1.143 
#    2.571    0.000    0.000    0.000    0.000    0.000 
#    0.000    0.000    0.000    0.000    0.000    0.000 
#
# Total GULP energy -78327.444310 kJ/mol
# GULP energy per Si atom -5594.817451 kJ/mol
# Density = 2.539897 g / cm^3
# Si number density = 25.456915 Si / 1000 Ang^3
#
#
#
# Elastic Constant Matrix: (Units=GPa)
#
#
# Indices 1 2 3 4 5 6 
#
# 1 87.4014 19.7326 47.3294 0.0000 11.0908 0.0000
# 2 19.7326 139.0616 30.7670 0.0000 4.3940 0.0000
# 3 47.3294 30.7670 97.4844 0.0000 7.1935 0.0000
# 4 0.0000 0.0000 0.0000 42.0788 0.0000 17.1560
# 5 11.0908 4.3940 7.1935 0.0000 46.8622 0.0000
# 6 0.0000 0.0000 0.0000 17.1560 0.0000 28.0789
#
#
#
# Elastic Compliance Matrix: (Units=1/GPa)
#
#
# Indices 1 2 3 4 5 6 
#
# 1 0.015867 -0.000546 -0.007341 0.000000 -0.002577 0.000000
# 2 -0.000546 0.007755 -0.002163 0.000000 -0.000266 0.000000
# 3 -0.007341 -0.002163 0.014526 0.000000 -0.000290 0.000000
# 4 0.000000 0.000000 0.000000 0.031649 0.000000 -0.019337
# 5 -0.002577 -0.000266 -0.000290 0.000000 0.022018 0.000000
# 6 0.000000 0.000000 0.000000 -0.019337 0.000000 0.047429
#
#
# Mechanical properties :
#
#
# Convention : Reuss Voigt Hill
#
# Bulk Modulus (GPa) = 55.40554 57.73392 56.56973
# Shear Modulus (GPa) = 30.23680 38.47855 34.35768
#
# Velocity S-wave (km/s) = 3.45013 3.89204 3.67773
# Velocity P-wave (km/s) = 6.13864 6.55176 6.34856
#
# Compressibility (1/GPa) = 0.01804874
#
# Stress axis : x y z
#
# Youngs Moduli (GPa) = 63.02358 128.94097 68.84079
#
# Poissons Ratio (x) = 0.07039 0.50537
# Poissons Ratio (y) = 0.03440 0.14891
# Poissons Ratio (z) = 0.46266 0.27891
#
# Static dielectric constant tensor:
#      x y z
#    x 1.987480 0.000000 0.022140 
#    y 0.000000 2.085520 0.000000 
#    z 0.022140 0.000000 2.011560 
# 
# From -- ./inp_files/10988.got.cif
#   From: 2010.05.17/outbox.cif.g08.bks.cpg/sg4_6_cif.got.tgz:10988.got - 2010.06.03 18:43:04.
