data_PCOD9117128
_publ_section_title
;
Structure prediction by ZEFSAII (Michael W. Deem and Ramdas Pophale) SiO2 
 PCOD9117128
Probable space group: P 21
;
_chemical_formula_sum "Si O2"
_cell_formula_units_Z 16
_cell_length_a 10.684005
_cell_length_b 11.879905
_cell_length_c 5.152998
_cell_angle_alpha 90.000000
_cell_angle_beta 81.926258
_cell_angle_gamma 90.000000
_cell_volume 647.561286
_symmetry_space_group_name_H-M "P 21"
_symmetry_group_IT_number 4
_symmetry_cell_setting 'monoclinic'
loop_
_space_group_symop_operation_xyz
x,y,z
-x,1/2+y,-z
loop_
_atom_site_type_symbol
_atom_site_label
_atom_site_fract_x
_atom_site_fract_y
_atom_site_fract_z
Si Si1 0.677084 0.198560 0.444059
Si Si2 0.659251 0.404166 0.841436
Si Si3 0.124792 0.449531 0.118038
Si Si4 0.100173 0.079486 0.673130
Si Si5 0.121143 0.838678 0.823456
Si Si6 0.241743 0.142341 0.155077
Si Si7 0.457828 0.301453 0.227329
Si Si8 0.285199 0.450128 0.563299
O O1 0.650603 0.303883 0.638376
O O2 0.819746 0.225662 0.306116
O O3 0.568631 0.213469 0.260279
O O4 0.669683 0.072912 0.545226
O O5 0.679096 0.533809 0.766551
O O6 0.781953 0.372582 0.979145
O O7 0.532094 0.395862 0.047632
O O8 0.043554 0.564439 0.185591
O O9 0.024202 0.353626 0.055338
O O10 0.178089 0.419363 0.384004
O O11 0.228380 0.461096 0.865650
O O12 0.131872 0.147760 0.405839
O O13 0.130465 0.945315 0.621418
O O14 0.184236 0.120654 0.889090
O O15 0.341586 0.242345 0.118987
O O16 0.394644 0.359314 0.496273
#
# Coordination Sequence:
#
# PCOD9117128 Si02
#       8
#     2   2   2   2   2   2   2   2
#     4  11  25  45  76  98 146 197 239 295 361 435
#     4  10  22  43  74  98 138 190 248 287 347 451
#     4  10  24  49  72 104 151 177 237 303 356 430
#     4   9  20  42  72  99 137 181 235 284 339 439
#     4   8  20  43  72 104 132 187 242 279 362 423
#     4  11  22  43  73 101 137 184 244 284 356 426
#     4  11  30  43  70 110 144 194 235 308 363 421
#     4  12  29  48  69 112 149 182 240 306 364 417
#
# _framework density 24.708086999999999
#
# number of rings (size 3 to 8) (size 9 to 14) (size 15 to 20)
#    0.750    1.000    1.250    0.750   12.250    0.000 
#    6.750    0.000    0.000    0.000    0.000    0.000 
#    0.000    0.000    0.000    0.000    0.000    0.000 
#
# Total GULP energy -89371.306897 kJ/mol
# GULP energy per Si atom -5585.706681 kJ/mol
# Density = 2.465185 g / cm^3
# Si number density = 24.708087 Si / 1000 Ang^3
#
#
#
# Elastic Constant Matrix: (Units=GPa)
#
#
# Indices 1 2 3 4 5 6 
#
# 1 90.0186 21.7424 15.7057 0.0000 -11.7706 0.0000
# 2 21.7424 73.8539 -4.1173 0.0000 -4.7202 0.0000
# 3 15.7057 -4.1173 72.3604 0.0000 -19.0974 0.0000
# 4 0.0000 0.0000 0.0000 22.7318 0.0000 4.2070
# 5 -11.7706 -4.7202 -19.0974 0.0000 31.0146 0.0000
# 6 0.0000 0.0000 0.0000 4.2070 0.0000 27.2322
#
#
#
# Elastic Compliance Matrix: (Units=1/GPa)
#
#
# Indices 1 2 3 4 5 6 
#
# 1 0.012769 -0.003696 -0.002211 0.000000 0.002923 0.000000
# 2 -0.003696 0.014897 0.002242 0.000000 0.002245 0.000000
# 3 -0.002211 0.002242 0.017070 0.000000 0.010013 0.000000
# 4 0.000000 0.000000 0.000000 0.045286 0.000000 -0.006996
# 5 0.002923 0.002245 0.010013 0.000000 0.039859 0.000000
# 6 0.000000 0.000000 0.000000 -0.006996 0.000000 0.037802
#
#
# Mechanical properties :
#
#
# Convention : Reuss Voigt Hill
#
# Bulk Modulus (GPa) = 26.73214 33.65493 30.19354
# Shear Modulus (GPa) = 26.66947 29.72253 28.19600
#
# Velocity S-wave (km/s) = 3.28896 3.47212 3.38178
# Velocity P-wave (km/s) = 5.02650 5.45204 5.24359
#
# Compressibility (1/GPa) = 0.03740816
#
# Stress axis : x y z
#
# Youngs Moduli (GPa) = 78.31305 67.12868 58.58308
#
# Poissons Ratio (x) = 0.24809 0.12950
# Poissons Ratio (y) = 0.28942 -0.13136
# Poissons Ratio (z) = 0.17311 -0.15053
#
# Static dielectric constant tensor:
#      x y z
#    x 1.984730 0.000000 -0.044710 
#    y 0.000000 1.971100 0.000000 
#    z -0.044710 0.000000 1.976070 
# 
# From -- ./inp_files/3072.got.cif
#   From: 2010.05.17/outbox.cif.g08.bks.cpg/sg4_2_cif.got.tgz:3072.got - 2010.06.03 18:43:04.
