data_PCOD9117865
_publ_section_title
;
Structure prediction by ZEFSAII (Michael W. Deem and Ramdas Pophale) SiO2 
 PCOD9117865
Probable space group: P 21
;
_chemical_formula_sum "Si O2"
_cell_formula_units_Z 12
_cell_length_a 5.146044
_cell_length_b 16.112380
_cell_length_c 5.142148
_cell_angle_alpha 90.000000
_cell_angle_beta 91.990895
_cell_angle_gamma 90.000000
_cell_volume 426.103917
_symmetry_space_group_name_H-M "P 21"
_symmetry_group_IT_number 4
_symmetry_cell_setting 'monoclinic'
loop_
_space_group_symop_operation_xyz
x,y,z
-x,1/2+y,-z
loop_
_atom_site_type_symbol
_atom_site_label
_atom_site_fract_x
_atom_site_fract_y
_atom_site_fract_z
Si Si1 0.561360 0.177530 0.104249
Si Si2 0.987888 0.873929 0.714610
Si Si3 0.920938 0.629448 0.615939
Si Si4 0.753554 0.049376 0.746916
Si Si5 0.314462 0.328409 0.818623
Si Si6 0.353515 0.964540 0.362324
O O1 0.570094 0.090658 0.950651
O O2 0.485659 0.249025 0.900441
O O3 0.844432 0.178720 0.241669
O O4 0.343335 0.173975 0.318693
O O5 0.810980 0.838498 0.471383
O O6 0.253236 0.896436 0.571872
O O7 0.900707 0.965420 0.803173
O O8 0.919917 0.827859 0.979640
O O9 0.027984 0.616886 0.328542
O O10 0.873992 0.532158 0.700884
O O11 0.569898 0.022538 0.502549
O O12 0.508672 0.408090 0.848400
#
# Coordination Sequence:
#
# PCOD9117865 Si02
#       6
#     2   2   2   2   2   2
#     4  12  28  43  76 107 156 189 251 310 387 434
#     4  10  25  44  74 103 147 195 254 302 372 450
#     4  11  25  46  70 108 141 195 249 309 364 450
#     4  10  24  45  73 106 138 198 250 310 362 450
#     4  11  27  47  69 113 152 202 242 317 380 448
#     4  10  23  47  78 105 148 197 264 300 375 446
#
# _framework density 28.162144000000001
#
# number of rings (size 3 to 8) (size 9 to 14) (size 15 to 20)
#    0.000    1.333    1.667    1.000   14.000    4.000 
#    0.000    0.000    0.000    0.000    0.000    0.000 
#    0.000    0.000    0.000    0.000    0.000    0.000 
#
# Total GULP energy -67167.006674 kJ/mol
# GULP energy per Si atom -5597.250556 kJ/mol
# Density = 2.809805 g / cm^3
# Si number density = 28.162144 Si / 1000 Ang^3
#
#
#
# Elastic Constant Matrix: (Units=GPa)
#
#
# Indices 1 2 3 4 5 6 
#
# 1 157.0277 14.9804 35.0151 0.0000 -36.5310 0.0000
# 2 14.9804 70.7744 19.0565 0.0000 -22.2412 0.0000
# 3 35.0151 19.0565 108.1018 0.0000 -33.0600 0.0000
# 4 0.0000 0.0000 0.0000 43.5758 0.0000 -9.8187
# 5 -36.5310 -22.2412 -33.0600 0.0000 44.2867 0.0000
# 6 0.0000 0.0000 0.0000 -9.8187 0.0000 43.5355
#
#
#
# Elastic Compliance Matrix: (Units=1/GPa)
#
#
# Indices 1 2 3 4 5 6 
#
# 1 0.007939 0.000479 -0.000751 0.000000 0.006229 0.000000
# 2 0.000479 0.016826 -0.000539 0.000000 0.008443 0.000000
# 3 -0.000751 -0.000539 0.012073 0.000000 0.008122 0.000000
# 4 0.000000 0.000000 0.000000 0.024177 0.000000 0.005453
# 5 0.006229 0.008443 0.008122 0.000000 0.038021 0.000000
# 6 0.000000 0.000000 0.000000 0.005453 0.000000 0.024200
#
#
# Mechanical properties :
#
#
# Convention : Reuss Voigt Hill
#
# Bulk Modulus (GPa) = 28.39629 52.66754 40.53192
# Shear Modulus (GPa) = 36.60389 44.06973 40.33681
#
# Velocity S-wave (km/s) = 3.60912 3.96012 3.78869
# Velocity P-wave (km/s) = 5.24144 6.29700 5.79331
#
# Compressibility (1/GPa) = 0.03521586
#
# Stress axis : x y z
#
# Youngs Moduli (GPa) = 125.95828 59.43013 82.83100
#
# Poissons Ratio (x) = -0.02848 0.06222
# Poissons Ratio (y) = -0.06036 0.04468
# Poissons Ratio (z) = 0.09461 0.03205
#
# Static dielectric constant tensor:
#      x y z
#    x 2.199450 0.000000 0.051030 
#    y 0.000000 2.227880 0.000000 
#    z 0.051030 0.000000 2.174060 
# 
# From -- ./inp_files/327.got.cif
#   From: 2010.05.17/outbox.cif.g08.bks.cpg/sg4_1_cif.got.tgz:327.got - 2010.06.03 18:43:04.
