data_PCOD9117180
_publ_section_title
;
Structure prediction by ZEFSAII (Michael W. Deem and Ramdas Pophale) SiO2 
 PCOD9117180
Probable space group: P 21
;
_chemical_formula_sum "Si O2"
_cell_formula_units_Z 12
_cell_length_a 13.379581
_cell_length_b 4.845038
_cell_length_c 8.686677
_cell_angle_alpha 90.000000
_cell_angle_beta 123.280810
_cell_angle_gamma 90.000000
_cell_volume 470.755149
_symmetry_space_group_name_H-M "P 21"
_symmetry_group_IT_number 4
_symmetry_cell_setting 'monoclinic'
loop_
_space_group_symop_operation_xyz
x,y,z
-x,1/2+y,-z
loop_
_atom_site_type_symbol
_atom_site_label
_atom_site_fract_x
_atom_site_fract_y
_atom_site_fract_z
Si Si1 0.915153 0.363980 0.411072
Si Si2 0.893932 0.134202 0.751695
Si Si3 0.488608 0.019164 0.601609
Si Si4 0.074956 0.645773 0.897424
Si Si5 0.569632 0.854399 0.999123
Si Si6 0.734343 0.785342 0.407009
O O1 0.827170 0.543931 0.440516
O O2 0.023805 0.581748 0.478239
O O3 0.864870 0.267231 0.204411
O O4 0.788189 0.037310 0.550198
O O5 0.999569 0.361931 0.809563
O O6 0.845018 0.178895 0.883735
O O7 0.463530 0.755822 0.472330
O O8 0.568472 0.928496 0.817916
O O9 0.370649 0.146785 0.582558
O O10 0.966501 0.853137 0.835318
O O11 0.528924 0.541134 0.995669
O O12 0.686241 0.892482 0.202148
#
# Coordination Sequence:
#
# PCOD9117180 Si02
#       6
#     2   2   2   2   2   2
#     4  12  26  44  76 110 157 202 262 307 370 457
#     4  10  22  44  76 101 147 207 254 300 380 439
#     4  11  25  50  82 112 155 193 254 329 389 453
#     4  10  22  44  69 106 153 202 252 315 353 440
#     4  10  23  47  79 115 147 194 256 323 383 455
#     4  11  26  49  86 108 155 208 258 306 395 454
#
# _framework density 25.490960000000001
#
# number of rings (size 3 to 8) (size 9 to 14) (size 15 to 20)
#    0.000    1.333    1.667    3.000    0.000    8.000 
#    0.000   16.667   11.000    0.000    0.000    0.000 
#    0.000    0.000    0.000    0.000    0.000    0.000 
#
# Total GULP energy -67031.471838 kJ/mol
# GULP energy per Si atom -5585.955986 kJ/mol
# Density = 2.543294 g / cm^3
# Si number density = 25.490960 Si / 1000 Ang^3
#
#
#
# Elastic Constant Matrix: (Units=GPa)
#
#
# Indices 1 2 3 4 5 6 
#
# 1 82.1442 8.2576 38.4797 0.0000 -17.7884 0.0000
# 2 8.2576 110.1802 53.7323 0.0000 -13.4964 0.0000
# 3 38.4797 53.7323 219.7437 0.0000 -15.4680 0.0000
# 4 0.0000 0.0000 0.0000 19.2685 0.0000 -8.6671
# 5 -17.7884 -13.4964 -15.4680 0.0000 36.3287 0.0000
# 6 0.0000 0.0000 0.0000 -8.6671 0.0000 41.2322
#
#
#
# Elastic Compliance Matrix: (Units=1/GPa)
#
#
# Indices 1 2 3 4 5 6 
#
# 1 0.014566 0.000819 -0.002296 0.000000 0.006459 0.000000
# 2 0.000819 0.010643 -0.002515 0.000000 0.003285 0.000000
# 3 -0.002296 -0.002515 0.005590 0.000000 0.000322 0.000000
# 4 0.000000 0.000000 0.000000 0.057317 0.000000 0.012048
# 5 0.006459 0.003285 0.000322 0.000000 0.032046 0.000000
# 6 0.000000 0.000000 0.000000 0.012048 0.000000 0.026785
#
#
# Mechanical properties :
#
#
# Convention : Reuss Voigt Hill
#
# Bulk Modulus (GPa) = 43.82891 68.11191 55.97041
# Shear Modulus (GPa) = 30.76212 40.13913 35.45062
#
# Velocity S-wave (km/s) = 3.47765 3.97248 3.73327
# Velocity P-wave (km/s) = 5.77552 6.91512 6.37085
#
# Compressibility (1/GPa) = 0.02281599
#
# Stress axis : x y z
#
# Youngs Moduli (GPa) = 68.65438 93.95497 178.87668
#
# Poissons Ratio (x) = -0.07699 0.41076
# Poissons Ratio (y) = -0.05626 0.44984
# Poissons Ratio (z) = 0.15765 0.23628
#
# Static dielectric constant tensor:
#      x y z
#    x 2.077480 0.000000 -0.124740 
#    y 0.000000 2.004830 0.000000 
#    z -0.124740 0.000000 2.391120 
# 
# From -- ./inp_files/8705.got.cif
#   From: 2010.05.17/outbox.cif.g08.bks.cpg/sg4_5_cif.got.tgz:8705.got - 2010.06.03 18:43:04.
