data_PCOD9117711
_publ_section_title
;
Structure prediction by ZEFSAII (Michael W. Deem and Ramdas Pophale) SiO2 
 PCOD9117711
Probable space group: P 21
;
_chemical_formula_sum "Si O2"
_cell_formula_units_Z 16
_cell_length_a 5.643134
_cell_length_b 13.545328
_cell_length_c 8.836892
_cell_angle_alpha 90.000000
_cell_angle_beta 74.549055
_cell_angle_gamma 90.000000
_cell_volume 651.062826
_symmetry_space_group_name_H-M "P 21"
_symmetry_group_IT_number 4
_symmetry_cell_setting 'monoclinic'
loop_
_space_group_symop_operation_xyz
x,y,z
-x,1/2+y,-z
loop_
_atom_site_type_symbol
_atom_site_label
_atom_site_fract_x
_atom_site_fract_y
_atom_site_fract_z
Si Si1 0.989816 0.425890 0.059324
Si Si2 0.143123 0.368064 0.349500
Si Si3 0.666894 0.615888 0.388024
Si Si4 0.904227 0.181415 0.464370
Si Si5 0.585636 0.280124 0.113067
Si Si6 0.452491 0.439901 0.575045
Si Si7 0.849504 0.087348 0.183236
Si Si8 0.356461 0.276117 0.831564
O O1 0.106822 0.433627 0.206007
O O2 0.718937 0.383850 0.117924
O O3 0.007903 0.524886 0.963230
O O4 0.131699 0.340619 0.938275
O O5 0.913222 0.297281 0.421799
O O6 0.346472 0.288811 0.257817
O O7 0.242627 0.418904 0.483593
O O8 0.897479 0.662660 0.438815
O O9 0.656908 0.501104 0.444365
O O10 0.704498 0.666722 0.217881
O O11 0.379173 0.648171 0.465262
O O12 0.998418 0.116567 0.306708
O O13 0.745523 0.188821 0.138879
O O14 0.533220 0.269197 0.945086
O O15 0.367302 0.517152 0.718608
O O16 0.467050 0.340303 0.673314
#
# Coordination Sequence:
#
# PCOD9117711 Si02
#       8
#     2   2   2   2   2   2   2   2
#     4  10  24  44  67  99 139 192 237 293 354 432
#     4  11  22  44  69 102 138 185 237 298 356 422
#     4  11  25  44  70 108 138 185 234 297 352 422
#     4  11  23  45  73  97 143 184 234 293 359 415
#     4  11  24  45  68  98 146 193 233 294 361 429
#     4  10  23  44  70 102 138 183 242 300 355 424
#     4  10  23  45  68  98 138 189 238 295 362 424
#     4  10  24  43  69  98 140 191 233 292 353 428
#
# _framework density 24.575199999999999
#
# number of rings (size 3 to 8) (size 9 to 14) (size 15 to 20)
#    0.000    1.500    2.500    1.500    5.250    0.000 
#   11.250    0.000    0.000    0.000    0.000    0.000 
#    0.000    0.000    0.000    0.000    0.000    0.000 
#
# Total GULP energy -89384.418885 kJ/mol
# GULP energy per Si atom -5586.526180 kJ/mol
# Density = 2.451927 g / cm^3
# Si number density = 24.575200 Si / 1000 Ang^3
#
#
#
# Elastic Constant Matrix: (Units=GPa)
#
#
# Indices 1 2 3 4 5 6 
#
# 1 77.0793 10.4899 48.9921 0.0000 11.7927 0.0000
# 2 10.4899 75.4262 46.4214 0.0000 -10.7707 0.0000
# 3 48.9921 46.4214 118.0689 0.0000 7.7962 0.0000
# 4 0.0000 0.0000 0.0000 51.5505 0.0000 -3.2374
# 5 11.7927 -10.7707 7.7962 0.0000 48.1618 0.0000
# 6 0.0000 0.0000 0.0000 -3.2374 0.0000 34.6896
#
#
#
# Elastic Compliance Matrix: (Units=1/GPa)
#
#
# Indices 1 2 3 4 5 6 
#
# 1 0.018359 0.002171 -0.008296 0.000000 -0.002667 0.000000
# 2 0.002171 0.019069 -0.008738 0.000000 0.005147 0.000000
# 3 -0.008296 -0.008738 0.015508 0.000000 -0.002433 0.000000
# 4 0.000000 0.000000 0.000000 0.019513 0.000000 0.001821
# 5 -0.002667 0.005147 -0.002433 0.000000 0.022961 0.000000
# 6 0.000000 0.000000 0.000000 0.001821 0.000000 0.028997
#
#
# Mechanical properties :
#
#
# Convention : Reuss Voigt Hill
#
# Bulk Modulus (GPa) = 43.08261 53.59792 48.34026
# Shear Modulus (GPa) = 30.88907 37.85843 34.37375
#
# Velocity S-wave (km/s) = 3.54915 3.92920 3.74400
# Velocity P-wave (km/s) = 5.86211 6.51474 6.19702
#
# Compressibility (1/GPa) = 0.02321122
#
# Stress axis : x y z
#
# Youngs Moduli (GPa) = 54.46949 52.44086 64.48187
#
# Poissons Ratio (x) = -0.11388 0.53492
# Poissons Ratio (y) = -0.11828 0.56347
# Poissons Ratio (z) = 0.45186 0.45825
#
# Static dielectric constant tensor:
#      x y z
#    x 1.943130 0.000000 -0.073940 
#    y 0.000000 1.968430 0.000000 
#    z -0.073940 0.000000 1.969180 
# 
# From -- ./inp_files/3156.got.cif
#   From: 2010.05.17/outbox.cif.g08.bks.cpg/sg4_2_cif.got.tgz:3156.got - 2010.06.03 18:43:04.
