data_PCOD9117390
_publ_section_title
;
Structure prediction by ZEFSAII (Michael W. Deem and Ramdas Pophale) SiO2 
 PCOD9117390
Probable space group: P 21
;
_chemical_formula_sum "Si O2"
_cell_formula_units_Z 16
_cell_length_a 5.362726
_cell_length_b 15.639132
_cell_length_c 7.574726
_cell_angle_alpha 90.000000
_cell_angle_beta 113.530304
_cell_angle_gamma 90.000000
_cell_volume 582.455859
_symmetry_space_group_name_H-M "P 21"
_symmetry_group_IT_number 4
_symmetry_cell_setting 'monoclinic'
loop_
_space_group_symop_operation_xyz
x,y,z
-x,1/2+y,-z
loop_
_atom_site_type_symbol
_atom_site_label
_atom_site_fract_x
_atom_site_fract_y
_atom_site_fract_z
Si Si1 0.780325 0.443920 0.854732
Si Si2 0.361259 0.594549 0.798946
Si Si3 0.400018 0.603867 0.204310
Si Si4 0.231725 0.432966 0.295212
Si Si5 0.905514 0.681289 0.468060
Si Si6 0.044244 0.365504 0.620921
Si Si7 0.100322 0.770286 0.115061
Si Si8 0.341840 0.251834 0.262139
O O1 0.560207 0.516950 0.808889
O O2 0.902149 0.442195 0.690639
O O3 0.671168 0.344747 0.823532
O O4 0.981968 0.443670 0.082749
O O5 0.518263 0.685161 0.827350
O O6 0.110323 0.612007 0.600845
O O7 0.285578 0.579175 0.980081
O O8 0.386828 0.521956 0.323655
O O9 0.706261 0.638270 0.269849
O O10 0.210575 0.681289 0.212937
O O11 0.150918 0.407610 0.471592
O O12 0.416507 0.351787 0.288576
O O13 0.059958 0.771779 0.479267
O O14 0.684297 0.708354 0.555184
O O15 0.132746 0.317570 0.833710
O O16 0.973298 0.755940 0.889714
#
# Coordination Sequence:
#
# PCOD9117390 Si02
#       8
#     2   2   2   2   2   2   2   2
#     4   9  23  48  82 120 158 215 271 331 411 473
#     4  12  26  50  82 115 168 214 265 339 407 477
#     4  12  26  48  81 122 164 215 270 335 410 486
#     4  10  23  50  82 122 161 208 277 335 405 488
#     4  11  26  49  80 121 157 218 269 330 405 488
#     4   9  22  51  85 114 165 209 273 338 397 480
#     4   9  20  47  82 113 160 205 268 327 404 475
#     4  10  22  49  80 111 159 210 267 327 407 481
#
# _framework density 27.469894
#
# number of rings (size 3 to 8) (size 9 to 14) (size 15 to 20)
#    0.750    1.000    1.250    1.500    1.750    1.000 
#    9.000    2.500    2.750    0.000    0.000    0.000 
#    0.000    0.000    0.000    0.000    0.000    0.000 
#
# Total GULP energy -89282.868854 kJ/mol
# GULP energy per Si atom -5580.179303 kJ/mol
# Density = 2.740737 g / cm^3
# Si number density = 27.469894 Si / 1000 Ang^3
#
#
#
# Elastic Constant Matrix: (Units=GPa)
#
#
# Indices 1 2 3 4 5 6 
#
# 1 87.0089 62.2088 31.9263 0.0000 -18.7072 0.0000
# 2 62.2088 205.4187 23.1688 0.0000 -3.2556 0.0000
# 3 31.9263 23.1688 127.7062 0.0000 -12.0629 0.0000
# 4 0.0000 0.0000 0.0000 40.4665 0.0000 -13.1592
# 5 -18.7072 -3.2556 -12.0629 0.0000 43.5914 0.0000
# 6 0.0000 0.0000 0.0000 -13.1592 0.0000 53.2268
#
#
#
# Elastic Compliance Matrix: (Units=1/GPa)
#
#
# Indices 1 2 3 4 5 6 
#
# 1 0.017353 -0.004832 -0.002867 0.000000 0.006293 0.000000
# 2 -0.004832 0.006316 -0.000092 0.000000 -0.001627 0.000000
# 3 -0.002867 -0.000092 0.008674 0.000000 0.001163 0.000000
# 4 0.000000 0.000000 0.000000 0.026872 0.000000 0.006644
# 5 0.006293 -0.001627 0.001163 0.000000 0.025841 0.000000
# 6 0.000000 0.000000 0.000000 0.006644 0.000000 0.020430
#
#
# Mechanical properties :
#
#
# Convention : Reuss Voigt Hill
#
# Bulk Modulus (GPa) = 59.66213 72.74906 66.20560
# Shear Modulus (GPa) = 39.47751 47.64558 43.56155
#
# Velocity S-wave (km/s) = 3.79505 4.16921 3.98652
# Velocity P-wave (km/s) = 6.40074 7.05104 6.73374
#
# Compressibility (1/GPa) = 0.01676105
#
# Stress axis : x y z
#
# Youngs Moduli (GPa) = 57.62750 158.32891 115.29072
#
# Poissons Ratio (x) = 0.76505 0.33056
# Poissons Ratio (y) = 0.27846 0.01056
# Poissons Ratio (z) = 0.16523 0.01450
#
# Static dielectric constant tensor:
#      x y z
#    x 2.277490 0.000000 -0.003670 
#    y 0.000000 2.118220 0.000000 
#    z -0.003670 0.000000 2.109570 
# 
# From -- ./inp_files/4808.got.cif
#   From: 2010.05.17/outbox.cif.g08.bks.cpg/sg4_3_cif.got.tgz:4808.got - 2010.06.03 18:43:04.
