data_PCOD9117258
_publ_section_title
;
Structure prediction by ZEFSAII (Michael W. Deem and Ramdas Pophale) SiO2 
 PCOD9117258
Probable space group: P 21
;
_chemical_formula_sum "Si O2"
_cell_formula_units_Z 14
_cell_length_a 6.760423
_cell_length_b 8.301101
_cell_length_c 9.518652
_cell_angle_alpha 90.000000
_cell_angle_beta 94.216813
_cell_angle_gamma 90.000000
_cell_volume 532.730748
_symmetry_space_group_name_H-M "P 21"
_symmetry_group_IT_number 4
_symmetry_cell_setting 'monoclinic'
loop_
_space_group_symop_operation_xyz
x,y,z
-x,1/2+y,-z
loop_
_atom_site_type_symbol
_atom_site_label
_atom_site_fract_x
_atom_site_fract_y
_atom_site_fract_z
Si Si1 0.838269 0.277000 0.799161
Si Si2 0.089211 0.239049 0.288405
Si Si3 0.044844 0.080075 0.002195
Si Si4 0.552353 0.175520 0.280213
Si Si5 0.847581 0.943601 0.359549
Si Si6 0.478085 0.230099 0.580881
Si Si7 0.236580 0.985118 0.747313
O O1 0.896396 0.423696 0.905350
O O2 0.632792 0.287480 0.706784
O O3 0.012342 0.301948 0.692313
O O4 0.853550 0.114552 0.893050
O O5 0.030221 0.213684 0.121520
O O6 0.318403 0.190523 0.281250
O O7 0.972366 0.405229 0.317641
O O8 0.992662 0.096722 0.377769
O O9 0.208458 0.089061 0.887087
O O10 0.603431 0.195201 0.449063
O O11 0.634245 0.329147 0.205421
O O12 0.679850 0.019565 0.243713
O O13 0.698820 0.857848 0.460786
O O14 0.361103 0.077446 0.636034
#
# Coordination Sequence:
#
# PCOD9117258 Si02
#       7
#     2   2   2   2   2   2   2
#     4  11  25  45  71 101 143 181 232 297 343 416
#     4  10  24  46  70  99 142 183 226 297 340 419
#     4  11  22  47  69  99 142 178 237 287 355 413
#     4  11  26  47  68 104 144 183 239 282 345 420
#     4  10  22  45  68 101 133 184 230 276 359 393
#     4  12  26  45  69 108 140 180 242 287 343 424
#     4  11  25  43  69 106 132 191 230 280 363 401
#
# _framework density 26.279692000000001
#
# number of rings (size 3 to 8) (size 9 to 14) (size 15 to 20)
#    0.000    1.143    2.857    2.571    2.000    4.571 
#   10.286    0.000    0.000    0.000    0.000    0.000 
#    0.000    0.000    0.000    0.000    0.000    0.000 
#
# Total GULP energy -78025.041128 kJ/mol
# GULP energy per Si atom -5573.217223 kJ/mol
# Density = 2.621988 g / cm^3
# Si number density = 26.279692 Si / 1000 Ang^3
#
#
#
# Elastic Constant Matrix: (Units=GPa)
#
#
# Indices 1 2 3 4 5 6 
#
# 1 185.5510 32.7253 20.0371 0.0000 18.2668 0.0000
# 2 32.7253 77.8803 7.1330 0.0000 -0.5810 0.0000
# 3 20.0371 7.1330 64.3574 0.0000 -0.4935 0.0000
# 4 0.0000 0.0000 0.0000 34.6680 0.0000 -15.3347
# 5 18.2668 -0.5810 -0.4935 0.0000 39.2338 0.0000
# 6 0.0000 0.0000 0.0000 -15.3347 0.0000 56.9476
#
#
#
# Elastic Compliance Matrix: (Units=1/GPa)
#
#
# Indices 1 2 3 4 5 6 
#
# 1 0.006313 -0.002519 -0.001709 0.000000 -0.002998 0.000000
# 2 -0.002519 0.013978 -0.000755 0.000000 0.001370 0.000000
# 3 -0.001709 -0.000755 0.016162 0.000000 0.000988 0.000000
# 4 0.000000 0.000000 0.000000 0.032745 0.000000 0.008818
# 5 -0.002998 0.001370 0.000988 0.000000 0.026917 0.000000
# 6 0.000000 0.000000 0.000000 0.008818 0.000000 0.019934
#
#
# Mechanical properties :
#
#
# Convention : Reuss Voigt Hill
#
# Bulk Modulus (GPa) = 37.75358 49.73104 43.74231
# Shear Modulus (GPa) = 37.07990 44.02942 40.55466
#
# Velocity S-wave (km/s) = 3.76037 4.09763 3.93261
# Velocity P-wave (km/s) = 5.76637 6.43057 6.10751
#
# Compressibility (1/GPa) = 0.02648755
#
# Stress axis : x y z
#
# Youngs Moduli (GPa) = 158.39521 71.54155 61.87488
#
# Poissons Ratio (x) = 0.18019 0.10577
# Poissons Ratio (y) = 0.39894 0.04669
# Poissons Ratio (z) = 0.27077 0.05398
#
# Static dielectric constant tensor:
#      x y z
#    x 2.040170 0.000000 0.066960 
#    y 0.000000 2.252500 0.000000 
#    z 0.066960 0.000000 2.127210 
# 
# From -- ./inp_files/10341.got.cif
#   From: 2010.05.17/outbox.cif.g08.bks.cpg/sg4_6_cif.got.tgz:10341.got - 2010.06.03 18:43:04.
