data_PCOD9117824
_publ_section_title
;
Structure prediction by ZEFSAII (Michael W. Deem and Ramdas Pophale) SiO2 
 PCOD9117824
Probable space group: P 21
;
_chemical_formula_sum "Si O2"
_cell_formula_units_Z 16
_cell_length_a 9.438198
_cell_length_b 11.163664
_cell_length_c 8.457775
_cell_angle_alpha 90.000000
_cell_angle_beta 133.249102
_cell_angle_gamma 90.000000
_cell_volume 649.099089
_symmetry_space_group_name_H-M "P 21"
_symmetry_group_IT_number 4
_symmetry_cell_setting 'monoclinic'
loop_
_space_group_symop_operation_xyz
x,y,z
-x,1/2+y,-z
loop_
_atom_site_type_symbol
_atom_site_label
_atom_site_fract_x
_atom_site_fract_y
_atom_site_fract_z
Si Si1 0.414502 0.568850 0.905437
Si Si2 0.574788 0.815957 0.145587
Si Si3 0.188040 0.963308 0.349950
Si Si4 0.903425 0.867644 0.875530
Si Si5 0.502532 0.293509 0.538856
Si Si6 0.220359 0.601306 0.412957
Si Si7 0.933264 0.170370 0.197267
Si Si8 0.016441 0.794281 0.434052
O O1 0.521268 0.440116 0.988435
O O2 0.324250 0.572984 0.659311
O O3 0.249715 0.582834 0.917613
O O4 0.529548 0.692378 0.021281
O O5 0.538934 0.794743 0.305215
O O6 0.800800 0.841345 0.286111
O O7 0.378494 0.915846 0.410426
O O8 0.166235 0.895937 0.498201
O O9 0.136955 0.100093 0.337925
O O10 0.003712 0.917266 0.107514
O O11 0.694444 0.803316 0.715274
O O12 0.059634 0.771381 0.929585
O O13 0.861390 0.982665 0.731715
O O14 0.632501 0.180821 0.581149
O O15 0.043647 0.689026 0.326703
O O16 0.930864 0.241359 0.357909
#
# Coordination Sequence:
#
# PCOD9117824 Si02
#       8
#     2   2   2   2   2   2   2   2
#     4  11  25  45  74 105 154 190 256 309 372 450
#     4  12  24  47  71 111 145 196 252 310 371 451
#     4  11  27  46  74 105 146 192 245 296 372 445
#     4  12  26  45  77 103 151 191 247 303 375 444
#     4  11  26  47  71 109 148 190 244 308 372 442
#     4  10  25  47  68 104 145 190 242 310 369 444
#     4  11  24  47  72 102 144 198 238 305 373 438
#     4  10  23  46  71  97 141 185 242 297 366 428
#
# _framework density 24.649546999999998
#
# number of rings (size 3 to 8) (size 9 to 14) (size 15 to 20)
#    0.000    1.000    3.750    0.750   10.500    2.000 
#    4.500    0.000    0.000    0.000    0.000    0.000 
#    0.000    0.000    0.000    0.000    0.000    0.000 
#
# Total GULP energy -89488.184217 kJ/mol
# GULP energy per Si atom -5593.011514 kJ/mol
# Density = 2.459344 g / cm^3
# Si number density = 24.649547 Si / 1000 Ang^3
#
#
#
# Elastic Constant Matrix: (Units=GPa)
#
#
# Indices 1 2 3 4 5 6 
#
# 1 110.5302 40.5224 27.5657 0.0000 -8.7789 0.0000
# 2 40.5224 87.0148 9.8745 0.0000 -10.5211 0.0000
# 3 27.5657 9.8745 84.3137 0.0000 -5.4883 0.0000
# 4 0.0000 0.0000 0.0000 95.5692 0.0000 -143.8203
# 5 -8.7789 -10.5211 -5.4883 0.0000 21.1460 0.0000
# 6 0.0000 0.0000 0.0000 -143.8203 0.0000 374.5302
#
#
#
# Elastic Compliance Matrix: (Units=1/GPa)
#
#
# Indices 1 2 3 4 5 6 
#
# 1 0.011772 -0.004928 -0.003167 0.000000 0.001614 0.000000
# 2 -0.004928 0.014383 0.000264 0.000000 0.005179 0.000000
# 3 -0.003167 0.000264 0.013008 0.000000 0.002193 0.000000
# 4 0.000000 0.000000 0.000000 0.024788 0.000000 0.009519
# 5 0.001614 0.005179 0.002193 0.000000 0.051106 0.000000
# 6 0.000000 0.000000 0.000000 0.009519 0.000000 0.006325
#
#
# Mechanical properties :
#
#
# Convention : Reuss Voigt Hill
#
# Bulk Modulus (GPa) = 42.55013 48.64263 45.59638
# Shear Modulus (GPa) = 34.51204 111.84214 73.17709
#
# Velocity S-wave (km/s) = 3.74586 6.74325 5.45449
# Velocity P-wave (km/s) = 6.00068 8.96689 7.62932
#
# Compressibility (1/GPa) = 0.02350169
#
# Stress axis : x y z
#
# Youngs Moduli (GPa) = 84.94928 69.52483 76.87815
#
# Poissons Ratio (x) = 0.34259 0.24344
# Poissons Ratio (y) = 0.41860 -0.02027
# Poissons Ratio (z) = 0.26900 -0.01833
#
# Static dielectric constant tensor:
#      x y z
#    x 1.953210 0.000000 -0.024460 
#    y 0.000000 2.048460 0.000000 
#    z -0.024460 0.000000 1.124410 
# 
# From -- ./inp_files/6477.got.cif
#   From: 2010.05.17/outbox.cif.g08.bks.cpg/sg4_4_cif.got.tgz:6477.got - 2010.06.03 18:43:04.
