data_PCOD9117772
_publ_section_title
;
Structure prediction by ZEFSAII (Michael W. Deem and Ramdas Pophale) SiO2 
 PCOD9117772
Probable space group: P 21
;
_chemical_formula_sum "Si O2"
_cell_formula_units_Z 14
_cell_length_a 10.099731
_cell_length_b 10.586890
_cell_length_c 5.306437
_cell_angle_alpha 90.000000
_cell_angle_beta 114.127470
_cell_angle_gamma 90.000000
_cell_volume 517.821301
_symmetry_space_group_name_H-M "P 21"
_symmetry_group_IT_number 4
_symmetry_cell_setting 'monoclinic'
loop_
_space_group_symop_operation_xyz
x,y,z
-x,1/2+y,-z
loop_
_atom_site_type_symbol
_atom_site_label
_atom_site_fract_x
_atom_site_fract_y
_atom_site_fract_z
Si Si1 0.500493 0.343910 0.450761
Si Si2 0.820950 0.447728 0.343079
Si Si3 0.235776 0.363926 0.981140
Si Si4 0.571381 0.611244 0.319921
Si Si5 0.059586 0.754036 0.200030
Si Si6 0.872631 0.995831 0.602960
Si Si7 0.290370 0.723749 0.029704
O O1 0.537248 0.493843 0.488121
O O2 0.402031 0.251432 0.551226
O O3 0.646660 0.272755 0.647812
O O4 0.404441 0.328345 0.125730
O O5 0.718625 0.567029 0.303993
O O6 0.893244 0.390086 0.652285
O O7 0.956781 0.461281 0.262313
O O8 0.710648 0.343224 0.151568
O O9 0.197475 0.430559 0.691344
O O10 0.114250 0.257245 0.931789
O O11 0.207299 0.455269 0.202908
O O12 0.416063 0.625519 0.053751
O O13 0.121692 0.645745 0.431435
O O14 0.123702 0.707469 0.982817
#
# Coordination Sequence:
#
# PCOD9117772 Si02
#       7
#     2   2   2   2   2   2   2
#     4  10  24  45  73 111 153 197 264 313 393 454
#     4  11  23  47  69 113 147 203 259 319 386 462
#     4  11  26  47  72 113 149 194 258 315 383 461
#     4  10  23  45  72 109 152 203 250 325 385 461
#     4  11  24  46  74 104 150 201 254 320 388 460
#     4  11  27  43  80 105 154 195 256 318 387 455
#     4  10  23  47  74 103 153 199 259 318 386 457
#
# _framework density 27.036353999999999
#
# number of rings (size 3 to 8) (size 9 to 14) (size 15 to 20)
#    0.857    0.571    2.857    0.857    4.000    6.857 
#    7.714    0.000    0.000    0.000    0.000    0.000 
#    0.000    0.000    0.000    0.000    0.000    0.000 
#
# Total GULP energy -78053.458020 kJ/mol
# GULP energy per Si atom -5575.247001 kJ/mol
# Density = 2.697482 g / cm^3
# Si number density = 27.036354 Si / 1000 Ang^3
#
#
#
# Elastic Constant Matrix: (Units=GPa)
#
#
# Indices 1 2 3 4 5 6 
#
# 1 133.9252 36.9604 34.7305 0.0000 2.5182 0.0000
# 2 36.9604 68.5649 14.1623 0.0000 1.0587 0.0000
# 3 34.7305 14.1623 89.5016 0.0000 -7.7954 0.0000
# 4 0.0000 0.0000 0.0000 47.2056 0.0000 7.6217
# 5 2.5182 1.0587 -7.7954 0.0000 29.8535 0.0000
# 6 0.0000 0.0000 0.0000 7.6217 0.0000 54.8765
#
#
#
# Elastic Compliance Matrix: (Units=1/GPa)
#
#
# Indices 1 2 3 4 5 6 
#
# 1 0.009538 -0.004475 -0.003121 0.000000 -0.001461 0.000000
# 2 -0.004475 0.017218 -0.001032 0.000000 -0.000503 0.000000
# 3 -0.003121 -0.001032 0.012866 0.000000 0.003659 0.000000
# 4 0.000000 0.000000 0.000000 0.021670 0.000000 -0.003010
# 5 -0.001461 -0.000503 0.003659 0.000000 0.034594 0.000000
# 6 0.000000 0.000000 0.000000 -0.003010 0.000000 0.018641
#
#
# Mechanical properties :
#
#
# Convention : Reuss Voigt Hill
#
# Bulk Modulus (GPa) = 44.70675 51.52201 48.11438
# Shear Modulus (GPa) = 35.91018 40.12968 38.01993
#
# Velocity S-wave (km/s) = 3.64843 3.85682 3.75407
# Velocity P-wave (km/s) = 5.85830 6.23950 6.05190
#
# Compressibility (1/GPa) = 0.02236799
#
# Stress axis : x y z
#
# Youngs Moduli (GPa) = 104.83857 58.07967 77.72491
#
# Poissons Ratio (x) = 0.25989 0.24254
# Poissons Ratio (y) = 0.46912 0.08020
# Poissons Ratio (z) = 0.32715 0.05993
#
# Static dielectric constant tensor:
#      x y z
#    x 2.184700 0.000000 0.026550 
#    y 0.000000 2.176020 0.000000 
#    z 0.026550 0.000000 2.131530 
# 
# From -- ./inp_files/2860.got.cif
#   From: 2010.05.17/outbox.cif.g08.bks.cpg/sg4_2_cif.got.tgz:2860.got - 2010.06.03 18:43:04.
