data_PCOD9117343
_publ_section_title
;
Structure prediction by ZEFSAII (Michael W. Deem and Ramdas Pophale) SiO2 
 PCOD9117343
Probable space group: P 21
;
_chemical_formula_sum "Si O2"
_cell_formula_units_Z 16
_cell_length_a 10.778310
_cell_length_b 9.633073
_cell_length_c 8.555251
_cell_angle_alpha 90.000000
_cell_angle_beta 46.204270
_cell_angle_gamma 90.000000
_cell_volume 641.168622
_symmetry_space_group_name_H-M "P 21"
_symmetry_group_IT_number 4
_symmetry_cell_setting 'monoclinic'
loop_
_space_group_symop_operation_xyz
x,y,z
-x,1/2+y,-z
loop_
_atom_site_type_symbol
_atom_site_label
_atom_site_fract_x
_atom_site_fract_y
_atom_site_fract_z
Si Si1 0.041439 0.771030 0.600581
Si Si2 0.160396 0.018239 0.283614
Si Si3 0.560287 0.076116 0.992228
Si Si4 0.782956 0.444602 0.110534
Si Si5 0.227480 0.661882 0.726844
Si Si6 0.771964 0.918248 0.066554
Si Si7 0.551307 0.850272 0.773145
Si Si8 0.364547 0.186463 0.586677
O O1 0.111540 0.886819 0.426024
O O2 0.181836 0.698619 0.589492
O O3 0.949121 0.653006 0.580446
O O4 0.904692 0.844550 0.835193
O O5 0.359953 0.046439 0.139488
O O6 0.131222 0.997439 0.123121
O O7 0.642890 0.010715 0.074825
O O8 0.553592 0.243206 0.020774
O O9 0.640510 0.976397 0.787257
O O10 0.842386 0.294674 0.115955
O O11 0.587256 0.417729 0.221557
O O12 0.755939 0.554972 0.272352
O O13 0.151293 0.523369 0.871098
O O14 0.433336 0.652038 0.569411
O O15 0.676227 0.798653 0.244702
O O16 0.662328 0.754541 0.560160
#
# Coordination Sequence:
#
# PCOD9117343 Si02
#       8
#     2   2   2   2   2   2   2   2
#     4  12  29  49  72 106 152 198 236 299 382 451
#     4  11  27  51  69 106 149 198 243 303 369 440
#     4  11  23  48  71 110 143 186 248 305 355 430
#     4  10  22  46  73 104 148 181 253 302 359 428
#     4  11  25  46  73 109 143 195 234 308 369 437
#     4  12  25  48  75 111 141 188 257 296 367 441
#     4  10  23  38  71 109 142 185 226 315 363 412
#     4  11  22  46  74 109 142 185 253 306 360 421
#
# _framework density 24.954433000000002
#
# number of rings (size 3 to 8) (size 9 to 14) (size 15 to 20)
#    0.000    1.000    3.750    3.000    7.000    0.000 
#   15.750    0.000    0.000    0.000    0.000    0.000 
#    0.000    0.000    0.000    0.000    0.000    0.000 
#
# Total GULP energy -89582.619376 kJ/mol
# GULP energy per Si atom -5598.913711 kJ/mol
# Density = 2.489764 g / cm^3
# Si number density = 24.954433 Si / 1000 Ang^3
#
#
#
# Elastic Constant Matrix: (Units=GPa)
#
#
# Indices 1 2 3 4 5 6 
#
# 1 82.9504 -5.8820 10.1028 0.0000 10.6670 0.0000
# 2 -5.8820 101.7578 34.2818 0.0000 10.7027 0.0000
# 3 10.1028 34.2818 83.8867 0.0000 15.0921 0.0000
# 4 0.0000 0.0000 0.0000 64.5351 0.0000 20.3667
# 5 10.6670 10.7027 15.0921 0.0000 24.7571 0.0000
# 6 0.0000 0.0000 0.0000 20.3667 0.0000 36.2444
#
#
#
# Elastic Compliance Matrix: (Units=1/GPa)
#
#
# Indices 1 2 3 4 5 6 
#
# 1 0.013060 0.001780 -0.001291 0.000000 -0.005610 0.000000
# 2 0.001780 0.011761 -0.004457 0.000000 -0.003134 0.000000
# 3 -0.001291 -0.004457 0.015108 0.000000 -0.006727 0.000000
# 4 0.000000 0.000000 0.000000 0.018836 0.000000 -0.010584
# 5 -0.005610 -0.003134 -0.006727 0.000000 0.048265 0.000000
# 6 0.000000 0.000000 0.000000 -0.010584 0.000000 0.033538
#
#
# Mechanical properties :
#
#
# Convention : Reuss Voigt Hill
#
# Bulk Modulus (GPa) = 31.25646 38.40002 34.82824
# Shear Modulus (GPa) = 31.41310 40.44681 35.92996
#
# Velocity S-wave (km/s) = 3.55183 4.03032 3.79862
# Velocity P-wave (km/s) = 5.41971 6.08929 5.76423
#
# Compressibility (1/GPa) = 0.03199339
#
# Stress axis : x y z
#
# Youngs Moduli (GPa) = 76.56835 85.02438 66.19023
#
# Poissons Ratio (x) = -0.15133 0.08545
# Poissons Ratio (y) = -0.13628 0.29500
# Poissons Ratio (z) = 0.09885 0.37895
#
# Static dielectric constant tensor:
#      x y z
#    x 1.971390 0.000000 -0.000050 
#    y 0.000000 1.977190 0.000000 
#    z -0.000050 0.000000 2.012570 
# 
# From -- ./inp_files/7997.got.cif
#   From: 2010.05.17/outbox.cif.g08.bks.cpg/sg4_4_cif.got.tgz:7997.got - 2010.06.03 18:43:04.
