data_PCOD9117758
_publ_section_title
;
Structure prediction by ZEFSAII (Michael W. Deem and Ramdas Pophale) SiO2 
 PCOD9117758
Probable space group: P 21
;
_chemical_formula_sum "Si O2"
_cell_formula_units_Z 16
_cell_length_a 9.651012
_cell_length_b 9.467057
_cell_length_c 11.382425
_cell_angle_alpha 90.000000
_cell_angle_beta 140.083939
_cell_angle_gamma 90.000000
_cell_volume 667.314810
_symmetry_space_group_name_H-M "P 21"
_symmetry_group_IT_number 4
_symmetry_cell_setting 'monoclinic'
loop_
_space_group_symop_operation_xyz
x,y,z
-x,1/2+y,-z
loop_
_atom_site_type_symbol
_atom_site_label
_atom_site_fract_x
_atom_site_fract_y
_atom_site_fract_z
Si Si1 0.912579 0.864920 0.235981
Si Si2 0.528927 0.014987 0.704624
Si Si3 0.469222 0.227210 0.869986
Si Si4 0.320527 0.725544 0.575825
Si Si5 0.875161 0.169256 0.300761
Si Si6 0.748938 0.721720 0.609543
Si Si7 0.009128 0.537594 0.943142
Si Si8 0.551140 0.429165 0.704186
O O1 0.722329 0.770026 0.166205
O O2 0.127953 0.772964 0.366207
O O3 0.890066 0.943025 0.096821
O O4 0.932206 0.002311 0.333905
O O5 0.445030 0.090376 0.770289
O O6 0.373066 0.076760 0.503080
O O7 0.495771 0.849350 0.693114
O O8 0.775823 0.062060 0.841703
O O9 0.505263 0.351043 0.798116
O O10 0.678456 0.198726 0.084697
O O11 0.199108 0.715569 0.620993
O O12 0.434446 0.579323 0.625552
O O13 0.081367 0.251589 0.384848
O O14 0.900410 0.679915 0.817696
O O15 0.562047 0.836527 0.472286
O O16 0.807053 0.454207 0.863739
#
# Coordination Sequence:
#
# PCOD9117758 Si02
#       8
#     2   2   2   2   2   2   2   2
#     4  11  23  44  68 104 136 184 231 286 360 414
#     4  11  22  43  72  96 143 186 222 298 343 418
#     4  11  23  45  71 102 139 184 238 294 354 417
#     4  12  24  40  71 107 141 180 239 292 349 423
#     4  11  22  42  71  99 141 183 231 291 356 413
#     4  10  23  45  70  97 137 192 226 283 357 410
#     4  11  24  47  70 103 141 187 234 289 360 414
#     4  11  27  44  71 108 142 182 247 287 349 433
#
# _framework density 23.976690999999999
#
# number of rings (size 3 to 8) (size 9 to 14) (size 15 to 20)
#    0.000    1.000    6.250    2.250    1.750    2.000 
#    2.250    0.000    0.000    0.000    0.000    0.000 
#    0.000    0.000    0.000    0.000    0.000    0.000 
#
# Total GULP energy -89535.711089 kJ/mol
# GULP energy per Si atom -5595.981943 kJ/mol
# Density = 2.392212 g / cm^3
# Si number density = 23.976691 Si / 1000 Ang^3
#
#
#
# Elastic Constant Matrix: (Units=GPa)
#
#
# Indices 1 2 3 4 5 6 
#
# 1 97.8300 13.1364 16.3032 0.0000 29.4320 0.0000
# 2 13.1364 124.7154 16.3370 0.0000 14.6684 0.0000
# 3 16.3032 16.3370 98.7242 0.0000 36.0178 0.0000
# 4 0.0000 0.0000 0.0000 33.1860 0.0000 16.5511
# 5 29.4320 14.6684 36.0178 0.0000 41.2638 0.0000
# 6 0.0000 0.0000 0.0000 16.5511 0.0000 23.8565
#
#
#
# Elastic Compliance Matrix: (Units=1/GPa)
#
#
# Indices 1 2 3 4 5 6 
#
# 1 0.013255 -0.000352 0.001868 0.000000 -0.010959 0.000000
# 2 -0.000352 0.008390 -0.000490 0.000000 -0.002304 0.000000
# 3 0.001868 -0.000490 0.015148 0.000000 -0.014381 0.000000
# 4 0.000000 0.000000 0.000000 0.046076 0.000000 -0.031966
# 5 -0.010959 -0.002304 -0.014381 0.000000 0.045423 0.000000
# 6 0.000000 0.000000 0.000000 -0.031966 0.000000 0.064095
#
#
# Mechanical properties :
#
#
# Convention : Reuss Voigt Hill
#
# Bulk Modulus (GPa) = 25.74259 45.86921 35.80590
# Shear Modulus (GPa) = 24.59615 38.02746 31.31181
#
# Velocity S-wave (km/s) = 3.20634 3.98680 3.61768
# Velocity P-wave (km/s) = 4.94645 6.35335 5.69352
#
# Compressibility (1/GPa) = 0.03884613
#
# Stress axis : x y z
#
# Youngs Moduli (GPa) = 75.44346 119.18276 66.01386
#
# Poissons Ratio (x) = 0.04193 -0.12329
# Poissons Ratio (y) = 0.02654 0.03233
# Poissons Ratio (z) = -0.14091 0.05836
#
# Static dielectric constant tensor:
#      x y z
#    x 1.952130 0.000000 -0.032510 
#    y 0.000000 1.910620 0.000000 
#    z -0.032510 0.000000 1.924610 
# 
# From -- ./inp_files/13980.got.cif
#   From: 2010.05.17/outbox.cif.g08.bks.cpg/sg4_7_cif.got.tgz:13980.got - 2010.06.03 18:43:04.
