data_PCOD9117065
_publ_section_title
;
Structure prediction by ZEFSAII (Michael W. Deem and Ramdas Pophale) SiO2 
 PCOD9117065
Probable space group: P 21
;
_chemical_formula_sum "Si O2"
_cell_formula_units_Z 16
_cell_length_a 10.300277
_cell_length_b 10.218572
_cell_length_c 9.120200
_cell_angle_alpha 90.000000
_cell_angle_beta 43.597842
_cell_angle_gamma 90.000000
_cell_volume 661.966267
_symmetry_space_group_name_H-M "P 21"
_symmetry_group_IT_number 4
_symmetry_cell_setting 'monoclinic'
loop_
_space_group_symop_operation_xyz
x,y,z
-x,1/2+y,-z
loop_
_atom_site_type_symbol
_atom_site_label
_atom_site_fract_x
_atom_site_fract_y
_atom_site_fract_z
Si Si1 0.756643 0.618810 0.222976
Si Si2 0.446696 0.728270 0.658974
Si Si3 0.518491 0.902367 0.884432
Si Si4 0.652938 0.392048 0.494288
Si Si5 0.152356 0.551594 0.032823
Si Si6 0.157322 0.911657 0.383055
Si Si7 0.832900 0.106579 0.641699
Si Si8 0.311662 0.288637 0.971967
O O1 0.650190 0.725753 0.411943
O O2 0.633765 0.495646 0.377756
O O3 0.739835 0.654828 0.066367
O O4 0.971797 0.596669 0.090378
O O5 0.470863 0.822730 0.778137
O O6 0.304424 0.768628 0.643803
O O7 0.349868 0.597749 0.800602
O O8 0.633796 0.037461 0.766976
O O9 0.329269 0.927155 0.130854
O O10 0.644396 0.810251 0.892752
O O11 0.790062 0.462199 0.497293
O O12 0.496283 0.338422 0.733739
O O13 0.158059 0.613462 0.189395
O O14 0.156602 0.395812 0.052225
O O15 0.128995 0.755736 0.435509
O O16 0.985672 0.999124 0.468210
#
# Coordination Sequence:
#
# PCOD9117065 Si02
#       8
#     2   2   2   2   2   2   2   2
#     4  11  23  41  70  90 134 176 219 282 347 397
#     4  11  24  41  66  99 132 173 227 277 339 412
#     4  10  24  42  70  97 139 178 235 281 341 420
#     4  10  22  43  66  95 137 175 217 287 342 400
#     4  11  22  42  68  94 131 177 221 281 342 408
#     4  11  24  47  71 103 143 185 234 292 350 419
#     4  11  25  42  74 102 138 185 234 286 356 411
#     4   9  22  44  65  96 126 175 225 274 341 411
#
# _framework density 24.170414000000001
#
# number of rings (size 3 to 8) (size 9 to 14) (size 15 to 20)
#    0.000    1.500    3.750    0.000    3.500    4.000 
#    0.000    2.500    0.000    0.000    0.000    0.000 
#    0.000    0.000    0.000    0.000    0.000    0.000 
#
# Total GULP energy -89267.190047 kJ/mol
# GULP energy per Si atom -5579.199378 kJ/mol
# Density = 2.411540 g / cm^3
# Si number density = 24.170414 Si / 1000 Ang^3
#
#
#
# Elastic Constant Matrix: (Units=GPa)
#
#
# Indices 1 2 3 4 5 6 
#
# 1 99.6998 18.4988 42.4161 0.0000 -2.4249 0.0000
# 2 18.4988 61.6523 21.0074 0.0000 0.0946 0.0000
# 3 42.4161 21.0074 78.8925 0.0000 -7.8438 0.0000
# 4 0.0000 0.0000 0.0000 37.9444 0.0000 -1.7547
# 5 -2.4249 0.0946 -7.8438 0.0000 42.5253 0.0000
# 6 0.0000 0.0000 0.0000 -1.7547 0.0000 26.7442
#
#
#
# Elastic Compliance Matrix: (Units=1/GPa)
#
#
# Indices 1 2 3 4 5 6 
#
# 1 0.013173 -0.001674 -0.006684 0.000000 -0.000478 0.000000
# 2 -0.001674 0.018088 -0.004003 0.000000 -0.000874 0.000000
# 3 -0.006684 -0.004003 0.017621 0.000000 0.002878 0.000000
# 4 0.000000 0.000000 0.000000 0.026435 0.000000 0.001734
# 5 -0.000478 -0.000874 0.002878 0.000000 0.024021 0.000000
# 6 0.000000 0.000000 0.000000 0.001734 0.000000 0.037505
#
#
# Mechanical properties :
#
#
# Convention : Reuss Voigt Hill
#
# Bulk Modulus (GPa) = 41.39254 44.89880 43.14567
# Shear Modulus (GPa) = 29.47804 31.99761 30.73782
#
# Velocity S-wave (km/s) = 3.49605 3.64240 3.56998
# Velocity P-wave (km/s) = 5.78438 6.02542 5.90613
#
# Compressibility (1/GPa) = 0.02415894
#
# Stress axis : x y z
#
# Youngs Moduli (GPa) = 75.91430 55.28610 56.74992
#
# Poissons Ratio (x) = 0.09256 0.37931
# Poissons Ratio (y) = 0.12710 0.22718
# Poissons Ratio (z) = 0.50741 0.22132
#
# Static dielectric constant tensor:
#      x y z
#    x 1.968590 0.000000 -0.054590 
#    y 0.000000 2.069070 0.000000 
#    z -0.054590 0.000000 1.933540 
# 
# From -- ./inp_files/6389.got.cif
#   From: 2010.05.17/outbox.cif.g08.bks.cpg/sg4_4_cif.got.tgz:6389.got - 2010.06.03 18:43:04.
