data_PCOD9117366
_publ_section_title
;
Structure prediction by ZEFSAII (Michael W. Deem and Ramdas Pophale) SiO2 
 PCOD9117366
Probable space group: P 21
;
_chemical_formula_sum "Si O2"
_cell_formula_units_Z 14
_cell_length_a 5.838702
_cell_length_b 17.687874
_cell_length_c 5.034590
_cell_angle_alpha 90.000000
_cell_angle_beta 91.881121
_cell_angle_gamma 90.000000
_cell_volume 519.663177
_symmetry_space_group_name_H-M "P 21"
_symmetry_group_IT_number 4
_symmetry_cell_setting 'monoclinic'
loop_
_space_group_symop_operation_xyz
x,y,z
-x,1/2+y,-z
loop_
_atom_site_type_symbol
_atom_site_label
_atom_site_fract_x
_atom_site_fract_y
_atom_site_fract_z
Si Si1 0.492342 0.215350 0.851557
Si Si2 0.835939 0.817703 0.866029
Si Si3 0.219139 0.540164 0.624255
Si Si4 0.854755 0.450656 0.879863
Si Si5 0.805333 0.210319 0.388470
Si Si6 0.476698 0.922144 0.588116
Si Si7 0.574619 0.545809 0.122289
O O1 0.671893 0.241635 0.637621
O O2 0.414493 0.131180 0.764736
O O3 0.283132 0.270372 0.904150
O O4 0.628613 0.209384 0.134873
O O5 0.638258 0.857284 0.685291
O O6 0.986172 0.761541 0.695197
O O7 0.984583 0.885887 0.983864
O O8 0.136896 0.622930 0.548133
O O9 0.406356 0.509054 0.407942
O O10 0.037205 0.474346 0.636493
O O11 0.364462 0.541452 0.901724
O O12 0.650183 0.414995 0.687146
O O13 0.806850 0.543024 0.940382
O O14 0.328805 0.952647 0.828740
#
# Coordination Sequence:
#
# PCOD9117366 Si02
#       7
#     2   2   2   2   2   2   2
#     4  11  27  53  82 116 166 213 269 341 409 486
#     4  12  29  51  79 122 164 213 267 339 418 475
#     4  10  22  47  80 111 150 206 273 326 400 484
#     4  11  26  45  79 115 152 210 271 332 403 485
#     4  11  27  52  82 116 162 216 272 334 414 491
#     4  11  25  47  79 109 157 203 266 334 394 474
#     4  10  22  49  77 109 151 205 268 332 390 479
#
# _framework density 26.940528
#
# number of rings (size 3 to 8) (size 9 to 14) (size 15 to 20)
#    0.000    1.143    2.857    0.857    4.000    4.571 
#    2.571    0.000    0.000    0.000    0.000    0.000 
#    0.000    0.000    0.000    0.000    0.000    0.000 
#
# Total GULP energy -78301.759701 kJ/mol
# GULP energy per Si atom -5592.982836 kJ/mol
# Density = 2.687921 g / cm^3
# Si number density = 26.940528 Si / 1000 Ang^3
#
#
#
# Elastic Constant Matrix: (Units=GPa)
#
#
# Indices 1 2 3 4 5 6 
#
# 1 115.5662 88.7307 45.7756 0.0000 -33.9932 0.0000
# 2 88.7307 172.0401 50.7563 0.0000 -29.9600 0.0000
# 3 45.7756 50.7563 140.4447 0.0000 -16.7702 0.0000
# 4 0.0000 0.0000 0.0000 21.8861 0.0000 -17.8398
# 5 -33.9932 -29.9600 -16.7702 0.0000 57.4082 0.0000
# 6 0.0000 0.0000 0.0000 -17.8398 0.0000 54.9319
#
#
#
# Elastic Compliance Matrix: (Units=1/GPa)
#
#
# Indices 1 2 3 4 5 6 
#
# 1 0.016407 -0.006852 -0.002216 0.000000 0.005492 0.000000
# 2 -0.006852 0.009836 -0.001236 0.000000 0.000715 0.000000
# 3 -0.002216 -0.001236 0.008346 0.000000 0.000481 0.000000
# 4 0.000000 0.000000 0.000000 0.062141 0.000000 0.020181
# 5 0.005492 0.000715 0.000481 0.000000 0.021185 0.000000
# 6 0.000000 0.000000 0.000000 0.020181 0.000000 0.024758
#
#
# Mechanical properties :
#
#
# Convention : Reuss Voigt Hill
#
# Bulk Modulus (GPa) = 71.51924 88.73067 80.12496
# Shear Modulus (GPa) = 29.77240 43.03114 36.40177
#
# Velocity S-wave (km/s) = 3.32793 4.00091 3.67984
# Velocity P-wave (km/s) = 6.43207 7.37227 6.91816
#
# Compressibility (1/GPa) = 0.01398225
#
# Stress axis : x y z
#
# Youngs Moduli (GPa) = 60.95005 101.67140 119.81086
#
# Poissons Ratio (x) = 0.69664 0.26544
# Poissons Ratio (y) = 0.41762 0.14808
# Poissons Ratio (z) = 0.13503 0.12566
#
# Static dielectric constant tensor:
#      x y z
#    x 2.341490 0.000000 -0.055770 
#    y 0.000000 2.109280 0.000000 
#    z -0.055770 0.000000 2.071070 
# 
# From -- ./inp_files/445.got.cif
#   From: 2010.05.17/outbox.cif.g08.bks.cpg/sg4_1_cif.got.tgz:445.got - 2010.06.03 18:43:04.
