data_PCOD9117081
_publ_section_title
;
Structure prediction by ZEFSAII (Michael W. Deem and Ramdas Pophale) SiO2 
 PCOD9117081
Probable space group: P 21
;
_chemical_formula_sum "Si O2"
_cell_formula_units_Z 16
_cell_length_a 17.392981
_cell_length_b 5.627380
_cell_length_c 8.250147
_cell_angle_alpha 90.000000
_cell_angle_beta 56.537410
_cell_angle_gamma 90.000000
_cell_volume 673.652763
_symmetry_space_group_name_H-M "P 21"
_symmetry_group_IT_number 4
_symmetry_cell_setting 'monoclinic'
loop_
_space_group_symop_operation_xyz
x,y,z
-x,1/2+y,-z
loop_
_atom_site_type_symbol
_atom_site_label
_atom_site_fract_x
_atom_site_fract_y
_atom_site_fract_z
Si Si1 0.100421 0.709700 0.066479
Si Si2 0.569032 0.507392 0.175701
Si Si3 0.080374 0.540632 0.725243
Si Si4 0.268705 0.365692 0.531255
Si Si5 0.555937 0.646850 0.818344
Si Si6 0.604758 0.254137 0.504736
Si Si7 0.992138 0.883742 0.600622
Si Si8 0.274327 0.037440 0.841054
O O1 0.009493 0.875296 0.184908
O O2 0.094231 0.493265 0.201056
O O3 0.096644 0.596458 0.893796
O O4 0.187805 0.879366 0.985393
O O5 0.535778 0.237613 0.166287
O O6 0.487830 0.606510 0.389486
O O7 0.670502 0.643821 0.073237
O O8 0.541416 0.605277 0.023087
O O9 0.171091 0.404755 0.560043
O O10 0.064401 0.788086 0.650225
O O11 0.354919 0.314926 0.315967
O O12 0.302258 0.607064 0.576161
O O13 0.257916 0.184117 0.696439
O O14 0.592185 0.427675 0.669015
O O15 0.631469 0.383363 0.305943
O O16 0.975534 0.627958 0.529133
#
# Coordination Sequence:
#
# PCOD9117081 Si02
#       8
#     2   2   2   2   2   2   2   2
#     4  12  25  48  79 112 151 203 266 319 392 468
#     4  11  23  43  69  99 146 193 248 311 382 462
#     4  12  24  48  83 104 154 211 257 319 386 479
#     4  10  24  44  70 110 143 188 257 309 381 459
#     4  10  22  44  69  99 143 199 248 298 388 476
#     4  10  22  43  67  97 141 184 244 309 377 452
#     4  12  28  52  78 116 155 205 259 326 397 465
#     4  11  26  42  71 113 143 185 257 327 375 449
#
# _framework density 23.751110000000001
#
# number of rings (size 3 to 8) (size 9 to 14) (size 15 to 20)
#    0.000    1.000    5.000    0.750    5.250    0.000 
#    6.750    0.000    0.000    0.000    0.000    0.000 
#    0.000    0.000    0.000    0.000    0.000    0.000 
#
# Total GULP energy -89120.088828 kJ/mol
# GULP energy per Si atom -5570.005552 kJ/mol
# Density = 2.369705 g / cm^3
# Si number density = 23.751110 Si / 1000 Ang^3
#
#
#
# Elastic Constant Matrix: (Units=GPa)
#
#
# Indices 1 2 3 4 5 6 
#
# 1 76.7989 19.7534 38.1298 0.0000 -37.1512 0.0000
# 2 19.7534 85.1756 33.2914 0.0000 -9.6325 0.0000
# 3 38.1298 33.2914 68.8027 0.0000 -7.5561 0.0000
# 4 0.0000 0.0000 0.0000 39.8469 0.0000 -5.6781
# 5 -37.1512 -9.6325 -7.5561 0.0000 40.4325 0.0000
# 6 0.0000 0.0000 0.0000 -5.6781 0.0000 22.1175
#
#
#
# Elastic Compliance Matrix: (Units=1/GPa)
#
#
# Indices 1 2 3 4 5 6 
#
# 1 0.035673 0.001921 -0.017406 0.000000 0.029983 0.000000
# 2 0.001921 0.014774 -0.007793 0.000000 0.003829 0.000000
# 3 -0.017406 -0.007793 0.026536 0.000000 -0.012891 0.000000
# 4 0.000000 0.000000 0.000000 0.026049 0.000000 0.006687
# 5 0.029983 0.003829 -0.012891 0.000000 0.050785 0.000000
# 6 0.000000 0.000000 0.000000 0.006687 0.000000 0.046930
#
#
# Mechanical properties :
#
#
# Convention : Reuss Voigt Hill
#
# Bulk Modulus (GPa) = 32.86626 45.90292 39.38459
# Shear Modulus (GPa) = 19.42163 29.78621 24.60392
#
# Velocity S-wave (km/s) = 2.86267 3.54517 3.22204
# Velocity P-wave (km/s) = 4.97939 6.01051 5.51908
#
# Compressibility (1/GPa) = 0.03042634
#
# Stress axis : x y z
#
# Youngs Moduli (GPa) = 28.03233 67.68768 37.68503
#
# Poissons Ratio (x) = -0.13004 0.65596
# Poissons Ratio (y) = -0.05385 0.29367
# Poissons Ratio (z) = 0.48794 0.52747
#
# Static dielectric constant tensor:
#      x y z
#    x 2.130620 0.000000 0.077890 
#    y 0.000000 2.100610 0.000000 
#    z 0.077890 0.000000 1.954110 
# 
# From -- ./inp_files/9486.got.cif
#   From: 2010.05.17/outbox.cif.g08.bks.cpg/sg4_5_cif.got.tgz:9486.got - 2010.06.03 18:43:04.
