data_PCOD9117940
_publ_section_title
;
Structure prediction by ZEFSAII (Michael W. Deem and Ramdas Pophale) SiO2 
 PCOD9117940
Probable space group: P 21
;
_chemical_formula_sum "Si O2"
_cell_formula_units_Z 12
_cell_length_a 11.747410
_cell_length_b 9.018424
_cell_length_c 7.462642
_cell_angle_alpha 90.000000
_cell_angle_beta 142.283503
_cell_angle_gamma 90.000000
_cell_volume 483.662917
_symmetry_space_group_name_H-M "P 21"
_symmetry_group_IT_number 4
_symmetry_cell_setting 'monoclinic'
loop_
_space_group_symop_operation_xyz
x,y,z
-x,1/2+y,-z
loop_
_atom_site_type_symbol
_atom_site_label
_atom_site_fract_x
_atom_site_fract_y
_atom_site_fract_z
Si Si1 0.642432 0.515540 0.844515
Si Si2 0.234415 0.326596 0.956652
Si Si3 0.763296 0.382305 0.650658
Si Si4 0.870974 0.284883 0.301604
Si Si5 0.895326 0.091299 0.990970
Si Si6 0.483340 0.865240 0.996084
O O1 0.667847 0.685593 0.834399
O O2 0.828740 0.450947 0.175539
O O3 0.491112 0.478266 0.807732
O O4 0.632651 0.420778 0.655223
O O5 0.240731 0.469205 0.090827
O O6 0.017854 0.294049 0.643310
O O7 0.330275 0.334959 0.879643
O O8 0.653649 0.417303 0.333283
O O9 0.936594 0.494437 0.876858
O O10 0.821021 0.211804 0.757341
O O11 0.944933 0.188275 0.229491
O O12 0.656881 0.241173 0.089983
#
# Coordination Sequence:
#
# PCOD9117940 Si02
#       6
#     2   2   2   2   2   2
#     4   9  23  41  65  96 127 170 216 267 314 387
#     4  12  21  40  70  95 128 175 213 260 337 373
#     4  11  22  44  65  95 135 165 221 266 315 391
#     4   9  21  43  63  98 124 165 218 263 312 388
#     4  11  23  41  70  94 130 178 212 267 329 377
#     4  10  24  41  67  94 134 163 214 275 311 386
#
# _framework density 24.810668
#
# number of rings (size 3 to 8) (size 9 to 14) (size 15 to 20)
#    1.000    0.667    1.667    3.000    2.333    1.333 
#    0.000    5.000    0.000    0.000    0.000    0.000 
#    0.000    0.000    0.000    0.000    0.000    0.000 
#
# Total GULP energy -66966.519168 kJ/mol
# GULP energy per Si atom -5580.543264 kJ/mol
# Density = 2.475420 g / cm^3
# Si number density = 24.810668 Si / 1000 Ang^3
#
#
#
# Elastic Constant Matrix: (Units=GPa)
#
#
# Indices 1 2 3 4 5 6 
#
# 1 138.7603 45.9766 35.0531 0.0000 -4.8276 0.0000
# 2 45.9766 132.0900 21.8383 0.0000 5.8970 0.0000
# 3 35.0531 21.8383 51.4033 0.0000 8.4567 0.0000
# 4 0.0000 0.0000 0.0000 11.8884 0.0000 -1.1490
# 5 -4.8276 5.8970 8.4567 0.0000 31.9067 0.0000
# 6 0.0000 0.0000 0.0000 -1.1490 0.0000 50.9962
#
#
#
# Elastic Compliance Matrix: (Units=1/GPa)
#
#
# Indices 1 2 3 4 5 6 
#
# 1 0.009719 -0.002527 -0.006141 0.000000 0.003565 0.000000
# 2 -0.002527 0.008811 -0.001766 0.000000 -0.001543 0.000000
# 3 -0.006141 -0.001766 0.025608 0.000000 -0.007390 0.000000
# 4 0.000000 0.000000 0.000000 0.084299 0.000000 0.001899
# 5 0.003565 -0.001543 -0.007390 0.000000 0.034125 0.000000
# 6 0.000000 0.000000 0.000000 0.001899 0.000000 0.019652
#
#
# Mechanical properties :
#
#
# Convention : Reuss Voigt Hill
#
# Bulk Modulus (GPa) = 42.97393 58.66549 50.81971
# Shear Modulus (GPa) = 23.71484 33.58397 28.64941
#
# Velocity S-wave (km/s) = 3.09501 3.68314 3.40181
# Velocity P-wave (km/s) = 5.48912 6.46405 5.99643
#
# Compressibility (1/GPa) = 0.02326992
#
# Stress axis : x y z
#
# Youngs Moduli (GPa) = 102.88901 113.49410 39.05083
#
# Poissons Ratio (x) = 0.28679 0.23980
# Poissons Ratio (y) = 0.25999 0.06898
# Poissons Ratio (z) = 0.63181 0.20047
#
# Static dielectric constant tensor:
#      x y z
#    x 2.014720 0.000000 0.039740 
#    y 0.000000 1.982960 0.000000 
#    z 0.039740 0.000000 1.932100 
# 
# From -- ./inp_files/8070.got.cif
#   From: 2010.05.17/outbox.cif.g08.bks.cpg/sg4_5_cif.got.tgz:8070.got - 2010.06.03 18:43:04.
