data_PCOD9117906
_publ_section_title
;
Structure prediction by ZEFSAII (Michael W. Deem and Ramdas Pophale) SiO2 
 PCOD9117906
Probable space group: P 21
;
_chemical_formula_sum "Si O2"
_cell_formula_units_Z 14
_cell_length_a 12.466724
_cell_length_b 5.002802
_cell_length_c 20.213584
_cell_angle_alpha 90.000000
_cell_angle_beta 28.931649
_cell_angle_gamma 90.000000
_cell_volume 609.879778
_symmetry_space_group_name_H-M "P 21"
_symmetry_group_IT_number 4
_symmetry_cell_setting 'monoclinic'
loop_
_space_group_symop_operation_xyz
x,y,z
-x,1/2+y,-z
loop_
_atom_site_type_symbol
_atom_site_label
_atom_site_fract_x
_atom_site_fract_y
_atom_site_fract_z
Si Si1 0.505962 0.964730 0.453115
Si Si2 0.171867 0.925257 0.515982
Si Si3 0.713617 0.093013 0.094612
Si Si4 0.423223 0.289786 0.959418
Si Si5 0.212473 0.267181 0.811216
Si Si6 0.410335 0.440166 0.334910
Si Si7 0.709825 0.791796 0.826481
O O1 0.512000 0.763563 0.511186
O O2 0.718992 0.913256 0.292646
O O3 0.304798 0.886351 0.513076
O O4 0.245697 0.217652 0.452886
O O5 0.918627 0.872699 0.669933
O O6 0.268340 0.711994 0.411020
O O7 0.669599 0.884998 0.060080
O O8 0.521529 0.312635 0.209909
O O9 0.729255 0.943144 0.156261
O O10 0.953911 0.214229 0.952100
O O11 0.506790 0.987448 0.917758
O O12 0.633365 0.487278 0.857719
O O13 0.261361 0.333667 0.109784
O O14 0.375204 0.011889 0.734624
#
# Coordination Sequence:
#
# PCOD9117906 Si02
#       7
#     2   2   2   2   2   2   2
#     4  11  24  41  63 101 137 172 226 270 332 412
#     4  11  23  43  71  90 139 178 216 287 345 385
#     4  12  24  44  71 101 140 186 220 280 340 411
#     4  10  25  44  75  98 137 169 240 279 342 394
#     4  11  25  42  69  99 143 181 221 273 339 415
#     4  11  22  42  66  98 135 175 220 275 330 411
#     4  10  23  50  67 103 129 179 227 298 328 400
#
# _framework density 22.955342999999999
#
# number of rings (size 3 to 8) (size 9 to 14) (size 15 to 20)
#    0.000    1.143    4.286    2.571    4.000    0.000 
#    5.143    2.857    0.000    0.000    0.000    0.000 
#    0.000    0.000    0.000    0.000    0.000    0.000 
#
# Total GULP energy -78316.576543 kJ/mol
# GULP energy per Si atom -5594.041182 kJ/mol
# Density = 2.290310 g / cm^3
# Si number density = 22.955343 Si / 1000 Ang^3
#
#
#
# Elastic Constant Matrix: (Units=GPa)
#
#
# Indices 1 2 3 4 5 6 
#
# 1 26.7564 9.2387 -0.9160 0.0000 22.9810 0.0000
# 2 9.2387 47.9335 6.3330 0.0000 5.0167 0.0000
# 3 -0.9160 6.3330 128.9407 0.0000 -0.8101 0.0000
# 4 0.0000 0.0000 0.0000 34.3015 0.0000 7.7116
# 5 22.9810 5.0167 -0.8101 0.0000 29.3134 0.0000
# 6 0.0000 0.0000 0.0000 7.7116 0.0000 30.3324
#
#
#
# Elastic Compliance Matrix: (Units=1/GPa)
#
#
# Indices 1 2 3 4 5 6 
#
# 1 0.122944 -0.013990 0.000970 0.000000 -0.093964 0.000000
# 2 -0.013990 0.022982 -0.001184 0.000000 0.007002 0.000000
# 3 0.000970 -0.001184 0.007818 0.000000 -0.000342 0.000000
# 4 0.000000 0.000000 0.000000 0.030921 0.000000 -0.007861
# 5 -0.093964 0.007002 -0.000342 0.000000 0.106572 0.000000
# 6 0.000000 0.000000 0.000000 -0.007861 0.000000 0.034967
#
#
# Mechanical properties :
#
#
# Convention : Reuss Voigt Hill
#
# Bulk Modulus (GPa) = 7.97854 25.88242 16.93048
# Shear Modulus (GPa) = 12.61383 31.38781 22.00082
#
# Velocity S-wave (km/s) = 2.34667 3.70177 3.09919
# Velocity P-wave (km/s) = 3.29025 5.43787 4.49423
#
# Compressibility (1/GPa) = 0.12533627
#
# Stress axis : x y z
#
# Youngs Moduli (GPa) = 8.13381 43.51179 127.90323
#
# Poissons Ratio (x) = 0.60873 -0.12409
# Poissons Ratio (y) = 0.11379 0.15146
# Poissons Ratio (z) = -0.00789 0.05153
#
# Static dielectric constant tensor:
#      x y z
#    x 1.865580 0.000000 0.003230 
#    y 0.000000 1.863070 0.000000 
#    z 0.003230 0.000000 1.850460 
# 
# From -- ./inp_files/11475.got.cif
#   From: 2010.05.17/outbox.cif.g08.bks.cpg/sg4_6_cif.got.tgz:11475.got - 2010.06.03 18:43:04.
