data_PCOD9117871
_publ_section_title
;
Structure prediction by ZEFSAII (Michael W. Deem and Ramdas Pophale) SiO2 
 PCOD9117871
Probable space group: P 21
;
_chemical_formula_sum "Si O2"
_cell_formula_units_Z 16
_cell_length_a 7.445951
_cell_length_b 9.397497
_cell_length_c 14.643549
_cell_angle_alpha 90.000000
_cell_angle_beta 37.492988
_cell_angle_gamma 90.000000
_cell_volume 623.672460
_symmetry_space_group_name_H-M "P 21"
_symmetry_group_IT_number 4
_symmetry_cell_setting 'monoclinic'
loop_
_space_group_symop_operation_xyz
x,y,z
-x,1/2+y,-z
loop_
_atom_site_type_symbol
_atom_site_label
_atom_site_fract_x
_atom_site_fract_y
_atom_site_fract_z
Si Si1 0.375563 0.829080 0.256751
Si Si2 0.857635 0.619295 0.060638
Si Si3 0.834601 0.518331 0.409909
Si Si4 0.268248 0.708433 0.605311
Si Si5 0.315344 0.126441 0.223152
Si Si6 0.185307 0.379581 0.410120
Si Si7 0.590513 0.124569 0.912871
Si Si8 0.175326 0.847624 0.823338
O O1 0.619793 0.726921 0.203084
O O2 0.379780 0.778921 0.148924
O O3 0.056036 0.810725 0.428307
O O4 0.432405 0.996302 0.236182
O O5 0.663352 0.559040 0.052578
O O6 0.961554 0.489606 0.079797
O O7 0.108720 0.724683 0.923987
O O8 0.570757 0.630139 0.508010
O O9 0.697938 0.358132 0.461624
O O10 0.027573 0.510889 0.424645
O O11 0.092130 0.550368 0.231648
O O12 0.092258 0.765847 0.765318
O O13 0.036820 0.600207 0.653020
O O14 0.289197 0.273952 0.287364
O O15 0.485674 0.132612 0.058518
O O16 0.495658 0.403386 0.332263
#
# Coordination Sequence:
#
# PCOD9117871 Si02
#       8
#     2   2   2   2   2   2   2   2
#     4  10  25  45  76 107 148 194 250 299 379 450
#     4  10  26  44  72 111 147 195 243 320 364 446
#     4  11  26  47  72 108 150 198 253 309 378 444
#     4  11  27  46  73 110 149 196 249 319 366 448
#     4  11  26  46  76 109 147 201 249 309 377 445
#     4  11  26  44  76 107 148 202 246 309 376 447
#     4  10  23  48  69 104 144 196 245 303 371 444
#     4  12  25  46  72 108 153 188 253 310 377 442
#
# _framework density 25.654492000000001
#
# number of rings (size 3 to 8) (size 9 to 14) (size 15 to 20)
#    0.750    0.500    2.500    0.750   15.750    1.000 
#    0.000    0.000    0.000    0.000    0.000    0.000 
#    0.000    0.000    0.000    0.000    0.000    0.000 
#
# Total GULP energy -89367.420564 kJ/mol
# GULP energy per Si atom -5585.463785 kJ/mol
# Density = 2.559610 g / cm^3
# Si number density = 25.654492 Si / 1000 Ang^3
#
#
#
# Elastic Constant Matrix: (Units=GPa)
#
#
# Indices 1 2 3 4 5 6 
#
# 1 35.8698 14.4390 10.3398 0.0000 -6.8492 0.0000
# 2 14.4390 146.6957 32.7813 0.0000 -9.5045 0.0000
# 3 10.3398 32.7813 130.2764 0.0000 -8.7387 0.0000
# 4 0.0000 0.0000 0.0000 35.0878 0.0000 -4.8429
# 5 -6.8492 -9.5045 -8.7387 0.0000 43.1931 0.0000
# 6 0.0000 0.0000 0.0000 -4.8429 0.0000 30.5818
#
#
#
# Elastic Compliance Matrix: (Units=1/GPa)
#
#
# Indices 1 2 3 4 5 6 
#
# 1 0.030019 -0.002359 -0.001525 0.000000 0.003932 0.000000
# 2 -0.002359 0.007474 -0.001630 0.000000 0.000941 0.000000
# 3 -0.001525 -0.001630 0.008279 0.000000 0.001074 0.000000
# 4 0.000000 0.000000 0.000000 0.029137 0.000000 0.004614
# 5 0.003932 0.000941 0.001074 0.000000 0.024200 0.000000
# 6 0.000000 0.000000 0.000000 0.004614 0.000000 0.033430
#
#
# Mechanical properties :
#
#
# Convention : Reuss Voigt Hill
#
# Bulk Modulus (GPa) = 28.78267 47.55134 38.16700
# Shear Modulus (GPa) = 32.22707 38.79135 35.50921
#
# Velocity S-wave (km/s) = 3.54813 3.89275 3.72443
# Velocity P-wave (km/s) = 5.29427 6.22738 5.77969
#
# Compressibility (1/GPa) = 0.03474313
#
# Stress axis : x y z
#
# Youngs Moduli (GPa) = 33.31256 133.79138 120.78224
#
# Poissons Ratio (x) = 0.31563 0.18421
# Poissons Ratio (y) = 0.07859 0.19693
# Poissons Ratio (z) = 0.05081 0.21814
#
# Static dielectric constant tensor:
#      x y z
#    x 2.181940 0.000000 -0.016670 
#    y 0.000000 2.012440 0.000000 
#    z -0.016670 0.000000 2.035410 
# 
# From -- ./inp_files/14933.got.cif
#   From: 2010.05.17/outbox.cif.g08.bks.cpg/sg4_8_cif.got.tgz:14933.got - 2010.06.03 18:43:04.
