data_PCOD9117784
_publ_section_title
;
Structure prediction by ZEFSAII (Michael W. Deem and Ramdas Pophale) SiO2 
 PCOD9117784
Probable space group: P 21
;
_chemical_formula_sum "Si O2"
_cell_formula_units_Z 16
_cell_length_a 14.819818
_cell_length_b 9.375987
_cell_length_c 5.465320
_cell_angle_alpha 90.000000
_cell_angle_beta 60.185584
_cell_angle_gamma 90.000000
_cell_volume 658.893495
_symmetry_space_group_name_H-M "P 21"
_symmetry_group_IT_number 4
_symmetry_cell_setting 'monoclinic'
loop_
_space_group_symop_operation_xyz
x,y,z
-x,1/2+y,-z
loop_
_atom_site_type_symbol
_atom_site_label
_atom_site_fract_x
_atom_site_fract_y
_atom_site_fract_z
Si Si1 0.709335 0.700090 0.190643
Si Si2 0.967469 0.496092 0.193154
Si Si3 0.109173 0.295059 0.749775
Si Si4 0.273322 0.433547 0.231121
Si Si5 0.497532 0.406864 0.050719
Si Si6 0.156141 0.948230 0.146643
Si Si7 0.327345 0.719464 0.923427
Si Si8 0.510339 0.181470 0.659477
O O1 0.786950 0.708969 0.312182
O O2 0.588927 0.663341 0.381700
O O3 0.713970 0.847010 0.036811
O O4 0.764555 0.581271 0.946813
O O5 0.971432 0.669340 0.213879
O O6 0.904269 0.442374 0.515002
O O7 0.916478 0.471769 0.992004
O O8 0.067303 0.394620 0.024624
O O9 0.158753 0.400156 0.484366
O O10 0.373701 0.382979 0.255855
O O11 0.292871 0.599185 0.158409
O O12 0.581320 0.322424 0.099104
O O13 0.511721 0.573424 0.087419
O O14 0.516856 0.341772 0.755947
O O15 0.227375 0.812246 0.999434
O O16 0.382848 0.646735 0.617839
#
# Coordination Sequence:
#
# PCOD9117784 Si02
#       8
#     2   2   2   2   2   2   2   2
#     4  10  23  45  74  99 147 197 242 303 374 452
#     4  11  28  48  80 108 147 195 252 318 384 449
#     4  11  26  49  76 105 147 191 251 315 387 444
#     4  11  25  43  68 107 143 195 243 310 371 448
#     4  11  24  43  68 102 150 191 250 296 372 442
#     4  11  26  49  73 110 144 200 248 311 380 448
#     4  12  27  41  72 106 149 190 254 302 377 449
#     4  11  25  44  69 107 147 201 244 309 367 456
#
# _framework density 24.283134
#
# number of rings (size 3 to 8) (size 9 to 14) (size 15 to 20)
#    0.000    1.000    3.750    0.750   10.500    1.000 
#    4.500    0.000    0.000    0.000    0.000    0.000 
#    0.000    0.000    0.000    0.000    0.000    0.000 
#
# Total GULP energy -89377.814258 kJ/mol
# GULP energy per Si atom -5586.113391 kJ/mol
# Density = 2.422786 g / cm^3
# Si number density = 24.283134 Si / 1000 Ang^3
#
#
#
# Elastic Constant Matrix: (Units=GPa)
#
#
# Indices 1 2 3 4 5 6 
#
# 1 63.9150 21.8187 13.9797 0.0000 2.0216 0.0000
# 2 21.8187 100.9327 32.3561 0.0000 -14.1918 0.0000
# 3 13.9797 32.3561 132.8238 0.0000 -12.7958 0.0000
# 4 0.0000 0.0000 0.0000 37.8082 0.0000 -1.4324
# 5 2.0216 -14.1918 -12.7958 0.0000 28.6017 0.0000
# 6 0.0000 0.0000 0.0000 -1.4324 0.0000 30.0664
#
#
#
# Elastic Compliance Matrix: (Units=1/GPa)
#
#
# Indices 1 2 3 4 5 6 
#
# 1 0.017357 -0.003876 -0.001240 0.000000 -0.003704 0.000000
# 2 -0.003876 0.012156 -0.002033 0.000000 0.005396 0.000000
# 3 -0.001240 -0.002033 0.008429 0.000000 0.002850 0.000000
# 4 0.000000 0.000000 0.000000 0.026497 0.000000 0.001262
# 5 -0.003704 0.005396 0.002850 0.000000 0.039177 0.000000
# 6 0.000000 0.000000 0.000000 0.001262 0.000000 0.033320
#
#
# Mechanical properties :
#
#
# Convention : Reuss Voigt Hill
#
# Bulk Modulus (GPa) = 42.29259 48.22006 45.25633
# Shear Modulus (GPa) = 31.42380 34.59640 33.01010
#
# Velocity S-wave (km/s) = 3.60121 3.77863 3.69098
# Velocity P-wave (km/s) = 5.89456 6.24002 6.06975
#
# Compressibility (1/GPa) = 0.02364480
#
# Stress axis : x y z
#
# Youngs Moduli (GPa) = 57.61328 82.26429 118.63631
#
# Poissons Ratio (x) = 0.31882 0.14706
# Poissons Ratio (y) = 0.22329 0.24125
# Poissons Ratio (z) = 0.07142 0.16728
#
# Static dielectric constant tensor:
#      x y z
#    x 2.003870 0.000000 0.010760 
#    y 0.000000 1.947720 0.000000 
#    z 0.010760 0.000000 1.926230 
# 
# From -- ./inp_files/3419.got.cif
#   From: 2010.05.17/outbox.cif.g08.bks.cpg/sg4_2_cif.got.tgz:3419.got - 2010.06.03 18:43:04.
