data_PCOD9117588
_publ_section_title
;
Structure prediction by ZEFSAII (Michael W. Deem and Ramdas Pophale) SiO2 
 PCOD9117588
Probable space group: P 21
;
_chemical_formula_sum "Si O2"
_cell_formula_units_Z 16
_cell_length_a 17.366740
_cell_length_b 8.044113
_cell_length_c 9.269592
_cell_angle_alpha 90.000000
_cell_angle_beta 30.471654
_cell_angle_gamma 90.000000
_cell_volume 656.690894
_symmetry_space_group_name_H-M "P 21"
_symmetry_group_IT_number 4
_symmetry_cell_setting 'monoclinic'
loop_
_space_group_symop_operation_xyz
x,y,z
-x,1/2+y,-z
loop_
_atom_site_type_symbol
_atom_site_label
_atom_site_fract_x
_atom_site_fract_y
_atom_site_fract_z
Si Si1 0.889562 0.143130 0.605624
Si Si2 0.773241 0.618378 0.390074
Si Si3 0.664920 0.127040 0.210625
Si Si4 0.845903 0.897509 0.460562
Si Si5 0.293161 0.926218 0.224775
Si Si6 0.664714 0.517486 0.278299
Si Si7 0.798203 0.711016 0.805229
Si Si8 0.629619 0.963826 0.579114
O O1 0.755504 0.243425 0.741224
O O2 0.033303 0.252920 0.415242
O O3 0.950837 0.010699 0.389740
O O4 0.806547 0.076074 0.882926
O O5 0.893180 0.738247 0.284854
O O6 0.724574 0.478564 0.581475
O O7 0.782505 0.533613 0.220311
O O8 0.652817 0.764391 0.548004
O O9 0.666819 0.328607 0.215145
O O10 0.509257 0.054456 0.396202
O O11 0.667008 0.048295 0.367442
O O12 0.742490 0.823066 0.760046
O O13 0.752422 0.011808 0.501478
O O14 0.179256 0.037570 0.315093
O O15 0.457972 0.986600 0.905660
O O16 0.698619 0.659951 0.103387
#
# Coordination Sequence:
#
# PCOD9117588 Si02
#       8
#     2   2   2   2   2   2   2   2
#     4  12  25  43  73  99 135 186 239 274 347 422
#     4   9  24  39  64  97 141 174 220 289 345 397
#     4  12  26  41  70 104 138 178 237 285 350 408
#     4   9  25  40  70  97 136 183 225 286 349 409
#     4  11  22  44  67 104 135 183 232 283 344 418
#     4  12  25  44  68 105 138 179 230 297 341 415
#     4  11  24  48  67  98 140 182 233 282 339 418
#     4  10  23  43  65 108 139 171 232 286 353 403
#
# _framework density 24.364581999999999
#
# number of rings (size 3 to 8) (size 9 to 14) (size 15 to 20)
#    0.750    0.500    2.500    2.250    8.750    0.000 
#    0.000    3.750    0.000    0.000    0.000    0.000 
#    0.000    0.000    0.000    0.000    0.000    0.000 
#
# Total GULP energy -89117.952925 kJ/mol
# GULP energy per Si atom -5569.872058 kJ/mol
# Density = 2.430913 g / cm^3
# Si number density = 24.364582 Si / 1000 Ang^3
#
#
#
# Elastic Constant Matrix: (Units=GPa)
#
#
# Indices 1 2 3 4 5 6 
#
# 1 91.5096 40.2200 31.2482 0.0000 32.4280 0.0000
# 2 40.2200 36.8238 26.6127 0.0000 20.6103 0.0000
# 3 31.2482 26.6127 112.6751 0.0000 11.9688 0.0000
# 4 0.0000 0.0000 0.0000 25.3502 0.0000 8.0151
# 5 32.4280 20.6103 11.9688 0.0000 25.4429 0.0000
# 6 0.0000 0.0000 0.0000 8.0151 0.0000 54.3740
#
#
#
# Elastic Compliance Matrix: (Units=1/GPa)
#
#
# Indices 1 2 3 4 5 6 
#
# 1 0.024806 -0.016235 -0.001140 0.000000 -0.017928 0.000000
# 2 -0.016235 0.067917 -0.008308 0.000000 -0.030416 0.000000
# 3 -0.001140 -0.008308 0.010825 0.000000 0.003091 0.000000
# 4 0.000000 0.000000 0.000000 0.041376 0.000000 -0.006099
# 5 -0.017928 -0.030416 0.003091 0.000000 0.085339 0.000000
# 6 0.000000 0.000000 0.000000 -0.006099 0.000000 0.019290
#
#
# Mechanical properties :
#
#
# Convention : Reuss Voigt Hill
#
# Bulk Modulus (GPa) = 19.16397 48.57447 33.86922
# Shear Modulus (GPa) = 15.70776 30.56193 23.13484
#
# Velocity S-wave (km/s) = 2.54184 3.54554 3.08478
# Velocity P-wave (km/s) = 4.06167 6.06143 5.15936
#
# Compressibility (1/GPa) = 0.05218126
#
# Stress axis : x y z
#
# Youngs Moduli (GPa) = 40.31262 14.72385 92.37660
#
# Poissons Ratio (x) = 0.23905 0.10535
# Poissons Ratio (y) = 0.65449 0.76745
# Poissons Ratio (z) = 0.04597 0.12232
#
# Static dielectric constant tensor:
#      x y z
#    x 1.931940 0.000000 0.033380 
#    y 0.000000 2.088540 0.000000 
#    z 0.033380 0.000000 1.896490 
# 
# From -- ./inp_files/9667.got.cif
#   From: 2010.05.17/outbox.cif.g08.bks.cpg/sg4_5_cif.got.tgz:9667.got - 2010.06.03 18:43:04.
