data_PCOD9117765
_publ_section_title
;
Structure prediction by ZEFSAII (Michael W. Deem and Ramdas Pophale) SiO2 
 PCOD9117765
Probable space group: P 21
;
_chemical_formula_sum "Si O2"
_cell_formula_units_Z 14
_cell_length_a 5.040751
_cell_length_b 18.551495
_cell_length_c 5.613006
_cell_angle_alpha 90.000000
_cell_angle_beta 87.572412
_cell_angle_gamma 90.000000
_cell_volume 524.420588
_symmetry_space_group_name_H-M "P 21"
_symmetry_group_IT_number 4
_symmetry_cell_setting 'monoclinic'
loop_
_space_group_symop_operation_xyz
x,y,z
-x,1/2+y,-z
loop_
_atom_site_type_symbol
_atom_site_label
_atom_site_fract_x
_atom_site_fract_y
_atom_site_fract_z
Si Si1 0.823632 0.068610 0.436224
Si Si2 0.977072 0.813031 0.545607
Si Si3 0.328641 0.023428 0.157981
Si Si4 0.646374 0.740125 0.934656
Si Si5 0.379733 0.390252 0.820622
Si Si6 0.847057 0.199884 0.794439
Si Si7 0.023170 0.954581 0.796640
O O1 0.578074 0.061432 0.268454
O O2 0.802260 0.133351 0.622806
O O3 0.085185 0.069396 0.264794
O O4 0.871251 0.997903 0.597978
O O5 0.810783 0.750853 0.687417
O O6 0.766870 0.856880 0.397551
O O7 0.099452 0.873652 0.713725
O O8 0.181214 0.772005 0.366988
O O9 0.368854 0.940191 0.247308
O O10 0.262281 0.005351 0.884300
O O11 0.366689 0.701689 0.984811
O O12 0.582535 0.822807 0.007943
O O13 0.857311 0.705863 0.110999
O O14 0.177518 0.441981 0.974968
#
# Coordination Sequence:
#
# PCOD9117765 Si02
#       7
#     2   2   2   2   2   2   2
#     4  12  28  47  76 105 158 202 244 313 379 444
#     4  10  23  49  77 111 146 204 243 332 374 432
#     4  12  25  46  72 111 146 193 250 308 371 459
#     4  10  25  43  74 103 145 192 249 310 374 448
#     4  10  23  45  71 114 143 181 256 309 372 450
#     4  11  26  52  68 112 151 200 259 300 376 471
#     4  11  24  46  74 114 147 196 253 316 382 442
#
# _framework density 26.696128999999999
#
# number of rings (size 3 to 8) (size 9 to 14) (size 15 to 20)
#    0.000    1.143    2.857    0.857   10.000    3.429 
#    5.143    0.000    0.000    0.000    0.000    0.000 
#    0.000    0.000    0.000    0.000    0.000    0.000 
#
# Total GULP energy -78432.779324 kJ/mol
# GULP energy per Si atom -5602.341380 kJ/mol
# Density = 2.663537 g / cm^3
# Si number density = 26.696129 Si / 1000 Ang^3
#
#
#
# Elastic Constant Matrix: (Units=GPa)
#
#
# Indices 1 2 3 4 5 6 
#
# 1 140.3782 11.8214 27.4328 0.0000 14.9437 0.0000
# 2 11.8214 94.0072 9.7331 0.0000 -9.6997 0.0000
# 3 27.4328 9.7331 61.3569 0.0000 -11.9479 0.0000
# 4 0.0000 0.0000 0.0000 62.7712 0.0000 -7.9017
# 5 14.9437 -9.6997 -11.9479 0.0000 31.9086 0.0000
# 6 0.0000 0.0000 0.0000 -7.9017 0.0000 13.0032
#
#
#
# Elastic Compliance Matrix: (Units=1/GPa)
#
#
# Indices 1 2 3 4 5 6 
#
# 1 0.008898 -0.001262 -0.005031 0.000000 -0.006435 0.000000
# 2 -0.001262 0.011240 -0.000473 0.000000 0.003831 0.000000
# 3 -0.005031 -0.000473 0.020552 0.000000 0.009908 0.000000
# 4 0.000000 0.000000 0.000000 0.017250 0.000000 0.010483
# 5 -0.006435 0.003831 0.009908 0.000000 0.039228 0.000000
# 6 0.000000 0.000000 0.000000 0.010483 0.000000 0.083274
#
#
# Mechanical properties :
#
#
# Convention : Reuss Voigt Hill
#
# Bulk Modulus (GPa) = 36.82106 43.74633 40.28369
# Shear Modulus (GPa) = 24.62719 37.98693 31.30706
#
# Velocity S-wave (km/s) = 3.04056 3.77628 3.42821
# Velocity P-wave (km/s) = 5.11364 5.95282 5.54911
#
# Compressibility (1/GPa) = 0.02715837
#
# Stress axis : x y z
#
# Youngs Moduli (GPa) = 112.38380 88.96482 48.65719
#
# Poissons Ratio (x) = 0.11227 0.24480
# Poissons Ratio (y) = 0.14182 0.02301
# Poissons Ratio (z) = 0.56542 0.04207
#
# Static dielectric constant tensor:
#      x y z
#    x 2.099960 0.000000 -0.012730 
#    y 0.000000 2.098270 0.000000 
#    z -0.012730 0.000000 2.087300 
# 
# From -- ./inp_files/623.got.cif
#   From: 2010.05.17/outbox.cif.g08.bks.cpg/sg4_1_cif.got.tgz:623.got - 2010.06.03 18:43:04.
