data_PCOD9117236
_publ_section_title
;
Structure prediction by ZEFSAII (Michael W. Deem and Ramdas Pophale) SiO2 
 PCOD9117236
Probable space group: P 21
;
_chemical_formula_sum "Si O2"
_cell_formula_units_Z 16
_cell_length_a 20.214387
_cell_length_b 4.933250
_cell_length_c 16.043762
_cell_angle_alpha 90.000000
_cell_angle_beta 153.954549
_cell_angle_gamma 90.000000
_cell_volume 702.501924
_symmetry_space_group_name_H-M "P 21"
_symmetry_group_IT_number 4
_symmetry_cell_setting 'monoclinic'
loop_
_space_group_symop_operation_xyz
x,y,z
-x,1/2+y,-z
loop_
_atom_site_type_symbol
_atom_site_label
_atom_site_fract_x
_atom_site_fract_y
_atom_site_fract_z
Si Si1 0.038327 0.508770 0.815764
Si Si2 0.979384 0.342002 0.373144
Si Si3 0.255738 0.209091 0.961508
Si Si4 0.038734 0.150757 0.095155
Si Si5 0.740365 0.980014 0.200857
Si Si6 0.733398 0.362661 0.541686
Si Si7 0.502899 0.959343 0.036619
Si Si8 0.543974 0.872435 0.276968
O O1 0.012524 0.690483 0.705912
O O2 0.193294 0.348925 0.973737
O O3 0.042008 0.674874 0.906323
O O4 0.884013 0.337744 0.654818
O O5 0.900627 0.623391 0.259997
O O6 0.137082 0.354560 0.595764
O O7 0.859898 0.206482 0.298718
O O8 0.322714 0.396862 0.964667
O O9 0.373245 0.963846 0.106761
O O10 0.195934 0.000524 0.295878
O O11 0.048697 0.438123 0.062271
O O12 0.602918 0.735275 0.089621
O O13 0.652120 0.076450 0.450145
O O14 0.611038 0.576235 0.368643
O O15 0.619071 0.194172 0.112311
O O16 0.557610 0.931965 0.193111
#
# Coordination Sequence:
#
# PCOD9117236 Si02
#       8
#     2   2   2   2   2   2   2   2
#     4   9  25  39  70 101 124 174 228 276 345 406
#     4  11  22  39  60  88 133 169 241 274 342 377
#     4  11  24  41  62  92 136 184 229 279 346 386
#     4  10  22  44  76 108 133 159 218 282 347 420
#     4  11  23  37  57  86 123 185 229 290 313 390
#     4  10  25  42  69 103 127 173 217 273 347 401
#     4  12  25  39  59  85 128 179 237 270 336 374
#     4  12  24  43  63  95 142 177 227 280 332 416
#
# _framework density 22.775736999999999
#
# number of rings (size 3 to 8) (size 9 to 14) (size 15 to 20)
#    0.750    0.500    2.500    3.000    8.750    0.000 
#    0.000    0.000    0.000    3.000    0.000    0.000 
#    0.000    0.000    0.000    0.000    0.000    0.000 
#
# Total GULP energy -89221.277145 kJ/mol
# GULP energy per Si atom -5576.329822 kJ/mol
# Density = 2.272390 g / cm^3
# Si number density = 22.775737 Si / 1000 Ang^3
#
#
#
# Elastic Constant Matrix: (Units=GPa)
#
#
# Indices 1 2 3 4 5 6 
#
# 1 109.0010 20.9123 35.1780 0.0000 11.7699 0.0000
# 2 20.9123 116.8078 12.6703 0.0000 0.8247 0.0000
# 3 35.1780 12.6703 86.7754 0.0000 15.6807 0.0000
# 4 0.0000 0.0000 0.0000 46.4955 0.0000 -4.3842
# 5 11.7699 0.8247 15.6807 0.0000 28.4775 0.0000
# 6 0.0000 0.0000 0.0000 -4.3842 0.0000 22.0543
#
#
#
# Elastic Compliance Matrix: (Units=1/GPa)
#
#
# Indices 1 2 3 4 5 6 
#
# 1 0.010947 -0.001533 -0.003781 0.000000 -0.002398 0.000000
# 2 -0.001533 0.008920 -0.000832 0.000000 0.000833 0.000000
# 3 -0.003781 -0.000832 0.014316 0.000000 -0.006296 0.000000
# 4 0.000000 0.000000 0.000000 0.021918 0.000000 0.004357
# 5 -0.002398 0.000833 -0.006296 0.000000 0.039550 0.000000
# 6 0.000000 0.000000 0.000000 0.004357 0.000000 0.046209
#
#
# Mechanical properties :
#
#
# Convention : Reuss Voigt Hill
#
# Bulk Modulus (GPa) = 45.67728 50.01173 47.84450
# Shear Modulus (GPa) = 30.96977 35.66037 33.31507
#
# Velocity S-wave (km/s) = 3.69151 3.96121 3.82873
# Velocity P-wave (km/s) = 6.18615 6.55191 6.37165
#
# Compressibility (1/GPa) = 0.02189272
#
# Stress axis : x y z
#
# Youngs Moduli (GPa) = 91.34523 112.10981 69.85264
#
# Poissons Ratio (x) = 0.17185 0.26410
# Poissons Ratio (y) = 0.14002 0.05808
# Poissons Ratio (z) = 0.34536 0.09322
#
# Static dielectric constant tensor:
#      x y z
#    x 1.933030 0.000000 0.071580 
#    y 0.000000 1.942820 0.000000 
#    z 0.071580 0.000000 1.870950 
# 
# From -- ./inp_files/14398.got.cif
#   From: 2010.05.17/outbox.cif.g08.bks.cpg/sg4_8_cif.got.tgz:14398.got - 2010.06.03 18:43:04.
