data_PCOD9117332
_publ_section_title
;
Structure prediction by ZEFSAII (Michael W. Deem and Ramdas Pophale) SiO2 
 PCOD9117332
Probable space group: P 21
;
_chemical_formula_sum "Si O2"
_cell_formula_units_Z 14
_cell_length_a 12.090855
_cell_length_b 9.698088
_cell_length_c 13.127666
_cell_angle_alpha 90.000000
_cell_angle_beta 157.699312
_cell_angle_gamma 90.000000
_cell_volume 584.123897
_symmetry_space_group_name_H-M "P 21"
_symmetry_group_IT_number 4
_symmetry_cell_setting 'monoclinic'
loop_
_space_group_symop_operation_xyz
x,y,z
-x,1/2+y,-z
loop_
_atom_site_type_symbol
_atom_site_label
_atom_site_fract_x
_atom_site_fract_y
_atom_site_fract_z
Si Si1 0.999867 0.686390 0.205574
Si Si2 0.500948 0.367968 0.295358
Si Si3 0.872737 0.009319 0.503090
Si Si4 0.788328 0.957145 0.747018
Si Si5 0.575126 0.352839 0.738500
Si Si6 0.396198 0.623024 0.076001
Si Si7 0.972976 0.214733 0.422304
O O1 0.178669 0.812324 0.407574
O O2 0.948813 0.577941 0.252619
O O3 0.205938 0.607633 0.300049
O O4 0.712232 0.739643 0.906560
O O5 0.382751 0.444688 0.294681
O O6 0.461141 0.468396 0.165871
O O7 0.590533 0.944499 0.317401
O O8 0.042297 0.880136 0.597286
O O9 0.805646 0.129948 0.366050
O O10 0.645595 0.852501 0.543855
O O11 0.126052 0.917826 0.046030
O O12 0.640256 0.211859 0.852178
O O13 0.687921 0.679807 0.270987
O O14 0.129668 0.652681 0.773476
#
# Coordination Sequence:
#
# PCOD9117332 Si02
#       7
#     2   2   2   2   2   2   2
#     4  11  25  46  65 103 141 180 231 292 349 404
#     4  12  27  40  72 100 141 181 231 293 340 424
#     4  10  25  48  74 105 139 185 231 292 349 416
#     4  11  24  43  70  98 133 186 227 281 354 411
#     4  10  22  46  70  96 140 177 229 286 341 422
#     4  11  25  44  65 103 135 180 230 287 343 407
#     4  11  26  45  76  99 137 185 233 285 352 412
#
# _framework density 23.967517999999998
#
# number of rings (size 3 to 8) (size 9 to 14) (size 15 to 20)
#    0.000    1.143    0.000    6.000    8.000    6.857 
#    0.000    0.000    0.000    0.000    0.000    0.000 
#    0.000    0.000    0.000    0.000    0.000    0.000 
#
# Total GULP energy -78398.490637 kJ/mol
# GULP energy per Si atom -5599.892188 kJ/mol
# Density = 2.391297 g / cm^3
# Si number density = 23.967518 Si / 1000 Ang^3
#
#
#
# Elastic Constant Matrix: (Units=GPa)
#
#
# Indices 1 2 3 4 5 6 
#
# 1 75.4396 32.7347 -1.0294 0.0000 -11.1871 0.0000
# 2 32.7347 88.4567 0.0634 0.0000 -9.3833 0.0000
# 3 -1.0294 0.0634 73.2831 0.0000 -2.7960 0.0000
# 4 0.0000 0.0000 0.0000 23.2828 0.0000 -6.9672
# 5 -11.1871 -9.3833 -2.7960 0.0000 27.2534 0.0000
# 6 0.0000 0.0000 0.0000 -6.9672 0.0000 38.6593
#
#
#
# Elastic Compliance Matrix: (Units=1/GPa)
#
#
# Indices 1 2 3 4 5 6 
#
# 1 0.016390 -0.005550 0.000420 0.000000 0.004860 0.000000
# 2 -0.005550 0.013615 0.000002 0.000000 0.002409 0.000000
# 3 0.000420 0.000002 0.013712 0.000000 0.001580 0.000000
# 4 0.000000 0.000000 0.000000 0.045398 0.000000 0.008182
# 5 0.004860 0.002409 0.001580 0.000000 0.039679 0.000000
# 6 0.000000 0.000000 0.000000 0.008182 0.000000 0.027341
#
#
# Mechanical properties :
#
#
# Convention : Reuss Voigt Hill
#
# Bulk Modulus (GPa) = 29.88497 33.41297 31.64897
# Shear Modulus (GPa) = 28.16183 31.53316 29.84750
#
# Velocity S-wave (km/s) = 3.43155 3.63114 3.53275
# Velocity P-wave (km/s) = 5.31006 5.61707 5.46572
#
# Compressibility (1/GPa) = 0.03346163
#
# Stress axis : x y z
#
# Youngs Moduli (GPa) = 61.01099 73.45105 72.92934
#
# Poissons Ratio (x) = 0.40767 -0.03066
# Poissons Ratio (y) = 0.33863 -0.00016
# Poissons Ratio (z) = -0.02565 -0.00016
#
# Static dielectric constant tensor:
#      x y z
#    x 1.918990 0.000000 -0.003600 
#    y 0.000000 1.953970 0.000000 
#    z -0.003600 0.000000 1.828880 
# 
# From -- ./inp_files/2462.got.cif
#   From: 2010.05.17/outbox.cif.g08.bks.cpg/sg4_2_cif.got.tgz:2462.got - 2010.06.03 18:43:04.
