data_PCOD9117093
_publ_section_title
;
Structure prediction by ZEFSAII (Michael W. Deem and Ramdas Pophale) SiO2 
 PCOD9117093
Probable space group: P 21
;
_chemical_formula_sum "Si O2"
_cell_formula_units_Z 14
_cell_length_a 5.240524
_cell_length_b 8.537089
_cell_length_c 11.860353
_cell_angle_alpha 90.000000
_cell_angle_beta 100.999380
_cell_angle_gamma 90.000000
_cell_volume 520.870340
_symmetry_space_group_name_H-M "P 21"
_symmetry_group_IT_number 4
_symmetry_cell_setting 'monoclinic'
loop_
_space_group_symop_operation_xyz
x,y,z
-x,1/2+y,-z
loop_
_atom_site_type_symbol
_atom_site_label
_atom_site_fract_x
_atom_site_fract_y
_atom_site_fract_z
Si Si1 0.675209 0.534450 0.949676
Si Si2 0.923207 0.159660 0.318274
Si Si3 0.852026 0.151732 0.917500
Si Si4 0.529896 0.194565 0.664573
Si Si5 0.453247 0.039085 0.434965
Si Si6 0.778433 0.855355 0.196881
Si Si7 0.612403 0.320355 0.117801
O O1 0.538975 0.488375 0.060559
O O2 0.971508 0.516758 0.012217
O O3 0.512315 0.420193 0.853669
O O4 0.625129 0.700732 0.883848
O O5 0.208794 0.155737 0.393386
O O6 0.703391 0.102865 0.387924
O O7 0.807755 0.305824 0.238585
O O8 0.933524 0.013590 0.231834
O O9 0.700197 0.137927 0.785718
O O10 0.095894 0.256383 0.889764
O O11 0.734039 0.236336 0.017562
O O12 0.512219 0.058598 0.571722
O O13 0.609476 0.360025 0.609525
O O14 0.254939 0.245261 0.697409
#
# Coordination Sequence:
#
# PCOD9117093 Si02
#       7
#     2   2   2   2   2   2   2
#     4  11  23  41  63 106 140 185 232 290 369 436
#     4  10  25  45  72 101 141 191 239 294 362 433
#     4  12  23  41  73 103 141 189 241 293 372 440
#     4  11  25  47  70 103 136 194 239 306 353 432
#     4  11  26  47  76  98 143 191 247 295 363 420
#     4  10  22  43  68  98 145 186 232 289 373 427
#     4  11  26  40  70 101 146 186 236 299 368 438
#
# _framework density 26.878093
#
# number of rings (size 3 to 8) (size 9 to 14) (size 15 to 20)
#    0.000    1.143    4.286    0.000   12.000    1.143 
#    5.143    0.000    0.000    0.000    0.000    0.000 
#    0.000    0.000    0.000    0.000    0.000    0.000 
#
# Total GULP energy -78142.823087 kJ/mol
# GULP energy per Si atom -5581.630220 kJ/mol
# Density = 2.681692 g / cm^3
# Si number density = 26.878093 Si / 1000 Ang^3
#
#
#
# Elastic Constant Matrix: (Units=GPa)
#
#
# Indices 1 2 3 4 5 6 
#
# 1 70.6904 -3.0661 47.2409 0.0000 14.3628 0.0000
# 2 -3.0661 59.3056 30.4154 0.0000 -6.3136 0.0000
# 3 47.2409 30.4154 157.7660 0.0000 5.6649 0.0000
# 4 0.0000 0.0000 0.0000 50.3493 0.0000 0.6901
# 5 14.3628 -6.3136 5.6649 0.0000 37.8507 0.0000
# 6 0.0000 0.0000 0.0000 0.6901 0.0000 36.9313
#
#
#
# Elastic Compliance Matrix: (Units=1/GPa)
#
#
# Indices 1 2 3 4 5 6 
#
# 1 0.019810 0.003689 -0.006430 0.000000 -0.005939 0.000000
# 2 0.003689 0.019923 -0.005042 0.000000 0.002678 0.000000
# 3 -0.006430 -0.005042 0.009228 0.000000 0.000218 0.000000
# 4 0.000000 0.000000 0.000000 0.019866 0.000000 -0.000371
# 5 -0.005939 0.002678 0.000218 0.000000 0.029087 0.000000
# 6 0.000000 0.000000 0.000000 -0.000371 0.000000 0.027084
#
#
# Mechanical properties :
#
#
# Convention : Reuss Voigt Hill
#
# Bulk Modulus (GPa) = 29.94298 48.54915 39.24606
# Shear Modulus (GPa) = 32.96062 39.23770 36.09916
#
# Velocity S-wave (km/s) = 3.50566 3.82493 3.66877
# Velocity P-wave (km/s) = 5.24887 6.13259 5.70786
#
# Compressibility (1/GPa) = 0.03339681
#
# Stress axis : x y z
#
# Youngs Moduli (GPa) = 50.47983 50.19217 108.36547
#
# Poissons Ratio (x) = -0.18518 0.69677
# Poissons Ratio (y) = -0.18624 0.54637
# Poissons Ratio (z) = 0.32458 0.25306
#
# Static dielectric constant tensor:
#      x y z
#    x 2.285270 0.000000 0.005180 
#    y 0.000000 2.520910 0.000000 
#    z 0.005180 0.000000 2.078820 
# 
# From -- ./inp_files/2496.got.cif
#   From: 2010.05.17/outbox.cif.g08.bks.cpg/sg4_2_cif.got.tgz:2496.got - 2010.06.03 18:43:04.
