data_PCOD9117058
_publ_section_title
;
Structure prediction by ZEFSAII (Michael W. Deem and Ramdas Pophale) SiO2 
 PCOD9117058
Probable space group: P 21
;
_chemical_formula_sum "Si O2"
_cell_formula_units_Z 16
_cell_length_a 7.985572
_cell_length_b 12.054305
_cell_length_c 8.687814
_cell_angle_alpha 90.000000
_cell_angle_beta 129.590845
_cell_angle_gamma 90.000000
_cell_volume 644.460384
_symmetry_space_group_name_H-M "P 21"
_symmetry_group_IT_number 4
_symmetry_cell_setting 'monoclinic'
loop_
_space_group_symop_operation_xyz
x,y,z
-x,1/2+y,-z
loop_
_atom_site_type_symbol
_atom_site_label
_atom_site_fract_x
_atom_site_fract_y
_atom_site_fract_z
Si Si1 0.448627 0.604250 0.931671
Si Si2 0.266912 0.473238 0.567554
Si Si3 0.387324 0.980611 0.487701
Si Si4 0.393246 0.280224 0.228230
Si Si5 0.214465 0.248275 0.451446
Si Si6 0.644289 0.184276 0.805346
Si Si7 0.982117 0.337980 0.812661
Si Si8 0.088938 0.144014 0.659192
O O1 0.307931 0.652697 0.990893
O O2 0.690484 0.588577 0.147168
O O3 0.337247 0.499689 0.783698
O O4 0.500204 0.693961 0.826933
O O5 0.485276 0.475828 0.597206
O O6 0.120725 0.369597 0.423473
O O7 0.121372 0.575388 0.425528
O O8 0.434949 0.868071 0.610360
O O9 0.138383 0.952811 0.295933
O O10 0.522849 0.078035 0.654376
O O11 0.284570 0.225451 0.318048
O O12 0.199707 0.349815 0.038557
O O13 0.435555 0.264775 0.682115
O O14 0.095789 0.154848 0.478339
O O15 0.828366 0.250937 0.820712
O O16 0.058085 0.265928 0.710844
#
# Coordination Sequence:
#
# PCOD9117058 Si02
#       8
#     2   2   2   2   2   2   2   2
#     4  10  24  40  65  95 131 166 213 266 317 387
#     4  11  21  41  67  90 128 174 214 265 323 382
#     4  11  23  43  67  92 131 170 218 262 326 383
#     4  10  22  43  65  98 130 168 213 269 318 386
#     4  10  23  43  64  94 133 166 219 269 324 381
#     4  11  22  43  64  95 129 170 214 264 323 382
#     4  11  22  42  65  94 128 170 210 270 320 380
#     4  10  23  41  63  96 132 166 215 269 319 383
#
# _framework density 24.826969999999999
#
# number of rings (size 3 to 8) (size 9 to 14) (size 15 to 20)
#    0.000    1.500    3.750    1.500    1.750    7.000 
#    2.250    0.000    0.000    0.000    0.000    0.000 
#    0.000    0.000    0.000    0.000    0.000    0.000 
#
# Total GULP energy -89262.202123 kJ/mol
# GULP energy per Si atom -5578.887633 kJ/mol
# Density = 2.477046 g / cm^3
# Si number density = 24.826970 Si / 1000 Ang^3
#
#
#
# Elastic Constant Matrix: (Units=GPa)
#
#
# Indices 1 2 3 4 5 6 
#
# 1 78.9542 20.3304 21.6097 0.0000 -22.5983 0.0000
# 2 20.3304 73.6596 20.2520 0.0000 -18.7400 0.0000
# 3 21.6097 20.2520 86.8088 0.0000 -20.7569 0.0000
# 4 0.0000 0.0000 0.0000 43.3541 0.0000 -0.8655
# 5 -22.5983 -18.7400 -20.7569 0.0000 48.7671 0.0000
# 6 0.0000 0.0000 0.0000 -0.8655 0.0000 16.2067
#
#
#
# Elastic Compliance Matrix: (Units=1/GPa)
#
#
# Indices 1 2 3 4 5 6 
#
# 1 0.015346 -0.002321 -0.001995 0.000000 0.005370 0.000000
# 2 -0.002321 0.015849 -0.002138 0.000000 0.004105 0.000000
# 3 -0.001995 -0.002138 0.013468 0.000000 0.003987 0.000000
# 4 0.000000 0.000000 0.000000 0.023090 0.000000 0.001233
# 5 0.005370 0.004105 0.003987 0.000000 0.026268 0.000000
# 6 0.000000 0.000000 0.000000 0.001233 0.000000 0.061769
#
#
# Mechanical properties :
#
#
# Convention : Reuss Voigt Hill
#
# Bulk Modulus (GPa) = 31.49044 40.42299 35.95672
# Shear Modulus (GPa) = 27.88880 33.48095 30.68488
#
# Velocity S-wave (km/s) = 3.35524 3.67627 3.51942
# Velocity P-wave (km/s) = 5.26514 5.85980 5.57041
#
# Compressibility (1/GPa) = 0.03175566
#
# Stress axis : x y z
#
# Youngs Moduli (GPa) = 65.16246 63.09661 74.24920
#
# Poissons Ratio (x) = 0.14644 0.14810
# Poissons Ratio (y) = 0.15124 0.15876
# Poissons Ratio (z) = 0.12997 0.13491
#
# Static dielectric constant tensor:
#      x y z
#    x 1.989060 0.000000 -0.022710 
#    y 0.000000 2.144910 0.000000 
#    z -0.022710 0.000000 1.960190 
# 
# From -- ./inp_files/6400.got.cif
#   From: 2010.05.17/outbox.cif.g08.bks.cpg/sg4_4_cif.got.tgz:6400.got - 2010.06.03 18:43:04.
