data_PCOD9117531
_publ_section_title
;
Structure prediction by ZEFSAII (Michael W. Deem and Ramdas Pophale) SiO2 
 PCOD9117531
Probable space group: P 21
;
_chemical_formula_sum "Si O2"
_cell_formula_units_Z 16
_cell_length_a 19.772438
_cell_length_b 5.278680
_cell_length_c 12.511269
_cell_angle_alpha 90.000000
_cell_angle_beta 150.669760
_cell_angle_gamma 90.000000
_cell_volume 639.651638
_symmetry_space_group_name_H-M "P 21"
_symmetry_group_IT_number 4
_symmetry_cell_setting 'monoclinic'
loop_
_space_group_symop_operation_xyz
x,y,z
-x,1/2+y,-z
loop_
_atom_site_type_symbol
_atom_site_label
_atom_site_fract_x
_atom_site_fract_y
_atom_site_fract_z
Si Si1 0.086486 0.317760 0.623489
Si Si2 0.692258 0.561297 0.459246
Si Si3 0.114299 0.181020 0.896193
Si Si4 0.183167 0.433980 0.542507
Si Si5 0.547011 0.166515 0.020285
Si Si6 0.604542 0.443832 0.740681
Si Si7 0.976102 0.374767 0.897060
Si Si8 0.499819 0.450700 0.364247
O O1 0.146435 0.290533 0.823799
O O2 0.173537 0.261020 0.636620
O O3 0.032658 0.604715 0.541740
O O4 0.758320 0.786754 0.479852
O O5 0.539561 0.536876 0.195758
O O6 0.642905 0.557965 0.513755
O O7 0.819146 0.363838 0.635282
O O8 0.082088 0.381436 0.944149
O O9 0.246045 0.010726 0.098362
O O10 0.971646 0.024036 0.693722
O O11 0.290584 0.643565 0.733820
O O12 0.491448 0.961874 0.031685
O O13 0.507875 0.414701 0.503522
O O14 0.606856 0.176655 0.803125
O O15 0.542655 0.668533 0.728456
O O16 0.009295 0.126945 0.012338
#
# Coordination Sequence:
#
# PCOD9117531 Si02
#       8
#     2   2   2   2   2   2   2   2
#     4  10  23  42  65  97 137 178 223 278 337 413
#     4  11  24  45  73 101 143 183 229 287 359 401
#     4  11  24  45  73 101 143 183 229 287 359 401
#     4  10  23  46  70 108 138 180 235 290 344 416
#     4  10  23  42  65  97 137 178 223 278 337 413
#     4  10  24  44  66  96 135 182 233 280 337 416
#     4  12  27  44  72 110 142 178 231 294 352 416
#     4  10  24  44  66  96 135 182 233 280 337 416
#
# _framework density 25.013615000000001
#
# number of rings (size 3 to 8) (size 9 to 14) (size 15 to 20)
#    0.000    1.500    0.000    3.000    1.750   16.000 
#    9.000    0.000    0.000    0.000    0.000    0.000 
#    0.000    0.000    0.000    0.000    0.000    0.000 
#
# Total GULP energy -89204.595247 kJ/mol
# GULP energy per Si atom -5575.287203 kJ/mol
# Density = 2.495668 g / cm^3
# Si number density = 25.013615 Si / 1000 Ang^3
#
#
#
# Elastic Constant Matrix: (Units=GPa)
#
#
# Indices 1 2 3 4 5 6 
#
# 1 47.7059 32.2254 0.0467 0.0000 -2.3660 0.0000
# 2 32.2254 97.9271 28.0707 0.0000 1.7729 0.0000
# 3 0.0467 28.0707 84.6766 0.0000 10.2581 0.0000
# 4 0.0000 0.0000 0.0000 33.9652 0.0000 8.7101
# 5 -2.3660 1.7729 10.2581 0.0000 36.6371 0.0000
# 6 0.0000 0.0000 0.0000 8.7101 0.0000 26.6702
#
#
#
# Elastic Compliance Matrix: (Units=1/GPa)
#
#
# Indices 1 2 3 4 5 6 
#
# 1 0.027848 -0.010096 0.003162 0.000000 0.001402 0.000000
# 2 -0.010096 0.014953 -0.004953 0.000000 0.000011 0.000000
# 3 0.003162 -0.004953 0.013866 0.000000 -0.003439 0.000000
# 4 0.000000 0.000000 0.000000 0.032133 0.000000 -0.010494
# 5 0.001402 0.000011 -0.003439 0.000000 0.028348 0.000000
# 6 0.000000 0.000000 0.000000 -0.010494 0.000000 0.040922
#
#
# Mechanical properties :
#
#
# Convention : Reuss Voigt Hill
#
# Bulk Modulus (GPa) = 30.40100 38.99946 34.70023
# Shear Modulus (GPa) = 25.93238 30.78562 28.35900
#
# Velocity S-wave (km/s) = 3.22332 3.51202 3.37076
# Velocity P-wave (km/s) = 5.10228 5.66311 5.38999
#
# Compressibility (1/GPa) = 0.03289366
#
# Stress axis : x y z
#
# Youngs Moduli (GPa) = 35.90942 66.87405 72.11682
#
# Poissons Ratio (x) = 0.67514 -0.22801
# Poissons Ratio (y) = 0.36253 0.35719
# Poissons Ratio (z) = -0.11353 0.33122
#
# Static dielectric constant tensor:
#      x y z
#    x 2.085220 0.000000 -0.046580 
#    y 0.000000 2.027700 0.000000 
#    z -0.046580 0.000000 2.019520 
# 
# From -- ./inp_files/12845.got.cif
#   From: 2010.05.17/outbox.cif.g08.bks.cpg/sg4_7_cif.got.tgz:12845.got - 2010.06.03 18:43:04.
