data_PCOD9117423
_publ_section_title
;
Structure prediction by ZEFSAII (Michael W. Deem and Ramdas Pophale) SiO2 
 PCOD9117423
Probable space group: P 21
;
_chemical_formula_sum "Si O2"
_cell_formula_units_Z 14
_cell_length_a 11.650977
_cell_length_b 7.476177
_cell_length_c 7.705069
_cell_angle_alpha 90.000000
_cell_angle_beta 62.591232
_cell_angle_gamma 90.000000
_cell_volume 595.808456
_symmetry_space_group_name_H-M "P 21"
_symmetry_group_IT_number 4
_symmetry_cell_setting 'monoclinic'
loop_
_space_group_symop_operation_xyz
x,y,z
-x,1/2+y,-z
loop_
_atom_site_type_symbol
_atom_site_label
_atom_site_fract_x
_atom_site_fract_y
_atom_site_fract_z
Si Si1 0.438803 0.760210 0.076499
Si Si2 0.711724 0.204631 0.148787
Si Si3 0.906473 0.868488 0.564251
Si Si4 0.254726 0.010458 0.650236
Si Si5 0.294423 0.629833 0.483916
Si Si6 0.675970 0.637334 0.743734
Si Si7 0.019823 0.645469 0.202548
O O1 0.415373 0.660473 0.274100
O O2 0.370179 0.949815 0.149116
O O3 0.362201 0.662707 0.974716
O O4 0.583336 0.774477 0.906602
O O5 0.686292 0.411820 0.223983
O O6 0.671432 0.084584 0.341363
O O7 0.864459 0.181326 0.009411
O O8 0.823700 0.691994 0.668815
O O9 0.010655 0.804032 0.351162
O O10 0.805859 0.997350 0.534067
O O11 0.950635 0.970054 0.703774
O O12 0.229136 0.826846 0.556252
O O13 0.338369 0.126844 0.456805
O O14 0.122101 0.114523 0.779301
#
# Coordination Sequence:
#
# PCOD9117423 Si02
#       7
#     2   2   2   2   2   2   2
#     4  11  21  45  67  91 127 171 206 270 319 374
#     4  10  23  39  66  92 130 165 211 259 327 371
#     4  11  22  39  64  99 124 174 209 264 316 376
#     4   8  21  42  56  97 126 159 214 263 301 389
#     4   9  20  40  61  92 132 154 216 257 304 388
#     4  10  23  42  70  90 128 165 217 262 323 376
#     4  11  22  37  66  91 133 170 211 261 318 378
#
# _framework density 23.497484
#
# number of rings (size 3 to 8) (size 9 to 14) (size 15 to 20)
#    0.857    1.143    1.429    1.714    6.000    0.000 
#    7.714    0.000    0.000    0.000    0.000    0.000 
#    0.000    0.000    0.000    0.000    0.000    0.000 
#
# Total GULP energy -78110.048071 kJ/mol
# GULP energy per Si atom -5579.289148 kJ/mol
# Density = 2.344400 g / cm^3
# Si number density = 23.497484 Si / 1000 Ang^3
#
#
#
# Elastic Constant Matrix: (Units=GPa)
#
#
# Indices 1 2 3 4 5 6 
#
# 1 26.2449 -7.2656 28.8948 0.0000 1.0455 0.0000
# 2 -7.2656 56.9426 21.2127 0.0000 -2.0694 0.0000
# 3 28.8948 21.2127 154.4199 0.0000 2.8797 0.0000
# 4 0.0000 0.0000 0.0000 33.9281 0.0000 -3.6104
# 5 1.0455 -2.0694 2.8797 0.0000 15.5341 0.0000
# 6 0.0000 0.0000 0.0000 -3.6104 0.0000 31.1776
#
#
#
# Elastic Compliance Matrix: (Units=1/GPa)
#
#
# Indices 1 2 3 4 5 6 
#
# 1 0.054048 0.011240 -0.011658 0.000000 0.000021 0.000000
# 2 0.011240 0.020982 -0.005041 0.000000 0.002973 0.000000
# 3 -0.011658 -0.005041 0.009380 0.000000 -0.001626 0.000000
# 4 0.000000 0.000000 0.000000 0.029842 0.000000 0.003456
# 5 0.000021 0.002973 -0.001626 0.000000 0.065070 0.000000
# 6 0.000000 0.000000 0.000000 0.003456 0.000000 0.032474
#
#
# Mechanical properties :
#
#
# Convention : Reuss Voigt Hill
#
# Bulk Modulus (GPa) = 13.60683 35.92124 24.76404
# Shear Modulus (GPa) = 20.22556 29.11233 24.66894
#
# Velocity S-wave (km/s) = 2.93704 3.52370 3.24366
# Velocity P-wave (km/s) = 4.15992 5.64586 4.95887
#
# Compressibility (1/GPa) = 0.07349249
#
# Stress axis : x y z
#
# Youngs Moduli (GPa) = 18.50192 47.66073 106.60943
#
# Poissons Ratio (x) = -0.53570 1.24284
# Poissons Ratio (y) = -0.20796 0.53741
# Poissons Ratio (z) = 0.21569 0.24025
#
# Static dielectric constant tensor:
#      x y z
#    x 1.890490 0.000000 0.014200 
#    y 0.000000 1.954790 0.000000 
#    z 0.014200 0.000000 1.898550 
# 
# From -- ./inp_files/7802.got.cif
#   From: 2010.05.17/outbox.cif.g08.bks.cpg/sg4_4_cif.got.tgz:7802.got - 2010.06.03 18:43:04.
