data_PCOD9117673
_publ_section_title
;
Structure prediction by ZEFSAII (Michael W. Deem and Ramdas Pophale) SiO2 
 PCOD9117673
Probable space group: P 21
;
_chemical_formula_sum "Si O2"
_cell_formula_units_Z 14
_cell_length_a 7.986010
_cell_length_b 8.426539
_cell_length_c 11.145843
_cell_angle_alpha 90.000000
_cell_angle_beta 135.305792
_cell_angle_gamma 90.000000
_cell_volume 527.529475
_symmetry_space_group_name_H-M "P 21"
_symmetry_group_IT_number 4
_symmetry_cell_setting 'monoclinic'
loop_
_space_group_symop_operation_xyz
x,y,z
-x,1/2+y,-z
loop_
_atom_site_type_symbol
_atom_site_label
_atom_site_fract_x
_atom_site_fract_y
_atom_site_fract_z
Si Si1 0.346058 0.920970 0.332049
Si Si2 0.946589 0.480005 0.046587
Si Si3 0.559807 0.730860 0.945763
Si Si4 0.809520 0.750611 0.383043
Si Si5 0.653866 0.084679 0.930533
Si Si6 0.772140 0.741283 0.633674
Si Si7 0.251156 0.587962 0.598381
O O1 0.487934 0.785077 0.475270
O O2 0.576999 0.020398 0.412294
O O3 0.195228 0.054257 0.322886
O O4 0.219330 0.893933 0.138884
O O5 0.134279 0.573340 0.058352
O O6 0.095456 0.355480 0.203532
O O7 0.772292 0.600645 0.031628
O O8 0.396477 0.697986 0.979238
O O9 0.651730 0.909234 0.987297
O O10 0.395554 0.716204 0.745553
O O11 0.580518 0.639004 0.262383
O O12 0.884459 0.763102 0.559957
O O13 0.785529 0.933472 0.334764
O O14 0.016730 0.659470 0.422452
#
# Coordination Sequence:
#
# PCOD9117673 Si02
#       7
#     2   2   2   2   2   2   2
#     4  10  25  45  72 106 146 196 251 311 379 451
#     4  11  26  48  75 111 155 203 255 319 385 455
#     4  11  27  46  77 112 152 208 258 317 388 461
#     4  11  25  44  73 107 151 200 251 323 381 461
#     4  12  27  49  78 113 154 205 259 320 388 461
#     4  11  25  46  74 111 148 198 251 316 380 461
#     4  10  23  44  65 106 148 194 251 314 375 456
#
# _framework density 26.538799999999998
#
# number of rings (size 3 to 8) (size 9 to 14) (size 15 to 20)
#    0.000    1.143    0.000    4.286    8.000   11.429 
#    0.000    0.000    0.000    0.000    0.000    0.000 
#    0.000    0.000    0.000    0.000    0.000    0.000 
#
# Total GULP energy -78232.965690 kJ/mol
# GULP energy per Si atom -5588.068978 kJ/mol
# Density = 2.647840 g / cm^3
# Si number density = 26.538800 Si / 1000 Ang^3
#
#
#
# Elastic Constant Matrix: (Units=GPa)
#
#
# Indices 1 2 3 4 5 6 
#
# 1 80.9270 0.7529 -6.1785 0.0000 7.9368 0.0000
# 2 0.7529 101.4517 29.8891 0.0000 -9.5898 0.0000
# 3 -6.1785 29.8891 103.1442 0.0000 -9.0198 0.0000
# 4 0.0000 0.0000 0.0000 42.6506 0.0000 7.2514
# 5 7.9368 -9.5898 -9.0198 0.0000 40.2223 0.0000
# 6 0.0000 0.0000 0.0000 7.2514 0.0000 29.5135
#
#
#
# Elastic Compliance Matrix: (Units=1/GPa)
#
#
# Indices 1 2 3 4 5 6 
#
# 1 0.012657 -0.000532 0.000697 0.000000 -0.002468 0.000000
# 2 -0.000532 0.010945 -0.003025 0.000000 0.002036 0.000000
# 3 0.000697 -0.003025 0.010749 0.000000 0.001552 0.000000
# 4 0.000000 0.000000 0.000000 0.024468 0.000000 -0.006012
# 5 -0.002468 0.002036 0.001552 0.000000 0.026182 0.000000
# 6 0.000000 0.000000 0.000000 -0.006012 0.000000 0.035360
#
#
# Mechanical properties :
#
#
# Convention : Reuss Voigt Hill
#
# Bulk Modulus (GPa) = 34.93026 37.16111 36.04568
# Shear Modulus (GPa) = 36.86584 39.88123 38.37353
#
# Velocity S-wave (km/s) = 3.73115 3.88074 3.80668
# Velocity P-wave (km/s) = 5.63493 5.84065 5.73871
#
# Compressibility (1/GPa) = 0.02862848
#
# Stress axis : x y z
#
# Youngs Moduli (GPa) = 79.00754 91.36889 93.02939
#
# Poissons Ratio (x) = 0.04865 -0.06481
# Poissons Ratio (y) = 0.04207 0.28145
# Poissons Ratio (z) = -0.05504 0.27643
#
# Static dielectric constant tensor:
#      x y z
#    x 2.072360 0.000000 0.038130 
#    y 0.000000 2.286610 0.000000 
#    z 0.038130 0.000000 2.157830 
# 
# From -- ./inp_files/10825.got.cif
#   From: 2010.05.17/outbox.cif.g08.bks.cpg/sg4_6_cif.got.tgz:10825.got - 2010.06.03 18:43:04.
