data_PCOD9117896
_publ_section_title
;
Structure prediction by ZEFSAII (Michael W. Deem and Ramdas Pophale) SiO2 
 PCOD9117896
Probable space group: P 21
;
_chemical_formula_sum "Si O2"
_cell_formula_units_Z 16
_cell_length_a 8.161016
_cell_length_b 6.633627
_cell_length_c 17.300433
_cell_angle_alpha 90.000000
_cell_angle_beta 39.749922
_cell_angle_gamma 90.000000
_cell_volume 598.894964
_symmetry_space_group_name_H-M "P 21"
_symmetry_group_IT_number 4
_symmetry_cell_setting 'monoclinic'
loop_
_space_group_symop_operation_xyz
x,y,z
-x,1/2+y,-z
loop_
_atom_site_type_symbol
_atom_site_label
_atom_site_fract_x
_atom_site_fract_y
_atom_site_fract_z
Si Si1 0.669387 0.151910 0.353950
Si Si2 0.113989 0.628798 0.132597
Si Si3 0.444701 0.959073 0.922561
Si Si4 0.012241 0.727742 0.903188
Si Si5 0.739500 0.401764 0.559593
Si Si6 0.254091 0.438622 0.442684
Si Si7 0.025866 0.914188 0.304055
Si Si8 0.523873 0.622265 0.790983
O O1 0.892843 0.119144 0.209470
O O2 0.521500 0.342432 0.374121
O O3 0.442450 0.987592 0.441709
O O4 0.847140 0.116335 0.362894
O O5 0.331619 0.504023 0.098935
O O6 0.982840 0.463669 0.123425
O O7 0.981336 0.750422 0.252645
O O8 0.257210 0.794540 0.029114
O O9 0.560481 0.852577 0.805276
O O10 0.268350 0.153079 0.971578
O O11 0.219297 0.633914 0.887190
O O12 0.640732 0.543979 0.667213
O O13 0.046028 0.409784 0.448895
O O14 0.674414 0.170493 0.592907
O O15 0.071080 0.345775 0.577317
O O16 0.320395 0.986766 0.203864
#
# Coordination Sequence:
#
# PCOD9117896 Si02
#       8
#     2   2   2   2   2   2   2   2
#     4  11  24  45  69 110 145 200 252 319 389 464
#     4  12  25  48  74 110 157 203 254 330 391 470
#     4  12  24  46  78 106 153 202 256 320 386 470
#     4  11  26  45  74 108 153 203 254 315 402 458
#     4  10  23  49  71 107 150 198 250 321 395 465
#     4  11  24  46  78 102 154 195 251 323 398 465
#     4  11  26  48  71 115 149 200 271 318 387 478
#     4  10  26  49  71 112 153 199 270 314 386 476
#
# _framework density 26.715869999999999
#
# number of rings (size 3 to 8) (size 9 to 14) (size 15 to 20)
#    0.000    1.000    3.750    1.500    5.250    0.000 
#   13.500    0.000    0.000    0.000    0.000    0.000 
#    0.000    0.000    0.000    0.000    0.000    0.000 
#
# Total GULP energy -89168.632218 kJ/mol
# GULP energy per Si atom -5573.039514 kJ/mol
# Density = 2.665506 g / cm^3
# Si number density = 26.715870 Si / 1000 Ang^3
#
#
#
# Elastic Constant Matrix: (Units=GPa)
#
#
# Indices 1 2 3 4 5 6 
#
# 1 89.9562 21.3549 28.2578 0.0000 -26.0724 0.0000
# 2 21.3549 110.8393 38.2446 0.0000 -24.7139 0.0000
# 3 28.2578 38.2446 119.4449 0.0000 -7.2068 0.0000
# 4 0.0000 0.0000 0.0000 44.6549 0.0000 -14.8740
# 5 -26.0724 -24.7139 -7.2068 0.0000 39.4640 0.0000
# 6 0.0000 0.0000 0.0000 -14.8740 0.0000 35.8977
#
#
#
# Elastic Compliance Matrix: (Units=1/GPa)
#
#
# Indices 1 2 3 4 5 6 
#
# 1 0.014701 0.000288 -0.003006 0.000000 0.009344 0.000000
# 2 0.000288 0.011670 -0.003390 0.000000 0.006880 0.000000
# 3 -0.003006 -0.003390 0.010031 0.000000 -0.002277 0.000000
# 4 0.000000 0.000000 0.000000 0.025979 0.000000 0.010764
# 5 0.009344 0.006880 -0.002277 0.000000 0.035405 0.000000
# 6 0.000000 0.000000 0.000000 0.010764 0.000000 0.032317
#
#
# Mechanical properties :
#
#
# Convention : Reuss Voigt Hill
#
# Bulk Modulus (GPa) = 41.34536 55.10613 48.22575
# Shear Modulus (GPa) = 33.24881 39.49553 36.37217
#
# Velocity S-wave (km/s) = 3.53162 3.84911 3.69378
# Velocity P-wave (km/s) = 5.66916 6.35812 6.02350
#
# Compressibility (1/GPa) = 0.02418651
#
# Stress axis : x y z
#
# Youngs Moduli (GPa) = 68.02458 85.68897 99.68842
#
# Poissons Ratio (x) = -0.02471 0.29970
# Poissons Ratio (y) = -0.01962 0.33792
# Poissons Ratio (z) = 0.20451 0.29046
#
# Static dielectric constant tensor:
#      x y z
#    x 2.364360 0.000000 0.121340 
#    y 0.000000 2.166320 0.000000 
#    z 0.121340 0.000000 2.205850 
# 
# From -- ./inp_files/15583.got.cif
#   From: 2010.05.17/outbox.cif.g08.bks.cpg/sg4_8_cif.got.tgz:15583.got - 2010.06.03 18:43:04.
