data_PCOD9117966
_publ_section_title
;
Structure prediction by ZEFSAII (Michael W. Deem and Ramdas Pophale) SiO2 
 PCOD9117966
Probable space group: P 21
;
_chemical_formula_sum "Si O2"
_cell_formula_units_Z 12
_cell_length_a 14.024536
_cell_length_b 6.757949
_cell_length_c 4.963244
_cell_angle_alpha 90.000000
_cell_angle_beta 75.188111
_cell_angle_gamma 90.000000
_cell_volume 454.770584
_symmetry_space_group_name_H-M "P 21"
_symmetry_group_IT_number 4
_symmetry_cell_setting 'monoclinic'
loop_
_space_group_symop_operation_xyz
x,y,z
-x,1/2+y,-z
loop_
_atom_site_type_symbol
_atom_site_label
_atom_site_fract_x
_atom_site_fract_y
_atom_site_fract_z
Si Si1 0.352104 0.598640 0.593444
Si Si2 0.874187 0.593139 0.384876
Si Si3 0.072149 0.643145 0.554444
Si Si4 0.545556 0.446206 0.211949
Si Si5 0.663941 0.515266 0.618619
Si Si6 0.845298 0.921091 0.019532
O O1 0.431946 0.475441 0.366648
O O2 0.414327 0.725226 0.767127
O O3 0.313489 0.779847 0.435880
O O4 0.262553 0.485690 0.795522
O O5 0.892356 0.359516 0.381760
O O6 0.766055 0.625140 0.596541
O O7 0.966304 0.671487 0.489560
O O8 0.077130 0.522274 0.827847
O O9 0.135671 0.524439 0.282028
O O10 0.861941 0.692538 0.098940
O O11 0.612198 0.569270 0.376412
O O12 0.581845 0.524091 0.903445
#
# Coordination Sequence:
#
# PCOD9117966 Si02
#       6
#     2   2   2   2   2   2
#     4  10  25  43  69 102 146 190 255 312 383 464
#     4  12  27  51  78 111 157 207 257 331 393 467
#     4  12  28  50  74 117 153 201 265 322 389 482
#     4  10  24  42  67  98 144 190 243 314 374 457
#     4  10  25  41  70 100 144 189 252 309 380 458
#     4  12  29  47  80 108 156 203 260 324 399 464
#
# _framework density 26.386928999999999
#
# number of rings (size 3 to 8) (size 9 to 14) (size 15 to 20)
#    1.000    0.000    3.333    1.000    7.000    4.000 
#    0.000    0.000    0.000    0.000    0.000    0.000 
#    0.000    0.000    0.000    0.000    0.000    0.000 
#
# Total GULP energy -67120.379608 kJ/mol
# GULP energy per Si atom -5593.364967 kJ/mol
# Density = 2.632687 g / cm^3
# Si number density = 26.386929 Si / 1000 Ang^3
#
#
#
# Elastic Constant Matrix: (Units=GPa)
#
#
# Indices 1 2 3 4 5 6 
#
# 1 120.8396 42.3181 36.0794 0.0000 -26.8489 0.0000
# 2 42.3181 134.4423 54.3576 0.0000 -2.2425 0.0000
# 3 36.0794 54.3576 138.4564 0.0000 -7.1333 0.0000
# 4 0.0000 0.0000 0.0000 31.5275 0.0000 -3.4136
# 5 -26.8489 -2.2425 -7.1333 0.0000 60.0595 0.0000
# 6 0.0000 0.0000 0.0000 -3.4136 0.0000 52.0937
#
#
#
# Elastic Compliance Matrix: (Units=1/GPa)
#
#
# Indices 1 2 3 4 5 6 
#
# 1 0.010655 -0.002674 -0.001495 0.000000 0.004486 0.000000
# 2 -0.002674 0.009513 -0.003100 0.000000 -0.001209 0.000000
# 3 -0.001495 -0.003100 0.008843 0.000000 0.000266 0.000000
# 4 0.000000 0.000000 0.000000 0.031945 0.000000 0.002093
# 5 0.004486 -0.001209 0.000266 0.000000 0.018642 0.000000
# 6 0.000000 0.000000 0.000000 0.002093 0.000000 0.019333
#
#
# Mechanical properties :
#
#
# Convention : Reuss Voigt Hill
#
# Bulk Modulus (GPa) = 69.10271 73.24984 71.17628
# Shear Modulus (GPa) = 42.26688 46.13501 44.20095
#
# Velocity S-wave (km/s) = 4.00661 4.18593 4.09725
# Velocity P-wave (km/s) = 6.90282 7.15422 7.02964
#
# Compressibility (1/GPa) = 0.01447121
#
# Stress axis : x y z
#
# Youngs Moduli (GPa) = 93.85069 105.11607 113.08333
#
# Poissons Ratio (x) = 0.28113 0.16911
# Poissons Ratio (y) = 0.25100 0.35059
# Poissons Ratio (z) = 0.14035 0.32589
#
# Static dielectric constant tensor:
#      x y z
#    x 2.026930 0.000000 -0.026230 
#    y 0.000000 2.161430 0.000000 
#    z -0.026230 0.000000 2.026270 
# 
# From -- ./inp_files/3669.got.cif
#   From: 2010.05.17/outbox.cif.g08.bks.cpg/sg4_2_cif.got.tgz:3669.got - 2010.06.03 18:43:04.
