data_PCOD9117156
_publ_section_title
;
Structure prediction by ZEFSAII (Michael W. Deem and Ramdas Pophale) SiO2 
 PCOD9117156
Probable space group: P 21
;
_chemical_formula_sum "Si O2"
_cell_formula_units_Z 16
_cell_length_a 11.060990
_cell_length_b 9.160430
_cell_length_c 8.354924
_cell_angle_alpha 90.000000
_cell_angle_beta 53.769792
_cell_angle_gamma 90.000000
_cell_volume 682.868161
_symmetry_space_group_name_H-M "P 21"
_symmetry_group_IT_number 4
_symmetry_cell_setting 'monoclinic'
loop_
_space_group_symop_operation_xyz
x,y,z
-x,1/2+y,-z
loop_
_atom_site_type_symbol
_atom_site_label
_atom_site_fract_x
_atom_site_fract_y
_atom_site_fract_z
Si Si1 0.280503 0.424200 0.630573
Si Si2 0.401520 0.756413 0.031854
Si Si3 0.210621 0.673459 0.878675
Si Si4 0.176915 0.621787 0.433174
Si Si5 0.052477 0.943374 0.571898
Si Si6 0.365369 0.034076 0.251408
Si Si7 0.623265 0.431170 0.387695
Si Si8 0.874657 0.625478 0.178873
O O1 0.258889 0.505170 0.818312
O O2 0.193930 0.530455 0.579790
O O3 0.455763 0.422495 0.454340
O O4 0.206696 0.266276 0.684168
O O5 0.335307 0.672848 0.238065
O O6 0.428630 0.917793 0.075226
O O7 0.269657 0.736387 0.002064
O O8 0.549759 0.683576 0.845443
O O9 0.303547 0.772078 0.681321
O O10 0.032585 0.682098 0.988372
O O11 0.081991 0.771636 0.528232
O O12 0.100224 0.508615 0.372359
O O13 0.186603 0.024949 0.370199
O O14 0.072949 0.003593 0.734523
O O15 0.387183 0.983755 0.419399
O O16 0.736750 0.539472 0.203445
#
# Coordination Sequence:
#
# PCOD9117156 Si02
#       8
#     2   2   2   2   2   2   2   2
#     4  12  25  42  72 102 138 190 227 285 364 407
#     4  11  24  43  68  98 139 171 231 287 337 410
#     4  12  24  46  65 102 138 180 233 291 342 420
#     4  11  24  43  71  98 140 182 230 287 342 414
#     4  10  22  44  66  99 134 181 234 280 342 411
#     4  10  24  45  67 100 134 179 222 291 336 415
#     4  11  25  47  70  99 143 181 234 282 357 423
#     4  11  24  44  71  98 138 182 233 289 344 418
#
# _framework density 23.430585000000001
#
# number of rings (size 3 to 8) (size 9 to 14) (size 15 to 20)
#    0.000    1.000    2.500    4.500    5.250    1.000 
#    0.000    0.000    0.000    0.000    0.000    0.000 
#    0.000    0.000    0.000    0.000    0.000    0.000 
#
# Total GULP energy -89411.619911 kJ/mol
# GULP energy per Si atom -5588.226244 kJ/mol
# Density = 2.337726 g / cm^3
# Si number density = 23.430585 Si / 1000 Ang^3
#
#
#
# Elastic Constant Matrix: (Units=GPa)
#
#
# Indices 1 2 3 4 5 6 
#
# 1 55.1540 18.9122 6.9099 0.0000 -24.6315 0.0000
# 2 18.9122 88.8393 18.9853 0.0000 -8.7930 0.0000
# 3 6.9099 18.9853 51.1768 0.0000 -11.9815 0.0000
# 4 0.0000 0.0000 0.0000 45.2558 0.0000 -12.1193
# 5 -24.6315 -8.7930 -11.9815 0.0000 43.4280 0.0000
# 6 0.0000 0.0000 0.0000 -12.1193 0.0000 30.3424
#
#
#
# Elastic Compliance Matrix: (Units=1/GPa)
#
#
# Indices 1 2 3 4 5 6 
#
# 1 0.025765 -0.004399 0.001460 0.000000 0.014125 0.000000
# 2 -0.004399 0.013046 -0.004502 0.000000 -0.001096 0.000000
# 3 0.001460 -0.004502 0.022443 0.000000 0.006108 0.000000
# 4 0.000000 0.000000 0.000000 0.024743 0.000000 0.009883
# 5 0.014125 -0.001096 0.006108 0.000000 0.032502 0.000000
# 6 0.000000 0.000000 0.000000 0.009883 0.000000 0.036905
#
#
# Mechanical properties :
#
#
# Convention : Reuss Voigt Hill
#
# Bulk Modulus (GPa) = 21.56458 31.64278 26.60368
# Shear Modulus (GPa) = 26.91879 33.82942 30.37410
#
# Velocity S-wave (km/s) = 3.39318 3.80388 3.60438
# Velocity P-wave (km/s) = 4.95733 5.72947 5.35733
#
# Compressibility (1/GPa) = 0.04637234
#
# Stress axis : x y z
#
# Youngs Moduli (GPa) = 38.81263 76.64913 44.55661
#
# Poissons Ratio (x) = 0.33716 -0.06506
# Poissons Ratio (y) = 0.17073 0.20061
# Poissons Ratio (z) = -0.05667 0.34511
#
# Static dielectric constant tensor:
#      x y z
#    x 1.943750 0.000000 0.039780 
#    y 0.000000 1.852280 0.000000 
#    z 0.039780 0.000000 1.952480 
# 
# From -- ./inp_files/5590.got.cif
#   From: 2010.05.17/outbox.cif.g08.bks.cpg/sg4_3_cif.got.tgz:5590.got - 2010.06.03 18:43:04.
