data_PCOD9117010
_publ_section_title
;
Structure prediction by ZEFSAII (Michael W. Deem and Ramdas Pophale) SiO2 
 PCOD9117010
Probable space group: P 21
;
_chemical_formula_sum "Si O2"
_cell_formula_units_Z 14
_cell_length_a 18.960548
_cell_length_b 5.593764
_cell_length_c 9.647144
_cell_angle_alpha 90.000000
_cell_angle_beta 37.969336
_cell_angle_gamma 90.000000
_cell_volume 629.503436
_symmetry_space_group_name_H-M "P 21"
_symmetry_group_IT_number 4
_symmetry_cell_setting 'monoclinic'
loop_
_space_group_symop_operation_xyz
x,y,z
-x,1/2+y,-z
loop_
_atom_site_type_symbol
_atom_site_label
_atom_site_fract_x
_atom_site_fract_y
_atom_site_fract_z
Si Si1 0.615049 0.036620 0.498453
Si Si2 0.382327 0.535952 0.076380
Si Si3 0.617454 0.828512 0.191274
Si Si4 0.151145 0.152720 0.275897
Si Si5 0.633441 0.657721 0.705859
Si Si6 0.219430 0.764865 0.556912
Si Si7 0.076084 0.655669 0.539978
O O1 0.507115 0.215306 0.648978
O O2 0.731990 0.154418 0.376704
O O3 0.625873 0.906615 0.335981
O O4 0.592942 0.850582 0.655534
O O5 0.339119 0.275138 0.190580
O O6 0.311488 0.702578 0.289241
O O7 0.369323 0.555651 0.933008
O O8 0.516097 0.515521 0.903381
O O9 0.723920 0.660985 0.987345
O O10 0.125793 0.404229 0.399800
O O11 0.055679 0.156102 0.301598
O O12 0.128272 0.904150 0.394373
O O13 0.750830 0.541838 0.471732
O O14 0.104859 0.677985 0.659865
#
# Coordination Sequence:
#
# PCOD9117010 Si02
#       7
#     2   2   2   2   2   2   2
#     4  11  27  38  57  88 135 172 221 255 342 397
#     4  11  19  32  58  85 117 154 211 258 325 372
#     4  12  23  43  60  91 132 179 217 273 323 416
#     4  10  23  42  70 101 132 172 225 282 339 386
#     4  11  20  36  53  90 121 160 210 266 326 395
#     4  11  22  37  62  91 125 165 211 288 322 395
#     4  10  22  42  70 104 130 166 227 292 333 387
#
# _framework density 22.239753
#
# number of rings (size 3 to 8) (size 9 to 14) (size 15 to 20)
#    0.000    1.143    4.286    2.571    4.000    1.143 
#    0.000    0.000    3.143    0.000    0.000    0.000 
#    0.000    0.000    0.000    0.000    0.000    0.000 
#
# Total GULP energy -77975.538445 kJ/mol
# GULP energy per Si atom -5569.681318 kJ/mol
# Density = 2.218913 g / cm^3
# Si number density = 22.239753 Si / 1000 Ang^3
#
#
#
# Elastic Constant Matrix: (Units=GPa)
#
#
# Indices 1 2 3 4 5 6 
#
# 1 184.8428 25.9857 23.3669 0.0000 17.0466 0.0000
# 2 25.9857 68.3471 1.3900 0.0000 8.4470 0.0000
# 3 23.3669 1.3900 31.0681 0.0000 22.2865 0.0000
# 4 0.0000 0.0000 0.0000 18.5403 0.0000 0.9124
# 5 17.0466 8.4470 22.2865 0.0000 34.7657 0.0000
# 6 0.0000 0.0000 0.0000 0.9124 0.0000 37.4953
#
#
#
# Elastic Compliance Matrix: (Units=1/GPa)
#
#
# Indices 1 2 3 4 5 6 
#
# 1 0.006336 -0.002408 -0.005274 0.000000 0.000859 0.000000
# 2 -0.002408 0.016222 0.005676 0.000000 -0.006399 0.000000
# 3 -0.005274 0.005676 0.064860 0.000000 -0.040372 0.000000
# 4 0.000000 0.000000 0.000000 0.054001 0.000000 -0.001314
# 5 0.000859 -0.006399 -0.040372 0.000000 0.055778 0.000000
# 6 0.000000 0.000000 0.000000 -0.001314 0.000000 0.026702
#
#
# Mechanical properties :
#
#
# Convention : Reuss Voigt Hill
#
# Bulk Modulus (GPa) = 11.98956 42.86036 27.42496
# Shear Modulus (GPa) = 19.55311 33.72796 26.64053
#
# Velocity S-wave (km/s) = 2.96834 3.89853 3.46479
# Velocity P-wave (km/s) = 4.14135 6.29115 5.32585
#
# Compressibility (1/GPa) = 0.08340591
#
# Stress axis : x y z
#
# Youngs Moduli (GPa) = 157.82857 61.64421 15.41773
#
# Poissons Ratio (x) = 0.14843 0.08131
# Poissons Ratio (y) = 0.38003 -0.08751
# Poissons Ratio (z) = 0.83240 -0.34987
#
# Static dielectric constant tensor:
#      x y z
#    x 1.884170 0.000000 -0.041590 
#    y 0.000000 2.072950 0.000000 
#    z -0.041590 0.000000 1.782070 
# 
# From -- ./inp_files/9481.got.cif
#   From: 2010.05.17/outbox.cif.g08.bks.cpg/sg4_5_cif.got.tgz:9481.got - 2010.06.03 18:43:04.
