data_PCOD9117658
_publ_section_title
;
Structure prediction by ZEFSAII (Michael W. Deem and Ramdas Pophale) SiO2 
 PCOD9117658
Probable space group: P 21
;
_chemical_formula_sum "Si O2"
_cell_formula_units_Z 14
_cell_length_a 9.512600
_cell_length_b 15.104345
_cell_length_c 5.010391
_cell_angle_alpha 90.000000
_cell_angle_beta 48.903507
_cell_angle_gamma 90.000000
_cell_volume 542.519973
_symmetry_space_group_name_H-M "P 21"
_symmetry_group_IT_number 4
_symmetry_cell_setting 'monoclinic'
loop_
_space_group_symop_operation_xyz
x,y,z
-x,1/2+y,-z
loop_
_atom_site_type_symbol
_atom_site_label
_atom_site_fract_x
_atom_site_fract_y
_atom_site_fract_z
Si Si1 0.322833 0.120620 0.479491
Si Si2 0.732940 0.459878 0.840352
Si Si3 0.642167 0.729637 0.061116
Si Si4 0.096696 0.494738 0.679749
Si Si5 0.305298 0.766775 0.181187
Si Si6 0.768282 0.100800 0.988090
Si Si7 0.604696 0.874512 0.486881
O O1 0.269112 0.166473 0.825046
O O2 0.544180 0.105520 0.254306
O O3 0.264862 0.031585 0.395826
O O4 0.272718 0.193675 0.317141
O O5 0.775737 0.363266 0.657699
O O6 0.882978 0.478647 0.879698
O O7 0.535256 0.454245 0.248247
O O8 0.416884 0.720355 0.284122
O O9 0.648983 0.832667 0.141820
O O10 0.141744 0.567033 0.851505
O O11 0.201085 0.405544 0.637252
O O12 0.177500 0.529751 0.301720
O O13 0.176362 0.697913 0.190018
O O14 0.475615 0.797250 0.772752
#
# Coordination Sequence:
#
# PCOD9117658 Si02
#       7
#     2   2   2   2   2   2   2
#     4  11  22  41  71  98 133 180 228 281 339 412
#     4  10  25  48  68 107 137 186 229 285 342 417
#     4  11  21  40  72 102 129 179 233 273 350 400
#     4  12  27  44  68 104 140 178 230 281 347 411
#     4   9  22  44  70 100 132 185 227 283 340 405
#     4  11  22  44  69  98 138 178 228 284 341 407
#     4  10  23  43  74  95 141 182 221 291 333 406
#
# _framework density 25.805501
#
# number of rings (size 3 to 8) (size 9 to 14) (size 15 to 20)
#    0.857    0.571    4.286    1.714    4.000    2.286 
#    5.143    0.000    0.000    0.000    0.000    0.000 
#    0.000    0.000    0.000    0.000    0.000    0.000 
#
# Total GULP energy -78108.492878 kJ/mol
# GULP energy per Si atom -5579.178063 kJ/mol
# Density = 2.574677 g / cm^3
# Si number density = 25.805501 Si / 1000 Ang^3
#
#
#
# Elastic Constant Matrix: (Units=GPa)
#
#
# Indices 1 2 3 4 5 6 
#
# 1 169.8509 38.1817 36.0208 0.0000 27.1917 0.0000
# 2 38.1817 99.5288 20.1686 0.0000 13.7037 0.0000
# 3 36.0208 20.1686 50.2744 0.0000 33.3102 0.0000
# 4 0.0000 0.0000 0.0000 15.3102 0.0000 30.0547
# 5 27.1917 13.7037 33.3102 0.0000 39.1025 0.0000
# 6 0.0000 0.0000 0.0000 30.0547 0.0000 39.6231
#
#
#
# Elastic Compliance Matrix: (Units=1/GPa)
#
#
# Indices 1 2 3 4 5 6 
#
# 1 0.007285 -0.001886 -0.003546 0.000000 -0.001385 0.000000
# 2 -0.001886 0.011425 -0.003325 0.000000 0.000140 0.000000
# 3 -0.003546 -0.003325 0.049037 0.000000 -0.038142 0.000000
# 4 0.000000 0.000000 0.000000 -0.133570 0.000000 0.101315
# 5 -0.001385 0.000140 -0.038142 0.000000 0.058980 0.000000
# 6 0.000000 0.000000 0.000000 0.101315 0.000000 -0.051611
#
#
# Mechanical properties :
#
#
# Convention : Reuss Voigt Hill
#
# Bulk Modulus (GPa) = 19.90659 56.48850 38.19754
# Shear Modulus (GPa) = -206.64561 33.82602 -86.40980
#
# Velocity S-wave (km/s) = -8.95835 3.62443 -5.79290
# Velocity P-wave (km/s) = 9.96352 6.28116 5.46895
#
# Compressibility (1/GPa) = 0.05023463
#
# Stress axis : x y z
#
# Youngs Moduli (GPa) = 137.26824 87.52544 20.39276
#
# Poissons Ratio (x) = 0.16503 0.07231
# Poissons Ratio (y) = 0.25883 0.06781
# Poissons Ratio (z) = 0.48672 0.29103
#
# Static dielectric constant tensor:
#      x y z
#    x 1.995690 0.000000 -0.021800 
#    y 0.000000 2.172350 0.000000 
#    z -0.021800 0.000000 2.147380 
# 
# From -- ./inp_files/1915.got.cif
#   From: 2010.05.17/outbox.cif.g08.bks.cpg/sg4_1_cif.got.tgz:1915.got - 2010.06.03 18:43:04.
