data_PCOD9117439
_publ_section_title
;
Structure prediction by ZEFSAII (Michael W. Deem and Ramdas Pophale) SiO2 
 PCOD9117439
Probable space group: P 21
;
_chemical_formula_sum "Si O2"
_cell_formula_units_Z 14
_cell_length_a 14.289846
_cell_length_b 8.585144
_cell_length_c 6.829387
_cell_angle_alpha 90.000000
_cell_angle_beta 51.269282
_cell_angle_gamma 90.000000
_cell_volume 653.588492
_symmetry_space_group_name_H-M "P 21"
_symmetry_group_IT_number 4
_symmetry_cell_setting 'monoclinic'
loop_
_space_group_symop_operation_xyz
x,y,z
-x,1/2+y,-z
loop_
_atom_site_type_symbol
_atom_site_label
_atom_site_fract_x
_atom_site_fract_y
_atom_site_fract_z
Si Si1 0.998915 0.462070 0.287695
Si Si2 0.363467 0.633384 0.109619
Si Si3 0.837232 0.914110 0.559023
Si Si4 0.693512 0.382359 0.153641
Si Si5 0.742701 0.579816 0.745594
Si Si6 0.443871 0.893402 0.275553
Si Si7 0.048494 0.788509 0.020028
O O1 0.875891 0.505890 0.558305
O O2 0.101436 0.431100 0.309693
O O3 0.033576 0.612165 0.112525
O O4 0.974460 0.317043 0.178300
O O5 0.246284 0.562537 0.366915
O O6 0.441320 0.729177 0.165193
O O7 0.327021 0.749986 0.983424
O O8 0.437305 0.491571 0.920117
O O9 0.757008 0.758782 0.670827
O O10 0.944353 0.883873 0.268502
O O11 0.591911 0.378074 0.451839
O O12 0.695724 0.541330 0.024428
O O13 0.821218 0.352294 0.090032
O O14 0.661189 0.492499 0.693784
#
# Coordination Sequence:
#
# PCOD9117439 Si02
#       7
#     2   2   2   2   2   2   2
#     4  11  23  38  62  97 136 169 214 264 323 391
#     4  11  26  45  68  96 129 176 215 272 326 380
#     4  11  24  40  65  96 139 169 215 264 327 390
#     4  11  23  43  69  94 131 169 219 266 324 380
#     4  10  23  40  64  96 129 175 211 266 321 384
#     4  11  25  46  69  93 131 168 226 268 321 385
#     4  11  24  38  65 100 131 174 212 262 328 388
#
# _framework density 21.420207999999999
#
# number of rings (size 3 to 8) (size 9 to 14) (size 15 to 20)
#    0.000    1.143    4.286    0.857    4.000    3.429 
#    0.000    0.000    0.000    0.000    0.000    0.000 
#    0.000    0.000    0.000    0.000    0.000    0.000 
#
# Total GULP energy -78337.234242 kJ/mol
# GULP energy per Si atom -5595.516732 kJ/mol
# Density = 2.137145 g / cm^3
# Si number density = 21.420208 Si / 1000 Ang^3
#
#
#
# Elastic Constant Matrix: (Units=GPa)
#
#
# Indices 1 2 3 4 5 6 
#
# 1 30.8097 2.0651 -13.1125 0.0000 -2.4094 0.0000
# 2 2.0651 49.4868 33.7970 0.0000 -0.1194 0.0000
# 3 -13.1125 33.7970 89.6609 0.0000 -1.1832 0.0000
# 4 0.0000 0.0000 0.0000 35.8934 0.0000 -7.3673
# 5 -2.4094 -0.1194 -1.1832 0.0000 23.3069 0.0000
# 6 0.0000 0.0000 0.0000 -7.3673 0.0000 32.7783
#
#
#
# Elastic Compliance Matrix: (Units=1/GPa)
#
#
# Indices 1 2 3 4 5 6 
#
# 1 0.036690 -0.007034 0.008072 0.000000 0.004167 0.000000
# 2 -0.007034 0.028565 -0.011811 0.000000 -0.001180 0.000000
# 3 0.008072 -0.011811 0.016807 0.000000 0.001627 0.000000
# 4 0.000000 0.000000 0.000000 0.029208 0.000000 0.006565
# 5 0.004167 -0.001180 0.001627 0.000000 0.043413 0.000000
# 6 0.000000 0.000000 0.000000 0.006565 0.000000 0.031984
#
#
# Mechanical properties :
#
#
# Convention : Reuss Voigt Hill
#
# Bulk Modulus (GPa) = 16.52464 23.93960 20.23212
# Shear Modulus (GPa) = 21.89287 28.20957 25.05122
#
# Velocity S-wave (km/s) = 3.20045 3.63293 3.42353
# Velocity P-wave (km/s) = 4.62476 5.36638 5.00931
#
# Compressibility (1/GPa) = 0.06051571
#
# Stress axis : x y z
#
# Youngs Moduli (GPa) = 27.25534 35.00823 59.49769
#
# Poissons Ratio (x) = 0.24624 -0.48027
# Poissons Ratio (y) = 0.19171 0.70276
# Poissons Ratio (z) = -0.22001 0.41350
#
# Static dielectric constant tensor:
#      x y z
#    x 1.736040 0.000000 -0.023470 
#    y 0.000000 1.784770 0.000000 
#    z -0.023470 0.000000 1.766670 
# 
# From -- ./inp_files/2366.got.cif
#   From: 2010.05.17/outbox.cif.g08.bks.cpg/sg4_2_cif.got.tgz:2366.got - 2010.06.03 18:43:04.
