data_PCOD9117619
_publ_section_title
;
Structure prediction by ZEFSAII (Michael W. Deem and Ramdas Pophale) SiO2 
 PCOD9117619
Probable space group: P 21
;
_chemical_formula_sum "Si O2"
_cell_formula_units_Z 16
_cell_length_a 12.645128
_cell_length_b 8.309888
_cell_length_c 9.035557
_cell_angle_alpha 90.000000
_cell_angle_beta 47.223403
_cell_angle_gamma 90.000000
_cell_volume 696.905233
_symmetry_space_group_name_H-M "P 21"
_symmetry_group_IT_number 4
_symmetry_cell_setting 'monoclinic'
loop_
_space_group_symop_operation_xyz
x,y,z
-x,1/2+y,-z
loop_
_atom_site_type_symbol
_atom_site_label
_atom_site_fract_x
_atom_site_fract_y
_atom_site_fract_z
Si Si1 0.087636 0.888580 0.956832
Si Si2 0.192490 0.829823 0.423177
Si Si3 0.079864 0.228755 0.119756
Si Si4 0.269828 0.422303 0.116349
Si Si5 0.733193 0.705010 0.601916
Si Si6 0.534629 0.082341 0.303302
Si Si7 0.929030 0.201855 0.749499
Si Si8 0.643584 0.282152 0.469331
O O1 0.219562 0.888201 0.717158
O O2 0.949961 0.848412 0.988568
O O3 0.116792 0.743413 0.041741
O O4 0.073077 0.050523 0.062006
O O5 0.158726 0.806011 0.284140
O O6 0.313460 0.733115 0.403688
O O7 0.047924 0.760201 0.640835
O O8 0.244980 0.015001 0.379612
O O9 0.230812 0.271767 0.048715
O O10 0.307602 0.337023 0.234337
O O11 0.119340 0.524794 0.258086
O O12 0.377559 0.545137 0.932118
O O13 0.603723 0.693504 0.606753
O O14 0.901155 0.742076 0.407160
O O15 0.613647 0.154389 0.371012
O O16 0.484821 0.905899 0.397988
#
# Coordination Sequence:
#
# PCOD9117619 Si02
#       8
#     2   2   2   2   2   2   2   2
#     4  11  25  40  71 105 146 176 236 298 358 421
#     4  10  23  43  69 100 142 174 234 293 355 407
#     4  11  23  41  67 105 136 185 227 297 359 413
#     4  12  25  44  73 103 140 188 244 286 359 429
#     4  11  24  45  68 102 146 183 231 299 351 427
#     4  11  27  47  68 103 144 195 238 284 360 432
#     4  12  22  43  73 109 136 179 232 302 353 422
#     4  10  25  49  67 101 144 188 232 295 345 433
#
# _framework density 22.958645000000001
#
# number of rings (size 3 to 8) (size 9 to 14) (size 15 to 20)
#    0.000    1.000    3.750    1.500    8.750    3.000 
#    2.250    0.000    0.000    0.000    0.000    0.000 
#    0.000    0.000    0.000    0.000    0.000    0.000 
#
# Total GULP energy -89190.020898 kJ/mol
# GULP energy per Si atom -5574.376306 kJ/mol
# Density = 2.290639 g / cm^3
# Si number density = 22.958645 Si / 1000 Ang^3
#
#
#
# Elastic Constant Matrix: (Units=GPa)
#
#
# Indices 1 2 3 4 5 6 
#
# 1 82.0039 2.7374 17.8502 0.0000 4.6836 0.0000
# 2 2.7374 40.6429 -3.5501 0.0000 -3.7231 0.0000
# 3 17.8502 -3.5501 47.4703 0.0000 1.9546 0.0000
# 4 0.0000 0.0000 0.0000 27.9224 0.0000 11.5649
# 5 4.6836 -3.7231 1.9546 0.0000 26.1198 0.0000
# 6 0.0000 0.0000 0.0000 11.5649 0.0000 42.9622
#
#
#
# Elastic Compliance Matrix: (Units=1/GPa)
#
#
# Indices 1 2 3 4 5 6 
#
# 1 0.013485 -0.001560 -0.005094 0.000000 -0.002259 0.000000
# 2 -0.001560 0.025252 0.002323 0.000000 0.003705 0.000000
# 3 -0.005094 0.002323 0.023175 0.000000 -0.000490 0.000000
# 4 0.000000 0.000000 0.000000 0.040307 0.000000 -0.010850
# 5 -0.002259 0.003705 -0.000490 0.000000 0.039255 0.000000
# 6 0.000000 0.000000 0.000000 -0.010850 0.000000 0.026197
#
#
# Mechanical properties :
#
#
# Convention : Reuss Voigt Hill
#
# Bulk Modulus (GPa) = 18.77999 22.68800 20.73399
# Shear Modulus (GPa) = 25.76201 29.60619 27.68410
#
# Velocity S-wave (km/s) = 3.35342 3.59492 3.47627
# Velocity P-wave (km/s) = 4.81576 5.20911 5.01629
#
# Compressibility (1/GPa) = 0.05324816
#
# Stress axis : x y z
#
# Youngs Moduli (GPa) = 74.15902 39.60090 43.14950
#
# Poissons Ratio (x) = 0.06178 0.21981
# Poissons Ratio (y) = 0.11570 -0.10022
# Poissons Ratio (z) = 0.37778 -0.09198
#
# Static dielectric constant tensor:
#      x y z
#    x 1.904360 0.000000 -0.041580 
#    y 0.000000 1.896910 0.000000 
#    z -0.041580 0.000000 1.914810 
# 
# From -- ./inp_files/5689.got.cif
#   From: 2010.05.17/outbox.cif.g08.bks.cpg/sg4_3_cif.got.tgz:5689.got - 2010.06.03 18:43:04.
