data_PCOD9117206
_publ_section_title
;
Structure prediction by ZEFSAII (Michael W. Deem and Ramdas Pophale) SiO2 
 PCOD9117206
Probable space group: P 21
;
_chemical_formula_sum "Si O2"
_cell_formula_units_Z 16
_cell_length_a 8.499276
_cell_length_b 9.729709
_cell_length_c 11.152058
_cell_angle_alpha 90.000000
_cell_angle_beta 43.272428
_cell_angle_gamma 90.000000
_cell_volume 632.155648
_symmetry_space_group_name_H-M "P 21"
_symmetry_group_IT_number 4
_symmetry_cell_setting 'monoclinic'
loop_
_space_group_symop_operation_xyz
x,y,z
-x,1/2+y,-z
loop_
_atom_site_type_symbol
_atom_site_label
_atom_site_fract_x
_atom_site_fract_y
_atom_site_fract_z
Si Si1 0.357656 0.904360 0.509142
Si Si2 0.475025 0.778310 0.900885
Si Si3 0.202205 0.099883 0.801154
Si Si4 0.974274 0.817046 0.546471
Si Si5 0.299324 0.514653 0.871884
Si Si6 0.858495 0.140524 0.354513
Si Si7 0.312987 0.232130 0.978015
Si Si8 0.996125 0.342979 0.750006
O O1 0.655150 0.895345 0.056667
O O2 0.138982 0.912349 0.537761
O O3 0.317448 0.988471 0.651646
O O4 0.641240 0.240898 0.462158
O O5 0.292114 0.346056 0.276850
O O6 0.255096 0.870711 0.053566
O O7 0.397035 0.662254 0.851733
O O8 0.535457 0.697874 0.991125
O O9 0.107536 0.222813 0.768120
O O10 0.348371 0.157460 0.831820
O O11 0.973900 0.029169 0.983843
O O12 0.028914 0.808367 0.376697
O O13 0.036834 0.669542 0.571521
O O14 0.435396 0.460816 0.682656
O O15 0.049926 0.205283 0.160543
O O16 0.856411 0.980701 0.336707
#
# Coordination Sequence:
#
# PCOD9117206 Si02
#       8
#     2   2   2   2   2   2   2   2
#     4  10  22  44  71  95 140 181 229 286 351 413
#     4  10  23  42  72 104 136 185 238 289 351 424
#     4  11  25  45  69 100 140 190 228 289 358 422
#     4   9  21  39  67 100 140 173 230 295 344 401
#     4  11  23  47  73  98 137 187 241 288 345 425
#     4   9  23  41  66 101 140 177 232 292 345 408
#     4  11  24  43  68  99 142 182 227 292 355 411
#     4  11  23  41  72 103 137 183 235 289 355 414
#
# _framework density 25.310220999999999
#
# number of rings (size 3 to 8) (size 9 to 14) (size 15 to 20)
#    0.750    1.000    1.250    1.500   10.500    0.000 
#    4.500    0.000    0.000    0.000    0.000    0.000 
#    0.000    0.000    0.000    0.000    0.000    0.000 
#
# Total GULP energy -89553.440530 kJ/mol
# GULP energy per Si atom -5597.090033 kJ/mol
# Density = 2.525261 g / cm^3
# Si number density = 25.310221 Si / 1000 Ang^3
#
#
#
# Elastic Constant Matrix: (Units=GPa)
#
#
# Indices 1 2 3 4 5 6 
#
# 1 64.3061 14.2993 34.0109 0.0000 -0.3093 0.0000
# 2 14.2993 96.7858 46.5365 0.0000 3.2652 0.0000
# 3 34.0109 46.5365 157.7490 0.0000 -6.1958 0.0000
# 4 0.0000 0.0000 0.0000 37.8003 0.0000 5.4755
# 5 -0.3093 3.2652 -6.1958 0.0000 30.4549 0.0000
# 6 0.0000 0.0000 0.0000 5.4755 0.0000 23.9489
#
#
#
# Elastic Compliance Matrix: (Units=1/GPa)
#
#
# Indices 1 2 3 4 5 6 
#
# 1 0.017626 -0.000878 -0.003559 0.000000 -0.000451 0.000000
# 2 -0.000878 0.012209 -0.003492 0.000000 -0.002028 0.000000
# 3 -0.003559 -0.003492 0.008216 0.000000 0.002010 0.000000
# 4 0.000000 0.000000 0.000000 0.027361 0.000000 -0.006256
# 5 -0.000451 -0.002028 0.002010 0.000000 0.033457 0.000000
# 6 0.000000 0.000000 0.000000 -0.006256 0.000000 0.043186
#
#
# Mechanical properties :
#
#
# Convention : Reuss Voigt Hill
#
# Bulk Modulus (GPa) = 45.05887 56.50381 50.78134
# Shear Modulus (GPa) = 30.24615 33.37375 31.80995
#
# Velocity S-wave (km/s) = 3.46065 3.63518 3.54899
# Velocity P-wave (km/s) = 5.81459 6.32395 6.07461
#
# Compressibility (1/GPa) = 0.02219319
#
# Stress axis : x y z
#
# Youngs Moduli (GPa) = 56.73468 81.90455 121.71872
#
# Poissons Ratio (x) = 0.07188 0.43319
# Poissons Ratio (y) = 0.04979 0.42507
# Poissons Ratio (z) = 0.20192 0.28603
#
# Static dielectric constant tensor:
#      x y z
#    x 2.052770 0.000000 0.008210 
#    y 0.000000 1.997030 0.000000 
#    z 0.008210 0.000000 1.986970 
# 
# From -- ./inp_files/11355.got.cif
#   From: 2010.05.17/outbox.cif.g08.bks.cpg/sg4_6_cif.got.tgz:11355.got - 2010.06.03 18:43:04.
