data_PCOD9117967
_publ_section_title
;
Structure prediction by ZEFSAII (Michael W. Deem and Ramdas Pophale) SiO2 
 PCOD9117967
Probable space group: P 21
;
_chemical_formula_sum "Si O2"
_cell_formula_units_Z 14
_cell_length_a 15.529781
_cell_length_b 8.788000
_cell_length_c 14.847844
_cell_angle_alpha 90.000000
_cell_angle_beta 18.251110
_cell_angle_gamma 90.000000
_cell_volume 634.623066
_symmetry_space_group_name_H-M "P 21"
_symmetry_group_IT_number 4
_symmetry_cell_setting 'monoclinic'
loop_
_space_group_symop_operation_xyz
x,y,z
-x,1/2+y,-z
loop_
_atom_site_type_symbol
_atom_site_label
_atom_site_fract_x
_atom_site_fract_y
_atom_site_fract_z
Si Si1 0.858014 0.179030 0.531725
Si Si2 0.648951 0.387786 0.433345
Si Si3 0.769367 0.085558 0.415481
Si Si4 0.665509 0.593887 0.831854
Si Si5 0.873045 0.007249 0.741218
Si Si6 0.716778 0.399207 0.153758
Si Si7 0.843978 0.058123 0.982356
O O1 0.809993 0.152336 0.474410
O O2 0.091763 0.058269 0.334830
O O3 0.993317 0.343688 0.413558
O O4 0.566160 0.173038 0.873667
O O5 0.652127 0.216219 0.467055
O O6 0.639667 0.390576 0.335251
O O7 0.912700 0.474606 0.208237
O O8 0.412610 0.481899 0.715090
O O9 0.553472 0.947856 0.632167
O O10 0.053688 0.025784 0.092854
O O11 0.900800 0.630063 0.521375
O O12 0.427666 0.514924 0.006178
O O13 0.846947 0.024393 0.873478
O O14 0.835033 0.237798 0.006216
#
# Coordination Sequence:
#
# PCOD9117967 Si02
#       7
#     2   2   2   2   2   2   2
#     4  11  23  47  71 102 137 185 240 280 359 429
#     4  12  24  45  76 101 140 197 244 288 352 423
#     4  12  26  46  74 103 145 192 236 297 351 427
#     4  10  24  42  68 101 132 170 228 300 336 408
#     4  11  23  47  71 103 138 185 240 280 359 429
#     4  12  26  45  66 113 148 181 241 301 356 408
#     4  12  26  46  74 103 146 192 235 298 351 426
#
# _framework density 22.06034
#
# number of rings (size 3 to 8) (size 9 to 14) (size 15 to 20)
#    0.000    0.571    1.429    6.857    2.000    0.000 
#   25.714    0.000    0.000    0.000    0.000    0.000 
#    0.000    0.000    0.000    0.000    0.000    0.000 
#
# Total GULP energy -78076.818951 kJ/mol
# GULP energy per Si atom -5576.915639 kJ/mol
# Density = 2.201013 g / cm^3
# Si number density = 22.060340 Si / 1000 Ang^3
#
#
#
# Elastic Constant Matrix: (Units=GPa)
#
#
# Indices 1 2 3 4 5 6 
#
# 1 84.7124 20.8655 26.7125 0.0000 11.0506 0.0000
# 2 20.8655 60.5542 12.9707 0.0000 5.9852 0.0000
# 3 26.7125 12.9707 174.5004 0.0000 -11.8906 0.0000
# 4 0.0000 0.0000 0.0000 33.9040 0.0000 -7.3849
# 5 11.0506 5.9852 -11.8906 0.0000 33.0072 0.0000
# 6 0.0000 0.0000 0.0000 -7.3849 0.0000 -21.1648
#
#
#
# Elastic Compliance Matrix: (Units=1/GPa)
#
#
# Indices 1 2 3 4 5 6 
#
# 1 0.014085 -0.003910 -0.002192 0.000000 -0.004796 0.000000
# 2 -0.003910 0.018290 -0.000920 0.000000 -0.002339 0.000000
# 3 -0.002192 -0.000920 0.006352 0.000000 0.003189 0.000000
# 4 0.000000 0.000000 0.000000 0.027412 0.000000 -0.009565
# 5 -0.004796 -0.002339 0.003189 0.000000 0.033475 0.000000
# 6 0.000000 0.000000 0.000000 -0.009565 0.000000 -0.043911
#
#
# Mechanical properties :
#
#
# Convention : Reuss Voigt Hill
#
# Bulk Modulus (GPa) = 40.51588 48.98494 44.75041
# Shear Modulus (GPa) = 64.12412 26.43049 45.27730
#
# Velocity S-wave (km/s) = 5.39729 3.46511 4.53529
# Velocity P-wave (km/s) = 7.56616 6.18567 6.91047
#
# Compressibility (1/GPa) = 0.02468168
#
# Stress axis : x y z
#
# Youngs Moduli (GPa) = 70.99972 54.67580 157.43166
#
# Poissons Ratio (x) = 0.21376 0.34513
# Poissons Ratio (y) = 0.27758 0.14490
# Poissons Ratio (z) = 0.15565 0.05032
#
# Static dielectric constant tensor:
#      x y z
#    x 1.785560 0.000000 -0.002230 
#    y 0.000000 1.882240 0.000000 
#    z -0.002230 0.000000 1.755960 
# 
# From -- ./inp_files/14166.got.cif
#   From: 2010.05.17/outbox.cif.g08.bks.cpg/sg4_8_cif.got.tgz:14166.got - 2010.06.03 18:43:04.
