data_PCOD9117416
_publ_section_title
;
Structure prediction by ZEFSAII (Michael W. Deem and Ramdas Pophale) SiO2 
 PCOD9117416
Probable space group: P 21
;
_chemical_formula_sum "Si O2"
_cell_formula_units_Z 16
_cell_length_a 7.499588
_cell_length_b 6.998684
_cell_length_c 17.008765
_cell_angle_alpha 90.000000
_cell_angle_beta 53.742472
_cell_angle_gamma 90.000000
_cell_volume 719.878606
_symmetry_space_group_name_H-M "P 21"
_symmetry_group_IT_number 4
_symmetry_cell_setting 'monoclinic'
loop_
_space_group_symop_operation_xyz
x,y,z
-x,1/2+y,-z
loop_
_atom_site_type_symbol
_atom_site_label
_atom_site_fract_x
_atom_site_fract_y
_atom_site_fract_z
Si Si1 0.811940 0.335240 0.459062
Si Si2 0.776841 0.147519 0.985489
Si Si3 0.747944 0.497922 0.093962
Si Si4 0.692632 0.527587 0.933724
Si Si5 0.940834 0.207542 0.262360
Si Si6 0.833034 0.900986 0.507182
Si Si7 0.689649 0.830839 0.385764
Si Si8 0.591588 0.483672 0.292810
O O1 0.939525 0.333161 0.342812
O O2 0.800214 0.109633 0.480214
O O3 0.556449 0.397834 0.522589
O O4 0.946491 0.408537 0.499024
O O5 0.006622 0.045365 0.940205
O O6 0.792754 0.313196 0.914283
O O7 0.725545 0.275856 0.075983
O O8 0.285794 0.098240 0.981601
O O9 0.578716 0.552710 0.206502
O O10 0.435696 0.523268 0.979201
O O11 0.827984 0.656760 0.837940
O O12 0.787745 0.330308 0.244971
O O13 0.818880 0.006719 0.312841
O O14 0.626154 0.876719 0.619067
O O15 0.816910 0.770358 0.433382
O O16 0.652694 0.660253 0.333764
#
# Coordination Sequence:
#
# PCOD9117416 Si02
#       8
#     2   2   2   2   2   2   2   2
#     4  10  23  38  66  92 133 171 219 268 333 394
#     4  10  24  42  72  91 145 171 228 281 345 396
#     4  10  24  44  68 100 129 182 221 281 338 413
#     4  10  25  43  66 101 133 179 224 282 340 405
#     4  11  23  42  70  95 132 180 220 273 341 399
#     4  10  23  39  62  97 127 175 214 273 332 393
#     4  10  23  46  60  99 133 174 215 280 331 393
#     4  11  23  40  72  93 130 178 223 272 340 399
#
# _framework density 22.225971000000001
#
# number of rings (size 3 to 8) (size 9 to 14) (size 15 to 20)
#    0.750    1.000    1.250    1.500    8.750    0.000 
#    0.000    5.000    0.000    0.000    0.000    0.000 
#    0.000    0.000    0.000    0.000    0.000    0.000 
#
# Total GULP energy -89285.807815 kJ/mol
# GULP energy per Si atom -5580.362988 kJ/mol
# Density = 2.217538 g / cm^3
# Si number density = 22.225971 Si / 1000 Ang^3
#
#
#
# Elastic Constant Matrix: (Units=GPa)
#
#
# Indices 1 2 3 4 5 6 
#
# 1 115.2835 20.4282 31.9751 0.0000 6.5176 0.0000
# 2 20.4282 38.8818 17.2886 0.0000 3.0496 0.0000
# 3 31.9751 17.2886 122.1575 0.0000 20.2515 0.0000
# 4 0.0000 0.0000 0.0000 23.2515 0.0000 -4.9431
# 5 6.5176 3.0496 20.2515 0.0000 20.0692 0.0000
# 6 0.0000 0.0000 0.0000 -4.9431 0.0000 25.0219
#
#
#
# Elastic Compliance Matrix: (Units=1/GPa)
#
#
# Indices 1 2 3 4 5 6 
#
# 1 0.010010 -0.004366 -0.001889 0.000000 -0.000681 0.000000
# 2 -0.004366 0.029352 -0.003011 0.000000 -0.000004 0.000000
# 3 -0.001889 -0.003011 0.010723 0.000000 -0.009749 0.000000
# 4 0.000000 0.000000 0.000000 0.044893 0.000000 0.008869
# 5 -0.000681 -0.000004 -0.009749 0.000000 0.059887 0.000000
# 6 0.000000 0.000000 0.000000 0.008869 0.000000 0.041717
#
#
# Mechanical properties :
#
#
# Convention : Reuss Voigt Hill
#
# Bulk Modulus (GPa) = 31.69231 46.18962 38.94096
# Shear Modulus (GPa) = 22.15993 27.44393 24.80193
#
# Velocity S-wave (km/s) = 3.16100 3.51774 3.34413
# Velocity P-wave (km/s) = 5.25477 6.10952 5.69820
#
# Compressibility (1/GPa) = 0.03155340
#
# Stress axis : x y z
#
# Youngs Moduli (GPa) = 99.89547 34.06957 93.25680
#
# Poissons Ratio (x) = 0.14874 0.17621
# Poissons Ratio (y) = 0.43613 0.28076
# Poissons Ratio (z) = 0.18875 0.10257
#
# Static dielectric constant tensor:
#      x y z
#    x 1.827650 0.000000 0.059440 
#    y 0.000000 1.876930 0.000000 
#    z 0.059440 0.000000 1.847430 
# 
# From -- ./inp_files/13206.got.cif
#   From: 2010.05.17/outbox.cif.g08.bks.cpg/sg4_7_cif.got.tgz:13206.got - 2010.06.03 18:43:04.
