data_PCOD9117306
_publ_section_title
;
Structure prediction by ZEFSAII (Michael W. Deem and Ramdas Pophale) SiO2 
 PCOD9117306
Probable space group: P 21
;
_chemical_formula_sum "Si O2"
_cell_formula_units_Z 16
_cell_length_a 16.727911
_cell_length_b 6.222926
_cell_length_c 7.753707
_cell_angle_alpha 90.000000
_cell_angle_beta 107.350296
_cell_angle_gamma 90.000000
_cell_volume 770.409067
_symmetry_space_group_name_H-M "P 21"
_symmetry_group_IT_number 4
_symmetry_cell_setting 'monoclinic'
loop_
_space_group_symop_operation_xyz
x,y,z
-x,1/2+y,-z
loop_
_atom_site_type_symbol
_atom_site_label
_atom_site_fract_x
_atom_site_fract_y
_atom_site_fract_z
Si Si1 0.809314 0.373440 0.006272
Si Si2 0.005264 0.761320 0.914338
Si Si3 0.276241 0.056534 0.724742
Si Si4 0.463946 0.457049 0.227123
Si Si5 0.173683 0.174229 0.316366
Si Si6 0.290438 0.525211 0.224787
Si Si7 0.379361 0.736033 0.592386
Si Si8 0.552425 0.830782 0.170253
O O1 0.814600 0.487818 0.821385
O O2 0.748956 0.167920 0.950488
O O3 0.903050 0.292720 0.106727
O O4 0.773254 0.531601 0.128709
O O5 0.924734 0.728886 0.741352
O O6 0.008461 0.512566 0.009176
O O7 0.216250 0.125120 0.527400
O O8 0.359650 0.202163 0.788867
O O9 0.316208 0.830778 0.692218
O O10 0.372229 0.390741 0.223870
O O11 0.542294 0.390657 0.392618
O O12 0.476102 0.710455 0.213862
O O13 0.477877 0.378019 0.041510
O O14 0.221468 0.376649 0.265809
O O15 0.327191 0.683220 0.391896
O O16 0.423262 0.530428 0.699706
#
# Coordination Sequence:
#
# PCOD9117306 Si02
#       8
#     2   2   2   2   2   2   2   2
#     4  11  24  44  71 102 132 183 233 289 354 439
#     4  10  22  45  76 107 147 186 235 296 368 435
#     4  11  24  43  68  97 134 178 234 284 347 426
#     4  11  25  37  62  87 128 179 224 288 343 417
#     4  11  23  45  69 101 136 182 225 295 354 425
#     4  12  24  41  66  95 132 181 234 282 356 431
#     4  11  24  41  59  92 132 174 226 291 345 407
#     4  11  22  42  59  89 129 175 225 289 347 402
#
# _framework density 20.768189
#
# number of rings (size 3 to 8) (size 9 to 14) (size 15 to 20)
#    0.000    1.000    5.000    1.500    3.500    1.000 
#    0.000    6.250    0.000    0.000    0.000    0.000 
#    0.000    0.000    0.000    0.000    0.000    0.000 
#
# Total GULP energy -89154.276077 kJ/mol
# GULP energy per Si atom -5572.142255 kJ/mol
# Density = 2.072092 g / cm^3
# Si number density = 20.768189 Si / 1000 Ang^3
#
#
#
# Elastic Constant Matrix: (Units=GPa)
#
#
# Indices 1 2 3 4 5 6 
#
# 1 61.3853 1.8640 20.7837 0.0000 22.4867 0.0000
# 2 1.8640 48.7059 11.2322 0.0000 4.3821 0.0000
# 3 20.7837 11.2322 66.9766 0.0000 18.1743 0.0000
# 4 0.0000 0.0000 0.0000 27.8016 0.0000 11.4932
# 5 22.4867 4.3821 18.1743 0.0000 36.0481 0.0000
# 6 0.0000 0.0000 0.0000 11.4932 0.0000 27.3192
#
#
#
# Elastic Compliance Matrix: (Units=1/GPa)
#
#
# Indices 1 2 3 4 5 6 
#
# 1 0.021883 0.001097 -0.003747 0.000000 -0.011895 0.000000
# 2 0.001097 0.021438 -0.003525 0.000000 -0.001513 0.000000
# 3 -0.003747 -0.003525 0.018459 0.000000 -0.006541 0.000000
# 4 0.000000 0.000000 0.000000 0.043542 0.000000 -0.018318
# 5 -0.011895 -0.001513 -0.006541 0.000000 0.038642 0.000000
# 6 0.000000 0.000000 0.000000 -0.018318 0.000000 0.044311
#
#
# Mechanical properties :
#
#
# Convention : Reuss Voigt Hill
#
# Bulk Modulus (GPa) = 20.23034 27.20306 23.71670
# Shear Modulus (GPa) = 23.03053 27.77965 25.40509
#
# Velocity S-wave (km/s) = 3.33368 3.66130 3.50132
# Velocity P-wave (km/s) = 4.95783 5.56779 5.27164
#
# Compressibility (1/GPa) = 0.04943072
#
# Stress axis : x y z
#
# Youngs Moduli (GPa) = 45.69719 46.64512 54.17321
#
# Poissons Ratio (x) = -0.05116 0.20298
# Poissons Ratio (y) = -0.05012 0.19097
# Poissons Ratio (z) = 0.17122 0.16443
#
# Static dielectric constant tensor:
#      x y z
#    x 1.732700 0.000000 -0.015580 
#    y 0.000000 1.863030 0.000000 
#    z -0.015580 0.000000 1.735420 
# 
# From -- ./inp_files/8619.got.cif
#   From: 2010.05.17/outbox.cif.g08.bks.cpg/sg4_5_cif.got.tgz:8619.got - 2010.06.03 18:43:04.
