data_PCOD9117101
_publ_section_title
;
Structure prediction by ZEFSAII (Michael W. Deem and Ramdas Pophale) SiO2 
 PCOD9117101
Probable space group: P 21
;
_chemical_formula_sum "Si O2"
_cell_formula_units_Z 14
_cell_length_a 5.232551
_cell_length_b 13.730586
_cell_length_c 9.055138
_cell_angle_alpha 90.000000
_cell_angle_beta 57.685239
_cell_angle_gamma 90.000000
_cell_volume 549.816949
_symmetry_space_group_name_H-M "P 21"
_symmetry_group_IT_number 4
_symmetry_cell_setting 'monoclinic'
loop_
_space_group_symop_operation_xyz
x,y,z
-x,1/2+y,-z
loop_
_atom_site_type_symbol
_atom_site_label
_atom_site_fract_x
_atom_site_fract_y
_atom_site_fract_z
Si Si1 0.056315 0.354390 0.524147
Si Si2 0.661257 0.014973 0.392324
Si Si3 0.589393 0.387357 0.911677
Si Si4 0.169481 0.139766 0.402205
Si Si5 0.944606 0.382591 0.220160
Si Si6 0.111906 0.036486 0.995172
Si Si7 0.252533 0.724938 0.910008
O O1 0.321980 0.412942 0.526878
O O2 0.075280 0.238214 0.514129
O O3 0.038203 0.386784 0.360092
O O4 0.755766 0.386486 0.705050
O O5 0.349472 0.068240 0.455876
O O6 0.825283 0.001213 0.183154
O O7 0.886385 0.086732 0.413790
O O8 0.623666 0.491880 0.983799
O O9 0.245063 0.359396 0.031623
O O10 0.754187 0.304430 0.959183
O O11 0.421753 0.171440 0.201788
O O12 0.749396 0.287934 0.240466
O O13 0.840379 0.481861 0.174350
O O14 0.020629 0.148063 0.999523
#
# Coordination Sequence:
#
# PCOD9117101 Si02
#       7
#     2   2   2   2   2   2   2
#     4  11  24  45  74 104 147 185 236 304 347 427
#     4  10  25  43  73 107 142 191 239 291 361 416
#     4  10  23  42  65 103 132 186 235 285 357 415
#     4  11  23  46  72 107 143 191 237 295 357 417
#     4  11  23  45  69 103 138 188 234 288 362 411
#     4   9  22  40  66  98 135 185 228 290 341 423
#     4  10  22  43  69  96 143 184 235 291 353 419
#
# _framework density 25.463018999999999
#
# number of rings (size 3 to 8) (size 9 to 14) (size 15 to 20)
#    0.000    1.714    1.429    1.714    8.000    3.429 
#   12.857    0.000    0.000    0.000    0.000    0.000 
#    0.000    0.000    0.000    0.000    0.000    0.000 
#
# Total GULP energy -78369.969812 kJ/mol
# GULP energy per Si atom -5597.854987 kJ/mol
# Density = 2.540506 g / cm^3
# Si number density = 25.463019 Si / 1000 Ang^3
#
#
#
# Elastic Constant Matrix: (Units=GPa)
#
#
# Indices 1 2 3 4 5 6 
#
# 1 94.7133 47.7718 28.3209 0.0000 11.2342 0.0000
# 2 47.7718 151.6551 22.9837 0.0000 11.9263 0.0000
# 3 28.3209 22.9837 82.7562 0.0000 24.1142 0.0000
# 4 0.0000 0.0000 0.0000 47.4683 0.0000 4.7033
# 5 11.2342 11.9263 24.1142 0.0000 40.1446 0.0000
# 6 0.0000 0.0000 0.0000 4.7033 0.0000 51.9032
#
#
#
# Elastic Compliance Matrix: (Units=1/GPa)
#
#
# Indices 1 2 3 4 5 6 
#
# 1 0.013516 -0.003690 -0.003416 0.000000 -0.000634 0.000000
# 2 -0.003690 0.007930 -0.000672 0.000000 -0.000920 0.000000
# 3 -0.003416 -0.000672 0.015882 0.000000 -0.008385 0.000000
# 4 0.000000 0.000000 0.000000 0.021258 0.000000 -0.001926
# 5 -0.000634 -0.000920 -0.008385 0.000000 0.030397 0.000000
# 6 0.000000 0.000000 0.000000 -0.001926 0.000000 0.019441
#
#
# Mechanical properties :
#
#
# Convention : Reuss Voigt Hill
#
# Bulk Modulus (GPa) = 45.92653 58.58638 52.25646
# Shear Modulus (GPa) = 38.09876 43.23978 40.66927
#
# Velocity S-wave (km/s) = 3.87232 4.12532 4.00082
# Velocity P-wave (km/s) = 6.17000 6.76383 6.47373
#
# Compressibility (1/GPa) = 0.02177391
#
# Stress axis : x y z
#
# Youngs Moduli (GPa) = 73.98644 126.09687 62.96264
#
# Poissons Ratio (x) = 0.46530 0.21507
# Poissons Ratio (y) = 0.27301 0.04229
# Poissons Ratio (z) = 0.25272 0.08469
#
# Static dielectric constant tensor:
#      x y z
#    x 2.050570 0.000000 -0.027040 
#    y 0.000000 2.034800 0.000000 
#    z -0.027040 0.000000 1.980870 
# 
# From -- ./inp_files/1867.got.cif
#   From: 2010.05.17/outbox.cif.g08.bks.cpg/sg4_1_cif.got.tgz:1867.got - 2010.06.03 18:43:04.
