data_PCOD9117290
_publ_section_title
;
Structure prediction by ZEFSAII (Michael W. Deem and Ramdas Pophale) SiO2 
 PCOD9117290
Probable space group: P 21
;
_chemical_formula_sum "Si O2"
_cell_formula_units_Z 16
_cell_length_a 5.231869
_cell_length_b 7.969764
_cell_length_c 17.250735
_cell_angle_alpha 90.000000
_cell_angle_beta 59.464806
_cell_angle_gamma 90.000000
_cell_volume 619.545301
_symmetry_space_group_name_H-M "P 21"
_symmetry_group_IT_number 4
_symmetry_cell_setting 'monoclinic'
loop_
_space_group_symop_operation_xyz
x,y,z
-x,1/2+y,-z
loop_
_atom_site_type_symbol
_atom_site_label
_atom_site_fract_x
_atom_site_fract_y
_atom_site_fract_z
Si Si1 0.139277 0.689150 0.599789
Si Si2 0.483867 0.823632 0.699008
Si Si3 0.163289 0.640981 0.137745
Si Si4 0.622210 0.840260 0.245271
Si Si5 0.445458 0.003760 0.047177
Si Si6 0.183231 0.657165 0.871176
Si Si7 0.865859 0.122973 0.681307
Si Si8 0.630210 0.823150 0.426917
O O1 0.293650 0.762454 0.654634
O O2 0.301181 0.794924 0.507892
O O3 0.232072 0.498726 0.568685
O O4 0.787492 0.714097 0.658298
O O5 0.289450 0.819737 0.808176
O O6 0.635118 0.007418 0.670864
O O7 0.121174 0.565556 0.231020
O O8 0.834736 0.709365 0.167958
O O9 0.348444 0.819603 0.094984
O O10 0.322796 0.505695 0.059254
O O11 0.284876 0.803172 0.279818
O O12 0.649369 0.824268 0.331936
O O13 0.727187 0.020569 0.206571
O O14 0.615255 0.111601 0.086599
O O15 0.157026 0.107869 0.062941
O O16 0.158025 0.163518 0.587661
#
# Coordination Sequence:
#
# PCOD9117290 Si02
#       8
#     2   2   2   2   2   2   2   2
#     4  12  28  47  75 108 143 189 242 295 358 427
#     4  12  28  45  73 107 143 187 241 291 362 429
#     4  10  25  42  66 104 135 185 231 293 357 420
#     4  10  22  45  71  95 140 188 228 285 362 425
#     4  11  25  42  69  99 139 177 238 287 356 423
#     4  11  23  46  68  98 136 188 226 288 355 429
#     4  11  25  45  73 100 148 185 241 293 364 426
#     4  11  26  46  73 105 146 189 237 302 356 433
#
# _framework density 25.825396000000001
#
# number of rings (size 3 to 8) (size 9 to 14) (size 15 to 20)
#    0.000    1.000    2.500    2.250   12.250    1.000 
#    0.000    0.000    0.000    0.000    0.000    0.000 
#    0.000    0.000    0.000    0.000    0.000    0.000 
#
# Total GULP energy -89451.661084 kJ/mol
# GULP energy per Si atom -5590.728818 kJ/mol
# Density = 2.576662 g / cm^3
# Si number density = 25.825396 Si / 1000 Ang^3
#
#
#
# Elastic Constant Matrix: (Units=GPa)
#
#
# Indices 1 2 3 4 5 6 
#
# 1 81.2468 1.5344 30.1913 0.0000 -11.3998 0.0000
# 2 1.5344 91.8432 20.1242 0.0000 -11.8591 0.0000
# 3 30.1913 20.1242 91.6098 0.0000 -39.2220 0.0000
# 4 0.0000 0.0000 0.0000 45.3956 0.0000 -8.8911
# 5 -11.3998 -11.8591 -39.2220 0.0000 33.3974 0.0000
# 6 0.0000 0.0000 0.0000 -8.8911 0.0000 29.4957
#
#
#
# Elastic Compliance Matrix: (Units=1/GPa)
#
#
# Indices 1 2 3 4 5 6 
#
# 1 0.014106 0.000780 -0.005310 0.000000 -0.001144 0.000000
# 2 0.000780 0.011565 -0.001861 0.000000 0.002187 0.000000
# 3 -0.005310 -0.001861 0.024167 0.000000 0.025909 0.000000
# 4 0.000000 0.000000 0.000000 0.023411 0.000000 0.007057
# 5 -0.001144 0.002187 0.025909 0.000000 0.060756 0.000000
# 6 0.000000 0.000000 0.000000 0.007057 0.000000 0.036030
#
#
# Mechanical properties :
#
#
# Convention : Reuss Voigt Hill
#
# Bulk Modulus (GPa) = 26.98597 40.93328 33.95963
# Shear Modulus (GPa) = 25.61856 35.84774 30.73315
#
# Velocity S-wave (km/s) = 3.15301 3.72974 3.45343
# Velocity P-wave (km/s) = 4.87107 5.86791 5.39257
#
# Compressibility (1/GPa) = 0.03705629
#
# Stress axis : x y z
#
# Youngs Moduli (GPa) = 70.89115 86.46524 41.37789
#
# Poissons Ratio (x) = -0.06745 0.21972
# Poissons Ratio (y) = -0.05530 0.07702
# Poissons Ratio (z) = 0.37644 0.16094
#
# Static dielectric constant tensor:
#      x y z
#    x 2.093000 0.000000 0.031110 
#    y 0.000000 2.219120 0.000000 
#    z 0.031110 0.000000 1.998920 
# 
# From -- ./inp_files/3468.got.cif
#   From: 2010.05.17/outbox.cif.g08.bks.cpg/sg4_2_cif.got.tgz:3468.got - 2010.06.03 18:43:04.
