data_PCOD9117455
_publ_section_title
;
Structure prediction by ZEFSAII (Michael W. Deem and Ramdas Pophale) SiO2 
 PCOD9117455
Probable space group: P 21
;
_chemical_formula_sum "Si O2"
_cell_formula_units_Z 16
_cell_length_a 11.678960
_cell_length_b 10.664296
_cell_length_c 5.359828
_cell_angle_alpha 90.000000
_cell_angle_beta 70.051178
_cell_angle_gamma 90.000000
_cell_volume 627.500430
_symmetry_space_group_name_H-M "P 21"
_symmetry_group_IT_number 4
_symmetry_cell_setting 'monoclinic'
loop_
_space_group_symop_operation_xyz
x,y,z
-x,1/2+y,-z
loop_
_atom_site_type_symbol
_atom_site_label
_atom_site_fract_x
_atom_site_fract_y
_atom_site_fract_z
Si Si1 0.846322 0.845780 0.526304
Si Si2 0.682378 0.465555 0.310144
Si Si3 0.911590 0.037837 0.874904
Si Si4 0.299072 0.554450 0.614141
Si Si5 0.071177 0.915528 0.091423
Si Si6 0.201533 0.753467 0.321363
Si Si7 0.441461 0.734863 0.798215
Si Si8 0.317001 0.126297 0.193710
O O1 0.921659 0.923090 0.677402
O O2 0.798398 0.714640 0.661847
O O3 0.940893 0.844400 0.223736
O O4 0.730268 0.935973 0.540191
O O5 0.576683 0.363113 0.342152
O O6 0.673217 0.527518 0.586299
O O7 0.815530 0.397421 0.183228
O O8 0.682102 0.564643 0.080977
O O9 0.899777 0.165296 0.733802
O O10 0.011601 0.041007 0.018805
O O11 0.777441 0.019665 0.086783
O O12 0.230877 0.674225 0.544020
O O13 0.422310 0.616632 0.623484
O O14 0.145695 0.888492 0.290186
O O15 0.329293 0.742980 0.076466
O O16 0.563746 0.713086 0.858602
#
# Coordination Sequence:
#
# PCOD9117455 Si02
#       8
#     2   2   2   2   2   2   2   2
#     4  10  24  41  70 106 143 192 241 306 376 447
#     4  11  30  49  73 114 150 199 246 314 379 440
#     4   9  20  38  64  98 133 184 239 294 364 443
#     4   9  20  41  70  98 132 189 252 298 362 452
#     4  10  23  40  69  97 146 189 235 305 363 454
#     4   9  20  38  64  98 128 187 244 292 366 436
#     4  10  25  46  74  98 146 194 246 306 371 445
#     4  12  30  47  76 113 156 190 251 319 369 445
#
# _framework density 25.497990000000001
#
# number of rings (size 3 to 8) (size 9 to 14) (size 15 to 20)
#    0.000    2.000    0.000    0.000   14.000    6.000 
#    0.000    0.000    0.000    0.000    0.000    0.000 
#    0.000    0.000    0.000    0.000    0.000    0.000 
#
# Total GULP energy -89123.515008 kJ/mol
# GULP energy per Si atom -5570.219688 kJ/mol
# Density = 2.543996 g / cm^3
# Si number density = 25.497990 Si / 1000 Ang^3
#
#
#
# Elastic Constant Matrix: (Units=GPa)
#
#
# Indices 1 2 3 4 5 6 
#
# 1 108.8390 27.1882 5.0730 0.0000 1.7992 0.0000
# 2 27.1882 68.4523 11.7028 0.0000 12.8126 0.0000
# 3 5.0730 11.7028 46.9887 0.0000 8.0553 0.0000
# 4 0.0000 0.0000 0.0000 33.9355 0.0000 0.3375
# 5 1.7992 12.8126 8.0553 0.0000 27.9509 0.0000
# 6 0.0000 0.0000 0.0000 0.3375 0.0000 36.7235
#
#
#
# Elastic Compliance Matrix: (Units=1/GPa)
#
#
# Indices 1 2 3 4 5 6 
#
# 1 0.010247 -0.004282 -0.000277 0.000000 0.001383 0.000000
# 2 -0.004282 0.018144 -0.002817 0.000000 -0.007230 0.000000
# 3 -0.000277 -0.002817 0.022921 0.000000 -0.005297 0.000000
# 4 0.000000 0.000000 0.000000 0.029470 0.000000 -0.000271
# 5 0.001383 -0.007230 -0.005297 0.000000 0.040528 0.000000
# 6 0.000000 0.000000 0.000000 -0.000271 0.000000 0.027233
#
#
# Mechanical properties :
#
#
# Convention : Reuss Voigt Hill
#
# Bulk Modulus (GPa) = 27.35151 34.68976 31.02064
# Shear Modulus (GPa) = 28.49268 31.74305 30.11787
#
# Velocity S-wave (km/s) = 3.34645 3.53218 3.44057
# Velocity P-wave (km/s) = 5.06773 5.50177 5.28920
#
# Compressibility (1/GPa) = 0.03656106
#
# Stress axis : x y z
#
# Youngs Moduli (GPa) = 97.58487 55.11409 43.62759
#
# Poissons Ratio (x) = 0.23598 0.01209
# Poissons Ratio (y) = 0.41782 0.12291
# Poissons Ratio (z) = 0.02703 0.15527
#
# Static dielectric constant tensor:
#      x y z
#    x 2.010520 0.000000 -0.009140 
#    y 0.000000 2.101490 0.000000 
#    z -0.009140 0.000000 2.044530 
# 
# From -- ./inp_files/3058.got.cif
#   From: 2010.05.17/outbox.cif.g08.bks.cpg/sg4_2_cif.got.tgz:3058.got - 2010.06.03 18:43:04.
