data_PCOD9117487
_publ_section_title
;
Structure prediction by ZEFSAII (Michael W. Deem and Ramdas Pophale) SiO2 
 PCOD9117487
Probable space group: P 21
;
_chemical_formula_sum "Si O2"
_cell_formula_units_Z 14
_cell_length_a 10.529500
_cell_length_b 4.952823
_cell_length_c 12.150455
_cell_angle_alpha 90.000000
_cell_angle_beta 75.079811
_cell_angle_gamma 90.000000
_cell_volume 612.291912
_symmetry_space_group_name_H-M "P 21"
_symmetry_group_IT_number 4
_symmetry_cell_setting 'monoclinic'
loop_
_space_group_symop_operation_xyz
x,y,z
-x,1/2+y,-z
loop_
_atom_site_type_symbol
_atom_site_label
_atom_site_fract_x
_atom_site_fract_y
_atom_site_fract_z
Si Si1 0.867497 0.248870 0.880944
Si Si2 0.280691 0.395740 0.792196
Si Si3 0.915046 0.568656 0.650259
Si Si4 0.586940 0.037753 0.007615
Si Si5 0.418904 0.380009 0.531423
Si Si6 0.110460 0.892105 0.873340
Si Si7 0.826936 0.069165 0.544430
O O1 0.887273 0.450778 0.775832
O O2 0.720090 0.130750 0.916837
O O3 0.889786 0.395320 0.993785
O O4 0.975175 0.009749 0.857428
O O5 0.360607 0.438513 0.664111
O O6 0.156255 0.596936 0.827098
O O7 0.224326 0.095170 0.809632
O O8 0.367577 0.455322 0.880294
O O9 0.874246 0.873936 0.632793
O O10 0.066201 0.535332 0.577367
O O11 0.834808 0.374401 0.584477
O O12 0.485625 0.285766 0.031539
O O13 0.546025 0.566825 0.486612
O O14 0.312811 0.474407 0.466245
#
# Coordination Sequence:
#
# PCOD9117487 Si02
#       7
#     2   2   2   2   2   2   2
#     4  11  24  42  68  99 127 171 219 264 325 392
#     4  11  25  46  67  95 134 173 214 279 334 368
#     4  10  23  41  68  91 128 166 210 275 327 378
#     4  11  25  42  62  92 134 174 211 256 320 397
#     4  12  26  44  69  96 129 175 226 267 317 396
#     4  11  24  42  69 100 131 164 219 279 329 383
#     4  10  23  43  61  95 127 165 215 268 330 374
#
# _framework density 22.864910999999999
#
# number of rings (size 3 to 8) (size 9 to 14) (size 15 to 20)
#    0.000    1.143    0.000    6.000    0.000   13.714 
#    0.000    0.000    0.000    0.000    0.000    0.000 
#    0.000    0.000    0.000    0.000    0.000    0.000 
#
# Total GULP energy -78484.833484 kJ/mol
# GULP energy per Si atom -5606.059535 kJ/mol
# Density = 2.281287 g / cm^3
# Si number density = 22.864911 Si / 1000 Ang^3
#
#
#
# Elastic Constant Matrix: (Units=GPa)
#
#
# Indices 1 2 3 4 5 6 
#
# 1 103.2373 -0.2827 1.8825 0.0000 9.9313 0.0000
# 2 -0.2827 54.7066 -22.8182 0.0000 2.3735 0.0000
# 3 1.8825 -22.8182 95.2567 0.0000 -10.0503 0.0000
# 4 0.0000 0.0000 0.0000 21.2857 0.0000 1.5192
# 5 9.9313 2.3735 -10.0503 0.0000 17.3206 0.0000
# 6 0.0000 0.0000 0.0000 1.5192 0.0000 35.7855
#
#
#
# Elastic Compliance Matrix: (Units=1/GPa)
#
#
# Indices 1 2 3 4 5 6 
#
# 1 0.010321 -0.000040 -0.000892 0.000000 -0.006430 0.000000
# 2 -0.000040 0.020309 0.004873 0.000000 0.000067 0.000000
# 3 -0.000892 0.004873 0.012427 0.000000 0.007055 0.000000
# 4 0.000000 0.000000 0.000000 0.047123 0.000000 -0.002000
# 5 -0.006430 0.000067 0.007055 0.000000 0.065506 0.000000
# 6 0.000000 0.000000 0.000000 -0.002000 0.000000 0.028029
#
#
# Mechanical properties :
#
#
# Convention : Reuss Voigt Hill
#
# Bulk Modulus (GPa) = 19.63132 23.41820 21.52476
# Shear Modulus (GPa) = 25.93201 33.17296 29.55248
#
# Velocity S-wave (km/s) = 3.37135 3.81310 3.59901
# Velocity P-wave (km/s) = 4.87433 5.44523 5.16767
#
# Compressibility (1/GPa) = 0.05093900
#
# Stress axis : x y z
#
# Youngs Moduli (GPa) = 96.88852 49.24023 80.46926
#
# Poissons Ratio (x) = 0.00196 0.07177
# Poissons Ratio (y) = 0.00385 -0.39210
# Poissons Ratio (z) = 0.08641 -0.23993
#
# Static dielectric constant tensor:
#      x y z
#    x 1.833710 0.000000 0.015660 
#    y 0.000000 1.817020 0.000000 
#    z 0.015660 0.000000 1.821880 
# 
# From -- ./inp_files/10040.got.cif
#   From: 2010.05.17/outbox.cif.g08.bks.cpg/sg4_6_cif.got.tgz:10040.got - 2010.06.03 18:43:04.
