data_PCOD9117980
_publ_section_title
;
Structure prediction by ZEFSAII (Michael W. Deem and Ramdas Pophale) SiO2 
 PCOD9117980
Probable space group: P 21
;
_chemical_formula_sum "Si O2"
_cell_formula_units_Z 14
_cell_length_a 11.606886
_cell_length_b 5.182304
_cell_length_c 11.511811
_cell_angle_alpha 90.000000
_cell_angle_beta 129.256170
_cell_angle_gamma 90.000000
_cell_volume 536.173393
_symmetry_space_group_name_H-M "P 21"
_symmetry_group_IT_number 4
_symmetry_cell_setting 'monoclinic'
loop_
_space_group_symop_operation_xyz
x,y,z
-x,1/2+y,-z
loop_
_atom_site_type_symbol
_atom_site_label
_atom_site_fract_x
_atom_site_fract_y
_atom_site_fract_z
Si Si1 0.638132 0.108030 0.742004
Si Si2 0.421099 0.701799 0.917885
Si Si3 0.924266 0.825741 0.006075
Si Si4 0.852604 0.561953 0.445091
Si Si5 0.659181 0.312985 0.519173
Si Si6 0.878089 0.881049 0.248287
Si Si7 0.421347 0.437682 0.694807
O O1 0.756214 0.899738 0.858990
O O2 0.705838 0.285309 0.682232
O O3 0.574632 0.283426 0.806106
O O4 0.481984 0.992731 0.596380
O O5 0.273978 0.546490 0.860570
O O6 0.424236 0.682104 0.780628
O O7 0.550657 0.498233 0.035323
O O8 0.022730 0.053897 0.011561
O O9 0.931276 0.833161 0.150681
O O10 0.785384 0.369927 0.503243
O O11 0.872269 0.610044 0.317790
O O12 0.727516 0.782493 0.376358
O O13 0.018584 0.561554 0.602476
O O14 0.597391 0.032241 0.446811
#
# Coordination Sequence:
#
# PCOD9117980 Si02
#       7
#     2   2   2   2   2   2   2
#     4  11  24  45  77 112 153 203 251 321 394 457
#     4  11  27  47  73 108 150 197 255 315 380 463
#     4  12  31  51  78 116 160 212 259 320 392 475
#     4  10  26  45  70 110 144 198 255 322 379 459
#     4  11  23  43  73 111 151 190 259 318 381 464
#     4  11  27  49  79 109 155 206 255 328 392 460
#     4  10  24  42  72 108 141 196 250 314 380 454
#
# _framework density 26.110954
#
# number of rings (size 3 to 8) (size 9 to 14) (size 15 to 20)
#    0.000    1.143    1.429    1.714   16.000    2.286 
#    0.000    0.000    0.000    0.000    0.000    0.000 
#    0.000    0.000    0.000    0.000    0.000    0.000 
#
# Total GULP energy -78123.903941 kJ/mol
# GULP energy per Si atom -5580.278853 kJ/mol
# Density = 2.605152 g / cm^3
# Si number density = 26.110954 Si / 1000 Ang^3
#
#
#
# Elastic Constant Matrix: (Units=GPa)
#
#
# Indices 1 2 3 4 5 6 
#
# 1 125.6392 20.2684 50.8604 0.0000 -19.7889 0.0000
# 2 20.2684 81.0451 23.8558 0.0000 -2.5513 0.0000
# 3 50.8604 23.8558 131.4909 0.0000 -8.3653 0.0000
# 4 0.0000 0.0000 0.0000 37.0890 0.0000 -13.4253
# 5 -19.7889 -2.5513 -8.3653 0.0000 52.7977 0.0000
# 6 0.0000 0.0000 0.0000 -13.4253 0.0000 22.6947
#
#
#
# Elastic Compliance Matrix: (Units=1/GPa)
#
#
# Indices 1 2 3 4 5 6 
#
# 1 0.010078 -0.001408 -0.003441 0.000000 0.003164 0.000000
# 2 -0.001408 0.013235 -0.001868 0.000000 -0.000184 0.000000
# 3 -0.003441 -0.001868 0.009281 0.000000 0.000090 0.000000
# 4 0.000000 0.000000 0.000000 0.034309 0.000000 0.020296
# 5 0.003164 -0.000184 0.000090 0.000000 0.020131 0.000000
# 6 0.000000 0.000000 0.000000 0.020296 0.000000 0.056069
#
#
# Mechanical properties :
#
#
# Convention : Reuss Voigt Hill
#
# Bulk Modulus (GPa) = 52.19544 58.68270 55.43907
# Shear Modulus (GPa) = 30.68898 38.72899 34.70898
#
# Velocity S-wave (km/s) = 3.43203 3.85547 3.64990
# Velocity P-wave (km/s) = 5.97816 6.50713 6.24824
#
# Compressibility (1/GPa) = 0.01915876
#
# Stress axis : x y z
#
# Youngs Moduli (GPa) = 99.22736 75.55705 107.74782
#
# Poissons Ratio (x) = 0.10637 0.37080
# Poissons Ratio (y) = 0.13969 0.20131
# Poissons Ratio (z) = 0.34148 0.14117
#
# Static dielectric constant tensor:
#      x y z
#    x 2.132750 0.000000 0.053430 
#    y 0.000000 2.101360 0.000000 
#    z 0.053430 0.000000 2.083700 
# 
# From -- ./inp_files/11552.got.cif
#   From: 2010.05.17/outbox.cif.g08.bks.cpg/sg4_6_cif.got.tgz:11552.got - 2010.06.03 18:43:04.
