data_PCOD9117651
_publ_section_title
;
Structure prediction by ZEFSAII (Michael W. Deem and Ramdas Pophale) SiO2 
 PCOD9117651
Probable space group: P 21
;
_chemical_formula_sum "Si O2"
_cell_formula_units_Z 16
_cell_length_a 8.805215
_cell_length_b 4.771597
_cell_length_c 25.222725
_cell_angle_alpha 90.000000
_cell_angle_beta 35.912513
_cell_angle_gamma 90.000000
_cell_volume 621.584549
_symmetry_space_group_name_H-M "P 21"
_symmetry_group_IT_number 4
_symmetry_cell_setting 'monoclinic'
loop_
_space_group_symop_operation_xyz
x,y,z
-x,1/2+y,-z
loop_
_atom_site_type_symbol
_atom_site_label
_atom_site_fract_x
_atom_site_fract_y
_atom_site_fract_z
Si Si1 0.224569 0.867580 0.320395
Si Si2 0.581139 0.879659 0.665152
Si Si3 0.078909 0.679814 0.778586
Si Si4 0.823105 0.263143 0.414556
Si Si5 0.534928 0.614922 0.578383
Si Si6 0.161486 0.626920 0.969914
Si Si7 0.293196 0.229236 0.214449
Si Si8 0.661147 0.802871 0.973333
O O1 0.282250 0.627683 0.344606
O O2 0.379545 0.119358 0.306686
O O3 0.310072 0.914822 0.235334
O O4 0.922626 0.952351 0.400853
O O5 0.688276 0.800939 0.577208
O O6 0.275556 0.924481 0.741614
O O7 0.860770 0.730983 0.796457
O O8 0.297811 0.502392 0.683641
O O9 0.907243 0.636444 0.879115
O O10 0.708460 0.393124 0.499441
O O11 0.618085 0.271713 0.425321
O O12 0.088764 0.379972 0.312325
O O13 0.408726 0.795236 0.876427
O O14 0.259801 0.461680 0.994807
O O15 0.952584 0.877204 0.034596
O O16 0.441938 0.559415 0.035147
#
# Coordination Sequence:
#
# PCOD9117651 Si02
#       8
#     2   2   2   2   2   2   2   2
#     4  10  23  43  73 107 149 206 248 327 402 465
#     4  10  23  44  72 111 149 201 257 322 397 470
#     4   9  22  47  74 111 158 213 264 334 389 486
#     4   9  21  44  74 110 158 206 270 328 394 481
#     4   9  21  44  72 115 151 207 272 327 392 475
#     4  12  28  46  75 119 165 213 270 338 408 488
#     4   9  22  49  72 112 159 215 262 333 400 482
#     4  12  26  47  74 115 161 213 271 329 402 483
#
# _framework density 25.740663999999999
#
# number of rings (size 3 to 8) (size 9 to 14) (size 15 to 20)
#    1.500    0.500    1.250    0.750    3.500    3.000 
#    0.000    2.500    0.000    0.000    0.000    0.000 
#    0.000    0.000    0.000    0.000    0.000    0.000 
#
# Total GULP energy -89118.075514 kJ/mol
# GULP energy per Si atom -5569.879720 kJ/mol
# Density = 2.568208 g / cm^3
# Si number density = 25.740664 Si / 1000 Ang^3
#
#
#
# Elastic Constant Matrix: (Units=GPa)
#
#
# Indices 1 2 3 4 5 6 
#
# 1 168.2862 36.7249 31.2117 0.0000 6.9791 0.0000
# 2 36.7249 71.1342 24.9608 0.0000 -4.5271 0.0000
# 3 31.2117 24.9608 146.6772 0.0000 -14.1309 0.0000
# 4 0.0000 0.0000 0.0000 32.0310 0.0000 1.4257
# 5 6.9791 -4.5271 -14.1309 0.0000 35.6699 0.0000
# 6 0.0000 0.0000 0.0000 1.4257 0.0000 39.2964
#
#
#
# Elastic Compliance Matrix: (Units=1/GPa)
#
#
# Indices 1 2 3 4 5 6 
#
# 1 0.006975 -0.003347 -0.001130 0.000000 -0.002237 0.000000
# 2 -0.003347 0.016586 -0.001918 0.000000 0.002000 0.000000
# 3 -0.001130 -0.001918 0.007675 0.000000 0.003018 0.000000
# 4 0.000000 0.000000 0.000000 0.031270 0.000000 -0.001135
# 5 -0.002237 0.002000 0.003018 0.000000 0.029922 0.000000
# 6 0.000000 0.000000 0.000000 -0.001135 0.000000 0.025489
#
#
# Mechanical properties :
#
#
# Convention : Reuss Voigt Hill
#
# Bulk Modulus (GPa) = 54.20943 63.54360 58.87651
# Shear Modulus (GPa) = 36.53474 40.94614 38.74044
#
# Velocity S-wave (km/s) = 3.77150 3.99271 3.88368
# Velocity P-wave (km/s) = 6.33018 6.78198 6.55997
#
# Compressibility (1/GPa) = 0.01844698
#
# Stress axis : x y z
#
# Youngs Moduli (GPa) = 143.36841 60.29170 130.28777
#
# Poissons Ratio (x) = 0.20179 0.14725
# Poissons Ratio (y) = 0.47983 0.24985
# Poissons Ratio (z) = 0.16204 0.11562
#
# Static dielectric constant tensor:
#      x y z
#    x 1.994210 0.000000 -0.022810 
#    y 0.000000 2.258080 0.000000 
#    z -0.022810 0.000000 2.104640 
# 
# From -- ./inp_files/16074.got.cif
#   From: 2010.05.17/outbox.cif.g08.bks.cpg/sg4_9_cif.got.tgz:16074.got - 2010.06.03 18:43:04.
