data_PCOD9117417
_publ_section_title
;
Structure prediction by ZEFSAII (Michael W. Deem and Ramdas Pophale) SiO2 
 PCOD9117417
Probable space group: P 21
;
_chemical_formula_sum "Si O2"
_cell_formula_units_Z 12
_cell_length_a 9.293997
_cell_length_b 8.714260
_cell_length_c 7.243919
_cell_angle_alpha 90.000000
_cell_angle_beta 129.550077
_cell_angle_gamma 90.000000
_cell_volume 452.375946
_symmetry_space_group_name_H-M "P 21"
_symmetry_group_IT_number 4
_symmetry_cell_setting 'monoclinic'
loop_
_space_group_symop_operation_xyz
x,y,z
-x,1/2+y,-z
loop_
_atom_site_type_symbol
_atom_site_label
_atom_site_fract_x
_atom_site_fract_y
_atom_site_fract_z
Si Si1 0.467602 0.299890 0.300255
Si Si2 0.665270 0.997304 0.361352
Si Si3 0.175078 0.306949 0.784496
Si Si4 0.013113 0.574556 0.140068
Si Si5 0.216622 0.809526 0.712012
Si Si6 0.745761 0.352766 0.822710
O O1 0.625284 0.374414 0.296013
O O2 0.541464 0.338258 0.564876
O O3 0.241484 0.624915 0.703407
O O4 0.272720 0.356028 0.057867
O O5 0.666183 0.844868 0.236835
O O6 0.823256 0.969678 0.644598
O O7 0.501085 0.114538 0.296660
O O8 0.115243 0.136593 0.796615
O O9 0.981035 0.359354 0.535481
O O10 0.131432 0.715229 0.159069
O O11 0.871702 0.500792 0.880888
O O12 0.247811 0.839446 0.951925
#
# Coordination Sequence:
#
# PCOD9117417 Si02
#       6
#     2   2   2   2   2   2
#     4   9  23  41  61 100 125 162 214 268 309 383
#     4   8  19  41  60  94 120 165 215 254 309 379
#     4  11  19  44  65  91 132 164 217 260 320 381
#     4  10  23  38  68  95 123 178 209 258 325 376
#     4   9  21  40  66  87 122 172 204 259 320 365
#     4  11  21  44  62  95 134 161 219 261 315 384
#
# _framework density 26.526609000000001
#
# number of rings (size 3 to 8) (size 9 to 14) (size 15 to 20)
#    1.000    1.333    3.333    0.000    2.333    1.333 
#    9.000    0.000    0.000    0.000    0.000    0.000 
#    0.000    0.000    0.000    0.000    0.000    0.000 
#
# Total GULP energy -66852.007633 kJ/mol
# GULP energy per Si atom -5571.000636 kJ/mol
# Density = 2.646623 g / cm^3
# Si number density = 26.526609 Si / 1000 Ang^3
#
#
#
# Elastic Constant Matrix: (Units=GPa)
#
#
# Indices 1 2 3 4 5 6 
#
# 1 58.8255 14.3428 49.2220 0.0000 7.8138 0.0000
# 2 14.3428 39.6478 13.6190 0.0000 1.4859 0.0000
# 3 49.2220 13.6190 240.2422 0.0000 13.8277 0.0000
# 4 0.0000 0.0000 0.0000 36.2593 0.0000 -12.5775
# 5 7.8138 1.4859 13.8277 0.0000 57.3699 0.0000
# 6 0.0000 0.0000 0.0000 -12.5775 0.0000 31.3660
#
#
#
# Elastic Compliance Matrix: (Units=1/GPa)
#
#
# Indices 1 2 3 4 5 6 
#
# 1 0.022269 -0.006584 -0.004081 0.000000 -0.001879 0.000000
# 2 -0.006584 0.027675 -0.000234 0.000000 0.000236 0.000000
# 3 -0.004081 -0.000234 0.005050 0.000000 -0.000655 0.000000
# 4 0.000000 0.000000 0.000000 0.032035 0.000000 0.012846
# 5 -0.001879 0.000236 -0.000655 0.000000 0.017838 0.000000
# 6 0.000000 0.000000 0.000000 0.012846 0.000000 0.037033
#
#
# Mechanical properties :
#
#
# Convention : Reuss Voigt Hill
#
# Bulk Modulus (GPa) = 30.12325 54.78700 42.45513
# Shear Modulus (GPa) = 28.61024 42.43449 35.52236
#
# Velocity S-wave (km/s) = 3.28769 4.00396 3.66337
# Velocity P-wave (km/s) = 5.07862 6.48645 5.82522
#
# Compressibility (1/GPa) = 0.03319695
#
# Stress axis : x y z
#
# Youngs Moduli (GPa) = 44.90507 36.13355 198.03527
#
# Poissons Ratio (x) = 0.23789 0.80823
# Poissons Ratio (y) = 0.29564 0.04625
# Poissons Ratio (z) = 0.18327 0.00844
#
# Static dielectric constant tensor:
#      x y z
#    x 2.191500 0.000000 -0.014330 
#    y 0.000000 2.197660 0.000000 
#    z -0.014330 0.000000 2.062700 
# 
# From -- ./inp_files/8369.got.cif
#   From: 2010.05.17/outbox.cif.g08.bks.cpg/sg4_5_cif.got.tgz:8369.got - 2010.06.03 18:43:04.
