data_PCOD9117284
_publ_section_title
;
Structure prediction by ZEFSAII (Michael W. Deem and Ramdas Pophale) SiO2 
 PCOD9117284
Probable space group: P 21
;
_chemical_formula_sum "Si O2"
_cell_formula_units_Z 12
_cell_length_a 13.785275
_cell_length_b 5.120233
_cell_length_c 13.696342
_cell_angle_alpha 90.000000
_cell_angle_beta 32.587426
_cell_angle_gamma 90.000000
_cell_volume 520.672597
_symmetry_space_group_name_H-M "P 21"
_symmetry_group_IT_number 4
_symmetry_cell_setting 'monoclinic'
loop_
_space_group_symop_operation_xyz
x,y,z
-x,1/2+y,-z
loop_
_atom_site_type_symbol
_atom_site_label
_atom_site_fract_x
_atom_site_fract_y
_atom_site_fract_z
Si Si1 0.162012 0.741820 0.654301
Si Si2 0.007373 0.378692 0.928246
Si Si3 0.569436 0.605874 0.494897
Si Si4 0.318411 0.344703 0.407908
Si Si5 0.917761 0.138936 0.808739
Si Si6 0.462808 0.704213 0.968970
O O1 0.529972 0.834506 0.451083
O O2 0.291361 0.651038 0.457676
O O3 0.161322 0.503419 0.729297
O O4 0.968027 0.832751 0.781384
O O5 0.885208 0.259274 0.945047
O O6 0.048080 0.150116 0.970831
O O7 0.548950 0.725279 0.620864
O O8 0.766240 0.480268 0.343141
O O9 0.108266 0.242886 0.598552
O O10 0.405130 0.284721 0.231556
O O11 0.257225 0.687339 0.105912
O O12 0.518888 0.425790 0.964663
#
# Coordination Sequence:
#
# PCOD9117284 Si02
#       6
#     2   2   2   2   2   2
#     4  10  22  45  70 106 156 208 253 310 392 448
#     4  11  22  40  67 108 153 203 255 302 374 468
#     4  11  22  40  67 108 153 203 255 302 374 468
#     4  10  25  50  78 107 161 199 257 327 384 465
#     4  10  25  50  78 107 161 199 257 327 384 465
#     4  12  32  53  80 116 148 202 271 332 404 452
#
# _framework density 23.047111000000001
#
# number of rings (size 3 to 8) (size 9 to 14) (size 15 to 20)
#    0.000    1.333    3.333    0.000    9.333    2.667 
#    6.000    0.000    0.000    0.000    0.000    0.000 
#    0.000    0.000    0.000    0.000    0.000    0.000 
#
# Total GULP energy -66803.226014 kJ/mol
# GULP energy per Si atom -5566.935501 kJ/mol
# Density = 2.299465 g / cm^3
# Si number density = 23.047111 Si / 1000 Ang^3
#
#
#
# Elastic Constant Matrix: (Units=GPa)
#
#
# Indices 1 2 3 4 5 6 
#
# 1 130.9994 35.2614 31.1832 0.0000 -22.2044 0.0000
# 2 35.2614 124.5031 6.8647 0.0000 -9.6212 0.0000
# 3 31.1832 6.8647 99.7252 0.0000 -5.4184 0.0000
# 4 0.0000 0.0000 0.0000 33.4719 0.0000 4.5849
# 5 -22.2044 -9.6212 -5.4184 0.0000 28.6591 0.0000
# 6 0.0000 0.0000 0.0000 4.5849 0.0000 45.8234
#
#
#
# Elastic Compliance Matrix: (Units=1/GPa)
#
#
# Indices 1 2 3 4 5 6 
#
# 1 0.009936 -0.002170 -0.002606 0.000000 0.006477 0.000000
# 2 -0.002170 0.008737 0.000147 0.000000 0.001280 0.000000
# 3 -0.002606 0.000147 0.010837 0.000000 0.000079 0.000000
# 4 0.000000 0.000000 0.000000 0.030291 0.000000 -0.003031
# 5 0.006477 0.001280 0.000079 0.000000 0.040356 0.000000
# 6 0.000000 0.000000 0.000000 -0.003031 0.000000 0.022126
#
#
# Mechanical properties :
#
#
# Convention : Reuss Voigt Hill
#
# Bulk Modulus (GPa) = 49.37788 55.76068 52.56928
# Shear Modulus (GPa) = 36.15576 40.38544 38.27060
#
# Velocity S-wave (km/s) = 3.96508 4.19059 4.07939
# Velocity P-wave (km/s) = 6.51412 6.90373 6.71175
#
# Compressibility (1/GPa) = 0.02025198
#
# Stress axis : x y z
#
# Youngs Moduli (GPa) = 100.64687 114.45220 92.28070
#
# Poissons Ratio (x) = 0.24834 0.24044
# Poissons Ratio (y) = 0.21838 -0.01353
# Poissons Ratio (z) = 0.26224 -0.01678
#
# Static dielectric constant tensor:
#      x y z
#    x 1.912990 0.000000 -0.057900 
#    y 0.000000 2.130300 0.000000 
#    z -0.057900 0.000000 1.997390 
# 
# From -- ./inp_files/11561.got.cif
#   From: 2010.05.17/outbox.cif.g08.bks.cpg/sg4_6_cif.got.tgz:11561.got - 2010.06.03 18:43:04.
