data_PCOD9117464
_publ_section_title
;
Structure prediction by ZEFSAII (Michael W. Deem and Ramdas Pophale) SiO2 
 PCOD9117464
Probable space group: P 21
;
_chemical_formula_sum "Si O2"
_cell_formula_units_Z 16
_cell_length_a 18.278502
_cell_length_b 8.238917
_cell_length_c 8.614695
_cell_angle_alpha 90.000000
_cell_angle_beta 150.634593
_cell_angle_gamma 90.000000
_cell_volume 636.181902
_symmetry_space_group_name_H-M "P 21"
_symmetry_group_IT_number 4
_symmetry_cell_setting 'monoclinic'
loop_
_space_group_symop_operation_xyz
x,y,z
-x,1/2+y,-z
loop_
_atom_site_type_symbol
_atom_site_label
_atom_site_fract_x
_atom_site_fract_y
_atom_site_fract_z
Si Si1 0.147873 0.156920 0.737386
Si Si2 0.926905 0.236728 0.081108
Si Si3 0.583017 0.519542 0.958207
Si Si4 0.489504 0.163679 0.854756
Si Si5 0.619564 0.225271 0.628905
Si Si6 0.649072 0.960425 0.927492
Si Si7 0.039768 0.450799 0.062651
Si Si8 0.170631 0.148411 0.136756
O O1 0.000127 0.145827 0.361143
O O2 0.273261 0.049181 0.883402
O O3 0.213713 0.340606 0.847654
O O4 0.126307 0.114360 0.877140
O O5 0.768889 0.304975 0.840275
O O6 0.057321 0.353878 0.256399
O O7 0.886676 0.112744 0.866849
O O8 0.569297 0.335831 0.988217
O O9 0.442872 0.584501 0.599642
O O10 0.577408 0.631744 0.099883
O O11 0.347544 0.169771 0.476657
O O12 0.599155 0.016823 0.007224
O O13 0.490244 0.357279 0.398137
O O14 0.658706 0.130697 0.857059
O O15 0.877925 0.523248 0.814676
O O16 0.081644 0.314029 0.016159
#
# Coordination Sequence:
#
# PCOD9117464 Si02
#       8
#     2   2   2   2   2   2   2   2
#     4  11  25  45  69 103 140 178 234 291 345 415
#     4  11  24  43  67  99 137 180 228 280 345 415
#     4  11  23  41  69 101 135 180 230 284 345 418
#     4  12  24  43  70  99 137 180 231 288 350 417
#     4  11  23  43  68  97 133 175 225 279 344 409
#     4  11  24  43  68  99 134 177 225 283 346 413
#     4  10  23  41  64  91 133 179 220 274 345 407
#     4  11  24  45  67  95 137 181 227 289 348 416
#
# _framework density 25.150041000000002
#
# number of rings (size 3 to 8) (size 9 to 14) (size 15 to 20)
#    0.000    1.000    0.000    8.250    0.000    5.000 
#    0.000    6.250    0.000    0.000    0.000    0.000 
#    0.000    0.000    0.000    0.000    0.000    0.000 
#
# Total GULP energy -89396.228467 kJ/mol
# GULP energy per Si atom -5587.264279 kJ/mol
# Density = 2.509280 g / cm^3
# Si number density = 25.150041 Si / 1000 Ang^3
#
#
#
# Elastic Constant Matrix: (Units=GPa)
#
#
# Indices 1 2 3 4 5 6 
#
# 1 99.4091 30.2439 6.3093 0.0000 2.1026 0.0000
# 2 30.2439 118.9659 -8.6049 0.0000 7.6218 0.0000
# 3 6.3093 -8.6049 36.2491 0.0000 3.1077 0.0000
# 4 0.0000 0.0000 0.0000 21.4722 0.0000 2.9652
# 5 2.1026 7.6218 3.1077 0.0000 28.7649 0.0000
# 6 0.0000 0.0000 0.0000 2.9652 0.0000 50.8251
#
#
#
# Elastic Compliance Matrix: (Units=1/GPa)
#
#
# Indices 1 2 3 4 5 6 
#
# 1 0.011151 -0.003047 -0.002689 0.000000 0.000283 0.000000
# 2 -0.003047 0.009569 0.003028 0.000000 -0.002640 0.000000
# 3 -0.002689 0.003028 0.029095 0.000000 -0.003749 0.000000
# 4 0.000000 0.000000 0.000000 0.046950 0.000000 -0.002739
# 5 0.000283 -0.002640 -0.003749 0.000000 0.035849 0.000000
# 6 0.000000 0.000000 0.000000 -0.002739 0.000000 0.019835
#
#
# Mechanical properties :
#
#
# Convention : Reuss Voigt Hill
#
# Bulk Modulus (GPa) = 22.52292 34.50230 28.51261
# Shear Modulus (GPa) = 28.95794 35.32416 32.14105
#
# Velocity S-wave (km/s) = 3.39692 3.75178 3.57875
# Velocity P-wave (km/s) = 4.93561 5.70230 5.33275
#
# Compressibility (1/GPa) = 0.04439922
#
# Stress axis : x y z
#
# Youngs Moduli (GPa) = 89.67601 104.50776 34.37006
#
# Poissons Ratio (x) = 0.31849 0.09241
# Poissons Ratio (y) = 0.27329 -0.10408
# Poissons Ratio (z) = 0.24110 -0.31647
#
# Static dielectric constant tensor:
#      x y z
#    x 1.994270 0.000000 -0.023280 
#    y 0.000000 2.048300 0.000000 
#    z -0.023280 0.000000 1.933210 
# 
# From -- ./inp_files/9650.got.cif
#   From: 2010.05.17/outbox.cif.g08.bks.cpg/sg4_5_cif.got.tgz:9650.got - 2010.06.03 18:43:04.
