data_PCOD9117270
_publ_section_title
;
Structure prediction by ZEFSAII (Michael W. Deem and Ramdas Pophale) SiO2 
 PCOD9117270
Probable space group: P 21
;
_chemical_formula_sum "Si O2"
_cell_formula_units_Z 16
_cell_length_a 14.181594
_cell_length_b 5.607378
_cell_length_c 22.731088
_cell_angle_alpha 90.000000
_cell_angle_beta 158.666208
_cell_angle_gamma 90.000000
_cell_volume 657.610273
_symmetry_space_group_name_H-M "P 21"
_symmetry_group_IT_number 4
_symmetry_cell_setting 'monoclinic'
loop_
_space_group_symop_operation_xyz
x,y,z
-x,1/2+y,-z
loop_
_atom_site_type_symbol
_atom_site_label
_atom_site_fract_x
_atom_site_fract_y
_atom_site_fract_z
Si Si1 0.969912 0.228110 0.946521
Si Si2 0.399510 0.473935 0.134594
Si Si3 0.817691 0.334693 0.067685
Si Si4 0.797863 0.165467 0.641043
Si Si5 0.341926 0.679716 0.813112
Si Si6 0.488887 0.807582 0.411015
Si Si7 0.921008 0.504687 0.484957
Si Si8 0.948124 0.068425 0.250700
O O1 0.709689 0.243531 0.755692
O O2 0.208040 0.259760 0.038956
O O3 0.000904 0.476432 0.002251
O O4 0.610874 0.511142 0.308209
O O5 0.577066 0.397396 0.181863
O O6 0.235373 0.710356 0.025526
O O7 0.064800 0.480200 0.234237
O O8 0.569903 0.490138 0.939620
O O9 0.855421 0.105064 0.130435
O O10 0.599923 0.074517 0.476411
O O11 0.640417 0.308346 0.599038
O O12 0.023713 0.285238 0.733430
O O13 0.081115 0.557853 0.636207
O O14 0.255599 0.714745 0.829369
O O15 0.756380 0.656612 0.566815
O O16 0.997904 0.739444 0.490266
#
# Coordination Sequence:
#
# PCOD9117270 Si02
#       8
#     2   2   2   2   2   2   2   2
#     4  12  32  50  80 114 153 202 261 323 378 460
#     4  11  26  48  74 103 148 196 250 310 383 456
#     4  11  24  42  72 105 145 189 244 302 386 452
#     4  11  24  45  76 107 145 199 250 316 380 464
#     4  11  25  43  71 102 146 189 241 305 376 457
#     4  11  25  47  75 106 151 196 254 309 391 446
#     4  10  22  45  69 101 135 194 242 292 361 440
#     4  11  26  42  71 110 143 189 246 313 375 455
#
# _framework density 24.330518999999999
#
# number of rings (size 3 to 8) (size 9 to 14) (size 15 to 20)
#    0.000    1.000    2.500    2.250   12.250    1.000 
#    4.500    0.000    0.000    0.000    0.000    0.000 
#    0.000    0.000    0.000    0.000    0.000    0.000 
#
# Total GULP energy -89196.589010 kJ/mol
# GULP energy per Si atom -5574.786813 kJ/mol
# Density = 2.427514 g / cm^3
# Si number density = 24.330519 Si / 1000 Ang^3
#
#
#
# Elastic Constant Matrix: (Units=GPa)
#
#
# Indices 1 2 3 4 5 6 
#
# 1 65.7802 30.6333 16.9347 0.0000 17.1641 0.0000
# 2 30.6333 82.4237 14.8146 0.0000 -6.1167 0.0000
# 3 16.9347 14.8146 144.2321 0.0000 -20.6982 0.0000
# 4 0.0000 0.0000 0.0000 43.9704 0.0000 -7.1799
# 5 17.1641 -6.1167 -20.6982 0.0000 21.6574 0.0000
# 6 0.0000 0.0000 0.0000 -7.1799 0.0000 24.2470
#
#
#
# Elastic Compliance Matrix: (Units=1/GPa)
#
#
# Indices 1 2 3 4 5 6 
#
# 1 0.033810 -0.013971 -0.008050 0.000000 -0.038434 0.000000
# 2 -0.013971 0.018265 0.002426 0.000000 0.018550 0.000000
# 3 -0.008050 0.002426 0.010017 0.000000 0.016639 0.000000
# 4 0.000000 0.000000 0.000000 0.023898 0.000000 0.007077
# 5 -0.038434 0.018550 0.016639 0.000000 0.097775 0.000000
# 6 0.000000 0.000000 0.000000 0.007077 0.000000 0.043338
#
#
# Mechanical properties :
#
#
# Convention : Reuss Voigt Hill
#
# Bulk Modulus (GPa) = 43.66403 46.35568 45.00986
# Shear Modulus (GPa) = 18.25311 33.31186 25.78249
#
# Velocity S-wave (km/s) = 2.74198 3.70420 3.25880
# Velocity P-wave (km/s) = 5.29242 6.11463 5.71832
#
# Compressibility (1/GPa) = 0.02290215
#
# Stress axis : x y z
#
# Youngs Moduli (GPa) = 29.57748 54.74872 99.83005
#
# Poissons Ratio (x) = 0.76488 0.80366
# Poissons Ratio (y) = 0.41322 -0.24221
# Poissons Ratio (z) = 0.23811 -0.13284
#
# Static dielectric constant tensor:
#      x y z
#    x 1.996500 0.000000 0.051220 
#    y 0.000000 2.083490 0.000000 
#    z 0.051220 0.000000 1.947870 
# 
# From -- ./inp_files/13828.got.cif
#   From: 2010.05.17/outbox.cif.g08.bks.cpg/sg4_7_cif.got.tgz:13828.got - 2010.06.03 18:43:04.
