data_PCOD9117717
_publ_section_title
;
Structure prediction by ZEFSAII (Michael W. Deem and Ramdas Pophale) SiO2 
 PCOD9117717
Probable space group: P 21
;
_chemical_formula_sum "Si O2"
_cell_formula_units_Z 14
_cell_length_a 5.085743
_cell_length_b 6.581350
_cell_length_c 17.753459
_cell_angle_alpha 90.000000
_cell_angle_beta 79.841583
_cell_angle_gamma 90.000000
_cell_volume 584.911817
_symmetry_space_group_name_H-M "P 21"
_symmetry_group_IT_number 4
_symmetry_cell_setting 'monoclinic'
loop_
_space_group_symop_operation_xyz
x,y,z
-x,1/2+y,-z
loop_
_atom_site_type_symbol
_atom_site_label
_atom_site_fract_x
_atom_site_fract_y
_atom_site_fract_z
Si Si1 0.344693 0.175730 0.983668
Si Si2 0.255808 0.678626 0.422361
Si Si3 0.410033 0.449110 0.266557
Si Si4 0.102639 0.490291 0.076089
Si Si5 0.241477 0.281996 0.828096
Si Si6 0.245475 0.448858 0.578922
Si Si7 0.078530 0.667074 0.736532
O O1 0.648114 0.114622 0.968599
O O2 0.308702 0.324861 0.912522
O O3 0.154867 0.993966 0.965247
O O4 0.222923 0.266314 0.065640
O O5 0.297633 0.521794 0.352485
O O6 0.296605 0.576588 0.501282
O O7 0.479505 0.854197 0.404246
O O8 0.960581 0.770041 0.431204
O O9 0.510020 0.655358 0.219208
O O10 0.195855 0.293022 0.241786
O O11 0.678030 0.320673 0.263886
O O12 0.994098 0.613476 0.152426
O O13 0.137074 0.474286 0.787769
O O14 0.104746 0.580461 0.650662
#
# Coordination Sequence:
#
# PCOD9117717 Si02
#       7
#     2   2   2   2   2   2   2
#     4  10  23  44  70  98 138 178 234 285 368 423
#     4  12  24  44  73 103 150 188 248 309 358 431
#     4  12  27  46  73 106 148 197 248 295 378 438
#     4  10  23  44  70  98 138 178 234 285 368 423
#     4  10  28  48  72 108 152 186 240 318 354 450
#     4  12  24  44  73 103 150 188 248 309 358 431
#     4  12  27  46  73 106 148 197 248 295 378 438
#
# _framework density 23.935233
#
# number of rings (size 3 to 8) (size 9 to 14) (size 15 to 20)
#    0.857    0.000    1.429    5.143    4.000    1.143 
#    0.000    0.000    0.000    0.000    0.000    0.000 
#    0.000    0.000    0.000    0.000    0.000    0.000 
#
# Total GULP energy -78239.131251 kJ/mol
# GULP energy per Si atom -5588.509375 kJ/mol
# Density = 2.388076 g / cm^3
# Si number density = 23.935233 Si / 1000 Ang^3
#
#
#
# Elastic Constant Matrix: (Units=GPa)
#
#
# Indices 1 2 3 4 5 6 
#
# 1 97.5753 22.8458 23.6690 0.0000 -11.1187 0.0000
# 2 22.8458 71.1393 45.4207 0.0000 7.4651 0.0000
# 3 23.6690 45.4207 110.9598 0.0000 9.9282 0.0000
# 4 0.0000 0.0000 0.0000 54.9573 0.0000 -4.0461
# 5 -11.1187 7.4651 9.9282 0.0000 31.2704 0.0000
# 6 0.0000 0.0000 0.0000 -4.0461 0.0000 51.1400
#
#
#
# Elastic Compliance Matrix: (Units=1/GPa)
#
#
# Indices 1 2 3 4 5 6 
#
# 1 0.012099 -0.003395 -0.001697 0.000000 0.005651 0.000000
# 2 -0.003395 0.020122 -0.007179 0.000000 -0.003732 0.000000
# 3 -0.001697 -0.007179 0.012571 0.000000 -0.002881 0.000000
# 4 0.000000 0.000000 0.000000 0.018303 0.000000 0.001448
# 5 0.005651 -0.003732 -0.002881 0.000000 0.035794 0.000000
# 6 0.000000 0.000000 0.000000 0.001448 0.000000 0.019669
#
#
# Mechanical properties :
#
#
# Convention : Reuss Voigt Hill
#
# Bulk Modulus (GPa) = 49.38166 51.50504 50.44335
# Shear Modulus (GPa) = 33.36698 39.98946 36.67822
#
# Velocity S-wave (km/s) = 3.73775 4.09190 3.91883
# Velocity P-wave (km/s) = 6.26928 6.62496 6.44957
#
# Compressibility (1/GPa) = 0.02025043
#
# Stress axis : x y z
#
# Youngs Moduli (GPa) = 82.65178 49.69591 79.55106
#
# Poissons Ratio (x) = 0.16873 0.13497
# Poissons Ratio (y) = 0.28062 0.57108
# Poissons Ratio (z) = 0.14023 0.35676
#
# Static dielectric constant tensor:
#      x y z
#    x 1.894870 0.000000 0.030930 
#    y 0.000000 1.958420 0.000000 
#    z 0.030930 0.000000 1.937650 
# 
# From -- ./inp_files/15448.got.cif
#   From: 2010.05.17/outbox.cif.g08.bks.cpg/sg4_8_cif.got.tgz:15448.got - 2010.06.03 18:43:04.
