data_PCOD9117501
_publ_section_title
;
Structure prediction by ZEFSAII (Michael W. Deem and Ramdas Pophale) SiO2 
 PCOD9117501
Probable space group: P 21
;
_chemical_formula_sum "Si O2"
_cell_formula_units_Z 14
_cell_length_a 5.435730
_cell_length_b 17.255271
_cell_length_c 5.221158
_cell_angle_alpha 90.000000
_cell_angle_beta 92.169206
_cell_angle_gamma 90.000000
_cell_volume 489.367554
_symmetry_space_group_name_H-M "P 21"
_symmetry_group_IT_number 4
_symmetry_cell_setting 'monoclinic'
loop_
_space_group_symop_operation_xyz
x,y,z
-x,1/2+y,-z
loop_
_atom_site_type_symbol
_atom_site_label
_atom_site_fract_x
_atom_site_fract_y
_atom_site_fract_z
Si Si1 0.987795 0.209300 0.643253
Si Si2 0.242812 0.460400 0.767601
Si Si3 0.251859 0.932365 0.346754
Si Si4 0.293145 0.565872 0.263271
Si Si5 0.381846 0.259433 0.048705
Si Si6 0.876108 0.327955 0.252822
Si Si7 0.699433 0.611041 0.648715
O O1 0.860647 0.143210 0.806707
O O2 0.833620 0.278336 0.516212
O O3 0.051811 0.155259 0.403767
O O4 0.233638 0.241638 0.782837
O O5 0.475286 0.407428 0.711205
O O6 0.214255 0.513562 0.509694
O O7 0.998951 0.409938 0.803726
O O8 0.291509 0.511126 0.018989
O O9 0.194374 0.913023 0.641652
O O10 0.262179 0.023530 0.264041
O O11 0.552809 0.597024 0.378376
O O12 0.651163 0.298659 0.068393
O O13 0.428075 0.174461 0.179194
O O14 0.161709 0.307153 0.194808
#
# Coordination Sequence:
#
# PCOD9117501 Si02
#       7
#     2   2   2   2   2   2   2
#     4  11  24  42  72 102 145 193 253 307 373 446
#     4  11  26  44  75 107 145 189 247 310 368 434
#     4  11  24  49  70 105 146 193 242 310 373 445
#     4  11  24  43  74 111 143 188 251 313 367 431
#     4  11  25  44  73 102 141 194 245 307 366 450
#     4  11  26  49  67 103 151 188 246 299 386 445
#     4  10  23  41  71 100 143 185 252 306 367 433
#
# _framework density 28.608350000000002
#
# number of rings (size 3 to 8) (size 9 to 14) (size 15 to 20)
#    0.000    1.143    2.857    1.714   10.000    0.000 
#   12.857    0.000    0.000    0.000    0.000    0.000 
#    0.000    0.000    0.000    0.000    0.000    0.000 
#
# Total GULP energy -78271.299132 kJ/mol
# GULP energy per Si atom -5590.807081 kJ/mol
# Density = 2.854324 g / cm^3
# Si number density = 28.608350 Si / 1000 Ang^3
#
#
#
# Elastic Constant Matrix: (Units=GPa)
#
#
# Indices 1 2 3 4 5 6 
#
# 1 173.6977 19.1192 25.7054 0.0000 19.8557 0.0000
# 2 19.1192 108.4514 24.8290 0.0000 22.6287 0.0000
# 3 25.7054 24.8290 129.2290 0.0000 23.3523 0.0000
# 4 0.0000 0.0000 0.0000 63.6865 0.0000 8.6819
# 5 19.8557 22.6287 23.3523 0.0000 42.3021 0.0000
# 6 0.0000 0.0000 0.0000 8.6819 0.0000 45.6492
#
#
#
# Elastic Compliance Matrix: (Units=1/GPa)
#
#
# Indices 1 2 3 4 5 6 
#
# 1 0.006173 -0.000450 -0.000735 0.000000 -0.002251 0.000000
# 2 -0.000450 0.010555 -0.001062 0.000000 -0.004848 0.000000
# 3 -0.000735 -0.001062 0.008801 0.000000 -0.003946 0.000000
# 4 0.000000 0.000000 0.000000 0.016120 0.000000 -0.003066
# 5 -0.002251 -0.004848 -0.003946 0.000000 0.029468 0.000000
# 6 0.000000 0.000000 0.000000 -0.003066 0.000000 0.022489
#
#
# Mechanical properties :
#
#
# Convention : Reuss Voigt Hill
#
# Bulk Modulus (GPa) = 47.54041 61.18726 54.36383
# Shear Modulus (GPa) = 47.56843 53.10920 50.33882
#
# Velocity S-wave (km/s) = 4.08210 4.31330 4.19929
# Velocity P-wave (km/s) = 6.23473 6.80003 6.52350
#
# Compressibility (1/GPa) = 0.02103474
#
# Stress axis : x y z
#
# Youngs Moduli (GPa) = 162.00320 94.74243 113.61823
#
# Poissons Ratio (x) = 0.04267 0.08346
# Poissons Ratio (y) = 0.07296 0.12069
# Poissons Ratio (z) = 0.11900 0.10064
#
# Static dielectric constant tensor:
#      x y z
#    x 2.377360 0.000000 -0.083460 
#    y 0.000000 2.339590 0.000000 
#    z -0.083460 0.000000 2.267740 
# 
# From -- ./inp_files/415.got.cif
#   From: 2010.05.17/outbox.cif.g08.bks.cpg/sg4_1_cif.got.tgz:415.got - 2010.06.03 18:43:04.
