data_PCOD9117669
_publ_section_title
;
Structure prediction by ZEFSAII (Michael W. Deem and Ramdas Pophale) SiO2 
 PCOD9117669
Probable space group: P 21
;
_chemical_formula_sum "Si O2"
_cell_formula_units_Z 16
_cell_length_a 6.114304
_cell_length_b 9.070659
_cell_length_c 13.044612
_cell_angle_alpha 90.000000
_cell_angle_beta 71.943165
_cell_angle_gamma 90.000000
_cell_volume 687.833221
_symmetry_space_group_name_H-M "P 21"
_symmetry_group_IT_number 4
_symmetry_cell_setting 'monoclinic'
loop_
_space_group_symop_operation_xyz
x,y,z
-x,1/2+y,-z
loop_
_atom_site_type_symbol
_atom_site_label
_atom_site_fract_x
_atom_site_fract_y
_atom_site_fract_z
Si Si1 0.908412 0.768350 0.084142
Si Si2 0.485080 0.494355 0.816153
Si Si3 0.931742 0.557524 0.255205
Si Si4 0.199302 0.460470 0.412596
Si Si5 0.592566 0.331571 0.222149
Si Si6 0.543126 0.676596 0.451081
Si Si7 0.724928 0.449554 0.573336
Si Si8 0.689513 0.491682 0.014060
O O1 0.719394 0.876632 0.160087
O O2 0.022130 0.658308 0.150672
O O3 0.781096 0.655246 0.026152
O O4 0.100459 0.875602 0.012198
O O5 0.397237 0.660092 0.806598
O O6 0.672021 0.455847 0.701340
O O7 0.581343 0.488237 0.917527
O O8 0.829939 0.401588 0.230743
O O9 0.706534 0.640469 0.331428
O O10 0.097412 0.536789 0.325709
O O11 0.398573 0.359131 0.336029
O O12 0.312944 0.582861 0.467457
O O13 0.980116 0.397784 0.505453
O O14 0.533502 0.430657 0.130064
O O15 0.676411 0.607388 0.527738
O O16 0.458751 0.842625 0.455621
#
# Coordination Sequence:
#
# PCOD9117669 Si02
#       8
#     2   2   2   2   2   2   2   2
#     4  11  24  44  68 101 137 175 226 284 340 404
#     4  12  26  43  70 102 137 179 232 278 337 415
#     4   9  21  43  68  94 133 179 220 280 338 394
#     4  10  24  41  72  95 135 182 227 274 344 401
#     4  10  24  44  67  99 138 175 229 282 338 400
#     4  10  23  44  64  97 140 177 224 280 335 397
#     4  11  26  42  71 102 139 180 228 280 340 401
#     4  11  26  45  72 100 137 181 226 284 346 400
#
# _framework density 23.261448999999999
#
# number of rings (size 3 to 8) (size 9 to 14) (size 15 to 20)
#    0.000    1.500    1.250    1.500    8.750    8.000 
#    0.000    0.000    0.000    0.000    0.000    0.000 
#    0.000    0.000    0.000    0.000    0.000    0.000 
#
# Total GULP energy -89487.089889 kJ/mol
# GULP energy per Si atom -5592.943118 kJ/mol
# Density = 2.320851 g / cm^3
# Si number density = 23.261449 Si / 1000 Ang^3
#
#
#
# Elastic Constant Matrix: (Units=GPa)
#
#
# Indices 1 2 3 4 5 6 
#
# 1 30.2782 28.6407 7.1047 0.0000 4.1599 0.0000
# 2 28.6407 141.9121 29.1952 0.0000 -4.7792 0.0000
# 3 7.1047 29.1952 104.4680 0.0000 -4.5236 0.0000
# 4 0.0000 0.0000 0.0000 38.8519 0.0000 1.5098
# 5 4.1599 -4.7792 -4.5236 0.0000 32.4042 0.0000
# 6 0.0000 0.0000 0.0000 1.5098 0.0000 20.3037
#
#
#
# Elastic Compliance Matrix: (Units=1/GPa)
#
#
# Indices 1 2 3 4 5 6 
#
# 1 0.042281 -0.008605 -0.000765 0.000000 -0.006804 0.000000
# 2 -0.008605 0.009249 -0.001904 0.000000 0.002203 0.000000
# 3 -0.000765 -0.001904 0.010210 0.000000 0.001243 0.000000
# 4 0.000000 0.000000 0.000000 0.025813 0.000000 -0.001920
# 5 -0.006804 0.002203 0.001243 0.000000 0.032232 0.000000
# 6 0.000000 0.000000 0.000000 -0.001920 0.000000 0.049395
#
#
# Mechanical properties :
#
#
# Convention : Reuss Voigt Hill
#
# Bulk Modulus (GPa) = 25.51564 45.17103 35.34334
# Shear Modulus (GPa) = 24.41488 32.42647 28.42068
#
# Velocity S-wave (km/s) = 3.24325 3.73768 3.49921
# Velocity P-wave (km/s) = 5.00177 6.17155 5.61719
#
# Compressibility (1/GPa) = 0.03919164
#
# Stress axis : x y z
#
# Youngs Moduli (GPa) = 23.65137 108.11774 97.93993
#
# Poissons Ratio (x) = 0.93033 0.07496
# Poissons Ratio (y) = 0.20352 0.18650
# Poissons Ratio (z) = 0.01810 0.20588
#
# Static dielectric constant tensor:
#      x y z
#    x 1.861130 0.000000 -0.009520 
#    y 0.000000 1.857510 0.000000 
#    z -0.009520 0.000000 1.889240 
# 
# From -- ./inp_files/3511.got.cif
#   From: 2010.05.17/outbox.cif.g08.bks.cpg/sg4_2_cif.got.tgz:3511.got - 2010.06.03 18:43:04.
