data_PCOD9117278
_publ_section_title
;
Structure prediction by ZEFSAII (Michael W. Deem and Ramdas Pophale) SiO2 
 PCOD9117278
Probable space group: P 21
;
_chemical_formula_sum "Si O2"
_cell_formula_units_Z 16
_cell_length_a 10.263158
_cell_length_b 9.683799
_cell_length_c 8.890859
_cell_angle_alpha 90.000000
_cell_angle_beta 121.370454
_cell_angle_gamma 90.000000
_cell_volume 754.460487
_symmetry_space_group_name_H-M "P 21"
_symmetry_group_IT_number 4
_symmetry_cell_setting 'monoclinic'
loop_
_space_group_symop_operation_xyz
x,y,z
-x,1/2+y,-z
loop_
_atom_site_type_symbol
_atom_site_label
_atom_site_fract_x
_atom_site_fract_y
_atom_site_fract_z
Si Si1 0.885617 0.732790 0.351156
Si Si2 0.312217 0.491023 0.872784
Si Si3 0.078961 0.679516 0.178569
Si Si4 0.616177 0.108851 0.762595
Si Si5 0.369251 0.903112 0.076585
Si Si6 0.816689 0.280440 0.306122
Si Si7 0.135123 0.000022 0.153721
Si Si8 0.716045 0.516350 0.446561
O O1 0.991263 0.669993 0.283120
O O2 0.771043 0.620396 0.349747
O O3 0.003839 0.782772 0.550577
O O4 0.791465 0.859627 0.226438
O O5 0.483343 0.464111 0.916244
O O6 0.240480 0.624538 0.748875
O O7 0.323505 0.523219 0.056876
O O8 0.251509 0.622952 0.280882
O O9 0.989274 0.594456 0.998614
O O10 0.085839 0.839708 0.133272
O O11 0.585970 0.263228 0.808246
O O12 0.458046 0.044147 0.615872
O O13 0.287469 0.004469 0.143693
O O14 0.241803 0.857967 0.878229
O O15 0.739296 0.362396 0.397618
O O16 0.175665 0.040736 0.346760
#
# Coordination Sequence:
#
# PCOD9117278 Si02
#       8
#     2   2   2   2   2   2   2   2
#     4  12  25  44  75 103 138 183 240 287 348 421
#     4  11  23  44  72 105 134 189 234 283 353 421
#     4  11  25  47  69 100 140 185 228 289 351 420
#     4  10  23  43  71  99 144 179 231 288 342 417
#     4  10  22  45  69  99 141 185 227 279 352 417
#     4  11  24  41  71 103 139 175 233 291 338 408
#     4  11  26  46  68 101 142 180 231 289 352 417
#     4  12  24  46  69 104 138 182 230 294 344 413
#
# _framework density 21.207207
#
# number of rings (size 3 to 8) (size 9 to 14) (size 15 to 20)
#    0.000    1.000    3.750    2.250    5.250    1.000 
#    2.250    0.000    0.000    0.000    0.000    0.000 
#    0.000    0.000    0.000    0.000    0.000    0.000 
#
# Total GULP energy -89537.007584 kJ/mol
# GULP energy per Si atom -5596.062974 kJ/mol
# Density = 2.115894 g / cm^3
# Si number density = 21.207207 Si / 1000 Ang^3
#
#
#
# Elastic Constant Matrix: (Units=GPa)
#
#
# Indices 1 2 3 4 5 6 
#
# 1 122.2479 37.9681 11.8006 0.0000 -3.0514 0.0000
# 2 37.9681 73.1496 10.5942 0.0000 9.0329 0.0000
# 3 11.8006 10.5942 23.0555 0.0000 6.4435 0.0000
# 4 0.0000 0.0000 0.0000 27.0109 0.0000 6.8751
# 5 -3.0514 9.0329 6.4435 0.0000 32.3648 0.0000
# 6 0.0000 0.0000 0.0000 6.8751 0.0000 24.6638
#
#
#
# Elastic Compliance Matrix: (Units=1/GPa)
#
#
# Indices 1 2 3 4 5 6 
#
# 1 0.010220 -0.005151 -0.003743 0.000000 0.003146 0.000000
# 2 -0.005151 0.017505 -0.004136 0.000000 -0.004548 0.000000
# 3 -0.003743 -0.004136 0.049733 0.000000 -0.009100 0.000000
# 4 0.000000 0.000000 0.000000 0.039849 0.000000 -0.011108
# 5 0.003146 -0.004548 -0.009100 0.000000 0.034275 0.000000
# 6 0.000000 0.000000 0.000000 -0.011108 0.000000 0.043642
#
#
# Mechanical properties :
#
#
# Convention : Reuss Voigt Hill
#
# Bulk Modulus (GPa) = 19.45630 37.68652 28.57141
# Shear Modulus (GPa) = 20.97161 27.34726 24.15943
#
# Velocity S-wave (km/s) = 3.14807 3.59489 3.37888
# Velocity P-wave (km/s) = 4.73372 5.91948 5.35949
#
# Compressibility (1/GPa) = 0.05139722
#
# Stress axis : x y z
#
# Youngs Moduli (GPa) = 97.84964 57.12710 20.10719
#
# Poissons Ratio (x) = 0.29426 0.07527
# Poissons Ratio (y) = 0.50402 0.08317
# Poissons Ratio (z) = 0.36628 0.23629
#
# Static dielectric constant tensor:
#      x y z
#    x 1.762070 0.000000 -0.007400 
#    y 0.000000 1.742330 0.000000 
#    z -0.007400 0.000000 1.755150 
# 
# From -- ./inp_files/5857.got.cif
#   From: 2010.05.17/outbox.cif.g08.bks.cpg/sg4_3_cif.got.tgz:5857.got - 2010.06.03 18:43:04.
