data_PCOD9117887
_publ_section_title
;
Structure prediction by ZEFSAII (Michael W. Deem and Ramdas Pophale) SiO2 
 PCOD9117887
Probable space group: P 21
;
_chemical_formula_sum "Si O2"
_cell_formula_units_Z 16
_cell_length_a 13.435564
_cell_length_b 5.651907
_cell_length_c 8.147696
_cell_angle_alpha 90.000000
_cell_angle_beta 81.582608
_cell_angle_gamma 90.000000
_cell_volume 612.043235
_symmetry_space_group_name_H-M "P 21"
_symmetry_group_IT_number 4
_symmetry_cell_setting 'monoclinic'
loop_
_space_group_symop_operation_xyz
x,y,z
-x,1/2+y,-z
loop_
_atom_site_type_symbol
_atom_site_label
_atom_site_fract_x
_atom_site_fract_y
_atom_site_fract_z
Si Si1 0.732829 0.155970 0.036046
Si Si2 0.059459 0.525008 0.499067
Si Si3 0.544497 0.205406 0.557630
Si Si4 0.878499 0.323000 0.250877
Si Si5 0.715383 0.548970 0.823961
Si Si6 0.711822 0.533170 0.457306
Si Si7 0.109879 0.353748 0.159851
Si Si8 0.393054 0.271158 0.833297
O O1 0.792680 0.335566 0.136105
O O2 0.635177 0.045976 0.141784
O O3 0.707139 0.275502 0.871524
O O4 0.819978 0.961324 0.995319
O O5 0.114095 0.571703 0.657457
O O6 0.125598 0.504468 0.321217
O O7 0.999269 0.774870 0.493066
O O8 0.489662 0.447623 0.499043
O O9 0.658621 0.274068 0.486992
O O10 0.507072 0.217297 0.755704
O O11 0.830223 0.498998 0.397293
O O12 0.990791 0.365461 0.156737
O O13 0.690297 0.629330 0.645846
O O14 0.834896 0.607893 0.817067
O O15 0.646792 0.666743 0.983921
O O16 0.665108 0.671507 0.314366
#
# Coordination Sequence:
#
# PCOD9117887 Si02
#       8
#     2   2   2   2   2   2   2   2
#     4  11  24  42  66  96 146 187 250 307 364 442
#     4  10  24  42  63  98 134 187 249 300 355 430
#     4  10  23  48  81 113 146 188 244 300 371 449
#     4  11  24  38  70  95 138 196 242 299 372 427
#     4  11  25  48  66 108 147 187 253 303 369 437
#     4  11  24  47  77 108 142 199 242 306 374 452
#     4  10  26  39  63  97 138 196 242 309 352 443
#     4  10  24  48  72 105 147 188 240 310 373 442
#
# _framework density 26.141943999999999
#
# number of rings (size 3 to 8) (size 9 to 14) (size 15 to 20)
#    0.000    1.500    1.250    1.500   15.750    0.000 
#   11.250    0.000    0.000    0.000    0.000    0.000 
#    0.000    0.000    0.000    0.000    0.000    0.000 
#
# Total GULP energy -89223.766279 kJ/mol
# GULP energy per Si atom -5576.485392 kJ/mol
# Density = 2.608244 g / cm^3
# Si number density = 26.141944 Si / 1000 Ang^3
#
#
#
# Elastic Constant Matrix: (Units=GPa)
#
#
# Indices 1 2 3 4 5 6 
#
# 1 97.8469 31.7635 16.7284 0.0000 -7.7552 0.0000
# 2 31.7635 86.1076 34.9460 0.0000 -0.9521 0.0000
# 3 16.7284 34.9460 122.6630 0.0000 2.6634 0.0000
# 4 0.0000 0.0000 0.0000 52.5236 0.0000 -13.6291
# 5 -7.7552 -0.9521 2.6634 0.0000 46.1581 0.0000
# 6 0.0000 0.0000 0.0000 -13.6291 0.0000 27.3081
#
#
#
# Elastic Compliance Matrix: (Units=1/GPa)
#
#
# Indices 1 2 3 4 5 6 
#
# 1 0.011797 -0.004139 -0.000471 0.000000 0.001924 0.000000
# 2 -0.004139 0.014595 -0.003589 0.000000 -0.000187 0.000000
# 3 -0.000471 -0.003589 0.009254 0.000000 -0.000687 0.000000
# 4 0.000000 0.000000 0.000000 0.021872 0.000000 0.010916
# 5 0.001924 -0.000187 -0.000687 0.000000 0.022024 0.000000
# 6 0.000000 0.000000 0.000000 0.010916 0.000000 0.042067
#
#
# Mechanical properties :
#
#
# Convention : Reuss Voigt Hill
#
# Bulk Modulus (GPa) = 51.95856 52.61037 52.28446
# Shear Modulus (GPa) = 34.62042 40.07659 37.34850
#
# Velocity S-wave (km/s) = 3.64307 3.91965 3.78389
# Velocity P-wave (km/s) = 6.13308 6.37601 6.25572
#
# Compressibility (1/GPa) = 0.01924611
#
# Stress axis : x y z
#
# Youngs Moduli (GPa) = 84.76910 68.51719 108.05851
#
# Poissons Ratio (x) = 0.28359 0.05094
# Poissons Ratio (y) = 0.35086 0.38787
# Poissons Ratio (z) = 0.03996 0.24594
#
# Static dielectric constant tensor:
#      x y z
#    x 2.078920 0.000000 0.052400 
#    y 0.000000 2.191220 0.000000 
#    z 0.052400 0.000000 2.179710 
# 
# From -- ./inp_files/8591.got.cif
#   From: 2010.05.17/outbox.cif.g08.bks.cpg/sg4_5_cif.got.tgz:8591.got - 2010.06.03 18:43:04.
