data_PCOD9117867
_publ_section_title
;
Structure prediction by ZEFSAII (Michael W. Deem and Ramdas Pophale) SiO2 
 PCOD9117867
Probable space group: P 21
;
_chemical_formula_sum "Si O2"
_cell_formula_units_Z 12
_cell_length_a 9.163799
_cell_length_b 7.174083
_cell_length_c 6.492724
_cell_angle_alpha 90.000000
_cell_angle_beta 89.186866
_cell_angle_gamma 90.000000
_cell_volume 426.800733
_symmetry_space_group_name_H-M "P 21"
_symmetry_group_IT_number 4
_symmetry_cell_setting 'monoclinic'
loop_
_space_group_symop_operation_xyz
x,y,z
-x,1/2+y,-z
loop_
_atom_site_type_symbol
_atom_site_label
_atom_site_fract_x
_atom_site_fract_y
_atom_site_fract_z
Si Si1 0.895538 0.192380 0.251926
Si Si2 0.142582 0.267026 0.686174
Si Si3 0.299636 0.952368 0.450000
Si Si4 0.668387 0.592684 0.963737
Si Si5 0.124018 0.533289 0.210547
Si Si6 0.554744 0.920654 0.707737
O O1 0.779332 0.317244 0.381383
O O2 0.985352 0.174024 0.675167
O O3 0.034106 0.334908 0.228879
O O4 0.886692 0.983453 0.344997
O O5 0.244836 0.157195 0.524364
O O6 0.214449 0.208167 0.904242
O O7 0.134704 0.623471 0.981797
O O8 0.471054 0.919559 0.492672
O O9 0.267352 0.947494 0.205681
O O10 0.577981 0.723754 0.814536
O O11 0.556472 0.518370 0.132870
O O12 0.288149 0.516411 0.288657
#
# Coordination Sequence:
#
# PCOD9117867 Si02
#       6
#     2   2   2   2   2   2
#     4  11  20  43  78 113 147 200 260 312 386 466
#     4  10  23  47  81 112 151 203 257 314 399 464
#     4  10  26  46  75 113 152 199 262 319 385 462
#     4  11  24  50  76 110 153 204 259 324 384 467
#     4  11  21  42  80 113 151 200 250 323 388 467
#     4  11  24  46  76 109 154 204 252 318 400 462
#
# _framework density 28.116164999999999
#
# number of rings (size 3 to 8) (size 9 to 14) (size 15 to 20)
#    0.000    1.333    3.333    1.000    0.000    2.667 
#    6.000    3.333   14.667    0.000    0.000    0.000 
#    0.000    0.000    0.000    0.000    0.000    0.000 
#
# Total GULP energy -67253.492140 kJ/mol
# GULP energy per Si atom -5604.457678 kJ/mol
# Density = 2.805217 g / cm^3
# Si number density = 28.116165 Si / 1000 Ang^3
#
#
#
# Elastic Constant Matrix: (Units=GPa)
#
#
# Indices 1 2 3 4 5 6 
#
# 1 187.4968 85.1911 81.4717 0.0000 7.6961 0.0000
# 2 85.1911 219.6003 74.7908 0.0000 9.1433 0.0000
# 3 81.4717 74.7908 165.9667 0.0000 10.0108 0.0000
# 4 0.0000 0.0000 0.0000 55.9198 0.0000 1.2348
# 5 7.6961 9.1433 10.0108 0.0000 53.0815 0.0000
# 6 0.0000 0.0000 0.0000 1.2348 0.0000 57.9216
#
#
#
# Elastic Compliance Matrix: (Units=1/GPa)
#
#
# Indices 1 2 3 4 5 6 
#
# 1 0.007418 -0.001929 -0.002759 0.000000 -0.000223 0.000000
# 2 -0.001929 0.005893 -0.001683 0.000000 -0.000418 0.000000
# 3 -0.002759 -0.001683 0.008190 0.000000 -0.000855 0.000000
# 4 0.000000 0.000000 0.000000 0.017891 0.000000 -0.000381
# 5 -0.000223 -0.000418 -0.000855 0.000000 0.019104 0.000000
# 6 0.000000 0.000000 0.000000 -0.000381 0.000000 0.017273
#
#
# Mechanical properties :
#
#
# Convention : Reuss Voigt Hill
#
# Bulk Modulus (GPa) = 114.17732 117.33011 115.75372
# Shear Modulus (GPa) = 54.68693 55.49195 55.08944
#
# Velocity S-wave (km/s) = 4.41504 4.44742 4.43126
# Velocity P-wave (km/s) = 8.16624 8.25795 8.21222
#
# Compressibility (1/GPa) = 0.00875831
#
# Stress axis : x y z
#
# Youngs Moduli (GPa) = 134.81427 169.70121 122.10507
#
# Poissons Ratio (x) = 0.32731 0.33684
# Poissons Ratio (y) = 0.26002 0.20556
# Poissons Ratio (z) = 0.37190 0.28568
#
# Static dielectric constant tensor:
#      x y z
#    x 2.140480 0.000000 0.033050 
#    y 0.000000 2.311700 0.000000 
#    z 0.033050 0.000000 2.307770 
# 
# From -- ./inp_files/2485.got.cif
#   From: 2010.05.17/outbox.cif.g08.bks.cpg/sg4_2_cif.got.tgz:2485.got - 2010.06.03 18:43:04.
