data_PCOD9117383
_publ_section_title
;
Structure prediction by ZEFSAII (Michael W. Deem and Ramdas Pophale) SiO2 
 PCOD9117383
Probable space group: P 21
;
_chemical_formula_sum "Si O2"
_cell_formula_units_Z 16
_cell_length_a 24.055625
_cell_length_b 5.232737
_cell_length_c 4.935878
_cell_angle_alpha 90.000000
_cell_angle_beta 113.303484
_cell_angle_gamma 90.000000
_cell_volume 570.627112
_symmetry_space_group_name_H-M "P 21"
_symmetry_group_IT_number 4
_symmetry_cell_setting 'monoclinic'
loop_
_space_group_symop_operation_xyz
x,y,z
-x,1/2+y,-z
loop_
_atom_site_type_symbol
_atom_site_label
_atom_site_fract_x
_atom_site_fract_y
_atom_site_fract_z
Si Si1 0.548549 0.631190 0.323538
Si Si2 0.677121 0.637203 0.344821
Si Si3 0.701735 0.305593 0.906208
Si Si4 0.013832 0.913028 0.395566
Si Si5 0.427063 0.625493 0.274846
Si Si6 0.872232 0.633992 0.347349
Si Si7 0.896927 0.948913 0.874143
Si Si8 0.221637 0.474520 0.579797
O O1 0.604432 0.661749 0.226916
O O2 0.476128 0.640007 0.123354
O O3 0.561117 0.371958 0.513024
O O4 0.557862 0.868581 0.540229
O O5 0.689866 0.554491 0.065275
O O6 0.720400 0.880109 0.480316
O O7 0.697739 0.413960 0.594373
O O8 0.759269 0.157619 0.136989
O O9 0.644611 0.133138 0.893124
O O10 0.961571 0.044248 0.104476
O O11 0.989077 0.627984 0.376611
O O12 0.087491 0.884495 0.518800
O O13 0.872823 0.735598 0.043831
O O14 0.808490 0.713930 0.354810
O O15 0.911801 0.818800 0.618084
O O16 0.833614 0.097653 0.698751
#
# Coordination Sequence:
#
# PCOD9117383 Si02
#       8
#     2   2   2   2   2   2   2   2
#     4   9  20  42  72 106 144 189 245 308 372 434
#     4  11  27  45  72 107 144 199 250 307 372 451
#     4  11  27  45  72 107 144 199 250 307 372 451
#     4  10  22  48  76 106 144 184 236 302 370 428
#     4   9  20  42  72 106 144 189 245 308 372 434
#     4   9  22  43  71 103 137 184 235 289 363 433
#     4   9  22  43  71 103 137 184 235 289 363 433
#     4  10  26  48  74  98 156 192 246 302 378 440
#
# _framework density 28.039323
#
# number of rings (size 3 to 8) (size 9 to 14) (size 15 to 20)
#    0.750    1.500    0.000    0.000   10.500    4.000 
#   11.250    1.250    0.000    0.000    0.000    0.000 
#    0.000    0.000    0.000    0.000    0.000    0.000 
#
# Total GULP energy -89246.688911 kJ/mol
# GULP energy per Si atom -5577.918057 kJ/mol
# Density = 2.797550 g / cm^3
# Si number density = 28.039323 Si / 1000 Ang^3
#
#
#
# Elastic Constant Matrix: (Units=GPa)
#
#
# Indices 1 2 3 4 5 6 
#
# 1 125.3838 31.1222 21.8622 0.0000 15.4595 0.0000
# 2 31.1222 102.2956 25.7112 0.0000 -4.6021 0.0000
# 3 21.8622 25.7112 95.3089 0.0000 20.8405 0.0000
# 4 0.0000 0.0000 0.0000 33.0505 0.0000 16.2844
# 5 15.4595 -4.6021 20.8405 0.0000 35.8124 0.0000
# 6 0.0000 0.0000 0.0000 16.2844 0.0000 55.6969
#
#
#
# Elastic Compliance Matrix: (Units=1/GPa)
#
#
# Indices 1 2 3 4 5 6 
#
# 1 0.009280 -0.002896 -0.000447 0.000000 -0.004118 0.000000
# 2 -0.002896 0.011772 -0.003570 0.000000 0.004840 0.000000
# 3 -0.000447 -0.003570 0.013309 0.000000 -0.008011 0.000000
# 4 0.000000 0.000000 0.000000 0.035349 0.000000 -0.010335
# 5 -0.004118 0.004840 -0.008011 0.000000 0.034985 0.000000
# 6 0.000000 0.000000 0.000000 -0.010335 0.000000 0.020976
#
#
# Mechanical properties :
#
#
# Convention : Reuss Voigt Hill
#
# Bulk Modulus (GPa) = 48.69607 53.37549 51.03578
# Shear Modulus (GPa) = 34.16651 41.19814 37.68232
#
# Velocity S-wave (km/s) = 3.49452 3.83730 3.66991
# Velocity P-wave (km/s) = 5.80405 6.22177 6.01654
#
# Compressibility (1/GPa) = 0.02053554
#
# Stress axis : x y z
#
# Youngs Moduli (GPa) = 107.75748 84.94932 75.13489
#
# Poissons Ratio (x) = 0.24604 0.03358
# Poissons Ratio (y) = 0.31210 0.26821
# Poissons Ratio (z) = 0.04815 0.30324
#
# Static dielectric constant tensor:
#      x y z
#    x 2.395370 0.000000 0.056260 
#    y 0.000000 2.254680 0.000000 
#    z 0.056260 0.000000 2.194160 
# 
# From -- ./inp_files/4434.got.cif
#   From: 2010.05.17/outbox.cif.g08.bks.cpg/sg4_3_cif.got.tgz:4434.got - 2010.06.03 18:43:04.
