data_PCOD9117067
_publ_section_title
;
Structure prediction by ZEFSAII (Michael W. Deem and Ramdas Pophale) SiO2 
 PCOD9117067
Probable space group: P 21
;
_chemical_formula_sum "Si O2"
_cell_formula_units_Z 16
_cell_length_a 11.085178
_cell_length_b 7.350526
_cell_length_c 10.588182
_cell_angle_alpha 90.000000
_cell_angle_beta 53.885176
_cell_angle_gamma 90.000000
_cell_volume 696.957749
_symmetry_space_group_name_H-M "P 21"
_symmetry_group_IT_number 4
_symmetry_cell_setting 'monoclinic'
loop_
_space_group_symop_operation_xyz
x,y,z
-x,1/2+y,-z
loop_
_atom_site_type_symbol
_atom_site_label
_atom_site_fract_x
_atom_site_fract_y
_atom_site_fract_z
Si Si1 0.275485 0.780050 0.009951
Si Si2 0.290910 0.319176 0.187307
Si Si3 0.117264 0.060223 0.951110
Si Si4 0.471374 0.515856 0.716925
Si Si5 0.216875 0.175952 0.501227
Si Si6 0.179113 0.422751 0.758786
Si Si7 0.974246 0.988124 0.792478
Si Si8 0.438454 0.709736 0.145651
O O1 0.399032 0.649616 0.868177
O O2 0.247031 0.958716 0.946490
O O3 0.121043 0.666313 0.105354
O O4 0.319092 0.811580 0.128042
O O5 0.228296 0.222186 0.348310
O O6 0.154906 0.358836 0.176453
O O7 0.370142 0.506261 0.190514
O O8 0.412920 0.215567 0.030254
O O9 0.162599 0.255026 0.868765
O O10 0.077592 0.948183 0.848091
O O11 0.965515 0.046617 0.126731
O O12 0.620068 0.599194 0.565498
O O13 0.338758 0.502812 0.697878
O O14 0.522564 0.328096 0.754753
O O15 0.182899 0.343786 0.615579
O O16 0.085243 0.035210 0.610932
#
# Coordination Sequence:
#
# PCOD9117067 Si02
#       8
#     2   2   2   2   2   2   2   2
#     4  11  21  40  69  97 132 165 225 275 318 394
#     4  11  22  43  71  97 135 175 216 278 332 391
#     4  11  20  42  69  97 127 174 223 272 321 392
#     4  12  24  43  65 102 134 173 223 276 323 396
#     4  11  25  44  63  99 144 168 211 282 339 386
#     4  11  24  42  70  97 135 175 222 275 333 389
#     4  10  22  43  66  96 135 165 221 273 322 395
#     4  11  22  41  69  99 128 173 229 263 322 395
#
# _framework density 22.956917000000001
#
# number of rings (size 3 to 8) (size 9 to 14) (size 15 to 20)
#    0.000    1.000    7.500    0.000    1.750    5.000 
#    2.250    3.750    0.000    0.000    0.000    0.000 
#    0.000    0.000    0.000    0.000    0.000    0.000 
#
# Total GULP energy -89466.780280 kJ/mol
# GULP energy per Si atom -5591.673768 kJ/mol
# Density = 2.290467 g / cm^3
# Si number density = 22.956917 Si / 1000 Ang^3
#
#
#
# Elastic Constant Matrix: (Units=GPa)
#
#
# Indices 1 2 3 4 5 6 
#
# 1 75.3953 -6.4056 -6.1073 0.0000 -8.7757 0.0000
# 2 -6.4056 51.0655 2.4300 0.0000 -12.1363 0.0000
# 3 -6.1073 2.4300 99.1451 0.0000 -14.6926 0.0000
# 4 0.0000 0.0000 0.0000 41.5912 0.0000 -3.7969
# 5 -8.7757 -12.1363 -14.6926 0.0000 36.6043 0.0000
# 6 0.0000 0.0000 0.0000 -3.7969 0.0000 34.7297
#
#
#
# Elastic Compliance Matrix: (Units=1/GPa)
#
#
# Indices 1 2 3 4 5 6 
#
# 1 0.014215 0.002895 0.001544 0.000000 0.004987 0.000000
# 2 0.002895 0.021876 0.000872 0.000000 0.008297 0.000000
# 3 0.001544 0.000872 0.010906 0.000000 0.005037 0.000000
# 4 0.000000 0.000000 0.000000 0.024286 0.000000 0.002655
# 5 0.004987 0.008297 0.005037 0.000000 0.033288 0.000000
# 6 0.000000 0.000000 0.000000 0.002655 0.000000 0.029084
#
#
# Mechanical properties :
#
#
# Convention : Reuss Voigt Hill
#
# Bulk Modulus (GPa) = 17.35549 22.82667 20.09108
# Shear Modulus (GPa) = 35.15173 38.29762 36.72468
#
# Velocity S-wave (km/s) = 3.91731 4.08884 4.00399
# Velocity P-wave (km/s) = 5.29498 5.67946 5.49059
#
# Compressibility (1/GPa) = 0.05761866
#
# Stress axis : x y z
#
# Youngs Moduli (GPa) = 70.34841 45.71164 91.68936
#
# Poissons Ratio (x) = -0.13233 -0.14155
# Poissons Ratio (y) = -0.20366 -0.07993
# Poissons Ratio (z) = -0.10860 -0.03985
#
# Static dielectric constant tensor:
#      x y z
#    x 1.889070 0.000000 0.003580 
#    y 0.000000 1.942740 0.000000 
#    z 0.003580 0.000000 1.800610 
# 
# From -- ./inp_files/11999.got.cif
#   From: 2010.05.17/outbox.cif.g08.bks.cpg/sg4_6_cif.got.tgz:11999.got - 2010.06.03 18:43:04.
