data_PCOD9117970
_publ_section_title
;
Structure prediction by ZEFSAII (Michael W. Deem and Ramdas Pophale) SiO2 
 PCOD9117970
Probable space group: P 21
;
_chemical_formula_sum "Si O2"
_cell_formula_units_Z 16
_cell_length_a 20.127477
_cell_length_b 5.691629
_cell_length_c 8.654464
_cell_angle_alpha 90.000000
_cell_angle_beta 41.962444
_cell_angle_gamma 90.000000
_cell_volume 662.919246
_symmetry_space_group_name_H-M "P 21"
_symmetry_group_IT_number 4
_symmetry_cell_setting 'monoclinic'
loop_
_space_group_symop_operation_xyz
x,y,z
-x,1/2+y,-z
loop_
_atom_site_type_symbol
_atom_site_label
_atom_site_fract_x
_atom_site_fract_y
_atom_site_fract_z
Si Si1 0.532692 0.730740 0.368823
Si Si2 0.073619 0.209551 0.177270
Si Si3 0.741179 0.971144 0.996807
Si Si4 0.119973 0.432928 0.791559
Si Si5 0.738892 0.549406 0.545363
Si Si6 0.135573 0.689328 0.474203
Si Si7 0.782614 0.313477 0.170945
Si Si8 0.529142 0.634815 0.026011
O O1 0.510492 0.486385 0.499702
O O2 0.652090 0.786043 0.153388
O O3 0.497985 0.675304 0.255271
O O4 0.154117 0.374513 0.120768
O O5 0.966053 0.244527 0.440119
O O6 0.060239 0.280003 0.017554
O O7 0.139621 0.975022 0.055328
O O8 0.772384 0.085807 0.780507
O O9 0.717154 0.172782 0.162695
O O10 0.221539 0.296332 0.583214
O O11 0.091631 0.491057 0.666748
O O12 0.145208 0.658107 0.847380
O O13 0.822232 0.405724 0.497703
O O14 0.716436 0.428570 0.419611
O O15 0.645641 0.579050 0.813851
O O16 0.484303 0.388907 0.036376
#
# Coordination Sequence:
#
# PCOD9117970 Si02
#       8
#     2   2   2   2   2   2   2   2
#     4  12  31  55  87 121 162 216 271 343 420 492
#     4  10  24  42  68 105 148 209 251 320 386 478
#     4  11  27  47  71 112 157 203 264 320 402 479
#     4   9  21  40  67  98 139 191 258 307 380 450
#     4  10  24  46  74 107 149 200 257 328 391 469
#     4  11  25  41  72 105 156 200 260 318 391 475
#     4   9  22  42  70 100 147 195 256 310 385 465
#     4  12  30  51  85 122 160 204 275 344 413 486
#
# _framework density 24.135667000000002
#
# number of rings (size 3 to 8) (size 9 to 14) (size 15 to 20)
#    0.000    1.500    0.000    1.500   17.500    6.000 
#    0.000    0.000    0.000    0.000    0.000    0.000 
#    0.000    0.000    0.000    0.000    0.000    0.000 
#
# Total GULP energy -89227.674102 kJ/mol
# GULP energy per Si atom -5576.729631 kJ/mol
# Density = 2.408073 g / cm^3
# Si number density = 24.135667 Si / 1000 Ang^3
#
#
#
# Elastic Constant Matrix: (Units=GPa)
#
#
# Indices 1 2 3 4 5 6 
#
# 1 68.6199 58.6846 52.7404 0.0000 20.2507 0.0000
# 2 58.6846 228.1243 194.5619 0.0000 108.0411 0.0000
# 3 52.7404 194.5619 309.2739 0.0000 134.1129 0.0000
# 4 0.0000 0.0000 0.0000 5.9234 0.0000 26.1180
# 5 20.2507 108.0411 134.1129 0.0000 129.2945 0.0000
# 6 0.0000 0.0000 0.0000 26.1180 0.0000 15.6116
#
#
#
# Elastic Compliance Matrix: (Units=1/GPa)
#
#
# Indices 1 2 3 4 5 6 
#
# 1 0.019077 -0.005143 -0.001065 0.000000 0.002414 0.000000
# 2 -0.005143 0.011606 -0.004667 0.000000 -0.004051 0.000000
# 3 -0.001065 -0.004667 0.008338 0.000000 -0.004582 0.000000
# 4 0.000000 0.000000 0.000000 -0.026475 0.000000 0.044292
# 5 0.002414 -0.004051 -0.004582 0.000000 0.015494 0.000000
# 6 0.000000 0.000000 0.000000 0.044292 0.000000 -0.010045
#
#
# Mechanical properties :
#
#
# Convention : Reuss Voigt Hill
#
# Bulk Modulus (GPa) = 57.89875 135.33245 96.61560
# Shear Modulus (GPa) = 109.88467 50.16798 80.02632
#
# Velocity S-wave (km/s) = 6.75476 4.56409 5.76445
# Velocity P-wave (km/s) = 9.21285 9.16340 9.18816
#
# Compressibility (1/GPa) = 0.01727153
#
# Stress axis : x y z
#
# Youngs Moduli (GPa) = 52.41885 86.16190 119.93194
#
# Poissons Ratio (x) = 0.44310 0.12769
# Poissons Ratio (y) = 0.26957 0.55978
# Poissons Ratio (z) = 0.05581 0.40216
#
# Static dielectric constant tensor:
#      x y z
#    x 1.970300 0.000000 -0.002710 
#    y 0.000000 1.982160 0.000000 
#    z -0.002710 0.000000 1.973670 
# 
# From -- ./inp_files/9831.got.cif
#   From: 2010.05.17/outbox.cif.g08.bks.cpg/sg4_5_cif.got.tgz:9831.got - 2010.06.03 18:43:04.
