data_PCOD9117117
_publ_section_title
;
Structure prediction by ZEFSAII (Michael W. Deem and Ramdas Pophale) SiO2 
 PCOD9117117
Probable space group: P 21
;
_chemical_formula_sum "Si O2"
_cell_formula_units_Z 12
_cell_length_a 4.985578
_cell_length_b 7.127940
_cell_length_c 12.523566
_cell_angle_alpha 90.000000
_cell_angle_beta 84.108455
_cell_angle_gamma 90.000000
_cell_volume 442.697965
_symmetry_space_group_name_H-M "P 21"
_symmetry_group_IT_number 4
_symmetry_cell_setting 'monoclinic'
loop_
_space_group_symop_operation_xyz
x,y,z
-x,1/2+y,-z
loop_
_atom_site_type_symbol
_atom_site_label
_atom_site_fract_x
_atom_site_fract_y
_atom_site_fract_z
Si Si1 0.434624 0.325090 0.104738
Si Si2 0.930827 0.491022 0.795424
Si Si3 0.589030 0.899517 0.512918
Si Si4 0.923186 0.584023 0.420049
Si Si5 0.742785 0.276250 0.290185
Si Si6 0.553134 0.762598 0.143532
O O1 0.490513 0.327402 0.977430
O O2 0.659727 0.240013 0.172756
O O3 0.192648 0.173369 0.132822
O O4 0.329043 0.868147 0.222554
O O5 0.149812 0.344458 0.837843
O O6 0.464800 0.542458 0.144107
O O7 0.766152 0.777121 0.427024
O O8 0.288752 0.963879 0.498777
O O9 0.520552 0.786623 0.625883
O O10 0.779479 0.066601 0.547662
O O11 0.895691 0.470024 0.310125
O O12 0.930561 0.102050 0.307034
#
# Coordination Sequence:
#
# PCOD9117117 Si02
#       6
#     2   2   2   2   2   2
#     4  12  26  51  73 111 154 196 263 312 377 451
#     4  12  26  49  70 112 151 196 254 313 370 450
#     4  10  22  44  68 104 135 186 229 296 367 438
#     4  10  22  43  71  99 137 188 228 293 373 434
#     4  10  25  47  71 105 150 189 239 322 364 448
#     4  12  29  44  79 105 149 213 249 310 387 445
#
# _framework density 27.106515999999999
#
# number of rings (size 3 to 8) (size 9 to 14) (size 15 to 20)
#    1.000    0.000    3.333    2.000    7.000    0.000 
#    3.000    0.000    0.000    0.000    0.000    0.000 
#    0.000    0.000    0.000    0.000    0.000    0.000 
#
# Total GULP energy -66910.347972 kJ/mol
# GULP energy per Si atom -5575.862331 kJ/mol
# Density = 2.704482 g / cm^3
# Si number density = 27.106516 Si / 1000 Ang^3
#
#
#
# Elastic Constant Matrix: (Units=GPa)
#
#
# Indices 1 2 3 4 5 6 
#
# 1 162.7746 53.2607 26.7666 0.0000 8.7501 0.0000
# 2 53.2607 170.1845 6.2245 0.0000 -19.9402 0.0000
# 3 26.7666 6.2245 55.3076 0.0000 13.9856 0.0000
# 4 0.0000 0.0000 0.0000 46.1985 0.0000 -13.2996
# 5 8.7501 -19.9402 13.9856 0.0000 22.5671 0.0000
# 6 0.0000 0.0000 0.0000 -13.2996 0.0000 38.4448
#
#
#
# Elastic Compliance Matrix: (Units=1/GPa)
#
#
# Indices 1 2 3 4 5 6 
#
# 1 0.007655 -0.002768 -0.002400 0.000000 -0.003926 0.000000
# 2 -0.002768 0.007890 -0.001877 0.000000 0.009208 0.000000
# 3 -0.002400 -0.001877 0.023287 0.000000 -0.015159 0.000000
# 4 0.000000 0.000000 0.000000 0.024040 0.000000 0.008316
# 5 -0.003926 0.009208 -0.015159 0.000000 0.063365 0.000000
# 6 0.000000 0.000000 0.000000 0.008316 0.000000 0.028888
#
#
# Mechanical properties :
#
#
# Convention : Reuss Voigt Hill
#
# Bulk Modulus (GPa) = 40.41776 62.30781 51.36278
# Shear Modulus (GPa) = 28.17513 41.57642 34.87577
#
# Velocity S-wave (km/s) = 3.22751 3.92065 3.59084
# Velocity P-wave (km/s) = 5.36956 6.59784 6.01513
#
# Compressibility (1/GPa) = 0.02474160
#
# Stress axis : x y z
#
# Youngs Moduli (GPa) = 130.63528 126.74796 42.94272
#
# Poissons Ratio (x) = 0.35083 0.10308
# Poissons Ratio (y) = 0.36159 0.08059
# Poissons Ratio (z) = 0.31357 0.23786
#
# Static dielectric constant tensor:
#      x y z
#    x 2.114930 0.000000 -0.050360 
#    y 0.000000 2.353030 0.000000 
#    z -0.050360 0.000000 2.134000 
# 
# From -- ./inp_files/10306.got.cif
#   From: 2010.05.17/outbox.cif.g08.bks.cpg/sg4_6_cif.got.tgz:10306.got - 2010.06.03 18:43:04.
