data_PCOD9117543
_publ_section_title
;
Structure prediction by ZEFSAII (Michael W. Deem and Ramdas Pophale) SiO2 
 PCOD9117543
Probable space group: P 21
;
_chemical_formula_sum "Si O2"
_cell_formula_units_Z 14
_cell_length_a 9.773495
_cell_length_b 11.275912
_cell_length_c 9.325065
_cell_angle_alpha 90.000000
_cell_angle_beta 41.300533
_cell_angle_gamma 90.000000
_cell_volume 678.270725
_symmetry_space_group_name_H-M "P 21"
_symmetry_group_IT_number 4
_symmetry_cell_setting 'monoclinic'
loop_
_space_group_symop_operation_xyz
x,y,z
-x,1/2+y,-z
loop_
_atom_site_type_symbol
_atom_site_label
_atom_site_fract_x
_atom_site_fract_y
_atom_site_fract_z
Si Si1 0.322173 0.513900 0.881470
Si Si2 0.219003 0.048919 0.401798
Si Si3 0.744464 0.406572 0.118539
Si Si4 0.959243 0.579591 0.772521
Si Si5 0.686235 0.900941 0.411357
Si Si6 0.031244 0.855515 0.752638
Si Si7 0.002706 0.711034 0.194707
O O1 0.532110 0.562206 0.785878
O O2 0.384787 0.461817 0.679017
O O3 0.200602 0.410991 0.062570
O O4 0.140665 0.612324 0.006262
O O5 0.141074 0.055046 0.301989
O O6 0.092973 0.149066 0.590511
O O7 0.157171 0.926885 0.531975
O O8 0.507282 0.381400 0.334819
O O9 0.866054 0.382166 0.172197
O O10 0.797107 0.537778 0.022681
O O11 0.833952 0.318754 0.926353
O O12 0.022783 0.715831 0.736257
O O13 0.155416 0.493482 0.641974
O O14 0.805487 0.778543 0.282146
#
# Coordination Sequence:
#
# PCOD9117543 Si02
#       7
#     2   2   2   2   2   2   2
#     4  11  22  44  70 100 137 178 229 284 344 405
#     4  11  26  46  69 100 142 185 221 290 353 401
#     4  11  23  43  71 103 132 181 232 283 339 409
#     4  11  27  45  70 103 142 178 232 283 346 414
#     4  11  23  42  72 103 135 179 229 286 341 406
#     4  11  24  44  69 103 141 177 234 281 337 417
#     4  10  23  42  67  96 139 174 227 279 338 404
#
# _framework density 20.640726000000001
#
# number of rings (size 3 to 8) (size 9 to 14) (size 15 to 20)
#    0.000    1.143    4.286    1.714    6.000    3.429 
#    7.714    0.000    0.000    0.000    0.000    0.000 
#    0.000    0.000    0.000    0.000    0.000    0.000 
#
# Total GULP energy -78139.545124 kJ/mol
# GULP energy per Si atom -5581.396080 kJ/mol
# Density = 2.059375 g / cm^3
# Si number density = 20.640726 Si / 1000 Ang^3
#
#
#
# Elastic Constant Matrix: (Units=GPa)
#
#
# Indices 1 2 3 4 5 6 
#
# 1 98.4030 33.6961 34.7153 0.0000 12.3399 0.0000
# 2 33.6961 121.0181 39.9980 0.0000 7.2318 0.0000
# 3 34.7153 39.9980 102.9260 0.0000 -24.4602 0.0000
# 4 0.0000 0.0000 0.0000 33.2659 0.0000 1.3231
# 5 12.3399 7.2318 -24.4602 0.0000 36.2233 0.0000
# 6 0.0000 0.0000 0.0000 1.3231 0.0000 11.4237
#
#
#
# Elastic Compliance Matrix: (Units=1/GPa)
#
#
# Indices 1 2 3 4 5 6 
#
# 1 0.013901 -0.001281 -0.006260 0.000000 -0.008707 0.000000
# 2 -0.001281 0.010506 -0.004819 0.000000 -0.004915 0.000000
# 3 -0.006260 -0.004819 0.017194 0.000000 0.014705 0.000000
# 4 0.000000 0.000000 0.000000 0.030200 0.000000 -0.003498
# 5 -0.008707 -0.004915 0.014705 0.000000 0.041484 0.000000
# 6 0.000000 0.000000 0.000000 -0.003498 0.000000 0.087943
#
#
# Mechanical properties :
#
#
# Convention : Reuss Voigt Hill
#
# Bulk Modulus (GPa) = 59.23452 59.90732 59.57092
# Shear Modulus (GPa) = 21.59120 30.44509 26.01815
#
# Velocity S-wave (km/s) = 3.23778 3.84474 3.55424
# Velocity P-wave (km/s) = 6.53741 6.98543 6.76513
#
# Compressibility (1/GPa) = 0.01688205
#
# Stress axis : x y z
#
# Youngs Moduli (GPa) = 71.93543 95.18042 58.15863
#
# Poissons Ratio (x) = 0.12196 0.36407
# Poissons Ratio (y) = 0.09218 0.28025
# Poissons Ratio (z) = 0.45031 0.45865
#
# Static dielectric constant tensor:
#      x y z
#    x 1.717920 0.000000 -0.019280 
#    y 0.000000 1.786500 0.000000 
#    z -0.019280 0.000000 1.742290 
# 
# From -- ./inp_files/6357.got.cif
#   From: 2010.05.17/outbox.cif.g08.bks.cpg/sg4_4_cif.got.tgz:6357.got - 2010.06.03 18:43:04.
