data_PCOD9117525
_publ_section_title
;
Structure prediction by ZEFSAII (Michael W. Deem and Ramdas Pophale) SiO2 
 PCOD9117525
Probable space group: P 21
;
_chemical_formula_sum "Si O2"
_cell_formula_units_Z 10
_cell_length_a 5.783462
_cell_length_b 4.784104
_cell_length_c 18.477302
_cell_angle_alpha 90.000000
_cell_angle_beta 133.814288
_cell_angle_gamma 90.000000
_cell_volume 368.906340
_symmetry_space_group_name_H-M "P 21"
_symmetry_group_IT_number 4
_symmetry_cell_setting 'monoclinic'
loop_
_space_group_symop_operation_xyz
x,y,z
-x,1/2+y,-z
loop_
_atom_site_type_symbol
_atom_site_label
_atom_site_fract_x
_atom_site_fract_y
_atom_site_fract_z
Si Si1 0.778663 0.665340 0.369988
Si Si2 0.427779 0.672111 0.581099
Si Si3 0.071557 0.898300 0.736359
Si Si4 0.171257 0.390694 0.857551
Si Si5 0.110922 0.053628 0.985934
O O1 0.644100 0.478108 0.404720
O O2 0.697234 0.510750 0.277470
O O3 0.165225 0.637305 0.461866
O O4 0.653948 0.968144 0.368412
O O5 0.796816 0.704938 0.640128
O O6 0.136793 0.705562 0.821270
O O7 0.018197 0.194914 0.763387
O O8 0.041893 0.254026 0.902917
O O9 0.557410 0.381769 0.948081
O O10 0.130121 0.297011 0.051429
#
# Coordination Sequence:
#
# PCOD9117525 Si02
#       5
#     2   2   2   2   2
#     4  10  23  42  64  96 139 187 233 274 332 404
#     4  10  23  42  64  96 139 187 233 274 332 404
#     4  12  25  41  70 102 138 176 224 293 339 388
#     4  12  27  45  68 108 134 168 240 281 335 434
#     4  12  26  48  74  96 138 188 220 282 360 414
#
# _framework density 27.107149
#
# number of rings (size 3 to 8) (size 9 to 14) (size 15 to 20)
#    0.000    0.800    0.000    7.200    0.000   16.000 
#    0.000    0.000    0.000    0.000    0.000    0.000 
#    0.000    0.000    0.000    0.000    0.000    0.000 
#
# Total GULP energy -55762.464422 kJ/mol
# GULP energy per Si atom -5576.246442 kJ/mol
# Density = 2.704545 g / cm^3
# Si number density = 27.107149 Si / 1000 Ang^3
#
#
#
# Elastic Constant Matrix: (Units=GPa)
#
#
# Indices 1 2 3 4 5 6 
#
# 1 64.5817 37.4702 33.2333 0.0000 -10.5950 0.0000
# 2 37.4702 160.2660 29.0140 0.0000 0.5484 0.0000
# 3 33.2333 29.0140 60.9528 0.0000 -7.4822 0.0000
# 4 0.0000 0.0000 0.0000 54.4238 0.0000 -12.9677
# 5 -10.5950 0.5484 -7.4822 0.0000 20.2331 0.0000
# 6 0.0000 0.0000 0.0000 -12.9677 0.0000 55.2150
#
#
#
# Elastic Compliance Matrix: (Units=1/GPa)
#
#
# Indices 1 2 3 4 5 6 
#
# 1 0.024619 -0.003896 -0.010448 0.000000 0.009134 0.000000
# 2 -0.003896 0.007486 -0.001796 0.000000 -0.002907 0.000000
# 3 -0.010448 -0.001796 0.023352 0.000000 0.003213 0.000000
# 4 0.000000 0.000000 0.000000 0.019463 0.000000 0.004571
# 5 0.009134 -0.002907 0.003213 0.000000 0.055474 0.000000
# 6 0.000000 0.000000 0.000000 0.004571 0.000000 0.019185
#
#
# Mechanical properties :
#
#
# Convention : Reuss Voigt Hill
#
# Bulk Modulus (GPa) = 43.14418 53.91506 48.52962
# Shear Modulus (GPa) = 26.37361 38.37991 32.37676
#
# Velocity S-wave (km/s) = 3.12258 3.76687 3.45976
# Velocity P-wave (km/s) = 5.38065 6.23313 5.82251
#
# Compressibility (1/GPa) = 0.02317810
#
# Stress axis : x y z
#
# Youngs Moduli (GPa) = 40.61846 133.59062 42.82337
#
# Poissons Ratio (x) = 0.52045 0.44740
# Poissons Ratio (y) = 0.15824 0.07691
# Poissons Ratio (z) = 0.42436 0.23991
#
# Static dielectric constant tensor:
#      x y z
#    x 2.210610 0.000000 0.076520 
#    y 0.000000 1.988380 0.000000 
#    z 0.076520 0.000000 2.217580 
# 
# From -- ./inp_files/14654.got.cif
#   From: 2010.05.17/outbox.cif.g08.bks.cpg/sg4_8_cif.got.tgz:14654.got - 2010.06.03 18:43:04.
