data_PCOD9117558
_publ_section_title
;
Structure prediction by ZEFSAII (Michael W. Deem and Ramdas Pophale) SiO2 
 PCOD9117558
Probable space group: P 21
;
_chemical_formula_sum "Si O2"
_cell_formula_units_Z 16
_cell_length_a 25.567198
_cell_length_b 5.699731
_cell_length_c 8.709037
_cell_angle_alpha 90.000000
_cell_angle_beta 149.590589
_cell_angle_gamma 90.000000
_cell_volume 642.404669
_symmetry_space_group_name_H-M "P 21"
_symmetry_group_IT_number 4
_symmetry_cell_setting 'monoclinic'
loop_
_space_group_symop_operation_xyz
x,y,z
-x,1/2+y,-z
loop_
_atom_site_type_symbol
_atom_site_label
_atom_site_fract_x
_atom_site_fract_y
_atom_site_fract_z
Si Si1 0.980443 0.508620 0.192096
Si Si2 0.451742 0.547312 0.550215
Si Si3 0.789138 0.179357 0.708473
Si Si4 0.103279 0.353288 0.803682
Si Si5 0.555705 0.322812 0.179896
Si Si6 0.275398 0.194243 0.053172
Si Si7 0.360351 0.804926 0.065047
Si Si8 0.184861 0.480578 0.530870
O O1 0.957260 0.765512 0.200936
O O2 0.031040 0.396492 0.474603
O O3 0.065312 0.506310 0.273072
O O4 0.877256 0.368670 0.886922
O O5 0.445439 0.768150 0.642614
O O6 0.433696 0.608191 0.326026
O O7 0.565030 0.441324 0.858986
O O8 0.360873 0.361461 0.346959
O O9 0.674998 0.287446 0.430522
O O10 0.794148 0.961633 0.597813
O O11 0.828279 0.073542 0.970044
O O12 0.184709 0.162771 0.946222
O O13 0.506494 0.583169 0.033332
O O14 0.230247 0.311843 0.780078
O O15 0.325374 0.963437 0.116607
O O16 0.254395 0.710888 0.732020
#
# Coordination Sequence:
#
# PCOD9117558 Si02
#       8
#     2   2   2   2   2   2   2   2
#     4  11  26  45  72 102 139 184 247 306 378 453
#     4  11  23  41  70 106 141 197 249 306 378 443
#     4  12  27  47  73 104 151 194 244 311 383 449
#     4  11  24  44  73 100 136 186 242 307 373 451
#     4  12  31  50  77 112 161 204 256 314 382 463
#     4  10  23  42  69 102 139 185 244 301 370 445
#     4  11  23  40  73  98 146 185 251 310 371 455
#     4  10  27  45  65 104 139 191 243 305 381 445
#
# _framework density 24.906420000000001
#
# number of rings (size 3 to 8) (size 9 to 14) (size 15 to 20)
#    0.000    1.000    3.750    0.750   10.500    1.000 
#    0.000    0.000    0.000    0.000    0.000    0.000 
#    0.000    0.000    0.000    0.000    0.000    0.000 
#
# Total GULP energy -89356.551448 kJ/mol
# GULP energy per Si atom -5584.784466 kJ/mol
# Density = 2.484973 g / cm^3
# Si number density = 24.906420 Si / 1000 Ang^3
#
#
#
# Elastic Constant Matrix: (Units=GPa)
#
#
# Indices 1 2 3 4 5 6 
#
# 1 75.5803 7.4289 46.8267 0.0000 22.7219 0.0000
# 2 7.4289 44.5913 41.9528 0.0000 5.9052 0.0000
# 3 46.8267 41.9528 136.6440 0.0000 19.5334 0.0000
# 4 0.0000 0.0000 0.0000 44.3917 0.0000 -2.0668
# 5 22.7219 5.9052 19.5334 0.0000 43.8206 0.0000
# 6 0.0000 0.0000 0.0000 -2.0668 0.0000 33.2065
#
#
#
# Elastic Compliance Matrix: (Units=1/GPa)
#
#
# Indices 1 2 3 4 5 6 
#
# 1 0.019318 0.004211 -0.006835 0.000000 -0.007537 0.000000
# 2 0.004211 0.032453 -0.011182 0.000000 -0.001572 0.000000
# 3 -0.006835 -0.011182 0.013214 0.000000 -0.000839 0.000000
# 4 0.000000 0.000000 0.000000 0.022592 0.000000 0.001406
# 5 -0.007537 -0.001572 -0.000839 0.000000 0.027314 0.000000
# 6 0.000000 0.000000 0.000000 0.001406 0.000000 0.030202
#
#
# Mechanical properties :
#
#
# Convention : Reuss Voigt Hill
#
# Bulk Modulus (GPa) = 26.75850 49.91470 38.33660
# Shear Modulus (GPa) = 27.00311 34.99092 30.99701
#
# Velocity S-wave (km/s) = 3.29626 3.75226 3.53163
# Velocity P-wave (km/s) = 5.02534 6.23354 5.66176
#
# Compressibility (1/GPa) = 0.03737130
#
# Stress axis : x y z
#
# Youngs Moduli (GPa) = 51.76518 30.81386 75.67852
#
# Poissons Ratio (x) = -0.12975 0.51730
# Poissons Ratio (y) = -0.21797 0.84624
# Poissons Ratio (z) = 0.35384 0.34456
#
# Static dielectric constant tensor:
#      x y z
#    x 1.972460 0.000000 -0.057900 
#    y 0.000000 2.012950 0.000000 
#    z -0.057900 0.000000 2.060690 
# 
# From -- ./inp_files/9550.got.cif
#   From: 2010.05.17/outbox.cif.g08.bks.cpg/sg4_5_cif.got.tgz:9550.got - 2010.06.03 18:43:04.
