data_PCOD9117019
_publ_section_title
;
Structure prediction by ZEFSAII (Michael W. Deem and Ramdas Pophale) SiO2 
 PCOD9117019
Probable space group: P 21
;
_chemical_formula_sum "Si O2"
_cell_formula_units_Z 16
_cell_length_a 8.339101
_cell_length_b 10.052258
_cell_length_c 11.153637
_cell_angle_alpha 90.000000
_cell_angle_beta 130.922020
_cell_angle_gamma 90.000000
_cell_volume 706.467748
_symmetry_space_group_name_H-M "P 21"
_symmetry_group_IT_number 4
_symmetry_cell_setting 'monoclinic'
loop_
_space_group_symop_operation_xyz
x,y,z
-x,1/2+y,-z
loop_
_atom_site_type_symbol
_atom_site_label
_atom_site_fract_x
_atom_site_fract_y
_atom_site_fract_z
Si Si1 0.887929 0.282120 0.713779
Si Si2 0.638587 0.833848 0.959479
Si Si3 0.371669 0.129067 0.457612
Si Si4 0.349147 0.387502 0.315068
Si Si5 0.122979 0.486668 0.396427
Si Si6 0.600211 0.439411 0.731116
Si Si7 0.957811 0.513660 0.563146
Si Si8 0.438791 0.549755 0.888485
O O1 0.877700 0.139028 0.646672
O O2 0.730753 0.311759 0.749936
O O3 0.123553 0.304045 0.880309
O O4 0.870541 0.390505 0.598109
O O5 0.556363 0.964638 0.987990
O O6 0.504973 0.702894 0.927587
O O7 0.645004 0.857163 0.820679
O O8 0.453008 0.264489 0.438329
O O9 0.352157 0.446403 0.567867
O O10 0.185593 0.138013 0.464480
O O11 0.292096 0.054314 0.297566
O O12 0.122655 0.402951 0.272778
O O13 0.466021 0.526988 0.399719
O O14 0.956177 0.477733 0.422271
O O15 0.589886 0.477475 0.864235
O O16 0.198180 0.541745 0.720695
#
# Coordination Sequence:
#
# PCOD9117019 Si02
#       8
#     2   2   2   2   2   2   2   2
#     4  10  23  43  64 100 137 185 226 283 344 427
#     4  11  25  47  66  99 147 181 236 276 355 426
#     4  10  22  42  70  97 133 173 234 289 348 401
#     4  11  25  43  68 100 136 183 228 292 349 410
#     4  10  23  38  68  99 130 174 237 283 344 396
#     4   9  20  40  69  86 135 172 224 286 340 381
#     4   9  22  41  66  94 137 172 228 289 347 389
#     4  10  22  46  67  95 137 188 223 288 343 412
#
# _framework density 22.647884999999999
#
# number of rings (size 3 to 8) (size 9 to 14) (size 15 to 20)
#    0.000    2.000    1.250    0.000   12.250    3.000 
#    9.000    0.000    0.000    0.000    0.000    0.000 
#    0.000    0.000    0.000    0.000    0.000    0.000 
#
# Total GULP energy -89223.823312 kJ/mol
# GULP energy per Si atom -5576.488957 kJ/mol
# Density = 2.259634 g / cm^3
# Si number density = 22.647885 Si / 1000 Ang^3
#
#
#
# Elastic Constant Matrix: (Units=GPa)
#
#
# Indices 1 2 3 4 5 6 
#
# 1 144.2544 45.7049 44.9819 0.0000 -34.9406 0.0000
# 2 45.7049 123.0404 48.7012 0.0000 -20.4037 0.0000
# 3 44.9819 48.7012 67.1702 0.0000 -26.8436 0.0000
# 4 0.0000 0.0000 0.0000 22.5700 0.0000 -3.0473
# 5 -34.9406 -20.4037 -26.8436 0.0000 34.4067 0.0000
# 6 0.0000 0.0000 0.0000 -3.0473 0.0000 40.7073
#
#
#
# Elastic Compliance Matrix: (Units=1/GPa)
#
#
# Indices 1 2 3 4 5 6 
#
# 1 0.009978 -0.001413 -0.002823 0.000000 0.007092 0.000000
# 2 -0.001413 0.011604 -0.007687 0.000000 -0.000551 0.000000
# 3 -0.002823 -0.007687 0.028166 0.000000 0.014549 0.000000
# 4 0.000000 0.000000 0.000000 0.044759 0.000000 0.003351
# 5 0.007092 -0.000551 0.014549 0.000000 0.047291 0.000000
# 6 0.000000 0.000000 0.000000 0.003351 0.000000 0.024816
#
#
# Mechanical properties :
#
#
# Convention : Reuss Voigt Hill
#
# Bulk Modulus (GPa) = 38.60839 68.13789 53.37314
# Shear Modulus (GPa) = 25.11378 32.54193 28.82786
#
# Velocity S-wave (km/s) = 3.33360 3.79471 3.57160
# Velocity P-wave (km/s) = 5.64813 7.02502 6.37386
#
# Compressibility (1/GPa) = 0.02590111
#
# Stress axis : x y z
#
# Youngs Moduli (GPa) = 100.21950 86.18071 35.50381
#
# Poissons Ratio (x) = 0.12176 0.10024
# Poissons Ratio (y) = 0.14160 0.27292
# Poissons Ratio (z) = 0.28295 0.66248
#
# Static dielectric constant tensor:
#      x y z
#    x 1.937650 0.000000 0.035910 
#    y 0.000000 1.921900 0.000000 
#    z 0.035910 0.000000 1.861330 
# 
# From -- ./inp_files/10970.got.cif
#   From: 2010.05.17/outbox.cif.g08.bks.cpg/sg4_6_cif.got.tgz:10970.got - 2010.06.03 18:43:04.
