data_PCOD9117219
_publ_section_title
;
Structure prediction by ZEFSAII (Michael W. Deem and Ramdas Pophale) SiO2 
 PCOD9117219
Probable space group: P 21
;
_chemical_formula_sum "Si O2"
_cell_formula_units_Z 16
_cell_length_a 17.791355
_cell_length_b 5.534470
_cell_length_c 7.039084
_cell_angle_alpha 90.000000
_cell_angle_beta 94.871056
_cell_angle_gamma 90.000000
_cell_volume 690.605191
_symmetry_space_group_name_H-M "P 21"
_symmetry_group_IT_number 4
_symmetry_cell_setting 'monoclinic'
loop_
_space_group_symop_operation_xyz
x,y,z
-x,1/2+y,-z
loop_
_atom_site_type_symbol
_atom_site_label
_atom_site_fract_x
_atom_site_fract_y
_atom_site_fract_z
Si Si1 0.623474 0.381850 0.425179
Si Si2 0.720171 0.860379 0.984695
Si Si3 0.830630 0.243769 0.970085
Si Si4 0.486039 0.712186 0.304335
Si Si5 0.959196 0.899830 0.036745
Si Si6 0.423306 0.543431 0.897056
Si Si7 0.774186 0.581258 0.637450
Si Si8 0.852763 0.640798 0.269015
O O1 0.561759 0.595959 0.404591
O O2 0.585504 0.209897 0.575401
O O3 0.620337 0.256105 0.220026
O O4 0.706461 0.448941 0.510555
O O5 0.747573 0.137668 0.984045
O O6 0.731151 0.760712 0.774249
O O7 0.639042 0.842651 0.063482
O O8 0.780429 0.737676 0.136717
O O9 0.823254 0.419258 0.791150
O O10 0.884689 0.019559 0.926866
O O11 0.860688 0.377728 0.167147
O O12 0.511851 0.972870 0.236461
O O13 0.462586 0.589399 0.103898
O O14 0.925600 0.800543 0.228852
O O15 0.011216 0.144718 0.048735
O O16 0.830394 0.662355 0.482729
#
# Coordination Sequence:
#
# PCOD9117219 Si02
#       8
#     2   2   2   2   2   2   2   2
#     4  12  26  43  64  95 135 183 243 303 381 434
#     4  10  24  40  67  98 137 181 238 301 362 437
#     4  10  22  44  73 105 147 187 240 293 355 428
#     4  12  26  40  62  91 131 177 238 306 368 448
#     4  11  22  44  84 112 153 207 241 289 367 439
#     4  12  25  43  63  90 130 182 233 298 375 435
#     4  11  25  42  72 106 141 185 248 304 362 438
#     4  10  22  44  73 107 146 190 239 294 360 433
#
# _framework density 23.168088000000001
#
# number of rings (size 3 to 8) (size 9 to 14) (size 15 to 20)
#    0.000    1.000    3.750    2.250    3.500    7.000 
#    0.000    0.000   11.000    0.000    0.000    0.000 
#    0.000    0.000    0.000    0.000    0.000    0.000 
#
# Total GULP energy -89231.243472 kJ/mol
# GULP energy per Si atom -5576.952717 kJ/mol
# Density = 2.311536 g / cm^3
# Si number density = 23.168088 Si / 1000 Ang^3
#
#
#
# Elastic Constant Matrix: (Units=GPa)
#
#
# Indices 1 2 3 4 5 6 
#
# 1 90.4996 24.0786 24.8806 0.0000 -29.1555 0.0000
# 2 24.0786 76.3145 27.7065 0.0000 -16.1924 0.0000
# 3 24.8806 27.7065 96.4998 0.0000 -31.4233 0.0000
# 4 0.0000 0.0000 0.0000 24.0119 0.0000 0.1112
# 5 -29.1555 -16.1924 -31.4233 0.0000 37.8090 0.0000
# 6 0.0000 0.0000 0.0000 0.1112 0.0000 43.3581
#
#
#
# Elastic Compliance Matrix: (Units=1/GPa)
#
#
# Indices 1 2 3 4 5 6 
#
# 1 0.015143 -0.002610 0.000389 0.000000 0.010883 0.000000
# 2 -0.002610 0.015489 -0.003112 0.000000 0.002035 0.000000
# 3 0.000389 -0.003112 0.014834 0.000000 0.011296 0.000000
# 4 0.000000 0.000000 0.000000 0.041646 0.000000 -0.000107
# 5 0.010883 0.002035 0.011296 0.000000 0.045100 0.000000
# 6 0.000000 0.000000 0.000000 -0.000107 0.000000 0.023064
#
#
# Mechanical properties :
#
#
# Convention : Reuss Voigt Hill
#
# Bulk Modulus (GPa) = 28.73536 46.29392 37.51464
# Shear Modulus (GPa) = 28.16229 33.47903 30.82066
#
# Velocity S-wave (km/s) = 3.49028 3.80550 3.65129
# Velocity P-wave (km/s) = 5.35468 6.27171 5.83125
#
# Compressibility (1/GPa) = 0.03480033
#
# Stress axis : x y z
#
# Youngs Moduli (GPa) = 66.03567 64.56387 67.41198
#
# Poissons Ratio (x) = 0.16851 -0.02620
# Poissons Ratio (y) = 0.17236 0.20975
# Poissons Ratio (z) = -0.02567 0.20089
#
# Static dielectric constant tensor:
#      x y z
#    x 1.919930 0.000000 -0.028260 
#    y 0.000000 2.069630 0.000000 
#    z -0.028260 0.000000 1.838560 
# 
# From -- ./inp_files/4267.got.cif
#   From: 2010.05.17/outbox.cif.g08.bks.cpg/sg4_3_cif.got.tgz:4267.got - 2010.06.03 18:43:04.
