data_PCOD9117184
_publ_section_title
;
Structure prediction by ZEFSAII (Michael W. Deem and Ramdas Pophale) SiO2 
 PCOD9117184
Probable space group: P 21
;
_chemical_formula_sum "Si O2"
_cell_formula_units_Z 10
_cell_length_a 6.985007
_cell_length_b 9.187282
_cell_length_c 7.295686
_cell_angle_alpha 90.000000
_cell_angle_beta 63.704478
_cell_angle_gamma 90.000000
_cell_volume 419.740157
_symmetry_space_group_name_H-M "P 21"
_symmetry_group_IT_number 4
_symmetry_cell_setting 'monoclinic'
loop_
_space_group_symop_operation_xyz
x,y,z
-x,1/2+y,-z
loop_
_atom_site_type_symbol
_atom_site_label
_atom_site_fract_x
_atom_site_fract_y
_atom_site_fract_z
Si Si1 0.990668 0.068180 0.790369
Si Si2 0.859974 0.746767 0.938525
Si Si3 0.645027 0.462452 0.621777
Si Si4 0.384830 0.785816 0.027093
Si Si5 0.684566 0.207882 0.344708
O O1 0.781518 0.162793 0.835985
O O2 0.127067 0.167514 0.871729
O O3 0.912218 0.919671 0.920308
O O4 0.629077 0.738681 0.947204
O O5 0.062783 0.679794 0.743818
O O6 0.136642 0.023638 0.557319
O O7 0.651959 0.427042 0.833057
O O8 0.607023 0.305419 0.544029
O O9 0.455743 0.567952 0.639154
O O10 0.339339 0.804228 0.831240
#
# Coordination Sequence:
#
# PCOD9117184 Si02
#       5
#     2   2   2   2   2
#     4  10  24  43  68 102 133 174 224 274 330 393
#     4  10  22  44  69  97 133 174 220 271 331 391
#     4  11  24  45  70 100 133 174 225 275 330 393
#     4  11  23  43  68  97 136 175 216 269 336 394
#     4  10  25  45  69 100 135 175 221 275 331 393
#
# _framework density 23.824266999999999
#
# number of rings (size 3 to 8) (size 9 to 14) (size 15 to 20)
#    0.000    1.600    0.000    3.600    0.000   16.000 
#    0.000   16.000    0.000    0.000    0.000    0.000 
#    0.000    0.000    0.000    0.000    0.000    0.000 
#
# Total GULP energy -55978.632503 kJ/mol
# GULP energy per Si atom -5597.863250 kJ/mol
# Density = 2.377004 g / cm^3
# Si number density = 23.824267 Si / 1000 Ang^3
#
#
#
# Elastic Constant Matrix: (Units=GPa)
#
#
# Indices 1 2 3 4 5 6 
#
# 1 135.8102 29.6896 -6.3722 0.0000 -12.9323 0.0000
# 2 29.6896 81.5976 11.0261 0.0000 0.8236 0.0000
# 3 -6.3722 11.0261 40.8413 0.0000 11.3104 0.0000
# 4 0.0000 0.0000 0.0000 43.8069 0.0000 -14.1970
# 5 -12.9323 0.8236 11.3104 0.0000 31.2831 0.0000
# 6 0.0000 0.0000 0.0000 -14.1970 0.0000 36.5011
#
#
#
# Elastic Compliance Matrix: (Units=1/GPa)
#
#
# Indices 1 2 3 4 5 6 
#
# 1 0.008438 -0.003284 0.001348 0.000000 0.003087 0.000000
# 2 -0.003284 0.014026 -0.004246 0.000000 -0.000192 0.000000
# 3 0.001348 -0.004246 0.028511 0.000000 -0.009639 0.000000
# 4 0.000000 0.000000 0.000000 0.026120 0.000000 0.010159
# 5 0.003087 -0.000192 -0.009639 0.000000 0.036732 0.000000
# 6 0.000000 0.000000 0.000000 0.010159 0.000000 0.031348
#
#
# Mechanical properties :
#
#
# Convention : Reuss Voigt Hill
#
# Bulk Modulus (GPa) = 25.89859 36.32626 31.11243
# Shear Modulus (GPa) = 29.34123 37.24527 33.29325
#
# Velocity S-wave (km/s) = 3.51318 3.95819 3.74231
# Velocity P-wave (km/s) = 5.22980 6.01418 5.63566
#
# Compressibility (1/GPa) = 0.03861214
#
# Stress axis : x y z
#
# Youngs Moduli (GPa) = 118.50729 71.29778 35.07420
#
# Poissons Ratio (x) = 0.23412 -0.04728
# Poissons Ratio (y) = 0.38913 0.14892
# Poissons Ratio (z) = -0.15975 0.30272
#
# Static dielectric constant tensor:
#      x y z
#    x 1.870960 0.000000 -0.004520 
#    y 0.000000 1.913190 0.000000 
#    z -0.004520 0.000000 1.928380 
# 
# From -- ./inp_files/5191.got.cif
#   From: 2010.05.17/outbox.cif.g08.bks.cpg/sg4_3_cif.got.tgz:5191.got - 2010.06.03 18:43:04.
