data_PCOD9117431
_publ_section_title
;
Structure prediction by ZEFSAII (Michael W. Deem and Ramdas Pophale) SiO2 
 PCOD9117431
Probable space group: P 21
;
_chemical_formula_sum "Si O2"
_cell_formula_units_Z 14
_cell_length_a 8.669022
_cell_length_b 5.449341
_cell_length_c 13.794121
_cell_angle_alpha 90.000000
_cell_angle_beta 101.154726
_cell_angle_gamma 90.000000
_cell_volume 639.330001
_symmetry_space_group_name_H-M "P 21"
_symmetry_group_IT_number 4
_symmetry_cell_setting 'monoclinic'
loop_
_space_group_symop_operation_xyz
x,y,z
-x,1/2+y,-z
loop_
_atom_site_type_symbol
_atom_site_label
_atom_site_fract_x
_atom_site_fract_y
_atom_site_fract_z
Si Si1 0.854099 0.850140 0.862272
Si Si2 0.951466 0.395697 0.548475
Si Si3 0.014161 0.453437 0.774128
Si Si4 0.581593 0.305817 0.979880
Si Si5 0.853327 0.608691 0.058736
Si Si6 0.336734 0.735625 0.231931
Si Si7 0.422044 0.861627 0.451446
O O1 0.981292 0.727652 0.806794
O O2 0.709794 0.948230 0.782268
O O3 0.796968 0.699907 0.946987
O O4 0.962465 0.048719 0.931102
O O5 0.035788 0.426549 0.663025
O O6 0.763248 0.380188 0.543734
O O7 0.992334 0.640426 0.492631
O O8 0.837801 0.348717 0.774577
O O9 0.139730 0.303816 0.853426
O O10 0.596857 0.297635 0.865102
O O11 0.472387 0.535915 0.994952
O O12 0.741622 0.375838 0.055772
O O13 0.433069 0.812111 0.337122
O O14 0.496102 0.618876 0.510397
#
# Coordination Sequence:
#
# PCOD9117431 Si02
#       7
#     2   2   2   2   2   2   2
#     4  11  19  37  73  99 130 167 231 294 326 400
#     4  11  26  49  72 106 146 182 236 307 371 406
#     4  10  23  39  74  99 131 178 229 293 342 410
#     4  12  27  44  61  95 149 193 219 271 341 418
#     4  11  21  38  63 103 130 175 227 279 330 412
#     4  10  24  43  69  98 132 184 235 278 345 410
#     4  11  26  48  78 104 136 187 249 298 349 434
#
# _framework density 21.897924
#
# number of rings (size 3 to 8) (size 9 to 14) (size 15 to 20)
#    0.000    1.143    2.857    2.571   12.000    0.000 
#    7.714    0.000    0.000    0.000    0.000    0.000 
#    0.000    0.000    0.000    0.000    0.000    0.000 
#
# Total GULP energy -78079.981322 kJ/mol
# GULP energy per Si atom -5577.141523 kJ/mol
# Density = 2.184808 g / cm^3
# Si number density = 21.897924 Si / 1000 Ang^3
#
#
#
# Elastic Constant Matrix: (Units=GPa)
#
#
# Indices 1 2 3 4 5 6 
#
# 1 53.6450 37.3169 40.8683 0.0000 -1.4615 0.0000
# 2 37.3169 118.8808 62.2729 0.0000 -5.6172 0.0000
# 3 40.8683 62.2729 154.7461 0.0000 -15.5678 0.0000
# 4 0.0000 0.0000 0.0000 32.7665 0.0000 -0.0946
# 5 -1.4615 -5.6172 -15.5678 0.0000 30.4492 0.0000
# 6 0.0000 0.0000 0.0000 -0.0946 0.0000 51.2756
#
#
#
# Elastic Compliance Matrix: (Units=1/GPa)
#
#
# Indices 1 2 3 4 5 6 
#
# 1 0.026322 -0.005840 -0.004831 0.000000 -0.002284 0.000000
# 2 -0.005840 0.011956 -0.003242 0.000000 0.000268 0.000000
# 3 -0.004831 -0.003242 0.009445 0.000000 0.003999 0.000000
# 4 0.000000 0.000000 0.000000 0.030519 0.000000 0.000056
# 5 -0.002284 0.000268 0.003999 0.000000 0.034826 0.000000
# 6 0.000000 0.000000 0.000000 0.000056 0.000000 0.019503
#
#
# Mechanical properties :
#
#
# Convention : Reuss Voigt Hill
#
# Bulk Modulus (GPa) = 50.25985 67.57646 58.91815
# Shear Modulus (GPa) = 29.93501 35.35250 32.64375
#
# Velocity S-wave (km/s) = 3.70134 4.02235 3.86518
# Velocity P-wave (km/s) = 6.42404 7.24563 6.84717
#
# Compressibility (1/GPa) = 0.01989660
#
# Stress axis : x y z
#
# Youngs Moduli (GPa) = 37.99150 83.64157 105.87446
#
# Poissons Ratio (x) = 0.48843 0.51152
# Poissons Ratio (y) = 0.22185 0.34325
# Poissons Ratio (z) = 0.18355 0.27117
#
# Static dielectric constant tensor:
#      x y z
#    x 1.828790 0.000000 0.000330 
#    y 0.000000 2.119830 0.000000 
#    z 0.000330 0.000000 1.783280 
# 
# From -- ./inp_files/7124.got.cif
#   From: 2010.05.17/outbox.cif.g08.bks.cpg/sg4_4_cif.got.tgz:7124.got - 2010.06.03 18:43:04.
