data_PCOD9117927
_publ_section_title
;
Structure prediction by ZEFSAII (Michael W. Deem and Ramdas Pophale) SiO2 
 PCOD9117927
Probable space group: P 21
;
_chemical_formula_sum "Si O2"
_cell_formula_units_Z 16
_cell_length_a 21.381759
_cell_length_b 4.966473
_cell_length_c 9.496629
_cell_angle_alpha 90.000000
_cell_angle_beta 39.926387
_cell_angle_gamma 90.000000
_cell_volume 647.235960
_symmetry_space_group_name_H-M "P 21"
_symmetry_group_IT_number 4
_symmetry_cell_setting 'monoclinic'
loop_
_space_group_symop_operation_xyz
x,y,z
-x,1/2+y,-z
loop_
_atom_site_type_symbol
_atom_site_label
_atom_site_fract_x
_atom_site_fract_y
_atom_site_fract_z
Si Si1 0.038755 0.381330 0.351826
Si Si2 0.150758 0.792930 0.847327
Si Si3 0.506560 0.421431 0.083977
Si Si4 0.802993 0.770093 0.564338
Si Si5 0.713191 0.284265 0.863572
Si Si6 0.780758 0.528906 0.027312
Si Si7 0.980045 0.124923 0.179998
Si Si8 0.298026 0.347706 0.560188
O O1 0.024489 0.662144 0.451916
O O2 0.996691 0.354155 0.266565
O O3 0.146253 0.247048 0.164804
O O4 0.079023 0.657087 0.860959
O O5 0.253240 0.650202 0.638856
O O6 0.155727 0.792250 0.007658
O O7 0.091720 0.074349 0.942216
O O8 0.413027 0.361624 0.341240
O O9 0.497499 0.226038 0.964323
O O10 0.607306 0.355035 0.985911
O O11 0.741729 0.984625 0.764490
O O12 0.911619 0.893749 0.367921
O O13 0.750336 0.737920 0.501856
O O14 0.790962 0.478444 0.652298
O O15 0.718303 0.377393 0.017290
O O16 0.728490 0.676764 0.252526
#
# Coordination Sequence:
#
# PCOD9117927 Si02
#       8
#     2   2   2   2   2   2   2   2
#     4  11  25  45  68 102 147 197 246 300 369 450
#     4  10  26  44  65 108 150 194 255 310 383 452
#     4  12  25  50  80 112 145 200 264 322 393 478
#     4  11  25  44  78 106 149 198 256 306 389 460
#     4  12  25  50  75 114 147 204 251 321 392 475
#     4  11  28  45  75 107 161 194 259 326 398 451
#     4  10  24  39  70 101 141 200 243 301 367 457
#     4  11  26  47  75 108 152 197 256 338 381 457
#
# _framework density 24.720503000000001
#
# number of rings (size 3 to 8) (size 9 to 14) (size 15 to 20)
#    0.000    1.000    2.500    1.500   17.500    0.000 
#    2.250    0.000    0.000    0.000    0.000    0.000 
#    0.000    0.000    0.000    0.000    0.000    0.000 
#
# Total GULP energy -89349.512926 kJ/mol
# GULP energy per Si atom -5584.344558 kJ/mol
# Density = 2.466424 g / cm^3
# Si number density = 24.720503 Si / 1000 Ang^3
#
#
#
# Elastic Constant Matrix: (Units=GPa)
#
#
# Indices 1 2 3 4 5 6 
#
# 1 161.2201 26.9972 47.2726 0.0000 -1.5896 0.0000
# 2 26.9972 73.1311 21.1812 0.0000 9.1783 0.0000
# 3 47.2726 21.1812 136.2601 0.0000 -2.8773 0.0000
# 4 0.0000 0.0000 0.0000 20.1501 0.0000 4.6123
# 5 -1.5896 9.1783 -2.8773 0.0000 41.1299 0.0000
# 6 0.0000 0.0000 0.0000 4.6123 0.0000 37.6105
#
#
#
# Elastic Compliance Matrix: (Units=1/GPa)
#
#
# Indices 1 2 3 4 5 6 
#
# 1 0.007193 -0.002106 -0.002156 0.000000 0.000597 0.000000
# 2 -0.002106 0.015413 -0.001742 0.000000 -0.003643 0.000000
# 3 -0.002156 -0.001742 0.008376 0.000000 0.000891 0.000000
# 4 0.000000 0.000000 0.000000 0.051061 0.000000 -0.006262
# 5 0.000597 -0.003643 0.000891 0.000000 0.025212 0.000000
# 6 0.000000 0.000000 0.000000 -0.006262 0.000000 0.027356
#
#
# Mechanical properties :
#
#
# Convention : Reuss Voigt Hill
#
# Bulk Modulus (GPa) = 52.70020 62.39036 57.54528
# Shear Modulus (GPa) = 32.69157 38.12212 35.40684
#
# Velocity S-wave (km/s) = 3.64049 3.93125 3.78866
# Velocity P-wave (km/s) = 6.24785 6.77491 6.51671
#
# Compressibility (1/GPa) = 0.01897526
#
# Stress axis : x y z
#
# Youngs Moduli (GPa) = 139.01781 64.87881 119.38330
#
# Poissons Ratio (x) = 0.13664 0.25734
# Poissons Ratio (y) = 0.29279 0.20799
# Poissons Ratio (z) = 0.29966 0.11303
#
# Static dielectric constant tensor:
#      x y z
#    x 1.951520 0.000000 0.053200 
#    y 0.000000 2.180710 0.000000 
#    z 0.053200 0.000000 2.028580 
# 
# From -- ./inp_files/9778.got.cif
#   From: 2010.05.17/outbox.cif.g08.bks.cpg/sg4_5_cif.got.tgz:9778.got - 2010.06.03 18:43:04.
