data_PCOD9117035
_publ_section_title
;
Structure prediction by ZEFSAII (Michael W. Deem and Ramdas Pophale) SiO2 
 PCOD9117035
Probable space group: P 21
;
_chemical_formula_sum "Si O2"
_cell_formula_units_Z 10
_cell_length_a 9.238402
_cell_length_b 4.673167
_cell_length_c 11.192984
_cell_angle_alpha 90.000000
_cell_angle_beta 48.715697
_cell_angle_gamma 90.000000
_cell_volume 363.120857
_symmetry_space_group_name_H-M "P 21"
_symmetry_group_IT_number 4
_symmetry_cell_setting 'monoclinic'
loop_
_space_group_symop_operation_xyz
x,y,z
-x,1/2+y,-z
loop_
_atom_site_type_symbol
_atom_site_label
_atom_site_fract_x
_atom_site_fract_y
_atom_site_fract_z
Si Si1 0.373376 0.372980 0.112426
Si Si2 0.860940 0.148944 0.553135
Si Si3 0.429550 0.937102 0.461978
Si Si4 0.744981 0.091606 0.133486
Si Si5 0.097235 0.097234 0.090523
O O1 0.307318 0.537563 0.266407
O O2 0.530082 0.104928 0.296641
O O3 0.478693 0.606699 0.970335
O O4 0.181339 0.228009 0.164095
O O5 0.758347 0.293508 0.494708
O O6 0.000809 0.878485 0.456349
O O7 0.432575 0.182380 0.562139
O O8 0.842651 0.276811 0.975168
O O9 0.781103 0.767874 0.075405
O O10 0.877834 0.151479 0.177096
#
# Coordination Sequence:
#
# PCOD9117035 Si02
#       5
#     2   2   2   2   2
#     4  12  26  47  82 114 158 212 272 330 414 479
#     4  12  29  54  81 119 167 214 270 338 407 488
#     4  12  27  49  81 112 161 218 268 321 399 487
#     4  10  22  44  73 110 150 194 264 328 392 463
#     4  10  22  42  75 109 146 196 258 337 390 469
#
# _framework density 27.53904
#
# number of rings (size 3 to 8) (size 9 to 14) (size 15 to 20)
#    0.000    0.800    0.000    6.000    2.800    3.200 
#   10.800    0.000    0.000    0.000    0.000    0.000 
#    0.000    0.000    0.000    0.000    0.000    0.000 
#
# Total GULP energy -55971.089216 kJ/mol
# GULP energy per Si atom -5597.108922 kJ/mol
# Density = 2.747636 g / cm^3
# Si number density = 27.539040 Si / 1000 Ang^3
#
#
#
# Elastic Constant Matrix: (Units=GPa)
#
#
# Indices 1 2 3 4 5 6 
#
# 1 139.2433 42.5333 16.2159 0.0000 11.8428 0.0000
# 2 42.5333 128.5188 32.5508 0.0000 -10.7872 0.0000
# 3 16.2159 32.5508 111.5282 0.0000 -8.8423 0.0000
# 4 0.0000 0.0000 0.0000 40.9312 0.0000 5.9022
# 5 11.8428 -10.7872 -8.8423 0.0000 30.4659 0.0000
# 6 0.0000 0.0000 0.0000 5.9022 0.0000 69.1723
#
#
#
# Elastic Compliance Matrix: (Units=1/GPa)
#
#
# Indices 1 2 3 4 5 6 
#
# 1 0.008591 -0.003048 -0.000727 0.000000 -0.004630 0.000000
# 2 -0.003048 0.009646 -0.002055 0.000000 0.004004 0.000000
# 3 -0.000727 -0.002055 0.009863 0.000000 0.002418 0.000000
# 4 0.000000 0.000000 0.000000 0.024736 0.000000 -0.002111
# 5 -0.004630 0.004004 0.002418 0.000000 0.036742 0.000000
# 6 0.000000 0.000000 0.000000 -0.002111 0.000000 0.014637
#
#
# Mechanical properties :
#
#
# Convention : Reuss Voigt Hill
#
# Bulk Modulus (GPa) = 60.81907 62.43226 61.62567
# Shear Modulus (GPa) = 41.20168 47.31325 44.25746
#
# Velocity S-wave (km/s) = 3.87217 4.14942 4.01319
# Velocity P-wave (km/s) = 6.49031 6.75845 6.62574
#
# Compressibility (1/GPa) = 0.01644221
#
# Stress axis : x y z
#
# Youngs Moduli (GPa) = 116.40072 103.66889 101.38517
#
# Poissons Ratio (x) = 0.31596 0.07367
# Poissons Ratio (y) = 0.35476 0.20832
# Poissons Ratio (z) = 0.08458 0.21301
#
# Static dielectric constant tensor:
#      x y z
#    x 2.208490 0.000000 0.063500 
#    y 0.000000 2.053810 0.000000 
#    z 0.063500 0.000000 2.101690 
# 
# From -- ./inp_files/10690.got.cif
#   From: 2010.05.17/outbox.cif.g08.bks.cpg/sg4_6_cif.got.tgz:10690.got - 2010.06.03 18:43:04.
