data_PCOD9117847
_publ_section_title
;
Structure prediction by ZEFSAII (Michael W. Deem and Ramdas Pophale) SiO2 
 PCOD9117847
Probable space group: P 21
;
_chemical_formula_sum "Si O2"
_cell_formula_units_Z 16
_cell_length_a 6.073779
_cell_length_b 8.844647
_cell_length_c 14.762344
_cell_angle_alpha 90.000000
_cell_angle_beta 54.068384
_cell_angle_gamma 90.000000
_cell_volume 642.138310
_symmetry_space_group_name_H-M "P 21"
_symmetry_group_IT_number 4
_symmetry_cell_setting 'monoclinic'
loop_
_space_group_symop_operation_xyz
x,y,z
-x,1/2+y,-z
loop_
_atom_site_type_symbol
_atom_site_label
_atom_site_fract_x
_atom_site_fract_y
_atom_site_fract_z
Si Si1 0.755806 0.118550 0.803841
Si Si2 0.188512 0.362963 0.696871
Si Si3 0.454578 0.582460 0.332117
Si Si4 0.943507 0.104979 0.422655
Si Si5 0.445033 0.586379 0.784454
Si Si6 0.144534 0.854665 0.684276
Si Si7 0.895702 0.683360 0.906135
Si Si8 0.493206 0.452089 0.970087
O O1 0.531701 0.117527 0.778480
O O2 0.706698 0.042792 0.912976
O O3 0.898364 0.279642 0.781545
O O4 0.964554 0.999751 0.707523
O O5 0.387214 0.219778 0.657245
O O6 0.154020 0.460151 0.613367
O O7 0.300696 0.478180 0.745579
O O8 0.159290 0.584322 0.450648
O O9 0.601898 0.425095 0.322739
O O10 0.796885 0.252277 0.415671
O O11 0.266904 0.128161 0.330238
O O12 0.199013 0.700892 0.871934
O O13 0.498978 0.510799 0.867128
O O14 0.957857 0.742657 0.789956
O O15 0.649126 0.788930 0.998673
O O16 0.778813 0.513402 0.942439
#
# Coordination Sequence:
#
# PCOD9117847 Si02
#       8
#     2   2   2   2   2   2   2   2
#     4  10  26  46  71 108 145 187 250 309 362 446
#     4  11  25  47  72 107 146 189 255 301 364 442
#     4  11  26  45  79 104 147 202 241 304 372 427
#     4  12  25  47  73 110 150 191 249 305 361 448
#     4  12  26  45  76 107 146 194 240 304 384 426
#     4  10  23  47  68 107 147 184 247 303 360 432
#     4  11  26  46  73 106 142 191 239 307 360 446
#     4  11  27  45  76 107 145 188 247 303 365 445
#
# _framework density 24.916747999999998
#
# number of rings (size 3 to 8) (size 9 to 14) (size 15 to 20)
#    0.000    1.000    2.500    1.500    8.750    6.000 
#    0.000    0.000    0.000    0.000    0.000    0.000 
#    0.000    0.000    0.000    0.000    0.000    0.000 
#
# Total GULP energy -89259.547240 kJ/mol
# GULP energy per Si atom -5578.721703 kJ/mol
# Density = 2.486004 g / cm^3
# Si number density = 24.916748 Si / 1000 Ang^3
#
#
#
# Elastic Constant Matrix: (Units=GPa)
#
#
# Indices 1 2 3 4 5 6 
#
# 1 90.0748 31.5663 31.6249 0.0000 -21.1235 0.0000
# 2 31.5663 114.1535 13.3703 0.0000 -8.4644 0.0000
# 3 31.6249 13.3703 86.3011 0.0000 -6.6889 0.0000
# 4 0.0000 0.0000 0.0000 21.6383 0.0000 -5.7428
# 5 -21.1235 -8.4644 -6.6889 0.0000 33.7830 0.0000
# 6 0.0000 0.0000 0.0000 -5.7428 0.0000 46.6600
#
#
#
# Elastic Compliance Matrix: (Units=1/GPa)
#
#
# Indices 1 2 3 4 5 6 
#
# 1 0.015768 -0.003212 -0.004650 0.000000 0.008133 0.000000
# 2 -0.003212 0.009711 -0.000299 0.000000 0.000365 0.000000
# 3 -0.004650 -0.000299 0.013311 0.000000 -0.000347 0.000000
# 4 0.000000 0.000000 0.000000 0.047775 0.000000 0.005880
# 5 0.008133 0.000365 -0.000347 0.000000 0.034709 0.000000
# 6 0.000000 0.000000 0.000000 0.005880 0.000000 0.022155
#
#
# Mechanical properties :
#
#
# Convention : Reuss Voigt Hill
#
# Bulk Modulus (GPa) = 44.51107 49.29471 46.90289
# Shear Modulus (GPa) = 29.89722 34.68078 32.28900
#
# Velocity S-wave (km/s) = 3.46769 3.73482 3.60373
# Velocity P-wave (km/s) = 5.82545 6.19881 6.01503
#
# Compressibility (1/GPa) = 0.02246632
#
# Stress axis : x y z
#
# Youngs Moduli (GPa) = 63.42113 102.98085 75.12740
#
# Poissons Ratio (x) = 0.33082 0.34934
# Poissons Ratio (y) = 0.20374 0.02246
# Poissons Ratio (z) = 0.29490 0.03078
#
# Static dielectric constant tensor:
#      x y z
#    x 2.042030 0.000000 -0.076250 
#    y 0.000000 2.030100 0.000000 
#    z -0.076250 0.000000 2.027950 
# 
# From -- ./inp_files/13290.got.cif
#   From: 2010.05.17/outbox.cif.g08.bks.cpg/sg4_7_cif.got.tgz:13290.got - 2010.06.03 18:43:04.
