data_PCOD9117286
_publ_section_title
;
Structure prediction by ZEFSAII (Michael W. Deem and Ramdas Pophale) SiO2 
 PCOD9117286
Probable space group: P 21
;
_chemical_formula_sum "Si O2"
_cell_formula_units_Z 14
_cell_length_a 12.570158
_cell_length_b 7.079289
_cell_length_c 9.808363
_cell_angle_alpha 90.000000
_cell_angle_beta 143.988748
_cell_angle_gamma 90.000000
_cell_volume 513.172009
_symmetry_space_group_name_H-M "P 21"
_symmetry_group_IT_number 4
_symmetry_cell_setting 'monoclinic'
loop_
_space_group_symop_operation_xyz
x,y,z
-x,1/2+y,-z
loop_
_atom_site_type_symbol
_atom_site_label
_atom_site_fract_x
_atom_site_fract_y
_atom_site_fract_z
Si Si1 0.162929 0.843980 0.645633
Si Si2 0.145431 0.833445 0.322084
Si Si3 0.722448 0.092847 0.900126
Si Si4 0.123183 0.998324 0.021949
Si Si5 0.486863 0.855991 0.133550
Si Si6 0.458532 0.602979 0.565500
Si Si7 0.230127 0.415552 0.779823
O O1 0.167852 0.912772 0.496496
O O2 0.234436 0.631243 0.731478
O O3 0.295598 0.947883 0.887070
O O4 0.954741 0.833047 0.470108
O O5 0.065128 0.965235 0.119976
O O6 0.348976 0.793711 0.479424
O O7 0.025294 0.639299 0.196534
O O8 0.846129 0.283735 0.006161
O O9 0.556462 0.177011 0.817815
O O10 0.644897 0.028454 0.675651
O O11 0.787191 0.934636 0.074304
O O12 0.325494 0.089175 0.227289
O O13 0.584199 0.988998 0.341649
O O14 0.598348 0.822709 0.112460
#
# Coordination Sequence:
#
# PCOD9117286 Si02
#       7
#     2   2   2   2   2   2   2
#     4  11  27  44  72 104 140 187 240 288 366 423
#     4  11  25  45  71 108 138 192 235 295 361 424
#     4   9  23  45  71 104 140 188 237 293 361 419
#     4  10  25  44  71 103 146 180 239 295 351 426
#     4  10  23  45  66 100 142 183 231 293 351 427
#     4  10  22  45  70  98 139 181 234 289 349 419
#     4  11  25  46  71 101 143 187 238 297 353 430
#
# _framework density 27.281299000000001
#
# number of rings (size 3 to 8) (size 9 to 14) (size 15 to 20)
#    0.000    1.714    1.429    0.000   12.000    6.857 
#    0.000    1.429    0.000    0.000    0.000    0.000 
#    0.000    0.000    0.000    0.000    0.000    0.000 
#
# Total GULP energy -78319.434165 kJ/mol
# GULP energy per Si atom -5594.245298 kJ/mol
# Density = 2.721921 g / cm^3
# Si number density = 27.281299 Si / 1000 Ang^3
#
#
#
# Elastic Constant Matrix: (Units=GPa)
#
#
# Indices 1 2 3 4 5 6 
#
# 1 109.5098 19.3416 71.9997 0.0000 -15.7510 0.0000
# 2 19.3416 74.7859 30.9884 0.0000 0.7439 0.0000
# 3 71.9997 30.9884 181.4656 0.0000 -17.6156 0.0000
# 4 0.0000 0.0000 0.0000 29.7940 0.0000 6.0080
# 5 -15.7510 0.7439 -17.6156 0.0000 66.5561 0.0000
# 6 0.0000 0.0000 0.0000 6.0080 0.0000 41.1613
#
#
#
# Elastic Compliance Matrix: (Units=1/GPa)
#
#
# Indices 1 2 3 4 5 6 
#
# 1 0.012669 -0.001381 -0.004617 0.000000 0.001792 0.000000
# 2 -0.001381 0.014585 -0.002043 0.000000 -0.001031 0.000000
# 3 -0.004617 -0.002043 0.007788 0.000000 0.000991 0.000000
# 4 0.000000 0.000000 0.000000 0.034582 0.000000 -0.005048
# 5 0.001792 -0.001031 0.000991 0.000000 0.015723 0.000000
# 6 0.000000 0.000000 0.000000 -0.005048 0.000000 0.025031
#
#
# Mechanical properties :
#
#
# Convention : Reuss Voigt Hill
#
# Bulk Modulus (GPa) = 52.74214 67.82452 60.28333
# Shear Modulus (GPa) = 37.65662 43.73107 40.69384
#
# Velocity S-wave (km/s) = 3.71928 4.00805 3.86636
# Velocity P-wave (km/s) = 6.14970 6.80694 6.48665
#
# Compressibility (1/GPa) = 0.01896017
#
# Stress axis : x y z
#
# Youngs Moduli (GPa) = 78.93532 68.56170 128.41079
#
# Poissons Ratio (x) = 0.09470 0.59283
# Poissons Ratio (y) = 0.10903 0.26231
# Poissons Ratio (z) = 0.36442 0.14005
#
# Static dielectric constant tensor:
#      x y z
#    x 2.106430 0.000000 0.016660 
#    y 0.000000 2.269010 0.000000 
#    z 0.016660 0.000000 2.198130 
# 
# From -- ./inp_files/7606.got.cif
#   From: 2010.05.17/outbox.cif.g08.bks.cpg/sg4_4_cif.got.tgz:7606.got - 2010.06.03 18:43:04.
