data_PCOD9117154
_publ_section_title
;
Structure prediction by ZEFSAII (Michael W. Deem and Ramdas Pophale) SiO2 
 PCOD9117154
Probable space group: P 21
;
_chemical_formula_sum "Si O2"
_cell_formula_units_Z 16
_cell_length_a 13.140136
_cell_length_b 9.959713
_cell_length_c 9.898326
_cell_angle_alpha 90.000000
_cell_angle_beta 148.180866
_cell_angle_gamma 90.000000
_cell_volume 682.993310
_symmetry_space_group_name_H-M "P 21"
_symmetry_group_IT_number 4
_symmetry_cell_setting 'monoclinic'
loop_
_space_group_symop_operation_xyz
x,y,z
-x,1/2+y,-z
loop_
_atom_site_type_symbol
_atom_site_label
_atom_site_fract_x
_atom_site_fract_y
_atom_site_fract_z
Si Si1 0.989158 0.735280 0.312957
Si Si2 0.489492 0.601888 0.514326
Si Si3 0.224871 0.774699 0.031887
Si Si4 0.331141 0.659368 0.892516
Si Si5 0.517169 0.459088 0.281067
Si Si6 0.079923 0.051203 0.989523
Si Si7 0.951561 0.526197 0.741708
Si Si8 0.546638 0.662303 0.861901
O O1 0.135315 0.696907 0.595709
O O2 0.995015 0.891579 0.279476
O O3 0.045386 0.648758 0.243710
O O4 0.776373 0.683506 0.111991
O O5 0.355656 0.718530 0.302387
O O6 0.459595 0.484330 0.371129
O O7 0.718855 0.631816 0.758476
O O8 0.474458 0.569499 0.656137
O O9 0.136976 0.916728 0.973138
O O10 0.349035 0.769535 0.033147
O O11 0.056162 0.663846 0.818384
O O12 0.482513 0.640851 0.941887
O O13 0.355296 0.522350 0.003007
O O14 0.718618 0.532833 0.475870
O O15 0.542707 0.305303 0.279794
O O16 0.997447 0.010875 0.041362
#
# Coordination Sequence:
#
# PCOD9117154 Si02
#       8
#     2   2   2   2   2   2   2   2
#     4  11  24  44  69 101 135 186 229 280 350 421
#     4   9  20  40  66  92 127 177 224 279 339 396
#     4  11  24  41  68 103 140 178 231 288 342 419
#     4  11  26  43  66 100 140 183 226 278 350 421
#     4  10  22  44  66  98 137 181 228 286 349 410
#     4  10  23  41  69 103 134 173 238 292 339 410
#     4  11  22  42  73  96 139 181 231 284 349 410
#     4  11  23  43  71  93 138 181 229 289 346 407
#
# _framework density 23.426290000000002
#
# number of rings (size 3 to 8) (size 9 to 14) (size 15 to 20)
#    0.000    1.500    1.250    3.750    3.500    5.000 
#    0.000    1.250    0.000    0.000    0.000    0.000 
#    0.000    0.000    0.000    0.000    0.000    0.000 
#
# Total GULP energy -89370.535230 kJ/mol
# GULP energy per Si atom -5585.658452 kJ/mol
# Density = 2.337297 g / cm^3
# Si number density = 23.426290 Si / 1000 Ang^3
#
#
#
# Elastic Constant Matrix: (Units=GPa)
#
#
# Indices 1 2 3 4 5 6 
#
# 1 130.3377 14.8109 51.7334 0.0000 -10.7373 0.0000
# 2 14.8109 99.6179 48.0869 0.0000 -4.2001 0.0000
# 3 51.7334 48.0869 106.9850 0.0000 -14.2582 0.0000
# 4 0.0000 0.0000 0.0000 23.0359 0.0000 -0.2277
# 5 -10.7373 -4.2001 -14.2582 0.0000 44.0151 0.0000
# 6 0.0000 0.0000 0.0000 -0.2277 0.0000 22.6423
#
#
#
# Elastic Compliance Matrix: (Units=1/GPa)
#
#
# Indices 1 2 3 4 5 6 
#
# 1 0.009606 0.001016 -0.004992 0.000000 0.000823 0.000000
# 2 0.001016 0.012946 -0.006389 0.000000 -0.000586 0.000000
# 3 -0.004992 -0.006389 0.015038 0.000000 0.003044 0.000000
# 4 0.000000 0.000000 0.000000 0.043415 0.000000 0.000437
# 5 0.000823 -0.000586 0.003044 0.000000 0.023850 0.000000
# 6 0.000000 0.000000 0.000000 0.000437 0.000000 0.044170
#
#
# Mechanical properties :
#
#
# Convention : Reuss Voigt Hill
#
# Bulk Modulus (GPa) = 59.30555 62.91145 61.10850
# Shear Modulus (GPa) = 28.51023 32.75928 30.63476
#
# Velocity S-wave (km/s) = 3.49236 3.74357 3.62015
# Velocity P-wave (km/s) = 6.45236 6.75271 6.60424
#
# Compressibility (1/GPa) = 0.01686183
#
# Stress axis : x y z
#
# Youngs Moduli (GPa) = 104.09919 77.24141 66.49661
#
# Poissons Ratio (x) = -0.07850 0.33197
# Poissons Ratio (y) = -0.10580 0.42482
# Poissons Ratio (z) = 0.51969 0.49347
#
# Static dielectric constant tensor:
#      x y z
#    x 1.979630 0.000000 0.030190 
#    y 0.000000 1.842780 0.000000 
#    z 0.030190 0.000000 1.891870 
# 
# From -- ./inp_files/8487.got.cif
#   From: 2010.05.17/outbox.cif.g08.bks.cpg/sg4_5_cif.got.tgz:8487.got - 2010.06.03 18:43:04.
