data_PCOD9117388
_publ_section_title
;
Structure prediction by ZEFSAII (Michael W. Deem and Ramdas Pophale) SiO2 
 PCOD9117388
Probable space group: P 21
;
_chemical_formula_sum "Si O2"
_cell_formula_units_Z 14
_cell_length_a 8.337033
_cell_length_b 14.235977
_cell_length_c 5.513040
_cell_angle_alpha 90.000000
_cell_angle_beta 121.199189
_cell_angle_gamma 90.000000
_cell_volume 559.686414
_symmetry_space_group_name_H-M "P 21"
_symmetry_group_IT_number 4
_symmetry_cell_setting 'monoclinic'
loop_
_space_group_symop_operation_xyz
x,y,z
-x,1/2+y,-z
loop_
_atom_site_type_symbol
_atom_site_label
_atom_site_fract_x
_atom_site_fract_y
_atom_site_fract_z
Si Si1 0.674541 0.168440 0.103239
Si Si2 0.125384 0.301701 0.056569
Si Si3 0.705619 0.454877 0.565915
Si Si4 0.926641 0.343923 0.409871
Si Si5 0.375931 0.566852 0.525613
Si Si6 0.984022 0.091539 0.974825
Si Si7 0.474387 0.772736 0.417329
O O1 0.576602 0.079642 0.155906
O O2 0.826479 0.117732 0.049816
O O3 0.809503 0.246456 0.333217
O O4 0.519113 0.235291 0.853233
O O5 0.022788 0.339119 0.221915
O O6 0.341359 0.307035 0.304024
O O7 0.077363 0.191092 0.986672
O O8 0.068015 0.347317 0.753787
O O9 0.508622 0.505319 0.464895
O O10 0.677984 0.354144 0.675946
O O11 0.778948 0.427087 0.355834
O O12 0.859916 0.521754 0.806853
O O13 0.412030 0.675744 0.488651
O O14 0.153851 0.548233 0.336193
#
# Coordination Sequence:
#
# PCOD9117388 Si02
#       7
#     2   2   2   2   2   2   2
#     4  10  22  49  72  98 153 197 252 314 394 447
#     4  11  24  47  77 103 153 202 250 309 396 441
#     4  12  25  45  73 111 151 196 267 310 382 457
#     4  11  24  46  73 105 148 199 246 316 375 457
#     4  11  23  48  73 105 151 196 258 318 383 457
#     4  10  23  45  69 106 144 201 251 318 380 457
#     4  11  25  46  71 114 150 205 252 325 380 460
#
# _framework density 25.014006999999999
#
# number of rings (size 3 to 8) (size 9 to 14) (size 15 to 20)
#    0.000    1.143    4.286    1.714    4.000    1.143 
#   12.857    0.000    0.000    0.000    0.000    0.000 
#    0.000    0.000    0.000    0.000    0.000    0.000 
#
# Total GULP energy -78102.906126 kJ/mol
# GULP energy per Si atom -5578.779009 kJ/mol
# Density = 2.495707 g / cm^3
# Si number density = 25.014007 Si / 1000 Ang^3
#
#
#
# Elastic Constant Matrix: (Units=GPa)
#
#
# Indices 1 2 3 4 5 6 
#
# 1 40.2323 10.3476 24.7335 0.0000 21.7246 0.0000
# 2 10.3476 92.1558 -0.9924 0.0000 6.7730 0.0000
# 3 24.7335 -0.9924 118.8576 0.0000 17.1191 0.0000
# 4 0.0000 0.0000 0.0000 20.6684 0.0000 6.7531
# 5 21.7246 6.7730 17.1191 0.0000 32.3082 0.0000
# 6 0.0000 0.0000 0.0000 6.7531 0.0000 58.4383
#
#
#
# Elastic Compliance Matrix: (Units=1/GPa)
#
#
# Indices 1 2 3 4 5 6 
#
# 1 0.042396 -0.002971 -0.005230 0.000000 -0.025114 0.000000
# 2 -0.002971 0.011252 0.000827 0.000000 -0.000800 0.000000
# 3 -0.005230 0.000827 0.009773 0.000000 -0.001835 0.000000
# 4 0.000000 0.000000 0.000000 0.050282 0.000000 -0.005811
# 5 -0.025114 -0.000800 -0.001835 0.000000 0.048979 0.000000
# 6 0.000000 0.000000 0.000000 -0.005811 0.000000 0.017784
#
#
# Mechanical properties :
#
#
# Convention : Reuss Voigt Hill
#
# Bulk Modulus (GPa) = 20.54484 35.49146 28.01815
# Shear Modulus (GPa) = 23.64775 36.76011 30.20393
#
# Velocity S-wave (km/s) = 3.07804 3.83767 3.47865
# Velocity P-wave (km/s) = 4.56767 5.81862 5.23068
#
# Compressibility (1/GPa) = 0.04867403
#
# Stress axis : x y z
#
# Youngs Moduli (GPa) = 23.58730 88.86948 102.32302
#
# Poissons Ratio (x) = 0.26403 0.53515
# Poissons Ratio (y) = 0.07008 -0.08466
# Poissons Ratio (z) = 0.12336 -0.07353
#
# Static dielectric constant tensor:
#      x y z
#    x 2.092250 0.000000 -0.267710 
#    y 0.000000 1.960920 0.000000 
#    z -0.267710 0.000000 2.582460 
# 
# From -- ./inp_files/1696.got.cif
#   From: 2010.05.17/outbox.cif.g08.bks.cpg/sg4_1_cif.got.tgz:1696.got - 2010.06.03 18:43:04.
