data_PCOD9117078
_publ_section_title
;
Structure prediction by ZEFSAII (Michael W. Deem and Ramdas Pophale) SiO2 
 PCOD9117078
Probable space group: P 21
;
_chemical_formula_sum "Si O2"
_cell_formula_units_Z 14
_cell_length_a 10.445130
_cell_length_b 12.778199
_cell_length_c 5.284629
_cell_angle_alpha 90.000000
_cell_angle_beta 47.070711
_cell_angle_gamma 90.000000
_cell_volume 516.445688
_symmetry_space_group_name_H-M "P 21"
_symmetry_group_IT_number 4
_symmetry_cell_setting 'monoclinic'
loop_
_space_group_symop_operation_xyz
x,y,z
-x,1/2+y,-z
loop_
_atom_site_type_symbol
_atom_site_label
_atom_site_fract_x
_atom_site_fract_y
_atom_site_fract_z
Si Si1 0.908201 0.814100 0.764493
Si Si2 0.428607 0.668374 0.571010
Si Si3 0.085771 0.551424 0.216008
Si Si4 0.536850 0.873022 0.305497
Si Si5 0.894676 0.444144 0.834948
Si Si6 0.532224 0.485848 0.097531
Si Si7 0.806171 0.636344 0.266584
O O1 0.026383 0.832429 0.356126
O O2 0.923871 0.930393 0.880588
O O3 0.704149 0.811856 0.973508
O O4 0.919183 0.717316 0.940631
O O5 0.386526 0.786590 0.540767
O O6 0.491356 0.602135 0.243701
O O7 0.603139 0.671567 0.516281
O O8 0.260018 0.611963 0.912167
O O9 0.061995 0.518204 0.539310
O O10 0.918040 0.621063 0.368842
O O11 0.559785 0.918134 0.556089
O O12 0.515112 0.959441 0.122475
O O13 0.734180 0.454386 0.853826
O O14 0.808043 0.515344 0.166527
#
# Coordination Sequence:
#
# PCOD9117078 Si02
#       7
#     2   2   2   2   2   2   2
#     4   9  22  44  61 102 131 177 237 280 356 415
#     4  10  24  45  68 104 136 190 238 292 355 424
#     4  10  22  43  67  97 131 183 232 284 347 421
#     4  11  25  45  70 103 139 191 235 295 355 425
#     4   9  23  39  62  97 129 182 223 290 341 417
#     4  11  24  44  69 102 142 180 241 292 351 421
#     4  10  22  44  63  95 142 173 234 291 351 413
#
# _framework density 27.108369
#
# number of rings (size 3 to 8) (size 9 to 14) (size 15 to 20)
#    0.857    1.143    1.429    0.000    8.000    2.286 
#   15.429    0.000    0.000    0.000    0.000    0.000 
#    0.000    0.000    0.000    0.000    0.000    0.000 
#
# Total GULP energy -77979.548653 kJ/mol
# GULP energy per Si atom -5569.967761 kJ/mol
# Density = 2.704667 g / cm^3
# Si number density = 27.108369 Si / 1000 Ang^3
#
#
#
# Elastic Constant Matrix: (Units=GPa)
#
#
# Indices 1 2 3 4 5 6 
#
# 1 47.0405 13.3043 19.8212 0.0000 -3.5888 0.0000
# 2 13.3043 115.9300 10.1595 0.0000 20.3084 0.0000
# 3 19.8212 10.1595 111.8118 0.0000 -8.4640 0.0000
# 4 0.0000 0.0000 0.0000 47.1435 0.0000 -1.7931
# 5 -3.5888 20.3084 -8.4640 0.0000 32.9088 0.0000
# 6 0.0000 0.0000 0.0000 -1.7931 0.0000 32.9142
#
#
#
# Elastic Compliance Matrix: (Units=1/GPa)
#
#
# Indices 1 2 3 4 5 6 
#
# 1 0.023949 -0.003044 -0.003701 0.000000 0.003538 0.000000
# 2 -0.003044 0.010264 -0.000916 0.000000 -0.006902 0.000000
# 3 -0.003701 -0.000916 0.009888 0.000000 0.002704 0.000000
# 4 0.000000 0.000000 0.000000 0.021256 0.000000 0.001158
# 5 0.003538 -0.006902 0.002704 0.000000 0.035728 0.000000
# 6 0.000000 0.000000 0.000000 0.001158 0.000000 0.030445
#
#
# Mechanical properties :
#
#
# Convention : Reuss Voigt Hill
#
# Bulk Modulus (GPa) = 34.74651 40.15026 37.44839
# Shear Modulus (GPa) = 31.96045 38.02645 34.99345
#
# Velocity S-wave (km/s) = 3.43737 3.74940 3.59677
# Velocity P-wave (km/s) = 5.34784 5.79545 5.57614
#
# Compressibility (1/GPa) = 0.02877987
#
# Stress axis : x y z
#
# Youngs Moduli (GPa) = 41.75612 97.42331 101.13684
#
# Poissons Ratio (x) = 0.29654 0.37431
# Poissons Ratio (y) = 0.12710 0.09259
# Poissons Ratio (z) = 0.15454 0.08919
#
# Static dielectric constant tensor:
#      x y z
#    x 2.234420 0.000000 0.009040 
#    y 0.000000 2.209920 0.000000 
#    z 0.009040 0.000000 2.185150 
# 
# From -- ./inp_files/3159.got.cif
#   From: 2010.05.17/outbox.cif.g08.bks.cpg/sg4_2_cif.got.tgz:3159.got - 2010.06.03 18:43:04.
