data_PCOD9117532
_publ_section_title
;
Structure prediction by ZEFSAII (Michael W. Deem and Ramdas Pophale) SiO2 
 PCOD9117532
Probable space group: P 21
;
_chemical_formula_sum "Si O2"
_cell_formula_units_Z 16
_cell_length_a 11.525688
_cell_length_b 7.548440
_cell_length_c 11.464428
_cell_angle_alpha 90.000000
_cell_angle_beta 41.687536
_cell_angle_gamma 90.000000
_cell_volume 663.349575
_symmetry_space_group_name_H-M "P 21"
_symmetry_group_IT_number 4
_symmetry_cell_setting 'monoclinic'
loop_
_space_group_symop_operation_xyz
x,y,z
-x,1/2+y,-z
loop_
_atom_site_type_symbol
_atom_site_label
_atom_site_fract_x
_atom_site_fract_y
_atom_site_fract_z
Si Si1 0.109059 0.799130 0.651782
Si Si2 0.313957 0.435271 0.436433
Si Si3 0.267241 0.316268 0.729264
Si Si4 0.061372 0.677612 0.943197
Si Si5 0.644915 0.289587 0.106190
Si Si6 0.553174 0.422666 0.691567
Si Si7 0.744869 0.338609 0.764626
Si Si8 0.098492 0.226066 0.403901
O O1 0.209584 0.615314 0.542496
O O2 0.055921 0.781027 0.824546
O O3 0.255371 0.943031 0.510396
O O4 0.946801 0.816190 0.686343
O O5 0.312343 0.329354 0.559925
O O6 0.515379 0.442447 0.247526
O O7 0.217346 0.336083 0.402942
O O8 0.157299 0.493864 0.842949
O O9 0.436052 0.323626 0.683924
O O10 0.133373 0.162264 0.861742
O O11 0.179229 0.774792 0.951417
O O12 0.540532 0.106435 0.207865
O O13 0.685452 0.310419 0.940068
O O14 0.591384 0.322208 0.784670
O O15 0.817930 0.537634 0.689509
O O16 0.909139 0.215698 0.608456
#
# Coordination Sequence:
#
# PCOD9117532 Si02
#       8
#     2   2   2   2   2   2   2   2
#     4  10  23  42  66  98 136 178 230 274 338 402
#     4  11  22  42  69  96 135 180 221 281 344 400
#     4  10  23  43  67  96 137 177 230 276 338 398
#     4  10  23  42  65  98 134 178 229 278 333 403
#     4  11  24  42  69  98 136 176 225 279 344 401
#     4  10  23  45  63 102 132 174 226 277 335 404
#     4  11  24  44  70 101 138 179 226 278 345 402
#     4  11  22  44  67  99 138 176 225 281 337 406
#
# _framework density 24.120011999999999
#
# number of rings (size 3 to 8) (size 9 to 14) (size 15 to 20)
#    0.000    1.500    2.500    1.500    1.750    5.000 
#    9.000    0.000    0.000    0.000    0.000    0.000 
#    0.000    0.000    0.000    0.000    0.000    0.000 
#
# Total GULP energy -89599.285463 kJ/mol
# GULP energy per Si atom -5599.955341 kJ/mol
# Density = 2.406511 g / cm^3
# Si number density = 24.120012 Si / 1000 Ang^3
#
#
#
# Elastic Constant Matrix: (Units=GPa)
#
#
# Indices 1 2 3 4 5 6 
#
# 1 191.6615 30.8525 41.9753 0.0000 11.8260 0.0000
# 2 30.8525 82.9653 7.8521 0.0000 8.8498 0.0000
# 3 41.9753 7.8521 89.0243 0.0000 31.4857 0.0000
# 4 0.0000 0.0000 0.0000 34.3865 0.0000 -3.3103
# 5 11.8260 8.8498 31.4857 0.0000 46.4690 0.0000
# 6 0.0000 0.0000 0.0000 -3.3103 0.0000 31.4787
#
#
#
# Elastic Compliance Matrix: (Units=1/GPa)
#
#
# Indices 1 2 3 4 5 6 
#
# 1 0.006166 -0.002100 -0.003036 0.000000 0.000888 0.000000
# 2 -0.002100 0.013026 0.000697 0.000000 -0.002418 0.000000
# 3 -0.003036 0.000697 0.016277 0.000000 -0.010389 0.000000
# 4 0.000000 0.000000 0.000000 0.029379 0.000000 0.003089
# 5 0.000888 -0.002418 -0.010389 0.000000 0.028793 0.000000
# 6 0.000000 0.000000 0.000000 0.003089 0.000000 0.032092
#
#
# Mechanical properties :
#
#
# Convention : Reuss Voigt Hill
#
# Bulk Modulus (GPa) = 37.60799 58.33455 47.97127
# Shear Modulus (GPa) = 34.84899 41.33158 38.09028
#
# Velocity S-wave (km/s) = 3.80520 4.14403 3.97822
# Velocity P-wave (km/s) = 5.91032 6.86549 6.40574
#
# Compressibility (1/GPa) = 0.02659010
#
# Stress axis : x y z
#
# Youngs Moduli (GPa) = 162.18682 76.76787 61.43560
#
# Poissons Ratio (x) = 0.16123 0.18652
# Poissons Ratio (y) = 0.34063 -0.04280
# Poissons Ratio (z) = 0.49239 -0.05348
#
# Static dielectric constant tensor:
#      x y z
#    x 1.908030 0.000000 -0.019380 
#    y 0.000000 2.009770 0.000000 
#    z -0.019380 0.000000 1.866410 
# 
# From -- ./inp_files/11903.got.cif
#   From: 2010.05.17/outbox.cif.g08.bks.cpg/sg4_6_cif.got.tgz:11903.got - 2010.06.03 18:43:04.
