data_PCOD9117161
_publ_section_title
;
Structure prediction by ZEFSAII (Michael W. Deem and Ramdas Pophale) SiO2 
 PCOD9117161
Probable space group: P 21
;
_chemical_formula_sum "Si O2"
_cell_formula_units_Z 12
_cell_length_a 5.411165
_cell_length_b 9.015872
_cell_length_c 10.150074
_cell_angle_alpha 90.000000
_cell_angle_beta 84.968390
_cell_angle_gamma 90.000000
_cell_volume 493.277061
_symmetry_space_group_name_H-M "P 21"
_symmetry_group_IT_number 4
_symmetry_cell_setting 'monoclinic'
loop_
_space_group_symop_operation_xyz
x,y,z
-x,1/2+y,-z
loop_
_atom_site_type_symbol
_atom_site_label
_atom_site_fract_x
_atom_site_fract_y
_atom_site_fract_z
Si Si1 0.128099 0.557120 0.846615
Si Si2 0.848686 0.359666 0.036792
Si Si3 0.849758 0.683539 0.620892
Si Si4 0.461820 0.433279 0.623119
Si Si5 0.251947 0.645622 0.416024
Si Si6 0.668958 0.929045 0.809917
O O1 0.191275 0.681127 0.954662
O O2 0.341038 0.456561 0.772574
O O3 0.050594 0.660220 0.727435
O O4 0.905566 0.448925 0.900465
O O5 0.604280 0.430444 0.114650
O O6 0.113619 0.389216 0.097490
O O7 0.711833 0.529425 0.608861
O O8 0.000888 0.719639 0.481838
O O9 0.666831 0.800573 0.697730
O O10 0.304544 0.513057 0.516231
O O11 0.531084 0.265691 0.589152
O O12 0.249398 0.575763 0.271980
#
# Coordination Sequence:
#
# PCOD9117161 Si02
#       6
#     2   2   2   2   2   2
#     4  10  25  44  66 101 132 185 225 287 335 407
#     4  11  26  45  71  96 144 177 233 279 338 404
#     4  10  22  44  67  96 137 176 228 289 341 400
#     4  11  23  43  68  97 139 174 234 281 345 408
#     4  11  25  39  70 101 135 183 226 285 346 411
#     4  11  25  45  68 101 137 183 224 285 341 402
#
# _framework density 24.327097999999999
#
# number of rings (size 3 to 8) (size 9 to 14) (size 15 to 20)
#    0.000    1.333    1.667    2.000   11.667    2.667 
#    0.000    0.000    0.000    0.000    0.000    0.000 
#    0.000    0.000    0.000    0.000    0.000    0.000 
#
# Total GULP energy -67042.562411 kJ/mol
# GULP energy per Si atom -5586.880201 kJ/mol
# Density = 2.427173 g / cm^3
# Si number density = 24.327098 Si / 1000 Ang^3
#
#
#
# Elastic Constant Matrix: (Units=GPa)
#
#
# Indices 1 2 3 4 5 6 
#
# 1 100.0947 13.9909 38.2456 0.0000 -39.7225 0.0000
# 2 13.9909 85.7033 42.8157 0.0000 -31.5572 0.0000
# 3 38.2456 42.8157 87.4308 0.0000 -47.5441 0.0000
# 4 0.0000 0.0000 0.0000 34.0162 0.0000 -9.6425
# 5 -39.7225 -31.5572 -47.5441 0.0000 56.9098 0.0000
# 6 0.0000 0.0000 0.0000 -9.6425 0.0000 36.3477
#
#
#
# Elastic Compliance Matrix: (Units=1/GPa)
#
#
# Indices 1 2 3 4 5 6 
#
# 1 0.014224 0.002225 -0.002276 0.000000 0.009261 0.000000
# 2 0.002225 0.016340 -0.005870 0.000000 0.005709 0.000000
# 3 -0.002276 -0.005870 0.023225 0.000000 0.014559 0.000000
# 4 0.000000 0.000000 0.000000 0.031788 0.000000 0.008433
# 5 0.009261 0.005709 0.014559 0.000000 0.039365 0.000000
# 6 0.000000 0.000000 0.000000 0.008433 0.000000 0.029749
#
#
# Mechanical properties :
#
#
# Convention : Reuss Voigt Hill
#
# Bulk Modulus (GPa) = 23.83978 51.48148 37.66063
# Shear Modulus (GPa) = 27.69831 37.33319 32.51575
#
# Velocity S-wave (km/s) = 3.37794 3.92169 3.65993
# Velocity P-wave (km/s) = 5.00349 6.45866 5.77708
#
# Compressibility (1/GPa) = 0.04194670
#
# Stress axis : x y z
#
# Youngs Moduli (GPa) = 70.30218 61.19967 43.05688
#
# Poissons Ratio (x) = -0.13616 0.09799
# Poissons Ratio (y) = -0.15641 0.25276
# Poissons Ratio (z) = 0.16000 0.35926
#
# Static dielectric constant tensor:
#      x y z
#    x 1.931750 0.000000 0.077590 
#    y 0.000000 1.975160 0.000000 
#    z 0.077590 0.000000 2.032780 
# 
# From -- ./inp_files/10313.got.cif
#   From: 2010.05.17/outbox.cif.g08.bks.cpg/sg4_6_cif.got.tgz:10313.got - 2010.06.03 18:43:04.
