data_PCOD9117327
_publ_section_title
;
Structure prediction by ZEFSAII (Michael W. Deem and Ramdas Pophale) SiO2 
 PCOD9117327
Probable space group: P 21
;
_chemical_formula_sum "Si O2"
_cell_formula_units_Z 16
_cell_length_a 5.447270
_cell_length_b 17.526411
_cell_length_c 9.128189
_cell_angle_alpha 90.000000
_cell_angle_beta 45.637910
_cell_angle_gamma 90.000000
_cell_volume 623.050652
_symmetry_space_group_name_H-M "P 21"
_symmetry_group_IT_number 4
_symmetry_cell_setting 'monoclinic'
loop_
_space_group_symop_operation_xyz
x,y,z
-x,1/2+y,-z
loop_
_atom_site_type_symbol
_atom_site_label
_atom_site_fract_x
_atom_site_fract_y
_atom_site_fract_z
Si Si1 0.762736 0.294980 0.189369
Si Si2 0.541682 0.926943 0.500784
Si Si3 0.919112 0.694517 0.467777
Si Si4 0.811480 0.657429 0.961251
Si Si5 0.541291 0.969230 0.158838
Si Si6 0.779183 0.330731 0.836171
Si Si7 0.865181 0.072688 0.403348
Si Si8 0.927592 0.100805 0.852235
O O1 0.708086 0.369172 0.312539
O O2 0.425594 0.239633 0.345756
O O3 0.077844 0.243820 0.116150
O O4 0.796213 0.314960 0.002936
O O5 0.514877 0.945510 0.339981
O O6 0.895308 0.880282 0.352825
O O7 0.582551 0.009658 0.560399
O O8 0.104234 0.651557 0.522844
O O9 0.168567 0.755282 0.283717
O O10 0.861388 0.623258 0.381266
O O11 0.101991 0.599819 0.776893
O O12 0.453999 0.631589 0.038132
O O13 0.870251 0.647692 0.108720
O O14 0.518643 0.889676 0.080530
O O15 0.212982 0.024275 0.280300
O O16 0.843869 0.018455 0.956180
#
# Coordination Sequence:
#
# PCOD9117327 Si02
#       8
#     2   2   2   2   2   2   2   2
#     4  11  24  46  71 107 146 195 250 307 381 452
#     4  10  23  45  67 100 145 191 249 308 376 455
#     4  11  25  45  74 108 146 195 254 312 371 446
#     4  11  23  46  75 103 148 195 248 307 374 434
#     4  10  22  46  68  99 147 192 243 306 377 447
#     4  10  24  45  67 102 148 194 247 304 381 446
#     4  10  23  43  69 104 143 190 252 315 364 447
#     4  11  24  46  77 105 147 200 247 311 370 443
#
# _framework density 25.680095999999999
#
# number of rings (size 3 to 8) (size 9 to 14) (size 15 to 20)
#    0.000    1.500    2.500    1.500    3.500    2.000 
#    4.500    0.000    0.000    0.000    0.000    0.000 
#    0.000    0.000    0.000    0.000    0.000    0.000 
#
# Total GULP energy -89417.890174 kJ/mol
# GULP energy per Si atom -5588.618136 kJ/mol
# Density = 2.562165 g / cm^3
# Si number density = 25.680096 Si / 1000 Ang^3
#
#
#
# Elastic Constant Matrix: (Units=GPa)
#
#
# Indices 1 2 3 4 5 6 
#
# 1 69.4605 45.1201 33.7896 0.0000 -4.5048 0.0000
# 2 45.1201 155.5332 39.8673 0.0000 -3.8097 0.0000
# 3 33.7896 39.8673 93.6507 0.0000 -7.2354 0.0000
# 4 0.0000 0.0000 0.0000 60.5068 0.0000 6.5962
# 5 -4.5048 -3.8097 -7.2354 0.0000 49.8255 0.0000
# 6 0.0000 0.0000 0.0000 6.5962 0.0000 51.0122
#
#
#
# Elastic Compliance Matrix: (Units=1/GPa)
#
#
# Indices 1 2 3 4 5 6 
#
# 1 0.019845 -0.004398 -0.005234 0.000000 0.000698 0.000000
# 2 -0.004398 0.008192 -0.001904 0.000000 -0.000048 0.000000
# 3 -0.005234 -0.001904 0.013480 0.000000 0.001339 0.000000
# 4 0.000000 0.000000 0.000000 0.016763 0.000000 -0.002168
# 5 0.000698 -0.000048 0.001339 0.000000 0.020324 0.000000
# 6 0.000000 0.000000 0.000000 -0.002168 0.000000 0.019883
#
#
# Mechanical properties :
#
#
# Convention : Reuss Voigt Hill
#
# Bulk Modulus (GPa) = 54.21546 61.79982 58.00764
# Shear Modulus (GPa) = 39.15120 45.59339 42.37230
#
# Velocity S-wave (km/s) = 3.90881 4.21816 4.06643
# Velocity P-wave (km/s) = 6.44434 6.91675 6.68472
#
# Compressibility (1/GPa) = 0.01844492
#
# Stress axis : x y z
#
# Youngs Moduli (GPa) = 50.39029 122.06432 74.18139
#
# Poissons Ratio (x) = 0.53688 0.38826
# Poissons Ratio (y) = 0.22164 0.14126
# Poissons Ratio (z) = 0.26374 0.23244
#
# Static dielectric constant tensor:
#      x y z
#    x 2.076880 0.000000 -0.061680 
#    y 0.000000 2.059020 0.000000 
#    z -0.061680 0.000000 2.048930 
# 
# From -- ./inp_files/4967.got.cif
#   From: 2010.05.17/outbox.cif.g08.bks.cpg/sg4_3_cif.got.tgz:4967.got - 2010.06.03 18:43:04.
