data_PCOD9117997
_publ_section_title
;
Structure prediction by ZEFSAII (Michael W. Deem and Ramdas Pophale) SiO2 
 PCOD9117997
Probable space group: P 21
;
_chemical_formula_sum "Si O2"
_cell_formula_units_Z 14
_cell_length_a 10.641612
_cell_length_b 11.804203
_cell_length_c 11.011413
_cell_angle_alpha 90.000000
_cell_angle_beta 154.378109
_cell_angle_gamma 90.000000
_cell_volume 598.140541
_symmetry_space_group_name_H-M "P 21"
_symmetry_group_IT_number 4
_symmetry_cell_setting 'monoclinic'
loop_
_space_group_symop_operation_xyz
x,y,z
-x,1/2+y,-z
loop_
_atom_site_type_symbol
_atom_site_label
_atom_site_fract_x
_atom_site_fract_y
_atom_site_fract_z
Si Si1 0.822114 0.041080 0.300767
Si Si2 0.582253 0.900858 0.301327
Si Si3 0.931717 0.061461 0.036049
Si Si4 0.261042 0.722555 0.585545
Si Si5 0.974001 0.024731 0.795092
Si Si6 0.686516 0.645971 0.431986
Si Si7 0.209950 0.376477 0.921399
O O1 0.696783 0.155569 0.251449
O O2 0.122968 0.081043 0.502915
O O3 0.806034 0.954014 0.398650
O O4 0.660663 0.976418 0.050798
O O5 0.578407 0.766500 0.288591
O O6 0.720005 0.933004 0.551750
O O7 0.277856 0.966920 0.019108
O O8 0.013480 0.061175 0.967855
O O9 0.589983 0.081821 0.755131
O O10 0.977325 0.938550 0.138235
O O11 0.096877 0.152159 0.263569
O O12 0.149429 0.631221 0.389338
O O13 0.555369 0.791335 0.819717
O O14 0.002540 0.812087 0.355836
#
# Coordination Sequence:
#
# PCOD9117997 Si02
#       7
#     2   2   2   2   2   2   2
#     4  10  24  43  66 100 137 170 224 281 335 409
#     4  11  24  43  71 100 134 180 226 281 345 405
#     4  11  25  44  65  98 138 177 230 284 334 406
#     4  11  24  42  66  96 131 176 220 273 337 397
#     4  11  25  45  66  98 136 176 231 284 333 404
#     4  11  24  42  68  99 133 179 226 280 345 404
#     4  11  24  41  66  95 131 176 219 273 337 397
#
# _framework density 23.405871999999999
#
# number of rings (size 3 to 8) (size 9 to 14) (size 15 to 20)
#    0.000    1.143    0.000    6.000    0.000   17.143 
#    0.000    0.000    0.000    0.000    0.000    0.000 
#    0.000    0.000    0.000    0.000    0.000    0.000 
#
# Total GULP energy -78181.032441 kJ/mol
# GULP energy per Si atom -5584.359460 kJ/mol
# Density = 2.335260 g / cm^3
# Si number density = 23.405872 Si / 1000 Ang^3
#
#
#
# Elastic Constant Matrix: (Units=GPa)
#
#
# Indices 1 2 3 4 5 6 
#
# 1 88.0541 39.1504 10.3192 0.0000 -5.9715 0.0000
# 2 39.1504 114.0082 29.3220 0.0000 7.7817 0.0000
# 3 10.3192 29.3220 80.9765 0.0000 7.1485 0.0000
# 4 0.0000 0.0000 0.0000 32.7840 0.0000 11.6076
# 5 -5.9715 7.7817 7.1485 0.0000 27.4238 0.0000
# 6 0.0000 0.0000 0.0000 11.6076 0.0000 11.3999
#
#
#
# Elastic Compliance Matrix: (Units=1/GPa)
#
#
# Indices 1 2 3 4 5 6 
#
# 1 0.013931 -0.005000 -0.000366 0.000000 0.004548 0.000000
# 2 -0.005000 0.011562 -0.003238 0.000000 -0.003525 0.000000
# 3 -0.000366 -0.003238 0.013812 0.000000 -0.002761 0.000000
# 4 0.000000 0.000000 0.000000 0.047699 0.000000 -0.048568
# 5 0.004548 -0.003525 -0.002761 0.000000 0.039175 0.000000
# 6 0.000000 0.000000 0.000000 -0.048568 0.000000 0.137173
#
#
# Mechanical properties :
#
#
# Convention : Reuss Voigt Hill
#
# Bulk Modulus (GPa) = 45.25679 48.95799 47.10739
# Shear Modulus (GPa) = 17.36553 27.93802 22.65177
#
# Velocity S-wave (km/s) = 2.72679 3.45865 3.11429
# Velocity P-wave (km/s) = 5.41216 6.07553 5.75341
#
# Compressibility (1/GPa) = 0.02209613
#
# Stress axis : x y z
#
# Youngs Moduli (GPa) = 71.78157 86.49146 72.39946
#
# Poissons Ratio (x) = 0.43247 0.02651
# Poissons Ratio (y) = 0.35892 0.23444
# Poissons Ratio (z) = 0.02628 0.28008
#
# Static dielectric constant tensor:
#      x y z
#    x 1.892470 0.000000 -0.048450 
#    y 0.000000 1.958730 0.000000 
#    z -0.048450 0.000000 1.905320 
# 
# From -- ./inp_files/12220.got.cif
#   From: 2010.05.17/outbox.cif.g08.bks.cpg/sg4_7_cif.got.tgz:12220.got - 2010.06.03 18:43:04.
