data_PCOD9117649
_publ_section_title
;
Structure prediction by ZEFSAII (Michael W. Deem and Ramdas Pophale) SiO2 
 PCOD9117649
Probable space group: P 21
;
_chemical_formula_sum "Si O2"
_cell_formula_units_Z 16
_cell_length_a 9.201409
_cell_length_b 11.298155
_cell_length_c 7.977793
_cell_angle_alpha 90.000000
_cell_angle_beta 133.037121
_cell_angle_gamma 90.000000
_cell_volume 606.191074
_symmetry_space_group_name_H-M "P 21"
_symmetry_group_IT_number 4
_symmetry_cell_setting 'monoclinic'
loop_
_space_group_symop_operation_xyz
x,y,z
-x,1/2+y,-z
loop_
_atom_site_type_symbol
_atom_site_label
_atom_site_fract_x
_atom_site_fract_y
_atom_site_fract_z
Si Si1 0.147269 0.247330 0.833006
Si Si2 0.831495 0.902061 0.828262
Si Si3 0.164076 0.464746 0.641404
Si Si4 0.764260 0.525468 0.906848
Si Si5 0.392160 0.556793 0.106295
Si Si6 0.296022 0.682777 0.594693
Si Si7 0.584186 0.698491 0.513809
Si Si8 0.288569 0.897514 0.826326
O O1 0.234985 0.338069 0.767909
O O2 0.273099 0.137791 0.999021
O O3 0.939904 0.199481 0.606278
O O4 0.095440 0.322287 0.958356
O O5 0.657227 0.978488 0.769910
O O6 0.742983 0.805419 0.631798
O O7 0.003121 0.993676 0.920244
O O8 0.300426 0.540019 0.621234
O O9 0.938472 0.438156 0.404667
O O10 0.197197 0.549103 0.833513
O O11 0.692426 0.413427 0.958489
O O12 0.693267 0.579661 0.674564
O O13 0.478601 0.673465 0.256416
O O14 0.565190 0.490933 0.144080
O O15 0.418153 0.722887 0.527487
O O16 0.340495 0.771488 0.783537
#
# Coordination Sequence:
#
# PCOD9117649 Si02
#       8
#     2   2   2   2   2   2   2   2
#     4   9  21  42  71  96 146 187 235 302 365 432
#     4  10  23  45  70 105 144 194 246 306 374 438
#     4  10  23  43  73 102 142 193 235 296 376 434
#     4  11  23  45  71 104 139 196 246 301 376 443
#     4  11  24  45  69 102 147 188 241 304 370 439
#     4  11  21  45  67 104 144 190 239 312 368 432
#     4  11  25  43  73 104 148 193 253 310 372 443
#     4  11  24  44  70 103 144 187 243 301 369 437
#
# _framework density 26.394317999999998
#
# number of rings (size 3 to 8) (size 9 to 14) (size 15 to 20)
#    0.000    1.500    2.500    1.500    5.250    1.000 
#    9.000    0.000    0.000    0.000    0.000    0.000 
#    0.000    0.000    0.000    0.000    0.000    0.000 
#
# Total GULP energy -89400.078509 kJ/mol
# GULP energy per Si atom -5587.504907 kJ/mol
# Density = 2.633424 g / cm^3
# Si number density = 26.394318 Si / 1000 Ang^3
#
#
#
# Elastic Constant Matrix: (Units=GPa)
#
#
# Indices 1 2 3 4 5 6 
#
# 1 69.1405 26.1970 2.9076 0.0000 7.8216 0.0000
# 2 26.1970 109.0748 41.4514 0.0000 -2.5800 0.0000
# 3 2.9076 41.4514 115.9377 0.0000 11.3614 0.0000
# 4 0.0000 0.0000 0.0000 51.4527 0.0000 -0.6338
# 5 7.8216 -2.5800 11.3614 0.0000 27.7272 0.0000
# 6 0.0000 0.0000 0.0000 -0.6338 0.0000 49.3197
#
#
#
# Elastic Compliance Matrix: (Units=1/GPa)
#
#
# Indices 1 2 3 4 5 6 
#
# 1 0.016938 -0.004946 0.001935 0.000000 -0.006031 0.000000
# 2 -0.004946 0.012244 -0.004690 0.000000 0.004456 0.000000
# 3 0.001935 -0.004690 0.010783 0.000000 -0.005401 0.000000
# 4 0.000000 0.000000 0.000000 0.019438 0.000000 0.000250
# 5 -0.006031 0.004456 -0.005401 0.000000 0.040395 0.000000
# 6 0.000000 0.000000 0.000000 0.000250 0.000000 0.020279
#
#
# Mechanical properties :
#
#
# Convention : Reuss Voigt Hill
#
# Bulk Modulus (GPa) = 40.71384 48.36280 44.53832
# Shear Modulus (GPa) = 34.80263 40.60638 37.70450
#
# Velocity S-wave (km/s) = 3.63514 3.92657 3.78366
# Velocity P-wave (km/s) = 5.75133 6.23860 5.99991
#
# Compressibility (1/GPa) = 0.02456167
#
# Stress axis : x y z
#
# Youngs Moduli (GPa) = 59.03811 81.67450 92.73930
#
# Poissons Ratio (x) = 0.40396 -0.17941
# Poissons Ratio (y) = 0.29200 0.43496
# Poissons Ratio (z) = -0.11421 0.38307
#
# Static dielectric constant tensor:
#      x y z
#    x 2.013060 0.000000 -0.051360 
#    y 0.000000 2.114550 0.000000 
#    z -0.051360 0.000000 2.146260 
# 
# From -- ./inp_files/6474.got.cif
#   From: 2010.05.17/outbox.cif.g08.bks.cpg/sg4_4_cif.got.tgz:6474.got - 2010.06.03 18:43:04.
