data_PCOD9117478
_publ_section_title
;
Structure prediction by ZEFSAII (Michael W. Deem and Ramdas Pophale) SiO2 
 PCOD9117478
Probable space group: P 21
;
_chemical_formula_sum "Si O2"
_cell_formula_units_Z 16
_cell_length_a 18.076443
_cell_length_b 6.975313
_cell_length_c 8.464095
_cell_angle_alpha 90.000000
_cell_angle_beta 142.529961
_cell_angle_gamma 90.000000
_cell_volume 649.244396
_symmetry_space_group_name_H-M "P 21"
_symmetry_group_IT_number 4
_symmetry_cell_setting 'monoclinic'
loop_
_space_group_symop_operation_xyz
x,y,z
-x,1/2+y,-z
loop_
_atom_site_type_symbol
_atom_site_label
_atom_site_fract_x
_atom_site_fract_y
_atom_site_fract_z
Si Si1 0.695485 0.602120 0.500928
Si Si2 0.839926 0.917034 0.619826
Si Si3 0.893533 0.282162 0.860078
Si Si4 0.605074 0.511369 0.001941
Si Si5 0.522441 0.331912 0.384349
Si Si6 0.842617 0.703231 0.287272
Si Si7 0.353965 0.660498 0.097812
Si Si8 0.891543 0.059020 0.187271
O O1 0.733902 0.822375 0.546029
O O2 0.817127 0.475757 0.725946
O O3 0.634258 0.552919 0.230707
O O4 0.609016 0.507642 0.482238
O O5 0.833782 0.836561 0.431202
O O6 0.847180 0.144911 0.641959
O O7 0.966685 0.841172 0.906669
O O8 0.876324 0.154330 0.989268
O O9 0.723570 0.571444 0.097410
O O10 0.495699 0.647115 0.758054
O O11 0.596356 0.284193 0.963206
O O12 0.393422 0.439274 0.165016
O O13 0.575882 0.254234 0.636148
O O14 0.969704 0.589876 0.523589
O O15 0.859206 0.835727 0.160677
O O16 0.209875 0.666268 0.879331
#
# Coordination Sequence:
#
# PCOD9117478 Si02
#       8
#     2   2   2   2   2   2   2   2
#     4  11  26  43  66 102 132 175 229 272 329 402
#     4  10  23  41  66  98 135 173 218 276 335 393
#     4  11  22  41  69  97 135 174 219 273 338 393
#     4  11  26  45  69  98 136 174 226 278 334 394
#     4  12  26  46  68 100 134 179 229 271 332 396
#     4  10  23  43  65 101 137 170 222 276 337 396
#     4  12  25  45  70  95 136 179 222 282 328 393
#     4  11  23  42  67 103 133 174 223 274 335 403
#
# _framework density 24.644034999999999
#
# number of rings (size 3 to 8) (size 9 to 14) (size 15 to 20)
#    0.000    1.000    5.000    0.750    3.500    4.000 
#    0.000    0.000    0.000    0.000    0.000    0.000 
#    0.000    0.000    0.000    0.000    0.000    0.000 
#
# Total GULP energy -89506.144905 kJ/mol
# GULP energy per Si atom -5594.134057 kJ/mol
# Density = 2.458794 g / cm^3
# Si number density = 24.644035 Si / 1000 Ang^3
#
#
#
# Elastic Constant Matrix: (Units=GPa)
#
#
# Indices 1 2 3 4 5 6 
#
# 1 46.2609 13.8871 -1.3891 0.0000 13.5172 0.0000
# 2 13.8871 66.5600 7.8879 0.0000 6.3129 0.0000
# 3 -1.3891 7.8879 60.6094 0.0000 2.3197 0.0000
# 4 0.0000 0.0000 0.0000 45.0434 0.0000 -0.7208
# 5 13.5172 6.3129 2.3197 0.0000 27.7290 0.0000
# 6 0.0000 0.0000 0.0000 -0.7208 0.0000 24.9183
#
#
#
# Elastic Compliance Matrix: (Units=1/GPa)
#
#
# Indices 1 2 3 4 5 6 
#
# 1 0.026566 -0.004598 0.001668 0.000000 -0.012043 0.000000
# 2 -0.004598 0.016366 -0.002185 0.000000 -0.001302 0.000000
# 3 0.001668 -0.002185 0.016888 0.000000 -0.001728 0.000000
# 4 0.000000 0.000000 0.000000 0.022211 0.000000 0.000643
# 5 -0.012043 -0.001302 -0.001728 0.000000 0.042375 0.000000
# 6 0.000000 0.000000 0.000000 0.000643 0.000000 0.040150
#
#
# Mechanical properties :
#
#
# Convention : Reuss Voigt Hill
#
# Bulk Modulus (GPa) = 20.16591 23.80024 21.98307
# Shear Modulus (GPa) = 26.13479 29.74109 27.93794
#
# Velocity S-wave (km/s) = 3.26005 3.47771 3.37064
# Velocity P-wave (km/s) = 4.72982 5.07982 4.90794
#
# Compressibility (1/GPa) = 0.04958865
#
# Stress axis : x y z
#
# Youngs Moduli (GPa) = 37.64228 61.10287 59.21402
#
# Poissons Ratio (x) = 0.28096 -0.09878
# Poissons Ratio (y) = 0.17309 0.12941
# Poissons Ratio (z) = -0.06279 0.13354
#
# Static dielectric constant tensor:
#      x y z
#    x 1.977130 0.000000 0.044460 
#    y 0.000000 1.981850 0.000000 
#    z 0.044460 0.000000 1.938370 
# 
# From -- ./inp_files/9545.got.cif
#   From: 2010.05.17/outbox.cif.g08.bks.cpg/sg4_5_cif.got.tgz:9545.got - 2010.06.03 18:43:04.
