data_PCOD9117483
_publ_section_title
;
Structure prediction by ZEFSAII (Michael W. Deem and Ramdas Pophale) SiO2 
 PCOD9117483
Probable space group: P 21
;
_chemical_formula_sum "Si O2"
_cell_formula_units_Z 16
_cell_length_a 5.426595
_cell_length_b 14.091605
_cell_length_c 9.367273
_cell_angle_alpha 90.000000
_cell_angle_beta 71.849377
_cell_angle_gamma 90.000000
_cell_volume 680.667089
_symmetry_space_group_name_H-M "P 21"
_symmetry_group_IT_number 4
_symmetry_cell_setting 'monoclinic'
loop_
_space_group_symop_operation_xyz
x,y,z
-x,1/2+y,-z
loop_
_atom_site_type_symbol
_atom_site_label
_atom_site_fract_x
_atom_site_fract_y
_atom_site_fract_z
Si Si1 0.307738 0.995250 0.088661
Si Si2 0.168260 0.017527 0.439815
Si Si3 0.578803 0.578065 0.196307
Si Si4 0.881375 0.196599 0.582534
Si Si5 0.858934 0.894515 0.980218
Si Si6 0.868003 0.748163 0.203333
Si Si7 0.545523 0.337474 0.514709
Si Si8 0.731057 0.904476 0.679794
O O1 0.204545 0.017901 0.263828
O O2 0.560410 0.927643 0.059686
O O3 0.066440 0.957660 0.033521
O O4 0.423243 0.082874 0.974912
O O5 0.116855 0.125288 0.501836
O O6 0.387638 0.948254 0.468147
O O7 0.916082 0.960522 0.538052
O O8 0.351363 0.629725 0.322698
O O9 0.830996 0.634829 0.199238
O O10 0.520828 0.468994 0.237728
O O11 0.793268 0.267839 0.474675
O O12 0.919775 0.263030 0.714373
O O13 0.875517 0.892964 0.805083
O O14 0.904369 0.792515 0.043423
O O15 0.626803 0.800290 0.322523
O O16 0.389529 0.322904 0.396241
#
# Coordination Sequence:
#
# PCOD9117483 Si02
#       8
#     2   2   2   2   2   2   2   2
#     4  11  24  46  68 103 133 183 237 284 353 422
#     4  11  23  43  72 100 141 189 233 296 359 427
#     4   9  23  41  67  95 136 182 231 292 349 426
#     4  10  23  42  72 102 137 188 239 296 362 421
#     4  11  25  43  73  98 137 184 237 289 345 427
#     4  11  22  43  67  99 138 187 233 296 358 422
#     4  11  21  41  67  99 139 179 242 292 357 426
#     4  10  23  41  68 100 131 190 236 289 355 427
#
# _framework density 23.506350000000001
#
# number of rings (size 3 to 8) (size 9 to 14) (size 15 to 20)
#    0.000    1.500    1.250    3.000   10.500    0.000 
#    4.500    1.250    0.000    0.000    0.000    0.000 
#    0.000    0.000    0.000    0.000    0.000    0.000 
#
# Total GULP energy -89169.476396 kJ/mol
# GULP energy per Si atom -5573.092275 kJ/mol
# Density = 2.345285 g / cm^3
# Si number density = 23.506350 Si / 1000 Ang^3
#
#
#
# Elastic Constant Matrix: (Units=GPa)
#
#
# Indices 1 2 3 4 5 6 
#
# 1 85.8925 14.3195 21.6571 0.0000 28.1374 0.0000
# 2 14.3195 55.7438 16.3182 0.0000 12.3362 0.0000
# 3 21.6571 16.3182 154.4043 0.0000 20.1510 0.0000
# 4 0.0000 0.0000 0.0000 28.2879 0.0000 4.9436
# 5 28.1374 12.3362 20.1510 0.0000 32.8001 0.0000
# 6 0.0000 0.0000 0.0000 4.9436 0.0000 19.4907
#
#
#
# Elastic Compliance Matrix: (Units=1/GPa)
#
#
# Indices 1 2 3 4 5 6 
#
# 1 0.016291 -0.001117 -0.000433 0.000000 -0.013289 0.000000
# 2 -0.001117 0.019853 -0.001187 0.000000 -0.005779 0.000000
# 3 -0.000433 -0.001187 0.007127 0.000000 -0.003561 0.000000
# 4 0.000000 0.000000 0.000000 0.036990 0.000000 -0.009382
# 5 -0.013289 -0.005779 -0.003561 0.000000 0.046249 0.000000
# 6 0.000000 0.000000 0.000000 -0.009382 0.000000 0.053686
#
#
# Mechanical properties :
#
#
# Convention : Reuss Voigt Hill
#
# Bulk Modulus (GPa) = 26.45710 44.51448 35.48579
# Shear Modulus (GPa) = 25.21810 32.36547 28.79178
#
# Velocity S-wave (km/s) = 3.27895 3.71466 3.50358
# Velocity P-wave (km/s) = 5.06113 6.11364 5.61212
#
# Compressibility (1/GPa) = 0.03779703
#
# Stress axis : x y z
#
# Youngs Moduli (GPa) = 61.38262 50.37120 140.30342
#
# Poissons Ratio (x) = 0.05628 0.06070
# Poissons Ratio (y) = 0.06858 0.16657
# Poissons Ratio (z) = 0.02655 0.05980
#
# Static dielectric constant tensor:
#      x y z
#    x 1.978720 0.000000 -0.036830 
#    y 0.000000 1.967100 0.000000 
#    z -0.036830 0.000000 1.902810 
# 
# From -- ./inp_files/1653.got.cif
#   From: 2010.05.17/outbox.cif.g08.bks.cpg/sg4_1_cif.got.tgz:1653.got - 2010.06.03 18:43:04.
