data_PCOD9117435
_publ_section_title
;
Structure prediction by ZEFSAII (Michael W. Deem and Ramdas Pophale) SiO2 
 PCOD9117435
Probable space group: P 21
;
_chemical_formula_sum "Si O2"
_cell_formula_units_Z 16
_cell_length_a 17.332986
_cell_length_b 5.058931
_cell_length_c 8.099303
_cell_angle_alpha 90.000000
_cell_angle_beta 98.845354
_cell_angle_gamma 90.000000
_cell_volume 701.752151
_symmetry_space_group_name_H-M "P 21"
_symmetry_group_IT_number 4
_symmetry_cell_setting 'monoclinic'
loop_
_space_group_symop_operation_xyz
x,y,z
-x,1/2+y,-z
loop_
_atom_site_type_symbol
_atom_site_label
_atom_site_fract_x
_atom_site_fract_y
_atom_site_fract_z
Si Si1 0.454381 0.576210 0.840755
Si Si2 0.009689 0.521648 0.616030
Si Si3 0.472844 0.751130 0.396277
Si Si4 0.371923 0.276625 0.040280
Si Si5 0.325582 0.935530 0.715751
Si Si6 0.170795 0.651469 0.603529
Si Si7 0.149980 0.143251 0.374669
Si Si8 0.685780 0.563771 0.655661
O O1 0.475678 0.309101 0.750391
O O2 0.539238 0.673498 0.915087
O O3 0.404999 0.773421 0.713528
O O4 0.393458 0.557615 0.971265
O O5 0.939546 0.610711 0.713839
O O6 0.999955 0.225658 0.542662
O O7 0.099914 0.560795 0.698129
O O8 0.516036 0.959261 0.532937
O O9 0.383069 0.845547 0.342335
O O10 0.335353 0.269823 0.207834
O O11 0.328357 0.112340 0.882116
O O12 0.256700 0.715006 0.698659
O O13 0.316475 0.108273 0.543727
O O14 0.168636 0.434762 0.453742
O O15 0.149502 0.940716 0.527969
O O16 0.220974 0.030508 0.288534
#
# Coordination Sequence:
#
# PCOD9117435 Si02
#       8
#     2   2   2   2   2   2   2   2
#     4  11  23  39  60  80 123 160 204 259 313 363
#     4   8  14  29  51  84 120 149 190 242 294 358
#     4  11  23  37  59  87 116 156 205 252 302 359
#     4  11  24  43  57  87 118 162 208 258 310 365
#     4  11  22  41  59  86 120 156 203 257 301 370
#     4   9  19  31  58  88 118 157 197 244 300 360
#     4   9  18  34  55  89 121 151 198 248 298 362
#     4  10  23  40  61  89 116 161 207 252 308 359
#
# _framework density 22.800070999999999
#
# number of rings (size 3 to 8) (size 9 to 14) (size 15 to 20)
#    0.000    2.000    2.500    0.750    5.250    0.000 
#    4.500    0.000    0.000    0.000    3.250    0.000 
#    0.000    0.000    0.000    0.000    0.000    0.000 
#
# Total GULP energy -89074.997432 kJ/mol
# GULP energy per Si atom -5567.187339 kJ/mol
# Density = 2.274818 g / cm^3
# Si number density = 22.800071 Si / 1000 Ang^3
#
#
#
# Elastic Constant Matrix: (Units=GPa)
#
#
# Indices 1 2 3 4 5 6 
#
# 1 156.8614 12.3361 35.2524 0.0000 -25.0946 0.0000
# 2 12.3361 66.3211 12.8453 0.0000 4.7106 0.0000
# 3 35.2524 12.8453 62.7514 0.0000 -7.7789 0.0000
# 4 0.0000 0.0000 0.0000 29.7186 0.0000 3.5688
# 5 -25.0946 4.7106 -7.7789 0.0000 19.1563 0.0000
# 6 0.0000 0.0000 0.0000 3.5688 0.0000 35.9047
#
#
#
# Elastic Compliance Matrix: (Units=1/GPa)
#
#
# Indices 1 2 3 4 5 6 
#
# 1 0.009010 -0.001802 -0.003343 0.000000 0.010889 0.000000
# 2 -0.001802 0.016618 -0.003358 0.000000 -0.007810 0.000000
# 3 -0.003343 -0.003358 0.019018 0.000000 0.004169 0.000000
# 4 0.000000 0.000000 0.000000 0.034055 0.000000 -0.003385
# 5 0.010889 -0.007810 0.004169 0.000000 0.070080 0.000000
# 6 0.000000 0.000000 0.000000 -0.003385 0.000000 0.028188
#
#
# Mechanical properties :
#
#
# Convention : Reuss Voigt Hill
#
# Bulk Modulus (GPa) = 36.17778 45.20018 40.68898
# Shear Modulus (GPa) = 24.60763 31.98924 28.29844
#
# Velocity S-wave (km/s) = 3.28880 3.74977 3.52683
# Velocity P-wave (km/s) = 5.50668 6.21412 5.87106
#
# Compressibility (1/GPa) = 0.02764127
#
# Stress axis : x y z
#
# Youngs Moduli (GPa) = 110.98771 60.17420 52.58152
#
# Poissons Ratio (x) = 0.10842 0.17578
# Poissons Ratio (y) = 0.19998 0.17656
# Poissons Ratio (z) = 0.37103 0.20205
#
# Static dielectric constant tensor:
#      x y z
#    x 1.986680 0.000000 0.019440 
#    y 0.000000 1.909430 0.000000 
#    z 0.019440 0.000000 2.023110 
# 
# From -- ./inp_files/9427.got.cif
#   From: 2010.05.17/outbox.cif.g08.bks.cpg/sg4_5_cif.got.tgz:9427.got - 2010.06.03 18:43:04.
