data_PCOD9117397
_publ_section_title
;
Structure prediction by ZEFSAII (Michael W. Deem and Ramdas Pophale) SiO2 
 PCOD9117397
Probable space group: P 21
;
_chemical_formula_sum "Si O2"
_cell_formula_units_Z 10
_cell_length_a 16.101471
_cell_length_b 5.207855
_cell_length_c 14.160029
_cell_angle_alpha 90.000000
_cell_angle_beta 18.171944
_cell_angle_gamma 90.000000
_cell_volume 370.306875
_symmetry_space_group_name_H-M "P 21"
_symmetry_group_IT_number 4
_symmetry_cell_setting 'monoclinic'
loop_
_space_group_symop_operation_xyz
x,y,z
-x,1/2+y,-z
loop_
_atom_site_type_symbol
_atom_site_label
_atom_site_fract_x
_atom_site_fract_y
_atom_site_fract_z
Si Si1 0.660640 0.672690 0.854555
Si Si2 0.677417 0.757015 0.323155
Si Si3 0.945279 0.719033 0.368164
Si Si4 0.840402 0.057359 0.316975
Si Si5 0.441874 0.391676 0.837459
O O1 0.916869 0.726479 0.512182
O O2 0.681146 0.728046 0.943065
O O3 0.545292 0.389674 0.961618
O O4 0.511877 0.011347 0.477294
O O5 0.788975 0.808670 0.308055
O O6 0.433682 0.709659 0.375493
O O7 0.920821 0.979888 0.336092
O O8 0.216892 0.583738 0.046619
O O9 0.690345 0.552449 0.610823
O O10 0.068808 0.213198 0.017616
#
# Coordination Sequence:
#
# PCOD9117397 Si02
#       5
#     2   2   2   2   2
#     4  10  22  52  80 124 174 224 276 344 412 504
#     4  12  32  54  88 118 168 220 292 356 438 502
#     4  11  28  49  85 123 172 223 282 342 424 502
#     4  12  30  54  82 124 166 224 284 364 416 518
#     4  11  28  49  85 123 172 223 282 342 424 502
#
# _framework density 27.004629999999999
#
# number of rings (size 3 to 8) (size 9 to 14) (size 15 to 20)
#    0.000    0.800    2.000    1.200   14.000    6.400 
#    0.000    0.000    0.000    0.000    0.000    0.000 
#    0.000    0.000    0.000    0.000    0.000    0.000 
#
# Total GULP energy -56228.742591 kJ/mol
# GULP energy per Si atom -5622.874259 kJ/mol
# Density = 2.694317 g / cm^3
# Si number density = 27.004630 Si / 1000 Ang^3
#
#
#
# Elastic Constant Matrix: (Units=GPa)
#
#
# Indices 1 2 3 4 5 6 
#
# 1 112.6520 42.1088 49.7817 0.0000 27.8015 0.0000
# 2 42.1088 119.2880 66.0383 0.0000 10.1469 0.0000
# 3 49.7817 66.0383 170.0356 0.0000 22.4639 0.0000
# 4 0.0000 0.0000 0.0000 59.8244 0.0000 -1.8002
# 5 27.8015 10.1469 22.4639 0.0000 58.6435 0.0000
# 6 0.0000 0.0000 0.0000 -1.8002 0.0000 55.5676
#
#
#
# Elastic Compliance Matrix: (Units=1/GPa)
#
#
# Indices 1 2 3 4 5 6 
#
# 1 0.011806 -0.002804 -0.001782 0.000000 -0.004429 0.000000
# 2 -0.002804 0.011349 -0.003690 0.000000 0.000779 0.000000
# 3 -0.001782 -0.003690 0.008047 0.000000 -0.001599 0.000000
# 4 0.000000 0.000000 0.000000 0.016732 0.000000 0.000542
# 5 -0.004429 0.000779 -0.001599 0.000000 0.019630 0.000000
# 6 0.000000 0.000000 0.000000 0.000542 0.000000 0.018014
#
#
# Mechanical properties :
#
#
# Convention : Reuss Voigt Hill
#
# Bulk Modulus (GPa) = 68.25909 79.75925 74.00917
# Shear Modulus (GPa) = 46.72337 51.07689 48.90013
#
# Velocity S-wave (km/s) = 4.16408 4.35376 4.25997
# Velocity P-wave (km/s) = 6.96068 7.40764 7.18763
#
# Compressibility (1/GPa) = 0.01465006
#
# Stress axis : x y z
#
# Youngs Moduli (GPa) = 84.70545 88.11093 124.26631
#
# Poissons Ratio (x) = 0.24706 0.22147
# Poissons Ratio (y) = 0.23752 0.45852
# Poissons Ratio (z) = 0.15096 0.32511
#
# Static dielectric constant tensor:
#      x y z
#    x 2.141550 0.000000 -0.012530 
#    y 0.000000 2.073990 0.000000 
#    z -0.012530 0.000000 2.017770 
# 
# From -- ./inp_files/4279.got.cif
#   From: 2010.05.17/outbox.cif.g08.bks.cpg/sg4_3_cif.got.tgz:4279.got - 2010.06.03 18:43:04.
