data_PCOD9117959
_publ_section_title
;
Structure prediction by ZEFSAII (Michael W. Deem and Ramdas Pophale) SiO2 
 PCOD9117959
Probable space group: P 21
;
_chemical_formula_sum "Si O2"
_cell_formula_units_Z 12
_cell_length_a 4.750607
_cell_length_b 5.527280
_cell_length_c 17.584923
_cell_angle_alpha 90.000000
_cell_angle_beta 76.293262
_cell_angle_gamma 90.000000
_cell_volume 448.593886
_symmetry_space_group_name_H-M "P 21"
_symmetry_group_IT_number 4
_symmetry_cell_setting 'monoclinic'
loop_
_space_group_symop_operation_xyz
x,y,z
-x,1/2+y,-z
loop_
_atom_site_type_symbol
_atom_site_label
_atom_site_fract_x
_atom_site_fract_y
_atom_site_fract_z
Si Si1 0.473364 0.250000 0.956244
Si Si2 0.484292 0.850417 0.290418
Si Si3 0.741716 0.851799 0.441645
Si Si4 0.540847 0.351487 0.254708
Si Si5 0.932942 0.670384 0.148660
Si Si6 0.781428 0.349721 0.407820
O O1 0.182622 0.258460 0.925489
O O2 0.727073 0.185777 0.880162
O O3 0.528271 0.514522 0.988836
O O4 0.550995 0.855599 0.375730
O O5 0.369154 0.101841 0.264525
O O6 0.347339 0.593334 0.275947
O O7 0.791746 0.826029 0.225386
O O8 0.922510 0.098299 0.424102
O O9 0.524953 0.850403 0.526439
O O10 0.915863 0.602870 0.424729
O O11 0.778656 0.410235 0.174932
O O12 0.713521 0.344760 0.323493
#
# Coordination Sequence:
#
# PCOD9117959 Si02
#       6
#     2   2   2   2   2   2
#     4  12  28  44  68  92 120 154 192 244 308 364
#     4   8  16  28  51  78 114 149 193 232 286 331
#     4   8  12  20  36  67 107 142 188 227 275 322
#     4   8  16  28  51  78 114 149 193 232 286 331
#     4  10  24  42  66  90 124 152 200 242 294 362
#     4   8  12  20  36  67 107 142 188 227 275 322
#
# _framework density 26.750250999999999
#
# number of rings (size 3 to 8) (size 9 to 14) (size 15 to 20)
#    1.000    2.000    0.000    1.000    4.667    0.000 
#    0.000    0.000    0.000    0.000    0.000    2.333 
#    0.000    0.000    0.000    0.000    0.000    0.000 
#
# Total GULP energy -67041.243501 kJ/mol
# GULP energy per Si atom -5586.770292 kJ/mol
# Density = 2.668937 g / cm^3
# Si number density = 26.750251 Si / 1000 Ang^3
#
#
#
# Elastic Constant Matrix: (Units=GPa)
#
#
# Indices 1 2 3 4 5 6 
#
# 1 60.0883 22.1258 20.6800 0.0000 -6.4967 0.0000
# 2 22.1258 211.4868 -11.5732 0.0000 3.4396 0.0000
# 3 20.6800 -11.5732 96.4652 0.0000 -0.8441 0.0000
# 4 0.0000 0.0000 0.0000 37.0334 0.0000 -2.7811
# 5 -6.4967 3.4396 -0.8441 0.0000 51.3100 0.0000
# 6 0.0000 0.0000 0.0000 -2.7811 0.0000 -3.3351
#
#
#
# Elastic Compliance Matrix: (Units=1/GPa)
#
#
# Indices 1 2 3 4 5 6 
#
# 1 0.019270 -0.002297 -0.004384 0.000000 0.002522 0.000000
# 2 -0.002297 0.005038 0.001092 0.000000 -0.000611 0.000000
# 3 -0.004384 0.001092 0.011433 0.000000 -0.000440 0.000000
# 4 0.000000 0.000000 0.000000 0.025411 0.000000 -0.021190
# 5 0.002522 -0.000611 -0.000440 0.000000 0.019842 0.000000
# 6 0.000000 0.000000 0.000000 -0.021190 0.000000 -0.282169
#
#
# Mechanical properties :
#
#
# Convention : Reuss Voigt Hill
#
# Bulk Modulus (GPa) = 40.71381 47.83396 44.27389
# Shear Modulus (GPa) = -27.50178 39.45550 5.97686
#
# Velocity S-wave (km/s) = -3.20987 3.84468 1.49639
# Velocity P-wave (km/s) = 1.23099 6.13427 4.42406
#
# Compressibility (1/GPa) = 0.02456169
#
# Stress axis : x y z
#
# Youngs Moduli (GPa) = 51.89529 198.47581 87.46252
#
# Poissons Ratio (x) = 0.45589 0.38348
# Poissons Ratio (y) = 0.11920 -0.09547
# Poissons Ratio (z) = 0.22753 -0.21664
#
# Static dielectric constant tensor:
#      x y z
#    x 1.928970 0.000000 -0.006720 
#    y 0.000000 2.282150 0.000000 
#    z -0.006720 0.000000 2.060550 
# 
# From -- ./inp_files/4215.got.cif
#   From: 2010.05.17/outbox.cif.g08.bks.cpg/sg4_3_cif.got.tgz:4215.got - 2010.06.03 18:43:04.
