data_PCOD9117917
_publ_section_title
;
Structure prediction by ZEFSAII (Michael W. Deem and Ramdas Pophale) SiO2 
 PCOD9117917
Probable space group: P 21
;
_chemical_formula_sum "Si O2"
_cell_formula_units_Z 14
_cell_length_a 12.900915
_cell_length_b 9.394046
_cell_length_c 10.693815
_cell_angle_alpha 90.000000
_cell_angle_beta 146.411400
_cell_angle_gamma 90.000000
_cell_volume 716.982077
_symmetry_space_group_name_H-M "P 21"
_symmetry_group_IT_number 4
_symmetry_cell_setting 'monoclinic'
loop_
_space_group_symop_operation_xyz
x,y,z
-x,1/2+y,-z
loop_
_atom_site_type_symbol
_atom_site_label
_atom_site_fract_x
_atom_site_fract_y
_atom_site_fract_z
Si Si1 0.999080 0.253850 0.846770
Si Si2 0.411636 0.745504 0.679912
Si Si3 0.138773 0.756126 0.018713
Si Si4 0.206606 0.623176 0.695611
Si Si5 0.713983 0.986946 0.957171
Si Si6 0.970108 0.367894 0.349001
Si Si7 0.289166 0.015168 0.070418
O O1 0.789553 0.253302 0.585575
O O2 0.982599 0.263232 0.979398
O O3 0.115043 0.379467 0.898181
O O4 0.110057 0.111086 0.924714
O O5 0.367352 0.701742 0.778461
O O6 0.533410 0.614698 0.750324
O O7 0.529641 0.888711 0.775057
O O8 0.289287 0.884206 0.165812
O O9 0.252266 0.610933 0.110564
O O10 0.010474 0.790284 0.766756
O O11 0.271429 0.564219 0.894423
O O12 0.051935 0.745292 0.570016
O O13 0.118670 0.488445 0.533928
O O14 0.768589 0.446103 0.121582
#
# Coordination Sequence:
#
# PCOD9117917 Si02
#       7
#     2   2   2   2   2   2   2
#     4  11  20  41  64  86 120 161 197 250 304 348
#     4  11  23  37  59  88 120 162 197 243 304 349
#     4   9  20  40  62  86 123 156 200 252 297 349
#     4  11  21  39  62  87 123 160 195 251 298 358
#     4  10  24  38  59  93 118 155 208 241 296 368
#     4   9  21  39  60  91 115 158 203 241 299 358
#     4   9  21  40  56  89 119 150 206 240 292 360
#
# _framework density 19.526292000000002
#
# number of rings (size 3 to 8) (size 9 to 14) (size 15 to 20)
#    0.857    1.143    1.429    1.714    4.000    1.143 
#    0.000    7.143    0.000    0.000    0.000    0.000 
#    0.000    0.000    0.000    0.000    0.000    0.000 
#
# Total GULP energy -77974.742339 kJ/mol
# GULP energy per Si atom -5569.624453 kJ/mol
# Density = 1.948185 g / cm^3
# Si number density = 19.526292 Si / 1000 Ang^3
#
#
#
# Elastic Constant Matrix: (Units=GPa)
#
#
# Indices 1 2 3 4 5 6 
#
# 1 75.1787 12.5367 20.9105 0.0000 2.0515 0.0000
# 2 12.5367 106.6450 28.3390 0.0000 10.8485 0.0000
# 3 20.9105 28.3390 71.3987 0.0000 20.8576 0.0000
# 4 0.0000 0.0000 0.0000 8.4988 0.0000 1.9737
# 5 2.0515 10.8485 20.8576 0.0000 17.4915 0.0000
# 6 0.0000 0.0000 0.0000 1.9737 0.0000 11.4902
#
#
#
# Elastic Compliance Matrix: (Units=1/GPa)
#
#
# Indices 1 2 3 4 5 6 
#
# 1 0.014852 -0.000807 -0.005627 0.000000 0.005468 0.000000
# 2 -0.000807 0.010590 -0.003186 0.000000 -0.002675 0.000000
# 3 -0.005627 -0.003186 0.024780 0.000000 -0.026913 0.000000
# 4 0.000000 0.000000 0.000000 0.122553 0.000000 -0.021051
# 5 0.005468 -0.002675 -0.026913 0.000000 0.090281 0.000000
# 6 0.000000 0.000000 0.000000 -0.021051 0.000000 0.090647
#
#
# Mechanical properties :
#
#
# Convention : Reuss Voigt Hill
#
# Bulk Modulus (GPa) = 32.27491 41.86608 37.07049
# Shear Modulus (GPa) = 13.04562 20.25851 16.65207
#
# Velocity S-wave (km/s) = 2.58758 3.22452 2.92345
# Velocity P-wave (km/s) = 5.04898 5.94565 5.51557
#
# Compressibility (1/GPa) = 0.03098382
#
# Stress axis : x y z
#
# Youngs Moduli (GPa) = 67.33064 94.42498 40.35452
#
# Poissons Ratio (x) = 0.07620 0.22707
# Poissons Ratio (y) = 0.05433 0.12856
# Poissons Ratio (z) = 0.37886 0.30081
#
# Static dielectric constant tensor:
#      x y z
#    x 1.714810 0.000000 -0.026650 
#    y 0.000000 1.723430 0.000000 
#    z -0.026650 0.000000 1.673270 
# 
# From -- ./inp_files/11923.got.cif
#   From: 2010.05.17/outbox.cif.g08.bks.cpg/sg4_6_cif.got.tgz:11923.got - 2010.06.03 18:43:04.
