data_PCOD9117121
_publ_section_title
;
Structure prediction by ZEFSAII (Michael W. Deem and Ramdas Pophale) SiO2 
 PCOD9117121
Probable space group: P 21
;
_chemical_formula_sum "Si O2"
_cell_formula_units_Z 14
_cell_length_a 6.917277
_cell_length_b 7.266143
_cell_length_c 14.360056
_cell_angle_alpha 90.000000
_cell_angle_beta 44.767734
_cell_angle_gamma 90.000000
_cell_volume 508.291142
_symmetry_space_group_name_H-M "P 21"
_symmetry_group_IT_number 4
_symmetry_cell_setting 'monoclinic'
loop_
_space_group_symop_operation_xyz
x,y,z
-x,1/2+y,-z
loop_
_atom_site_type_symbol
_atom_site_label
_atom_site_fract_x
_atom_site_fract_y
_atom_site_fract_z
Si Si1 0.624684 0.161910 0.861416
Si Si2 0.160181 0.491773 0.757845
Si Si3 0.762006 0.473398 0.544891
Si Si4 0.615050 0.041025 0.069877
Si Si5 0.145091 0.893817 0.685203
Si Si6 0.822321 0.405559 0.054145
Si Si7 0.750306 0.894430 0.485963
O O1 0.599126 0.376145 0.845646
O O2 0.664567 0.213476 0.121437
O O3 0.902835 0.042784 0.765848
O O4 0.406362 0.061756 0.869353
O O5 0.465141 0.442262 0.690473
O O6 0.099216 0.707642 0.759263
O O7 0.179769 0.417816 0.645967
O O8 0.957413 0.407455 0.903922
O O9 0.816258 0.342589 0.437532
O O10 0.734967 0.677422 0.512153
O O11 0.013373 0.467651 0.528439
O O12 0.536121 0.135491 0.999195
O O13 0.920330 0.949613 0.968049
O O14 0.444510 0.969641 0.611820
#
# Coordination Sequence:
#
# PCOD9117121 Si02
#       7
#     2   2   2   2   2   2   2
#     4  12  26  48  74 110 156 204 251 324 392 457
#     4  10  24  46  72 105 151 204 251 322 384 464
#     4  10  22  43  72 110 146 196 253 316 386 464
#     4  12  27  49  75 112 151 203 262 318 389 467
#     4  10  24  44  73 106 152 200 256 310 390 464
#     4  12  27  49  77 109 156 201 265 322 389 465
#     4  10  22  45  71 108 152 194 256 314 388 467
#
# _framework density 27.543271000000001
#
# number of rings (size 3 to 8) (size 9 to 14) (size 15 to 20)
#    0.000    1.143    2.857    1.714    2.000    4.571 
#    2.571    0.000    0.000    0.000    0.000    0.000 
#    0.000    0.000    0.000    0.000    0.000    0.000 
#
# Total GULP energy -78508.851093 kJ/mol
# GULP energy per Si atom -5607.775078 kJ/mol
# Density = 2.748058 g / cm^3
# Si number density = 27.543271 Si / 1000 Ang^3
#
#
#
# Elastic Constant Matrix: (Units=GPa)
#
#
# Indices 1 2 3 4 5 6 
#
# 1 172.1601 23.2179 48.8127 0.0000 -26.0228 0.0000
# 2 23.2179 129.4407 29.5669 0.0000 -8.4334 0.0000
# 3 48.8127 29.5669 100.2870 0.0000 -22.0860 0.0000
# 4 0.0000 0.0000 0.0000 44.3154 0.0000 -0.6109
# 5 -26.0228 -8.4334 -22.0860 0.0000 62.8723 0.0000
# 6 0.0000 0.0000 0.0000 -0.6109 0.0000 52.4593
#
#
#
# Elastic Compliance Matrix: (Units=1/GPa)
#
#
# Indices 1 2 3 4 5 6 
#
# 1 0.006954 -0.000480 -0.002844 0.000000 0.001815 0.000000
# 2 -0.000480 0.008321 -0.002187 0.000000 0.000149 0.000000
# 3 -0.002844 -0.002187 0.012655 0.000000 0.002975 0.000000
# 4 0.000000 0.000000 0.000000 0.022569 0.000000 0.000263
# 5 0.001815 0.000149 0.002975 0.000000 0.017722 0.000000
# 6 0.000000 0.000000 0.000000 0.000263 0.000000 0.019065
#
#
# Mechanical properties :
#
#
# Convention : Reuss Voigt Hill
#
# Bulk Modulus (GPa) = 59.13605 67.23143 63.18374
# Shear Modulus (GPa) = 48.10336 51.94877 50.02606
#
# Velocity S-wave (km/s) = 4.18361 4.34761 4.26640
# Velocity P-wave (km/s) = 6.69728 7.04732 6.87453
#
# Compressibility (1/GPa) = 0.01691016
#
# Stress axis : x y z
#
# Youngs Moduli (GPa) = 143.80655 120.18052 79.01766
#
# Poissons Ratio (x) = 0.05763 0.22469
# Poissons Ratio (y) = 0.06896 0.17280
# Poissons Ratio (z) = 0.40892 0.26282
#
# Static dielectric constant tensor:
#      x y z
#    x 2.116380 0.000000 -0.014180 
#    y 0.000000 2.153690 0.000000 
#    z -0.014180 0.000000 2.173210 
# 
# From -- ./inp_files/14704.got.cif
#   From: 2010.05.17/outbox.cif.g08.bks.cpg/sg4_8_cif.got.tgz:14704.got - 2010.06.03 18:43:04.
