data_PCOD9117716
_publ_section_title
;
Structure prediction by ZEFSAII (Michael W. Deem and Ramdas Pophale) SiO2 
 PCOD9117716
Probable space group: P 21
;
_chemical_formula_sum "Si O2"
_cell_formula_units_Z 6
_cell_length_a 5.535672
_cell_length_b 4.721119
_cell_length_c 9.917901
_cell_angle_alpha 90.000000
_cell_angle_beta 123.286030
_cell_angle_gamma 90.000000
_cell_volume 216.675993
_symmetry_space_group_name_H-M "P 21"
_symmetry_group_IT_number 4
_symmetry_cell_setting 'monoclinic'
loop_
_space_group_symop_operation_xyz
x,y,z
-x,1/2+y,-z
loop_
_atom_site_type_symbol
_atom_site_label
_atom_site_fract_x
_atom_site_fract_y
_atom_site_fract_z
Si Si1 0.381903 0.640220 0.133990
Si Si2 0.125957 0.146467 0.204287
Si Si3 0.984969 0.496164 0.404307
O O1 0.297804 0.321966 0.144852
O O2 0.723780 0.656252 0.248137
O O3 0.240020 0.833199 0.209223
O O4 0.209357 0.692085 0.943240
O O5 0.165965 0.300700 0.358270
O O6 0.133861 0.753792 0.529268
#
# Coordination Sequence:
#
# PCOD9117716 Si02
#       3
#     2   2   2
#     4  10  23  44  70  98 131 178 232 279 327 397
#     4  10  23  44  70  98 131 178 232 279 327 397
#     4  12  26  42  68 104 140 178 218 278 350 404
#
# _framework density 27.691113999999999
#
# number of rings (size 3 to 8) (size 9 to 14) (size 15 to 20)
#    0.000    1.333    0.000    4.000    0.000   16.000 
#    0.000    0.000    0.000    0.000    0.000    0.000 
#    0.000    0.000    0.000    0.000    0.000    0.000 
#
# Total GULP energy -33585.469660 kJ/mol
# GULP energy per Si atom -5597.578277 kJ/mol
# Density = 2.762809 g / cm^3
# Si number density = 27.691114 Si / 1000 Ang^3
#
#
#
# Elastic Constant Matrix: (Units=GPa)
#
#
# Indices 1 2 3 4 5 6 
#
# 1 76.3735 16.6074 22.7799 0.0000 -2.5276 0.0000
# 2 16.6074 126.1373 37.4647 0.0000 -5.1159 0.0000
# 3 22.7799 37.4647 70.2762 0.0000 -0.0863 0.0000
# 4 0.0000 0.0000 0.0000 55.4591 0.0000 -7.7855
# 5 -2.5276 -5.1159 -0.0863 0.0000 37.9954 0.0000
# 6 0.0000 0.0000 0.0000 -7.7855 0.0000 35.2669
#
#
#
# Elastic Compliance Matrix: (Units=1/GPa)
#
#
# Indices 1 2 3 4 5 6 
#
# 1 0.014564 -0.000570 -0.004416 0.000000 0.000882 0.000000
# 2 -0.000570 0.009502 -0.004879 0.000000 0.001230 0.000000
# 3 -0.004416 -0.004879 0.018261 0.000000 -0.000909 0.000000
# 4 0.000000 0.000000 0.000000 0.018608 0.000000 0.004108
# 5 0.000882 0.001230 -0.000909 0.000000 0.026541 0.000000
# 6 0.000000 0.000000 0.000000 0.004108 0.000000 0.029262
#
#
# Mechanical properties :
#
#
# Convention : Reuss Voigt Hill
#
# Bulk Modulus (GPa) = 44.25486 47.38791 45.82138
# Shear Modulus (GPa) = 34.72203 38.80661 36.76432
#
# Velocity S-wave (km/s) = 3.54489 3.74760 3.64766
# Velocity P-wave (km/s) = 5.72463 5.98968 5.85865
#
# Compressibility (1/GPa) = 0.02259639
#
# Stress axis : x y z
#
# Youngs Moduli (GPa) = 68.66331 105.24026 54.76152
#
# Poissons Ratio (x) = 0.06000 0.24182
# Poissons Ratio (y) = 0.03915 0.26720
# Poissons Ratio (z) = 0.30320 0.51350
#
# Static dielectric constant tensor:
#      x y z
#    x 2.135550 0.000000 0.005340 
#    y 0.000000 2.024080 0.000000 
#    z 0.005340 0.000000 2.199310 
# 
# From -- ./inp_files/854.got.cif
#   From: 2010.05.17/outbox.cif.g08.bks.cpg/sg4_1_cif.got.tgz:854.got - 2010.06.03 18:43:04.
