data_PCOD9117724
_publ_section_title
;
Structure prediction by ZEFSAII (Michael W. Deem and Ramdas Pophale) SiO2 
 PCOD9117724
Probable space group: P 21
;
_chemical_formula_sum "Si O2"
_cell_formula_units_Z 14
_cell_length_a 5.314964
_cell_length_b 14.606869
_cell_length_c 6.912186
_cell_angle_alpha 90.000000
_cell_angle_beta 103.821897
_cell_angle_gamma 90.000000
_cell_volume 521.088346
_symmetry_space_group_name_H-M "P 21"
_symmetry_group_IT_number 4
_symmetry_cell_setting 'monoclinic'
loop_
_space_group_symop_operation_xyz
x,y,z
-x,1/2+y,-z
loop_
_atom_site_type_symbol
_atom_site_label
_atom_site_fract_x
_atom_site_fract_y
_atom_site_fract_z
Si Si1 0.696840 0.251490 0.770917
Si Si2 0.534798 0.940512 0.388513
Si Si3 0.331051 0.121277 0.470112
Si Si4 0.416976 0.515793 0.016095
Si Si5 0.486233 0.809017 0.860020
Si Si6 0.907551 0.791704 0.604912
Si Si7 0.902503 0.620678 0.011501
O O1 0.669396 0.357513 0.695333
O O2 0.578309 0.181569 0.591176
O O3 0.531737 0.254280 0.941965
O O4 0.974987 0.216336 0.894208
O O5 0.790744 0.881969 0.484863
O O6 0.414759 0.015039 0.514259
O O7 0.614962 0.002931 0.221118
O O8 0.120469 0.195043 0.512988
O O9 0.209171 0.114513 0.228337
O O10 0.159507 0.557970 0.056379
O O11 0.676168 0.574969 0.095374
O O12 0.460765 0.413371 0.087139
O O13 0.702796 0.783955 0.744825
O O14 0.200010 0.801058 0.720973
#
# Coordination Sequence:
#
# PCOD9117724 Si02
#       7
#     2   2   2   2   2   2   2
#     4  10  23  44  72 107 142 192 240 297 361 427
#     4   9  23  45  69 107 144 190 237 299 357 429
#     4  10  23  45  74 102 148 188 244 296 361 429
#     4  10  24  43  70 102 143 186 239 290 353 427
#     4  11  24  44  71 103 143 183 240 293 356 426
#     4  11  24  44  71 104 145 184 237 297 355 422
#     4  11  23  45  71 105 141 187 237 296 351 426
#
# _framework density 26.866848999999998
#
# number of rings (size 3 to 8) (size 9 to 14) (size 15 to 20)
#    0.000    1.714    1.429    0.857    8.000    2.286 
#    0.000   17.143    0.000    0.000    0.000    0.000 
#    0.000    0.000    0.000    0.000    0.000    0.000 
#
# Total GULP energy -78176.094908 kJ/mol
# GULP energy per Si atom -5584.006779 kJ/mol
# Density = 2.680570 g / cm^3
# Si number density = 26.866849 Si / 1000 Ang^3
#
#
#
# Elastic Constant Matrix: (Units=GPa)
#
#
# Indices 1 2 3 4 5 6 
#
# 1 152.2584 32.4154 27.2955 0.0000 -4.3529 0.0000
# 2 32.4154 100.4154 -19.5021 0.0000 -5.2875 0.0000
# 3 27.2955 -19.5021 78.2256 0.0000 -1.6799 0.0000
# 4 0.0000 0.0000 0.0000 -151.2118 0.0000 269.4163
# 5 -4.3529 -5.2875 -1.6799 0.0000 36.9046 0.0000
# 6 0.0000 0.0000 0.0000 269.4163 0.0000 -283.0439
#
#
#
# Elastic Compliance Matrix: (Units=1/GPa)
#
#
# Indices 1 2 3 4 5 6 
#
# 1 0.007900 -0.003224 -0.003554 0.000000 0.000308 0.000000
# 2 -0.003224 0.011879 0.004119 0.000000 0.001509 0.000000
# 3 -0.003554 0.004119 0.015069 0.000000 0.000857 0.000000
# 4 0.000000 0.000000 0.000000 0.009503 0.000000 0.009045
# 5 0.000308 0.001509 0.000857 0.000000 0.027388 0.000000
# 6 0.000000 0.000000 0.000000 0.009045 0.000000 0.005077
#
#
# Mechanical properties :
#
#
# Convention : Reuss Voigt Hill
#
# Bulk Modulus (GPa) = 33.86435 45.70189 39.78312
# Shear Modulus (GPa) = 54.36131 -60.09085 -2.86477
#
# Velocity S-wave (km/s) = 4.50306 -4.73442 -1.03373
# Velocity P-wave (km/s) = 6.29830 3.58313 3.66263
#
# Compressibility (1/GPa) = 0.02952958
#
# Stress axis : x y z
#
# Youngs Moduli (GPa) = 126.58038 84.18306 66.36208
#
# Poissons Ratio (x) = 0.27143 0.23584
# Poissons Ratio (y) = 0.40813 -0.27334
# Poissons Ratio (z) = 0.44984 -0.34674
#
# Static dielectric constant tensor:
#      x y z
#    x 4.294660 0.000000 -1.274200 
#    y 0.000000 2.164330 0.000000 
#    z -1.274200 0.000000 2.879280 
# 
# From -- ./inp_files/4801.got.cif
#   From: 2010.05.17/outbox.cif.g08.bks.cpg/sg4_3_cif.got.tgz:4801.got - 2010.06.03 18:43:04.
