data_PCOD9117250
_publ_section_title
;
Structure prediction by ZEFSAII (Michael W. Deem and Ramdas Pophale) SiO2 
 PCOD9117250
Probable space group: P 21
;
_chemical_formula_sum "Si O2"
_cell_formula_units_Z 16
_cell_length_a 6.740230
_cell_length_b 14.978189
_cell_length_c 9.625987
_cell_angle_alpha 90.000000
_cell_angle_beta 45.046926
_cell_angle_gamma 90.000000
_cell_volume 687.732737
_symmetry_space_group_name_H-M "P 21"
_symmetry_group_IT_number 4
_symmetry_cell_setting 'monoclinic'
loop_
_space_group_symop_operation_xyz
x,y,z
-x,1/2+y,-z
loop_
_atom_site_type_symbol
_atom_site_label
_atom_site_fract_x
_atom_site_fract_y
_atom_site_fract_z
Si Si1 0.107193 0.556470 0.625790
Si Si2 0.942703 0.082270 0.655413
Si Si3 0.607183 0.381753 0.125799
Si Si4 0.287272 0.055853 0.741948
Si Si5 0.442726 0.855956 0.155395
Si Si6 0.212714 0.382373 0.758060
Si Si7 0.817379 0.778101 0.485548
Si Si8 0.682639 0.660124 0.014438
O O1 0.421679 0.594638 0.461472
O O2 0.132593 0.472530 0.715652
O O3 0.036310 0.531277 0.501480
O O4 0.883164 0.625818 0.794270
O O5 0.074758 0.035993 0.723740
O O6 0.116307 0.174073 0.549557
O O7 0.621837 0.111835 0.840423
O O8 0.632599 0.465696 0.215648
O O9 0.383144 0.312409 0.294285
O O10 0.536296 0.406949 0.001493
O O11 0.921667 0.343585 0.961477
O O12 0.180121 0.125534 0.909328
O O13 0.574777 0.902233 0.223726
O O14 0.616331 0.764153 0.049539
O O15 0.121857 0.826391 0.340407
O O16 0.319871 0.312693 0.590678
#
# Coordination Sequence:
#
# PCOD9117250 Si02
#       8
#     2   2   2   2   2   2   2   2
#     4  11  23  42  62  96 131 164 220 266 316 391
#     4  10  24  42  70  93 129 174 211 269 325 374
#     4  11  23  42  62  96 131 164 220 266 316 391
#     4  11  23  41  62  97 129 168 215 267 323 383
#     4  10  24  42  70  93 129 174 211 269 325 374
#     4  11  23  41  62  97 129 168 215 267 323 383
#     4  10  22  45  66  96 130 165 221 266 319 390
#     4  10  22  45  66  96 130 165 221 266 319 390
#
# _framework density 23.264849999999999
#
# number of rings (size 3 to 8) (size 9 to 14) (size 15 to 20)
#    0.000    1.500    2.500    1.500    0.000    7.000 
#    0.000    0.000    0.000    0.000    0.000    0.000 
#    0.000    0.000    0.000    0.000    0.000    0.000 
#
# Total GULP energy -89526.109307 kJ/mol
# GULP energy per Si atom -5595.381832 kJ/mol
# Density = 2.321190 g / cm^3
# Si number density = 23.264850 Si / 1000 Ang^3
#
#
#
# Elastic Constant Matrix: (Units=GPa)
#
#
# Indices 1 2 3 4 5 6 
#
# 1 155.2183 20.0640 35.8845 0.0000 34.2425 0.0000
# 2 20.0640 68.8467 -6.2243 0.0000 12.7294 0.0000
# 3 35.8845 -6.2243 91.9633 0.0000 14.6764 0.0000
# 4 0.0000 0.0000 0.0000 29.6763 0.0000 6.0449
# 5 34.2425 12.7294 14.6764 0.0000 21.0192 0.0000
# 6 0.0000 0.0000 0.0000 6.0449 0.0000 27.8438
#
#
#
# Elastic Compliance Matrix: (Units=1/GPa)
#
#
# Indices 1 2 3 4 5 6 
#
# 1 0.010242 -0.000271 -0.001551 0.000000 -0.015438 0.000000
# 2 -0.000271 0.017147 0.003211 0.000000 -0.012186 0.000000
# 3 -0.001551 0.003211 0.013059 0.000000 -0.008536 0.000000
# 4 0.000000 0.000000 0.000000 0.035256 0.000000 -0.007654
# 5 -0.015438 -0.012186 -0.008536 0.000000 0.086066 0.000000
# 6 0.000000 0.000000 0.000000 -0.007654 0.000000 0.037576
#
#
# Mechanical properties :
#
#
# Convention : Reuss Voigt Hill
#
# Bulk Modulus (GPa) = 23.13392 46.16409 34.64900
# Shear Modulus (GPa) = 23.69929 33.46145 28.58037
#
# Velocity S-wave (km/s) = 3.19513 3.79659 3.50877
# Velocity P-wave (km/s) = 4.85563 6.25337 5.59829
#
# Compressibility (1/GPa) = 0.04322657
#
# Stress axis : x y z
#
# Youngs Moduli (GPa) = 97.63792 58.31847 76.57756
#
# Poissons Ratio (x) = 0.01578 0.11877
# Poissons Ratio (y) = 0.02641 -0.24588
# Poissons Ratio (z) = 0.15143 -0.18725
#
# Static dielectric constant tensor:
#      x y z
#    x 1.897040 0.000000 0.015880 
#    y 0.000000 1.877080 0.000000 
#    z 0.015880 0.000000 1.873470 
# 
# From -- ./inp_files/4958.got.cif
#   From: 2010.05.17/outbox.cif.g08.bks.cpg/sg4_3_cif.got.tgz:4958.got - 2010.06.03 18:43:04.
