data_PCOD9117763
_publ_section_title
;
Structure prediction by ZEFSAII (Michael W. Deem and Ramdas Pophale) SiO2 
 PCOD9117763
Probable space group: P 21
;
_chemical_formula_sum "Si O2"
_cell_formula_units_Z 16
_cell_length_a 5.415238
_cell_length_b 12.778203
_cell_length_c 12.033673
_cell_angle_alpha 90.000000
_cell_angle_beta 133.581962
_cell_angle_gamma 90.000000
_cell_volume 603.194461
_symmetry_space_group_name_H-M "P 21"
_symmetry_group_IT_number 4
_symmetry_cell_setting 'monoclinic'
loop_
_space_group_symop_operation_xyz
x,y,z
-x,1/2+y,-z
loop_
_atom_site_type_symbol
_atom_site_label
_atom_site_fract_x
_atom_site_fract_y
_atom_site_fract_z
Si Si1 0.794122 0.010970 0.280107
Si Si2 0.932098 0.878780 0.515200
Si Si3 0.947425 0.823209 0.759414
Si Si4 0.793024 0.117503 0.061432
Si Si5 0.928529 0.448912 0.000487
Si Si6 0.804128 0.661029 0.246919
Si Si7 0.261513 0.795389 0.227012
Si Si8 0.315161 0.673686 0.571020
O O1 0.947923 0.061005 0.217951
O O2 0.632311 0.103819 0.304467
O O3 0.034915 0.951748 0.442575
O O4 0.484123 0.944046 0.132474
O O5 0.052529 0.881476 0.679488
O O6 0.523075 0.874330 0.370836
O O7 0.050335 0.762637 0.522199
O O8 0.633071 0.744969 0.633842
O O9 0.186850 0.739737 0.898966
O O10 0.883810 0.912026 0.831072
O O11 0.398480 0.095772 0.908965
O O12 0.971597 0.062934 0.012133
O O13 0.000926 0.360285 0.930358
O O14 0.498689 0.717066 0.224670
O O15 0.040446 0.740168 0.252018
O O16 0.094295 0.607478 0.413883
#
# Coordination Sequence:
#
# PCOD9117763 Si02
#       8
#     2   2   2   2   2   2   2   2
#     4  11  26  47  73 113 152 198 265 321 402 464
#     4  10  24  46  75 112 147 205 251 323 392 467
#     4  12  24  49  75 110 150 206 260 321 405 469
#     4  12  27  45  77 113 153 206 260 329 393 482
#     4  11  27  43  72 112 153 201 259 327 393 475
#     4  11  25  45  75 110 153 206 254 319 390 471
#     4  10  23  45  71 109 152 201 253 312 396 457
#     4  11  24  46  76 107 152 201 252 320 395 473
#
# _framework density 26.52544
#
# number of rings (size 3 to 8) (size 9 to 14) (size 15 to 20)
#    0.000    1.000    5.000    0.000    8.750    3.000 
#    0.000    0.000    0.000    0.000    0.000    0.000 
#    0.000    0.000    0.000    0.000    0.000    0.000 
#
# Total GULP energy -89285.519199 kJ/mol
# GULP energy per Si atom -5580.344950 kJ/mol
# Density = 2.646507 g / cm^3
# Si number density = 26.525440 Si / 1000 Ang^3
#
#
#
# Elastic Constant Matrix: (Units=GPa)
#
#
# Indices 1 2 3 4 5 6 
#
# 1 77.3419 17.8221 19.8369 0.0000 -16.5985 0.0000
# 2 17.8221 72.5891 23.4624 0.0000 -11.7510 0.0000
# 3 19.8369 23.4624 142.3287 0.0000 -10.8821 0.0000
# 4 0.0000 0.0000 0.0000 44.3591 0.0000 -12.3152
# 5 -16.5985 -11.7510 -10.8821 0.0000 40.1336 0.0000
# 6 0.0000 0.0000 0.0000 -12.3152 0.0000 32.9969
#
#
#
# Elastic Compliance Matrix: (Units=1/GPa)
#
#
# Indices 1 2 3 4 5 6 
#
# 1 0.014914 -0.002418 -0.001289 0.000000 0.005111 0.000000
# 2 -0.002418 0.015498 -0.001989 0.000000 0.002999 0.000000
# 3 -0.001289 -0.001989 0.007606 0.000000 0.000947 0.000000
# 4 0.000000 0.000000 0.000000 0.025149 0.000000 0.009386
# 5 0.005111 0.002999 0.000947 0.000000 0.028165 0.000000
# 6 0.000000 0.000000 0.000000 0.009386 0.000000 0.033809
#
#
# Mechanical properties :
#
#
# Convention : Reuss Voigt Hill
#
# Bulk Modulus (GPa) = 37.55597 46.05584 41.80590
# Shear Modulus (GPa) = 34.38598 38.90716 36.64657
#
# Velocity S-wave (km/s) = 3.60438 3.83402 3.72097
# Velocity P-wave (km/s) = 5.61349 6.08278 5.85284
#
# Compressibility (1/GPa) = 0.02662693
#
# Stress axis : x y z
#
# Youngs Moduli (GPa) = 67.05003 64.52475 131.47704
#
# Poissons Ratio (x) = 0.15600 0.16952
# Poissons Ratio (y) = 0.16210 0.26145
# Poissons Ratio (z) = 0.08645 0.12831
#
# Static dielectric constant tensor:
#      x y z
#    x 2.099190 0.000000 -0.036390 
#    y 0.000000 2.195570 0.000000 
#    z -0.036390 0.000000 2.164370 
# 
# From -- ./inp_files/10573.got.cif
#   From: 2010.05.17/outbox.cif.g08.bks.cpg/sg4_6_cif.got.tgz:10573.got - 2010.06.03 18:43:04.
