data_PCOD9117116
_publ_section_title
;
Structure prediction by ZEFSAII (Michael W. Deem and Ramdas Pophale) SiO2 
 PCOD9117116
Probable space group: P 21
;
_chemical_formula_sum "Si O2"
_cell_formula_units_Z 16
_cell_length_a 16.951892
_cell_length_b 4.959645
_cell_length_c 19.910488
_cell_angle_alpha 90.000000
_cell_angle_beta 156.150847
_cell_angle_gamma 90.000000
_cell_volume 676.841095
_symmetry_space_group_name_H-M "P 21"
_symmetry_group_IT_number 4
_symmetry_cell_setting 'monoclinic'
loop_
_space_group_symop_operation_xyz
x,y,z
-x,1/2+y,-z
loop_
_atom_site_type_symbol
_atom_site_label
_atom_site_fract_x
_atom_site_fract_y
_atom_site_fract_z
Si Si1 0.867447 0.788970 0.888525
Si Si2 0.157373 0.154524 0.279149
Si Si3 0.079208 0.521330 0.732726
Si Si4 0.336138 0.109083 0.556748
Si Si5 0.431315 0.115011 0.228378
Si Si6 0.912074 0.666641 0.130282
Si Si7 0.479158 0.799708 0.030394
Si Si8 0.892384 0.753625 0.390879
O O1 0.781584 0.745663 0.747112
O O2 0.714040 0.698613 0.824762
O O3 0.054541 0.590490 0.040188
O O4 0.320612 0.121187 0.463627
O O5 0.008497 0.379285 0.191676
O O6 0.037563 0.876518 0.182949
O O7 0.876686 0.680860 0.580962
O O8 0.071546 0.293202 0.783805
O O9 0.268608 0.706530 0.891721
O O10 0.090223 0.381095 0.669369
O O11 0.499056 0.311623 0.708989
O O12 0.386281 0.812036 0.621378
O O13 0.310074 0.158922 0.066595
O O14 0.521451 0.600325 0.999759
O O15 0.659199 0.756896 0.221553
O O16 0.983666 0.457305 0.466442
#
# Coordination Sequence:
#
# PCOD9117116 Si02
#       8
#     2   2   2   2   2   2   2   2
#     4  12  22  40  71  96 132 179 235 284 344 391
#     4  11  22  43  65  98 130 183 222 278 341 408
#     4  10  25  48  68  97 139 191 217 271 349 409
#     4  11  26  42  65  97 144 170 222 285 345 398
#     4  12  24  42  65 103 131 176 232 290 329 403
#     4  11  23  42  70  92 131 178 232 269 332 420
#     4  10  22  43  71  99 133 178 230 265 324 413
#     4  11  24  44  73 106 140 169 226 290 332 394
#
# _framework density 23.639229
#
# number of rings (size 3 to 8) (size 9 to 14) (size 15 to 20)
#    0.000    1.000    2.500    4.500    0.000   11.000 
#    0.000    7.500    0.000    0.000    0.000    0.000 
#    0.000    0.000    0.000    0.000    0.000    0.000 
#
# Total GULP energy -89648.501412 kJ/mol
# GULP energy per Si atom -5603.031338 kJ/mol
# Density = 2.358542 g / cm^3
# Si number density = 23.639229 Si / 1000 Ang^3
#
#
#
# Elastic Constant Matrix: (Units=GPa)
#
#
# Indices 1 2 3 4 5 6 
#
# 1 53.9181 -7.3800 8.2349 0.0000 5.0244 0.0000
# 2 -7.3800 66.0234 -0.1504 0.0000 -4.2628 0.0000
# 3 8.2349 -0.1504 90.1289 0.0000 -2.9792 0.0000
# 4 0.0000 0.0000 0.0000 47.3299 0.0000 -1.6312
# 5 5.0244 -4.2628 -2.9792 0.0000 42.6031 0.0000
# 6 0.0000 0.0000 0.0000 -1.6312 0.0000 21.4970
#
#
#
# Elastic Compliance Matrix: (Units=1/GPa)
#
#
# Indices 1 2 3 4 5 6 
#
# 1 0.019307 0.002012 -0.001834 0.000000 -0.002204 0.000000
# 2 0.002012 0.015455 -0.000115 0.000000 0.001301 0.000000
# 3 -0.001834 -0.000115 0.011295 0.000000 0.000995 0.000000
# 4 0.000000 0.000000 0.000000 0.021184 0.000000 0.001607
# 5 -0.002204 0.001301 0.000995 0.000000 0.023932 0.000000
# 6 0.000000 0.000000 0.000000 0.001607 0.000000 0.046640
#
#
# Mechanical properties :
#
#
# Convention : Reuss Voigt Hill
#
# Bulk Modulus (GPa) = 21.65262 23.49771 22.57517
# Shear Modulus (GPa) = 32.66226 36.24374 34.45300
#
# Velocity S-wave (km/s) = 3.72115 3.91986 3.82180
# Velocity P-wave (km/s) = 5.25758 5.51804 5.38938
#
# Compressibility (1/GPa) = 0.04618379
#
# Stress axis : x y z
#
# Youngs Moduli (GPa) = 51.79353 64.70504 88.53132
#
# Poissons Ratio (x) = -0.13017 0.16233
# Poissons Ratio (y) = -0.10419 0.01018
# Poissons Ratio (z) = 0.09497 0.00744
#
# Static dielectric constant tensor:
#      x y z
#    x 1.913800 0.000000 0.005740 
#    y 0.000000 1.833800 0.000000 
#    z 0.005740 0.000000 1.902470 
# 
# From -- ./inp_files/15887.got.cif
#   From: 2010.05.17/outbox.cif.g08.bks.cpg/sg4_8_cif.got.tgz:15887.got - 2010.06.03 18:43:04.
