data_PCOD9117489
_publ_section_title
;
Structure prediction by ZEFSAII (Michael W. Deem and Ramdas Pophale) SiO2 
 PCOD9117489
Probable space group: P 21
;
_chemical_formula_sum "Si O2"
_cell_formula_units_Z 16
_cell_length_a 8.045606
_cell_length_b 5.392982
_cell_length_c 20.712773
_cell_angle_alpha 90.000000
_cell_angle_beta 52.229322
_cell_angle_gamma 90.000000
_cell_volume 710.412486
_symmetry_space_group_name_H-M "P 21"
_symmetry_group_IT_number 4
_symmetry_cell_setting 'monoclinic'
loop_
_space_group_symop_operation_xyz
x,y,z
-x,1/2+y,-z
loop_
_atom_site_type_symbol
_atom_site_label
_atom_site_fract_x
_atom_site_fract_y
_atom_site_fract_z
Si Si1 0.668600 0.847110 0.708345
Si Si2 0.589404 0.967098 0.214186
Si Si3 0.779085 0.757306 0.393096
Si Si4 0.516313 0.185629 0.956030
Si Si5 0.589301 0.257767 0.619874
Si Si6 0.204883 0.730458 0.224845
Si Si7 0.112032 0.744015 0.558808
Si Si8 0.876870 0.761634 0.044808
O O1 0.437801 0.759476 0.787661
O O2 0.864893 0.697973 0.630518
O O3 0.619602 0.035665 0.662592
O O4 0.768402 0.961469 0.749255
O O5 0.528400 0.946775 0.303823
O O6 0.381919 0.881078 0.223158
O O7 0.788969 0.837218 0.136688
O O8 0.569708 0.726479 0.401481
O O9 0.826590 0.499959 0.418993
O O10 0.971934 0.811136 0.298041
O O11 0.775614 0.996254 0.440579
O O12 0.729136 0.227939 0.864671
O O13 0.326086 0.205270 0.950599
O O14 0.489809 0.414472 0.011150
O O15 0.813878 0.293289 0.532040
O O16 0.016596 0.514077 0.007861
#
# Coordination Sequence:
#
# PCOD9117489 Si02
#       8
#     2   2   2   2   2   2   2   2
#     4  10  23  41  68  93 129 184 225 272 321 404
#     4  10  23  43  68  94 133 177 227 267 338 396
#     4  11  24  44  64  95 134 182 215 276 338 388
#     4  11  25  42  71 102 133 171 227 279 334 409
#     4  11  26  38  67 102 134 169 228 284 321 392
#     4   9  22  43  66  90 132 180 221 265 337 404
#     4  11  25  43  66  94 138 178 225 264 341 392
#     4  11  26  46  72  98 139 177 220 281 346 401
#
# _framework density 22.522127000000001
#
# number of rings (size 3 to 8) (size 9 to 14) (size 15 to 20)
#    0.000    1.500    1.250    1.500   14.000    2.000 
#    0.000    0.000    0.000    0.000    0.000    0.000 
#    0.000    0.000    0.000    0.000    0.000    0.000 
#
# Total GULP energy -89192.796330 kJ/mol
# GULP energy per Si atom -5574.549771 kJ/mol
# Density = 2.247087 g / cm^3
# Si number density = 22.522127 Si / 1000 Ang^3
#
#
#
# Elastic Constant Matrix: (Units=GPa)
#
#
# Indices 1 2 3 4 5 6 
#
# 1 33.2543 9.8469 -8.0022 0.0000 -2.7415 0.0000
# 2 9.8469 53.7598 14.6532 0.0000 0.2441 0.0000
# 3 -8.0022 14.6532 92.8140 0.0000 -10.4947 0.0000
# 4 0.0000 0.0000 0.0000 30.9509 0.0000 -7.8757
# 5 -2.7415 0.2441 -10.4947 0.0000 25.3375 0.0000
# 6 0.0000 0.0000 0.0000 -7.8757 0.0000 -0.5916
#
#
#
# Elastic Compliance Matrix: (Units=1/GPa)
#
#
# Indices 1 2 3 4 5 6 
#
# 1 0.033920 -0.007536 0.004760 0.000000 0.005714 0.000000
# 2 -0.007536 0.021169 -0.004309 0.000000 -0.002804 0.000000
# 3 0.004760 -0.004309 0.012514 0.000000 0.005740 0.000000
# 4 0.000000 0.000000 0.000000 0.007364 0.000000 -0.098034
# 5 0.005714 -0.002804 0.005740 0.000000 0.042490 0.000000
# 6 0.000000 0.000000 0.000000 -0.098034 0.000000 -0.385268
#
#
# Mechanical properties :
#
#
# Convention : Reuss Voigt Hill
#
# Bulk Modulus (GPa) = 18.71514 23.64709 21.18112
# Shear Modulus (GPa) = -21.20162 22.02805 0.41321
#
# Velocity S-wave (km/s) = -3.07150 3.13079 0.42880
# Velocity P-wave (km/s) = 2.06182 4.85710 3.10969
#
# Compressibility (1/GPa) = 0.05343268
#
# Stress axis : x y z
#
# Youngs Moduli (GPa) = 29.48156 47.23917 79.91070
#
# Poissons Ratio (x) = 0.35601 -0.38041
# Poissons Ratio (y) = 0.22218 0.34433
# Poissons Ratio (z) = -0.14034 0.20355
#
# Static dielectric constant tensor:
#      x y z
#    x 1.825040 0.000000 0.019360 
#    y 0.000000 2.079080 0.000000 
#    z 0.019360 0.000000 2.077520 
# 
# From -- ./inp_files/8622.got.cif
#   From: 2010.05.17/outbox.cif.g08.bks.cpg/sg4_5_cif.got.tgz:8622.got - 2010.06.03 18:43:04.
