data_PCOD9117860
_publ_section_title
;
Structure prediction by ZEFSAII (Michael W. Deem and Ramdas Pophale) SiO2 
 PCOD9117860
Probable space group: P 21
;
_chemical_formula_sum "Si O2"
_cell_formula_units_Z 16
_cell_length_a 9.029640
_cell_length_b 7.580067
_cell_length_c 18.068004
_cell_angle_alpha 90.000000
_cell_angle_beta 32.181950
_cell_angle_gamma 90.000000
_cell_volume 658.662149
_symmetry_space_group_name_H-M "P 21"
_symmetry_group_IT_number 4
_symmetry_cell_setting 'monoclinic'
loop_
_space_group_symop_operation_xyz
x,y,z
-x,1/2+y,-z
loop_
_atom_site_type_symbol
_atom_site_label
_atom_site_fract_x
_atom_site_fract_y
_atom_site_fract_z
Si Si1 0.635919 0.021020 0.743149
Si Si2 0.325590 0.501238 0.980640
Si Si3 0.772799 0.555481 0.275678
Si Si4 0.642974 0.602786 0.992977
Si Si5 0.402236 0.120119 0.285760
Si Si6 0.776734 0.119579 0.537305
Si Si7 0.263105 0.481008 0.714058
Si Si8 0.184686 0.960625 0.584023
O O1 0.618361 0.159537 0.682656
O O2 0.626839 0.832765 0.704925
O O3 0.437356 0.996938 0.898291
O O4 0.933815 0.066155 0.653332
O O5 0.445609 0.586775 0.005102
O O6 0.472421 0.570815 0.846215
O O7 0.388930 0.297902 0.963363
O O8 0.992045 0.518687 0.118466
O O9 0.454623 0.496574 0.401937
O O10 0.883681 0.455634 0.301008
O O11 0.769707 0.769131 0.282857
O O12 0.957075 0.559807 0.836325
O O13 0.600328 0.044574 0.266075
O O14 0.083626 0.051434 0.425809
O O15 0.815573 0.280097 0.463203
O O16 0.506219 0.538665 0.554707
#
# Coordination Sequence:
#
# PCOD9117860 Si02
#       8
#     2   2   2   2   2   2   2   2
#     4  11  23  48  76 105 151 197 247 312 373 448
#     4  12  28  47  72 108 148 200 255 310 374 452
#     4  11  25  48  75 103 153 196 252 311 373 453
#     4  12  28  45  75 104 151 198 254 310 378 443
#     4  11  26  47  74 108 153 193 252 307 373 454
#     4  10  25  45  77 109 147 193 242 309 382 443
#     4  11  26  47  73 110 146 196 249 309 378 444
#     4  10  23  47  74 107 149 189 249 308 373 449
#
# _framework density 24.291664999999998
#
# number of rings (size 3 to 8) (size 9 to 14) (size 15 to 20)
#    0.000    1.000    2.500    2.250   10.500    1.000 
#    0.000    0.000    0.000    0.000    0.000    0.000 
#    0.000    0.000    0.000    0.000    0.000    0.000 
#
# Total GULP energy -89379.278225 kJ/mol
# GULP energy per Si atom -5586.204889 kJ/mol
# Density = 2.423638 g / cm^3
# Si number density = 24.291665 Si / 1000 Ang^3
#
#
#
# Elastic Constant Matrix: (Units=GPa)
#
#
# Indices 1 2 3 4 5 6 
#
# 1 45.4456 -4.1723 17.6801 0.0000 -4.9407 0.0000
# 2 -4.1723 59.7615 1.1557 0.0000 3.3607 0.0000
# 3 17.6801 1.1557 126.7303 0.0000 0.5873 0.0000
# 4 0.0000 0.0000 0.0000 28.8131 0.0000 8.0382
# 5 -4.9407 3.3607 0.5873 0.0000 39.4396 0.0000
# 6 0.0000 0.0000 0.0000 8.0382 0.0000 37.8436
#
#
#
# Elastic Compliance Matrix: (Units=1/GPa)
#
#
# Indices 1 2 3 4 5 6 
#
# 1 0.023763 0.001561 -0.003343 0.000000 0.002894 0.000000
# 2 0.001561 0.016919 -0.000366 0.000000 -0.001241 0.000000
# 3 -0.003343 -0.000366 0.008363 0.000000 -0.000512 0.000000
# 4 0.000000 0.000000 0.000000 0.036893 0.000000 -0.007836
# 5 0.002894 -0.001241 -0.000512 0.000000 0.025831 0.000000
# 6 0.000000 0.000000 0.000000 -0.007836 0.000000 0.028089
#
#
# Mechanical properties :
#
#
# Convention : Reuss Voigt Hill
#
# Bulk Modulus (GPa) = 22.34725 29.02937 25.68831
# Shear Modulus (GPa) = 31.43280 35.70419 33.56849
#
# Velocity S-wave (km/s) = 3.60109 3.83797 3.72142
# Velocity P-wave (km/s) = 5.14878 5.62284 5.39103
#
# Compressibility (1/GPa) = 0.04474824
#
# Stress axis : x y z
#
# Youngs Moduli (GPa) = 42.08277 59.10513 119.57665
#
# Poissons Ratio (x) = -0.09226 0.39972
# Poissons Ratio (y) = -0.06569 0.04380
# Poissons Ratio (z) = 0.14067 0.02165
#
# Static dielectric constant tensor:
#      x y z
#    x 1.649260 0.000000 -0.193740 
#    y 0.000000 1.967870 0.000000 
#    z -0.193740 0.000000 1.812480 
# 
# From -- ./inp_files/14936.got.cif
#   From: 2010.05.17/outbox.cif.g08.bks.cpg/sg4_8_cif.got.tgz:14936.got - 2010.06.03 18:43:04.
