data_PCOD9117083
_publ_section_title
;
Structure prediction by ZEFSAII (Michael W. Deem and Ramdas Pophale) SiO2 
 PCOD9117083
Probable space group: P 21
;
_chemical_formula_sum "Si O2"
_cell_formula_units_Z 14
_cell_length_a 8.626575
_cell_length_b 13.006447
_cell_length_c 9.035342
_cell_angle_alpha 90.000000
_cell_angle_beta 147.171797
_cell_angle_gamma 90.000000
_cell_volume 549.589753
_symmetry_space_group_name_H-M "P 21"
_symmetry_group_IT_number 4
_symmetry_cell_setting 'monoclinic'
loop_
_space_group_symop_operation_xyz
x,y,z
-x,1/2+y,-z
loop_
_atom_site_type_symbol
_atom_site_label
_atom_site_fract_x
_atom_site_fract_y
_atom_site_fract_z
Si Si1 0.511250 0.170220 0.074525
Si Si2 0.349049 0.353472 0.487153
Si Si3 0.843283 0.199644 0.891083
Si Si4 0.930915 0.510376 0.790715
Si Si5 0.330384 0.332553 0.151548
Si Si6 0.018192 0.043458 0.832553
Si Si7 0.145460 0.163597 0.493898
O O1 0.513169 0.271649 0.180504
O O2 0.291538 0.086410 0.966495
O O3 0.357831 0.193344 0.796451
O O4 0.837864 0.137926 0.317776
O O5 0.636749 0.292447 0.760353
O O6 0.172878 0.454445 0.391787
O O7 0.136504 0.263090 0.378830
O O8 0.447091 0.385625 0.394588
O O9 0.853813 0.108810 0.016488
O O10 0.797823 0.136213 0.700120
O O11 0.149721 0.246747 0.096021
O O12 0.856973 0.503768 0.907105
O O13 0.109225 0.409394 0.896037
O O14 0.751339 0.562903 0.516042
#
# Coordination Sequence:
#
# PCOD9117083 Si02
#       7
#     2   2   2   2   2   2   2
#     4  11  26  44  64  96 141 175 219 275 355 398
#     4  11  21  41  72  94 133 177 241 278 348 400
#     4   9  19  39  65 101 127 171 231 296 339 397
#     4   9  20  43  67  96 130 175 240 275 346 397
#     4  10  22  43  67  98 126 186 226 297 330 421
#     4   8  21  44  65 100 128 184 230 293 332 417
#     4  12  25  42  66  95 139 180 215 286 334 422
#
# _framework density 25.473545000000001
#
# number of rings (size 3 to 8) (size 9 to 14) (size 15 to 20)
#    0.857    1.143    1.429    0.857    4.000    3.429 
#    7.714    0.000    0.000    0.000    0.000    0.000 
#    0.000    0.000    0.000    0.000    0.000    0.000 
#
# Total GULP energy -77940.420540 kJ/mol
# GULP energy per Si atom -5567.172896 kJ/mol
# Density = 2.541557 g / cm^3
# Si number density = 25.473545 Si / 1000 Ang^3
#
#
#
# Elastic Constant Matrix: (Units=GPa)
#
#
# Indices 1 2 3 4 5 6 
#
# 1 105.6566 31.6514 13.5032 0.0000 7.5950 0.0000
# 2 31.6514 67.4404 -23.5792 0.0000 -13.6856 0.0000
# 3 13.5032 -23.5792 47.5960 0.0000 -4.2909 0.0000
# 4 0.0000 0.0000 0.0000 3.2436 0.0000 1.4481
# 5 7.5950 -13.6856 -4.2909 0.0000 36.8395 0.0000
# 6 0.0000 0.0000 0.0000 1.4481 0.0000 34.9365
#
#
#
# Elastic Compliance Matrix: (Units=1/GPa)
#
#
# Indices 1 2 3 4 5 6 
#
# 1 0.015787 -0.013612 -0.012099 0.000000 -0.009721 0.000000
# 2 -0.013612 0.032186 0.021362 0.000000 0.017251 0.000000
# 3 -0.012099 0.021362 0.036348 0.000000 0.014664 0.000000
# 4 0.000000 0.000000 0.000000 0.314111 0.000000 -0.013019
# 5 -0.009721 0.017251 0.014664 0.000000 0.037266 0.000000
# 6 0.000000 0.000000 0.000000 -0.013019 0.000000 0.029163
#
#
# Mechanical properties :
#
#
# Convention : Reuss Voigt Hill
#
# Bulk Modulus (GPa) = 13.22341 29.31598 21.26970
# Shear Modulus (GPa) = 10.02473 28.27845 19.15159
#
# Velocity S-wave (km/s) = 1.98592 3.33545 2.74491
# Velocity P-wave (km/s) = 3.23432 5.13488 4.29114
#
# Compressibility (1/GPa) = 0.07562345
#
# Stress axis : x y z
#
# Youngs Moduli (GPa) = 63.34145 31.06930 27.51216
#
# Poissons Ratio (x) = 0.42292 0.33287
# Poissons Ratio (y) = 0.86222 -0.58772
# Poissons Ratio (z) = 0.76636 -0.66371
#
# Static dielectric constant tensor:
#      x y z
#    x 2.078610 0.000000 -0.135790 
#    y 0.000000 2.299840 0.000000 
#    z -0.135790 0.000000 2.413250 
# 
# From -- ./inp_files/6691.got.cif
#   From: 2010.05.17/outbox.cif.g08.bks.cpg/sg4_4_cif.got.tgz:6691.got - 2010.06.03 18:43:04.
