data_PCOD9117835
_publ_section_title
;
Structure prediction by ZEFSAII (Michael W. Deem and Ramdas Pophale) SiO2 
 PCOD9117835
Probable space group: P 21
;
_chemical_formula_sum "Si O2"
_cell_formula_units_Z 16
_cell_length_a 18.554818
_cell_length_b 7.924009
_cell_length_c 9.153068
_cell_angle_alpha 90.000000
_cell_angle_beta 153.177114
_cell_angle_gamma 90.000000
_cell_volume 607.253740
_symmetry_space_group_name_H-M "P 21"
_symmetry_group_IT_number 4
_symmetry_cell_setting 'monoclinic'
loop_
_space_group_symop_operation_xyz
x,y,z
-x,1/2+y,-z
loop_
_atom_site_type_symbol
_atom_site_label
_atom_site_fract_x
_atom_site_fract_y
_atom_site_fract_z
Si Si1 0.971424 0.710320 0.519693
Si Si2 0.271939 0.003361 0.742011
Si Si3 0.607421 0.925242 0.504216
Si Si4 0.175367 0.685179 0.371417
Si Si5 0.810376 0.693084 0.680868
Si Si6 0.184763 0.535511 0.677665
Si Si7 0.486003 0.584047 0.393558
Si Si8 0.751827 0.352922 0.768174
O O1 0.054557 0.657593 0.519110
O O2 0.868987 0.556819 0.401936
O O3 0.844882 0.861284 0.291317
O O4 0.107369 0.784355 0.874006
O O5 0.217965 0.837536 0.557897
O O6 0.281988 0.147453 0.635177
O O7 0.440436 0.969124 0.122795
O O8 0.742749 0.859356 0.638281
O O9 0.586649 0.752164 0.560429
O O10 0.621279 0.063305 0.656647
O O11 0.172777 0.531431 0.481290
O O12 0.284096 0.716396 0.425814
O O13 0.997395 0.709248 0.989340
O O14 0.797281 0.525385 0.759858
O O15 0.364005 0.587659 0.038862
O O16 0.605730 0.427380 0.595925
#
# Coordination Sequence:
#
# PCOD9117835 Si02
#       8
#     2   2   2   2   2   2   2   2
#     4  12  26  45  73 110 148 201 249 319 377 459
#     4  11  25  48  74 111 154 199 258 315 389 462
#     4  11  26  48  75 111 155 199 260 317 390 457
#     4  11  22  48  75 110 144 198 253 318 376 464
#     4  10  23  47  75 111 149 199 248 319 379 457
#     4  12  27  44  74 109 151 198 257 311 389 453
#     4  11  26  48  73 112 152 203 250 322 386 456
#     4  10  23  46  75 102 153 191 251 311 380 452
#
# _framework density 26.348130000000001
#
# number of rings (size 3 to 8) (size 9 to 14) (size 15 to 20)
#    0.000    1.000    3.750    1.500    7.000    0.000 
#    6.750    2.500    0.000    0.000    0.000    0.000 
#    0.000    0.000    0.000    0.000    0.000    0.000 
#
# Total GULP energy -89623.784001 kJ/mol
# GULP energy per Si atom -5601.486500 kJ/mol
# Density = 2.628816 g / cm^3
# Si number density = 26.348130 Si / 1000 Ang^3
#
#
#
# Elastic Constant Matrix: (Units=GPa)
#
#
# Indices 1 2 3 4 5 6 
#
# 1 151.0037 -0.1141 21.2098 0.0000 -6.3975 0.0000
# 2 -0.1141 64.6259 6.0766 0.0000 -7.1230 0.0000
# 3 21.2098 6.0766 89.4278 0.0000 -7.4020 0.0000
# 4 0.0000 0.0000 0.0000 43.5939 0.0000 3.2638
# 5 -6.3975 -7.1230 -7.4020 0.0000 35.9407 0.0000
# 6 0.0000 0.0000 0.0000 3.2638 0.0000 51.3395
#
#
#
# Elastic Compliance Matrix: (Units=1/GPa)
#
#
# Indices 1 2 3 4 5 6 
#
# 1 0.006884 0.000265 -0.001572 0.000000 0.000954 0.000000
# 2 0.000265 0.015890 -0.000893 0.000000 0.003012 0.000000
# 3 -0.001572 -0.000893 0.011779 0.000000 0.001969 0.000000
# 4 0.000000 0.000000 0.000000 0.023049 0.000000 -0.001465
# 5 0.000954 0.003012 0.001969 0.000000 0.028996 0.000000
# 6 0.000000 0.000000 0.000000 -0.001465 0.000000 0.019571
#
#
# Mechanical properties :
#
#
# Convention : Reuss Voigt Hill
#
# Bulk Modulus (GPa) = 33.16435 39.93355 36.54895
# Shear Modulus (GPa) = 41.45277 44.70049 43.07663
#
# Velocity S-wave (km/s) = 3.97075 4.12337 4.04778
# Velocity P-wave (km/s) = 5.79972 6.15293 5.97894
#
# Compressibility (1/GPa) = 0.03015286
#
# Stress axis : x y z
#
# Youngs Moduli (GPa) = 145.27001 62.93201 84.89944
#
# Poissons Ratio (x) = -0.01668 0.13343
# Poissons Ratio (y) = -0.03851 0.07584
# Poissons Ratio (z) = 0.22832 0.05622
#
# Static dielectric constant tensor:
#      x y z
#    x 2.059070 0.000000 -0.013690 
#    y 0.000000 2.185950 0.000000 
#    z -0.013690 0.000000 1.952360 
# 
# From -- ./inp_files/9653.got.cif
#   From: 2010.05.17/outbox.cif.g08.bks.cpg/sg4_5_cif.got.tgz:9653.got - 2010.06.03 18:43:04.
