data_PCOD9117242
_publ_section_title
;
Structure prediction by ZEFSAII (Michael W. Deem and Ramdas Pophale) SiO2 
 PCOD9117242
Probable space group: P 21
;
_chemical_formula_sum "Si O2"
_cell_formula_units_Z 16
_cell_length_a 5.272678
_cell_length_b 6.859530
_cell_length_c 17.238575
_cell_angle_alpha 90.000000
_cell_angle_beta 103.120776
_cell_angle_gamma 90.000000
_cell_volume 607.209471
_symmetry_space_group_name_H-M "P 21"
_symmetry_group_IT_number 4
_symmetry_cell_setting 'monoclinic'
loop_
_space_group_symop_operation_xyz
x,y,z
-x,1/2+y,-z
loop_
_atom_site_type_symbol
_atom_site_label
_atom_site_fract_x
_atom_site_fract_y
_atom_site_fract_z
Si Si1 0.198599 0.919820 0.026810
Si Si2 0.353770 0.666547 0.181124
Si Si3 0.312144 0.430165 0.673074
Si Si4 0.288116 0.613750 0.925877
Si Si5 0.709654 0.626786 0.456110
Si Si6 0.643009 0.771100 0.744435
Si Si7 0.992382 0.935412 0.217846
Si Si8 0.828617 0.893355 0.595851
O O1 0.333504 0.756251 0.093278
O O2 0.408673 0.090628 0.035747
O O3 0.187859 0.825681 0.941340
O O4 0.918747 0.979310 0.040521
O O5 0.418586 0.442100 0.199838
O O6 0.532367 0.783961 0.256344
O O7 0.063943 0.725437 0.190982
O O8 0.327890 0.330431 0.592193
O O9 0.027836 0.426186 0.691967
O O10 0.414491 0.650913 0.685487
O O11 0.256452 0.537727 0.836571
O O12 0.437767 0.513727 0.438293
O O13 0.924854 0.508150 0.421886
O O14 0.807850 0.690823 0.547205
O O15 0.820794 0.860047 0.687823
O O16 0.797729 0.594335 0.794456
#
# Coordination Sequence:
#
# PCOD9117242 Si02
#       8
#     2   2   2   2   2   2   2   2
#     4  11  24  43  68  95 139 176 227 279 343 402
#     4  10  22  45  64 100 134 181 223 284 338 404
#     4  11  23  43  70  99 139 174 226 287 334 400
#     4  11  24  44  65 100 134 180 224 283 339 405
#     4  12  27  46  73  99 145 179 228 284 335 407
#     4  11  25  41  72 103 133 181 231 274 347 405
#     4  10  24  41  68  96 141 176 228 285 336 405
#     4  12  27  47  70 104 139 185 227 280 342 404
#
# _framework density 26.35005
#
# number of rings (size 3 to 8) (size 9 to 14) (size 15 to 20)
#    0.000    1.000    2.500    3.000    7.000    2.000 
#    0.000    0.000    0.000    0.000    0.000    0.000 
#    0.000    0.000    0.000    0.000    0.000    0.000 
#
# Total GULP energy -89463.435392 kJ/mol
# GULP energy per Si atom -5591.464712 kJ/mol
# Density = 2.629008 g / cm^3
# Si number density = 26.350050 Si / 1000 Ang^3
#
#
#
# Elastic Constant Matrix: (Units=GPa)
#
#
# Indices 1 2 3 4 5 6 
#
# 1 106.9320 29.4694 10.1355 0.0000 -17.8022 0.0000
# 2 29.4694 102.0028 6.9499 0.0000 2.3332 0.0000
# 3 10.1355 6.9499 68.2538 0.0000 -11.9424 0.0000
# 4 0.0000 0.0000 0.0000 52.2578 0.0000 -1.7507
# 5 -17.8022 2.3332 -11.9424 0.0000 37.0256 0.0000
# 6 0.0000 0.0000 0.0000 -1.7507 0.0000 41.9417
#
#
#
# Elastic Compliance Matrix: (Units=1/GPa)
#
#
# Indices 1 2 3 4 5 6 
#
# 1 0.011221 -0.003342 -0.000366 0.000000 0.005488 0.000000
# 2 -0.003342 0.010903 -0.001076 0.000000 -0.002641 0.000000
# 3 -0.000366 -0.001076 0.015681 0.000000 0.004950 0.000000
# 4 0.000000 0.000000 0.000000 0.019163 0.000000 0.000800
# 5 0.005488 -0.002641 0.004950 0.000000 0.031410 0.000000
# 6 0.000000 0.000000 0.000000 0.000800 0.000000 0.023876
#
#
# Mechanical properties :
#
#
# Convention : Reuss Voigt Hill
#
# Bulk Modulus (GPa) = 35.41461 41.14424 38.27942
# Shear Modulus (GPa) = 38.09968 41.62063 39.86015
#
# Velocity S-wave (km/s) = 3.80663 3.97864 3.89358
# Velocity P-wave (km/s) = 5.72624 6.06255 5.89679
#
# Compressibility (1/GPa) = 0.02823693
#
# Stress axis : x y z
#
# Youngs Moduli (GPa) = 89.11715 91.71748 63.77087
#
# Poissons Ratio (x) = 0.30656 0.02332
# Poissons Ratio (y) = 0.29787 0.06862
# Poissons Ratio (z) = 0.03260 0.09869
#
# Static dielectric constant tensor:
#      x y z
#    x 2.157860 0.000000 0.084620 
#    y 0.000000 2.027840 0.000000 
#    z 0.084620 0.000000 2.074630 
# 
# From -- ./inp_files/3960.got.cif
#   From: 2010.05.17/outbox.cif.g08.bks.cpg/sg4_2_cif.got.tgz:3960.got - 2010.06.03 18:43:04.
