data_PCOD9117621
_publ_section_title
;
Structure prediction by ZEFSAII (Michael W. Deem and Ramdas Pophale) SiO2 
 PCOD9117621
Probable space group: P 21
;
_chemical_formula_sum "Si O2"
_cell_formula_units_Z 16
_cell_length_a 15.997596
_cell_length_b 8.093160
_cell_length_c 5.196672
_cell_angle_alpha 90.000000
_cell_angle_beta 61.256356
_cell_angle_gamma 90.000000
_cell_volume 589.914194
_symmetry_space_group_name_H-M "P 21"
_symmetry_group_IT_number 4
_symmetry_cell_setting 'monoclinic'
loop_
_space_group_symop_operation_xyz
x,y,z
-x,1/2+y,-z
loop_
_atom_site_type_symbol
_atom_site_label
_atom_site_fract_x
_atom_site_fract_y
_atom_site_fract_z
Si Si1 0.889486 0.986280 0.704159
Si Si2 0.338616 0.919422 0.893290
Si Si3 0.034086 0.320737 0.923175
Si Si4 0.518146 0.979900 0.311495
Si Si5 0.788940 0.597549 0.313641
Si Si6 0.706414 0.075447 0.202788
Si Si7 0.602894 0.708771 0.815075
Si Si8 0.834661 0.257832 0.419375
O O1 0.929055 0.883800 0.405690
O O2 0.780925 0.951224 0.957770
O O3 0.881083 0.168846 0.595508
O O4 0.951494 0.949436 0.862638
O O5 0.420981 0.900956 0.554381
O O6 0.253450 0.016766 0.879390
O O7 0.306691 0.730476 0.977551
O O8 0.385525 0.042743 0.027571
O O9 0.108355 0.175447 0.880441
O O10 0.923897 0.278129 0.093091
O O11 0.479563 0.153975 0.259497
O O12 0.568728 0.862542 0.030091
O O13 0.601120 0.006245 0.397839
O O14 0.707624 0.723523 0.533053
O O15 0.795757 0.443348 0.502534
O O16 0.758065 0.145860 0.379715
#
# Coordination Sequence:
#
# PCOD9117621 Si02
#       8
#     2   2   2   2   2   2   2   2
#     4  12  27  49  75 113 153 203 258 324 389 468
#     4  10  23  43  69 103 146 196 252 314 384 462
#     4  12  28  49  78 117 155 201 263 327 393 466
#     4  11  24  41  70 106 148 197 257 315 388 467
#     4  10  25  45  73 106 149 201 259 317 394 465
#     4  11  24  46  71 112 149 204 257 320 394 466
#     4  11  23  44  68 105 148 201 252 322 386 465
#     4  11  26  51  78 110 158 209 260 327 398 479
#
# _framework density 27.122589999999999
#
# number of rings (size 3 to 8) (size 9 to 14) (size 15 to 20)
#    0.000    1.000    1.250    3.750    5.250    4.000 
#    2.250    0.000    0.000    0.000    0.000    0.000 
#    0.000    0.000    0.000    0.000    0.000    0.000 
#
# Total GULP energy -89713.730737 kJ/mol
# GULP energy per Si atom -5607.108171 kJ/mol
# Density = 2.706086 g / cm^3
# Si number density = 27.122590 Si / 1000 Ang^3
#
#
#
# Elastic Constant Matrix: (Units=GPa)
#
#
# Indices 1 2 3 4 5 6 
#
# 1 159.2543 42.8919 41.9175 0.0000 -8.1214 0.0000
# 2 42.8919 82.1224 17.9465 0.0000 -1.3032 0.0000
# 3 41.9175 17.9465 100.3198 0.0000 -0.8491 0.0000
# 4 0.0000 0.0000 0.0000 45.8629 0.0000 2.1831
# 5 -8.1214 -1.3032 -0.8491 0.0000 51.0312 0.0000
# 6 0.0000 0.0000 0.0000 2.1831 0.0000 52.6685
#
#
#
# Elastic Compliance Matrix: (Units=1/GPa)
#
#
# Indices 1 2 3 4 5 6 
#
# 1 0.008011 -0.003576 -0.002698 0.000000 0.001139 0.000000
# 2 -0.003576 0.014273 -0.001061 0.000000 -0.000222 0.000000
# 3 -0.002698 -0.001061 0.011283 0.000000 -0.000269 0.000000
# 4 0.000000 0.000000 0.000000 0.021847 0.000000 -0.000906
# 5 0.001139 -0.000222 -0.000269 0.000000 0.019767 0.000000
# 6 0.000000 0.000000 0.000000 -0.000906 0.000000 0.019024
#
#
# Mechanical properties :
#
#
# Convention : Reuss Voigt Hill
#
# Bulk Modulus (GPa) = 52.91927 60.80094 56.86010
# Shear Modulus (GPa) = 43.41268 45.84189 44.62728
#
# Velocity S-wave (km/s) = 4.00510 4.11563 4.06074
# Velocity P-wave (km/s) = 6.39854 6.71195 6.55712
#
# Compressibility (1/GPa) = 0.01889671
#
# Stress axis : x y z
#
# Youngs Moduli (GPa) = 124.83463 70.06170 88.62997
#
# Poissons Ratio (x) = 0.25056 0.23910
# Poissons Ratio (y) = 0.44644 0.09403
# Poissons Ratio (z) = 0.33677 0.07433
#
# Static dielectric constant tensor:
#      x y z
#    x 2.028250 0.000000 0.014950 
#    y 0.000000 2.172060 0.000000 
#    z 0.014950 0.000000 2.202390 
# 
# From -- ./inp_files/3629.got.cif
#   From: 2010.05.17/outbox.cif.g08.bks.cpg/sg4_2_cif.got.tgz:3629.got - 2010.06.03 18:43:04.
