data_PCOD9117480
_publ_section_title
;
Structure prediction by ZEFSAII (Michael W. Deem and Ramdas Pophale) SiO2 
 PCOD9117480
Probable space group: P 21
;
_chemical_formula_sum "Si O2"
_cell_formula_units_Z 14
_cell_length_a 23.454556
_cell_length_b 5.164118
_cell_length_c 8.091399
_cell_angle_alpha 90.000000
_cell_angle_beta 37.901946
_cell_angle_gamma 90.000000
_cell_volume 602.054754
_symmetry_space_group_name_H-M "P 21"
_symmetry_group_IT_number 4
_symmetry_cell_setting 'monoclinic'
loop_
_space_group_symop_operation_xyz
x,y,z
-x,1/2+y,-z
loop_
_atom_site_type_symbol
_atom_site_label
_atom_site_fract_x
_atom_site_fract_y
_atom_site_fract_z
Si Si1 0.220383 0.346640 0.402459
Si Si2 0.848836 0.637185 0.761610
Si Si3 0.390229 0.774130 0.330422
Si Si4 0.032016 0.647475 0.832413
Si Si5 0.206947 0.475928 0.803615
Si Si6 0.945075 0.335741 0.768132
Si Si7 0.583807 0.783169 0.957178
O O1 0.192113 0.142434 0.326625
O O2 0.139824 0.564604 0.559816
O O3 0.217650 0.311771 0.608168
O O4 0.331249 0.367960 0.119545
O O5 0.873449 0.361028 0.780916
O O6 0.953896 0.741993 0.509199
O O7 0.795916 0.799219 0.025244
O O8 0.289013 0.691549 0.625530
O O9 0.476356 0.791365 0.262411
O O10 0.417235 0.514898 0.171201
O O11 0.391101 0.015630 0.199044
O O12 0.969783 0.595666 0.811372
O O13 0.015340 0.929765 0.941511
O O14 0.112529 0.635208 0.992705
#
# Coordination Sequence:
#
# PCOD9117480 Si02
#       7
#     2   2   2   2   2   2   2
#     4  10  23  41  67  91 129 172 222 268 324 392
#     4  11  24  43  59  95 130 175 218 277 321 396
#     4   9  20  36  69  93 129 165 217 265 330 393
#     4  11  23  37  60  96 124 168 223 261 313 392
#     4  11  22  42  64  91 125 176 214 266 332 397
#     4  11  23  39  61  87 137 169 217 275 330 380
#     4   9  19  40  62 101 124 165 215 274 324 384
#
# _framework density 23.253699000000001
#
# number of rings (size 3 to 8) (size 9 to 14) (size 15 to 20)
#    0.000    1.714    2.857    0.857    6.000    0.000 
#    5.143    0.000    3.143    0.000    0.000    0.000 
#    0.000    0.000    0.000    0.000    0.000    0.000 
#
# Total GULP energy -77951.731371 kJ/mol
# GULP energy per Si atom -5567.980812 kJ/mol
# Density = 2.320077 g / cm^3
# Si number density = 23.253699 Si / 1000 Ang^3
#
#
#
# Elastic Constant Matrix: (Units=GPa)
#
#
# Indices 1 2 3 4 5 6 
#
# 1 123.5002 6.1237 58.1358 0.0000 -26.8744 0.0000
# 2 6.1237 54.6104 27.4841 0.0000 1.3971 0.0000
# 3 58.1358 27.4841 81.8331 0.0000 -16.3161 0.0000
# 4 0.0000 0.0000 0.0000 57.1166 0.0000 -6.1949
# 5 -26.8744 1.3971 -16.3161 0.0000 34.7153 0.0000
# 6 0.0000 0.0000 0.0000 -6.1949 0.0000 35.5971
#
#
#
# Elastic Compliance Matrix: (Units=1/GPa)
#
#
# Indices 1 2 3 4 5 6 
#
# 1 0.013799 0.003164 -0.009667 0.000000 0.006011 0.000000
# 2 0.003164 0.023517 -0.010865 0.000000 -0.003603 0.000000
# 3 -0.009667 -0.010865 0.023537 0.000000 0.004016 0.000000
# 4 0.000000 0.000000 0.000000 0.017845 0.000000 0.003105
# 5 0.006011 -0.003603 0.004016 0.000000 0.035492 0.000000
# 6 0.000000 0.000000 0.000000 0.003105 0.000000 0.028633
#
#
# Mechanical properties :
#
#
# Convention : Reuss Voigt Hill
#
# Bulk Modulus (GPa) = 38.28774 49.27008 43.77891
# Shear Modulus (GPa) = 26.84361 36.69913 31.77137
#
# Velocity S-wave (km/s) = 3.40130 3.97697 3.70035
# Velocity P-wave (km/s) = 5.65032 6.50557 6.09297
#
# Compressibility (1/GPa) = 0.02611802
#
# Stress axis : x y z
#
# Youngs Moduli (GPa) = 72.46841 42.52290 42.48554
#
# Poissons Ratio (x) = -0.13455 0.41072
# Poissons Ratio (y) = -0.22930 0.46158
# Poissons Ratio (z) = 0.70057 0.46199
#
# Static dielectric constant tensor:
#      x y z
#    x 2.019970 0.000000 0.053230 
#    y 0.000000 1.933150 0.000000 
#    z 0.053230 0.000000 2.013670 
# 
# From -- ./inp_files/8634.got.cif
#   From: 2010.05.17/outbox.cif.g08.bks.cpg/sg4_5_cif.got.tgz:8634.got - 2010.06.03 18:43:04.
