data_PCOD9117033
_publ_section_title
;
Structure prediction by ZEFSAII (Michael W. Deem and Ramdas Pophale) SiO2 
 PCOD9117033
Probable space group: P 21
;
_chemical_formula_sum "Si O2"
_cell_formula_units_Z 16
_cell_length_a 10.659473
_cell_length_b 8.582611
_cell_length_c 8.076993
_cell_angle_alpha 90.000000
_cell_angle_beta 59.772644
_cell_angle_gamma 90.000000
_cell_volume 638.463348
_symmetry_space_group_name_H-M "P 21"
_symmetry_group_IT_number 4
_symmetry_cell_setting 'monoclinic'
loop_
_space_group_symop_operation_xyz
x,y,z
-x,1/2+y,-z
loop_
_atom_site_type_symbol
_atom_site_label
_atom_site_fract_x
_atom_site_fract_y
_atom_site_fract_z
Si Si1 0.322100 0.648570 0.323347
Si Si2 0.153242 0.945806 0.303495
Si Si3 0.867476 0.904248 0.351635
Si Si4 0.549492 0.217746 0.398472
Si Si5 0.362178 0.175806 0.012957
Si Si6 0.683755 0.527823 0.295302
Si Si7 0.259269 0.482989 0.923600
Si Si8 0.958192 0.549161 0.291506
O O1 0.229375 0.779055 0.285965
O O2 0.229672 0.499365 0.449293
O O3 0.379808 0.713218 0.463691
O O4 0.468400 0.632988 0.117119
O O5 0.050900 0.963013 0.530348
O O6 0.033337 0.969565 0.239622
O O7 0.276239 0.079937 0.209564
O O8 0.792115 0.917048 0.221877
O O9 0.902746 0.723822 0.359264
O O10 0.562640 0.396653 0.344328
O O11 0.392389 0.145102 0.526591
O O12 0.633841 0.119136 0.205962
O O13 0.333537 0.358861 0.999118
O O14 0.291140 0.108737 0.893200
O O15 0.835196 0.466584 0.261458
O O16 0.113830 0.543689 0.105809
#
# Coordination Sequence:
#
# PCOD9117033 Si02
#       8
#     2   2   2   2   2   2   2   2
#     4  10  24  48  72 103 146 188 240 295 367 438
#     4  12  27  48  69 105 148 194 232 300 370 439
#     4  11  26  47  73 105 141 193 243 299 361 434
#     4  10  22  42  73 103 140 181 241 306 357 427
#     4  11  26  47  74 104 145 190 247 302 360 436
#     4  11  22  43  72 105 137 186 245 302 365 424
#     4  11  26  45  74 107 141 188 244 304 356 432
#     4  12  27  42  71 104 146 190 240 294 368 434
#
# _framework density 25.060168999999998
#
# number of rings (size 3 to 8) (size 9 to 14) (size 15 to 20)
#    0.000    1.000    2.500    3.000   10.500    1.000 
#    2.250    0.000    0.000    0.000    0.000    0.000 
#    0.000    0.000    0.000    0.000    0.000    0.000 
#
# Total GULP energy -89471.973364 kJ/mol
# GULP energy per Si atom -5591.998335 kJ/mol
# Density = 2.500313 g / cm^3
# Si number density = 25.060169 Si / 1000 Ang^3
#
#
#
# Elastic Constant Matrix: (Units=GPa)
#
#
# Indices 1 2 3 4 5 6 
#
# 1 94.6020 31.7206 54.2880 0.0000 -18.0289 0.0000
# 2 31.7206 87.2867 31.9668 0.0000 -14.5669 0.0000
# 3 54.2880 31.9668 140.4122 0.0000 -33.3109 0.0000
# 4 0.0000 0.0000 0.0000 28.6614 0.0000 -4.1031
# 5 -18.0289 -14.5669 -33.3109 0.0000 41.9917 0.0000
# 6 0.0000 0.0000 0.0000 -4.1031 0.0000 35.7410
#
#
#
# Elastic Compliance Matrix: (Units=1/GPa)
#
#
# Indices 1 2 3 4 5 6 
#
# 1 0.014584 -0.003398 -0.004507 0.000000 0.001507 0.000000
# 2 -0.003398 0.013518 -0.001229 0.000000 0.002256 0.000000
# 3 -0.004507 -0.001229 0.010574 0.000000 0.006027 0.000000
# 4 0.000000 0.000000 0.000000 0.035473 0.000000 0.004072
# 5 0.001507 0.002256 0.006027 0.000000 0.030025 0.000000
# 6 0.000000 0.000000 0.000000 0.004072 0.000000 0.028447
#
#
# Mechanical properties :
#
#
# Convention : Reuss Voigt Hill
#
# Bulk Modulus (GPa) = 49.00042 62.02797 55.51420
# Shear Modulus (GPa) = 31.70780 34.90053 33.30416
#
# Velocity S-wave (km/s) = 3.56092 3.73590 3.64946
# Velocity P-wave (km/s) = 6.04172 6.58897 6.32127
#
# Compressibility (1/GPa) = 0.02040799
#
# Stress axis : x y z
#
# Youngs Moduli (GPa) = 68.56977 73.97737 94.57060
#
# Poissons Ratio (x) = 0.25134 0.42628
# Poissons Ratio (y) = 0.23297 0.11620
# Poissons Ratio (z) = 0.30908 0.09090
#
# Static dielectric constant tensor:
#      x y z
#    x 2.047710 0.000000 0.018820 
#    y 0.000000 2.005320 0.000000 
#    z 0.018820 0.000000 1.903150 
# 
# From -- ./inp_files/5588.got.cif
#   From: 2010.05.17/outbox.cif.g08.bks.cpg/sg4_3_cif.got.tgz:5588.got - 2010.06.03 18:43:04.
