data_PCOD9117046
_publ_section_title
;
Structure prediction by ZEFSAII (Michael W. Deem and Ramdas Pophale) SiO2 
 PCOD9117046
Probable space group: P 21
;
_chemical_formula_sum "Si O2"
_cell_formula_units_Z 14
_cell_length_a 4.995983
_cell_length_b 19.999898
_cell_length_c 7.002374
_cell_angle_alpha 90.000000
_cell_angle_beta 101.949746
_cell_angle_gamma 90.000000
_cell_volume 684.509093
_symmetry_space_group_name_H-M "P 21"
_symmetry_group_IT_number 4
_symmetry_cell_setting 'monoclinic'
loop_
_space_group_symop_operation_xyz
x,y,z
-x,1/2+y,-z
loop_
_atom_site_type_symbol
_atom_site_label
_atom_site_fract_x
_atom_site_fract_y
_atom_site_fract_z
Si Si1 0.025449 0.920650 0.841306
Si Si2 0.630865 0.918175 0.102199
Si Si3 0.661133 0.635672 0.010730
Si Si4 0.987787 0.200288 0.602196
Si Si5 0.796196 0.836673 0.477117
Si Si6 0.414099 0.210789 0.372215
Si Si7 0.851215 0.046778 0.996725
O O1 0.980238 0.883618 0.636700
O O2 0.335685 0.922744 0.959840
O O3 0.903739 0.996314 0.825978
O O4 0.841546 0.886083 0.980038
O O5 0.629005 0.879084 0.299265
O O6 0.758018 0.992821 0.142523
O O7 0.852197 0.667554 0.200831
O O8 0.397591 0.598177 0.056041
O O9 0.862092 0.583591 0.933220
O O10 0.565070 0.690497 0.843266
O O11 0.031637 0.280540 0.611948
O O12 0.141498 0.181164 0.428281
O O13 0.671803 0.185105 0.530710
O O14 0.614312 0.789860 0.589823
#
# Coordination Sequence:
#
# PCOD9117046 Si02
#       7
#     2   2   2   2   2   2   2
#     4  10  23  43  63  93 123 162 202 258 302 360
#     4  10  23  43  63  93 123 162 202 258 302 360
#     4  12  22  45  62  89 132 156 208 252 298 370
#     4  10  25  41  63  96 119 166 202 253 308 359
#     4  10  26  40  66  94 122 158 214 242 322 352
#     4  10  25  41  63  96 119 166 202 253 308 359
#     4  10  22  43  64  89 124 168 200 248 312 352
#
# _framework density 20.452611999999998
#
# number of rings (size 3 to 8) (size 9 to 14) (size 15 to 20)
#    1.714    0.000    1.429    1.714    6.000    0.000 
#    7.714    0.000    0.000    0.000    0.000    0.000 
#    0.000    0.000    0.000    0.000    0.000    0.000 
#
# Total GULP energy -77943.285496 kJ/mol
# GULP energy per Si atom -5567.377535 kJ/mol
# Density = 2.040606 g / cm^3
# Si number density = 20.452612 Si / 1000 Ang^3
#
#
#
# Elastic Constant Matrix: (Units=GPa)
#
#
# Indices 1 2 3 4 5 6 
#
# 1 91.3969 1.3507 -18.1444 0.0000 6.2625 0.0000
# 2 1.3507 35.7863 0.8067 0.0000 -11.4416 0.0000
# 3 -18.1444 0.8067 29.0777 0.0000 -1.8784 0.0000
# 4 0.0000 0.0000 0.0000 20.4457 0.0000 4.1374
# 5 6.2625 -11.4416 -1.8784 0.0000 15.0303 0.0000
# 6 0.0000 0.0000 0.0000 4.1374 0.0000 14.2489
#
#
#
# Elastic Compliance Matrix: (Units=1/GPa)
#
#
# Indices 1 2 3 4 5 6 
#
# 1 0.012967 -0.002752 0.007746 0.000000 -0.006529 0.000000
# 2 -0.002752 0.037535 -0.000845 0.000000 0.029614 0.000000
# 3 0.007746 -0.000845 0.039315 0.000000 0.001042 0.000000
# 4 0.000000 0.000000 0.000000 0.051963 0.000000 -0.015088
# 5 -0.006529 0.029614 0.001042 0.000000 0.091926 0.000000
# 6 0.000000 0.000000 0.000000 -0.015088 0.000000 0.074562
#
#
# Mechanical properties :
#
#
# Convention : Reuss Voigt Hill
#
# Bulk Modulus (GPa) = 10.19216 13.80966 12.00091
# Shear Modulus (GPa) = 15.02967 21.42815 18.22891
#
# Velocity S-wave (km/s) = 2.71376 3.24033 2.98866
# Velocity P-wave (km/s) = 3.84882 4.55701 4.21780
#
# Compressibility (1/GPa) = 0.09811466
#
# Stress axis : x y z
#
# Youngs Moduli (GPa) = 77.11829 26.64202 25.43568
#
# Poissons Ratio (x) = 0.07331 -0.19702
# Poissons Ratio (y) = 0.21220 0.02150
# Poissons Ratio (z) = -0.59735 0.02252
#
# Static dielectric constant tensor:
#      x y z
#    x 1.733120 0.000000 -0.039000 
#    y 0.000000 1.778860 0.000000 
#    z -0.039000 0.000000 1.692780 
# 
# From -- ./inp_files/628.got.cif
#   From: 2010.05.17/outbox.cif.g08.bks.cpg/sg4_1_cif.got.tgz:628.got - 2010.06.03 18:43:04.
