data_PCOD9117632
_publ_section_title
;
Structure prediction by ZEFSAII (Michael W. Deem and Ramdas Pophale) SiO2 
 PCOD9117632
Probable space group: P 21
;
_chemical_formula_sum "Si O2"
_cell_formula_units_Z 16
_cell_length_a 5.114729
_cell_length_b 16.615173
_cell_length_c 9.421605
_cell_angle_alpha 90.000000
_cell_angle_beta 60.100472
_cell_angle_gamma 90.000000
_cell_volume 694.099641
_symmetry_space_group_name_H-M "P 21"
_symmetry_group_IT_number 4
_symmetry_cell_setting 'monoclinic'
loop_
_space_group_symop_operation_xyz
x,y,z
-x,1/2+y,-z
loop_
_atom_site_type_symbol
_atom_site_label
_atom_site_fract_x
_atom_site_fract_y
_atom_site_fract_z
Si Si1 0.614146 0.150150 0.701228
Si Si2 0.552437 0.165695 0.056031
Si Si3 0.543340 0.980403 0.812831
Si Si4 0.935648 0.573923 0.617162
Si Si5 0.113622 0.515093 0.996281
Si Si6 0.289350 0.301991 0.297978
Si Si7 0.569146 0.289513 0.511981
Si Si8 0.564065 0.968391 0.355975
O O1 0.921403 0.138842 0.528421
O O2 0.473600 0.225354 0.657595
O O3 0.504255 0.057450 0.720255
O O4 0.592298 0.165119 0.875434
O O5 0.479184 0.255533 0.126028
O O6 0.277078 0.116387 0.206808
O O7 0.836703 0.111869 0.034952
O O8 0.623965 0.895924 0.723668
O O9 0.789023 0.997672 0.868259
O O10 0.205998 0.980633 0.964377
O O11 0.186542 0.522373 0.632426
O O12 0.751587 0.514863 0.563415
O O13 0.347227 0.469092 0.833418
O O14 0.411287 0.264635 0.409997
O O15 0.929081 0.294398 0.385889
O O16 0.462953 0.378717 0.581413
#
# Coordination Sequence:
#
# PCOD9117632 Si02
#       8
#     2   2   2   2   2   2   2   2
#     4  11  25  45  75 105 142 191 240 295 355 438
#     4  10  25  48  75 106 146 191 240 302 361 434
#     4  11  24  45  71 104 142 192 239 291 365 432
#     4  11  24  46  75  99 146 184 241 293 368 424
#     4  10  23  43  70 104 139 186 243 290 360 436
#     4  12  27  49  71 107 149 190 238 308 365 423
#     4  12  27  44  70 108 144 187 248 292 368 428
#     4  11  23  44  71 103 140 193 231 305 354 431
#
# _framework density 23.051444
#
# number of rings (size 3 to 8) (size 9 to 14) (size 15 to 20)
#    0.000    1.000    1.250    5.250    5.250    7.000 
#    2.250    0.000    0.000    0.000    0.000    0.000 
#    0.000    0.000    0.000    0.000    0.000    0.000 
#
# Total GULP energy -89335.462572 kJ/mol
# GULP energy per Si atom -5583.466411 kJ/mol
# Density = 2.299898 g / cm^3
# Si number density = 23.051444 Si / 1000 Ang^3
#
#
#
# Elastic Constant Matrix: (Units=GPa)
#
#
# Indices 1 2 3 4 5 6 
#
# 1 99.1403 29.4082 20.9879 0.0000 12.1579 0.0000
# 2 29.4082 132.5886 45.9407 0.0000 5.0125 0.0000
# 3 20.9879 45.9407 116.4677 0.0000 18.7120 0.0000
# 4 0.0000 0.0000 0.0000 42.7704 0.0000 -1.9235
# 5 12.1579 5.0125 18.7120 0.0000 16.3170 0.0000
# 6 0.0000 0.0000 0.0000 -1.9235 0.0000 25.1749
#
#
#
# Elastic Compliance Matrix: (Units=1/GPa)
#
#
# Indices 1 2 3 4 5 6 
#
# 1 0.011759 -0.002340 0.000118 0.000000 -0.008178 0.000000
# 2 -0.002340 0.009234 -0.003733 0.000000 0.003187 0.000000
# 3 0.000118 -0.003733 0.012096 0.000000 -0.012812 0.000000
# 4 0.000000 0.000000 0.000000 0.023461 0.000000 0.001793
# 5 -0.008178 0.003187 -0.012812 0.000000 0.081093 0.000000
# 6 0.000000 0.000000 0.000000 0.001793 0.000000 0.039859
#
#
# Mechanical properties :
#
#
# Convention : Reuss Voigt Hill
#
# Bulk Modulus (GPa) = 47.21685 60.09669 53.65677
# Shear Modulus (GPa) = 25.44913 33.64312 29.54612
#
# Velocity S-wave (km/s) = 3.32628 3.82446 3.58403
# Velocity P-wave (km/s) = 5.93969 6.75494 6.36039
#
# Compressibility (1/GPa) = 0.02117888
#
# Stress axis : x y z
#
# Youngs Moduli (GPa) = 85.04345 108.29585 82.67420
#
# Poissons Ratio (x) = 0.25338 -0.00974
# Poissons Ratio (y) = 0.19898 0.30861
# Poissons Ratio (z) = -0.01002 0.40425
#
# Static dielectric constant tensor:
#      x y z
#    x 1.887480 0.000000 -0.048150 
#    y 0.000000 1.902560 0.000000 
#    z -0.048150 0.000000 1.975500 
# 
# From -- ./inp_files/4969.got.cif
#   From: 2010.05.17/outbox.cif.g08.bks.cpg/sg4_3_cif.got.tgz:4969.got - 2010.06.03 18:43:04.
