data_PCOD9117005
_publ_section_title
;
Structure prediction by ZEFSAII (Michael W. Deem and Ramdas Pophale) SiO2 
 PCOD9117005
Probable space group: P 21
;
_chemical_formula_sum "Si O2"
_cell_formula_units_Z 14
_cell_length_a 9.279882
_cell_length_b 8.832979
_cell_length_c 12.676318
_cell_angle_alpha 90.000000
_cell_angle_beta 36.925265
_cell_angle_gamma 90.000000
_cell_volume 624.242071
_symmetry_space_group_name_H-M "P 21"
_symmetry_group_IT_number 4
_symmetry_cell_setting 'monoclinic'
loop_
_space_group_symop_operation_xyz
x,y,z
-x,1/2+y,-z
loop_
_atom_site_type_symbol
_atom_site_label
_atom_site_fract_x
_atom_site_fract_y
_atom_site_fract_z
Si Si1 0.850026 0.540120 0.591313
Si Si2 0.755922 0.799229 0.799721
Si Si3 0.788707 0.343655 0.172073
Si Si4 0.231664 0.486231 0.814331
Si Si5 0.602597 0.001949 0.715525
Si Si6 0.471101 0.312655 0.845841
Si Si7 0.753345 0.441388 0.426947
O O1 0.727064 0.667378 0.732577
O O2 0.737490 0.377524 0.686629
O O3 0.811555 0.562971 0.487313
O O4 0.122019 0.532023 0.469353
O O5 0.629453 0.944360 0.820099
O O6 0.627361 0.772960 0.983904
O O7 0.039588 0.822935 0.656877
O O8 0.810887 0.163883 0.181902
O O9 0.529068 0.379210 0.277113
O O10 0.803274 0.441587 0.272338
O O11 0.980438 0.396005 0.969997
O O12 0.325630 0.448842 0.877513
O O13 0.462468 0.425485 0.611508
O O14 0.460409 0.158558 0.786534
#
# Coordination Sequence:
#
# PCOD9117005 Si02
#       7
#     2   2   2   2   2   2   2
#     4  10  22  42  69  99 137 185 238 295 345 419
#     4  11  22  44  69 101 138 184 238 289 355 411
#     4  12  26  47  71 105 146 186 238 286 359 418
#     4  11  25  45  72 104 141 188 235 293 342 430
#     4  11  23  40  68 101 138 183 235 290 348 422
#     4  11  22  43  69 100 143 185 234 296 349 415
#     4  10  24  45  72  96 143 185 226 289 350 413
#
# _framework density 22.427198000000001
#
# number of rings (size 3 to 8) (size 9 to 14) (size 15 to 20)
#    0.000    1.143    1.429    6.000    0.000    5.714 
#    2.571    0.000    0.000    0.000    0.000    0.000 
#    0.000    0.000    0.000    0.000    0.000    0.000 
#
# Total GULP energy -77940.664126 kJ/mol
# GULP energy per Si atom -5567.190295 kJ/mol
# Density = 2.237615 g / cm^3
# Si number density = 22.427198 Si / 1000 Ang^3
#
#
#
# Elastic Constant Matrix: (Units=GPa)
#
#
# Indices 1 2 3 4 5 6 
#
# 1 60.2579 7.0191 33.7937 0.0000 -8.7282 0.0000
# 2 7.0191 70.7223 25.2629 0.0000 -1.6694 0.0000
# 3 33.7937 25.2629 95.5032 0.0000 6.9042 0.0000
# 4 0.0000 0.0000 0.0000 30.6661 0.0000 -0.3952
# 5 -8.7282 -1.6694 6.9042 0.0000 20.9001 0.0000
# 6 0.0000 0.0000 0.0000 -0.3952 0.0000 20.0637
#
#
#
# Elastic Compliance Matrix: (Units=1/GPa)
#
#
# Indices 1 2 3 4 5 6 
#
# 1 0.023837 0.001441 -0.009777 0.000000 0.013300 0.000000
# 2 0.001441 0.015850 -0.004956 0.000000 0.003505 0.000000
# 3 -0.009777 -0.004956 0.015946 0.000000 -0.009747 0.000000
# 4 0.000000 0.000000 0.000000 0.032618 0.000000 0.000643
# 5 0.013300 0.003505 -0.009747 0.000000 0.056900 0.000000
# 6 0.000000 0.000000 0.000000 0.000643 0.000000 0.049854
#
#
# Mechanical properties :
#
#
# Convention : Reuss Voigt Hill
#
# Bulk Modulus (GPa) = 34.42549 39.84831 37.13690
# Shear Modulus (GPa) = 21.61950 25.01983 23.31967
#
# Velocity S-wave (km/s) = 3.10818 3.34369 3.22808
# Velocity P-wave (km/s) = 5.31641 5.71956 5.52167
#
# Compressibility (1/GPa) = 0.02904824
#
# Stress axis : x y z
#
# Youngs Moduli (GPa) = 41.95120 63.09216 62.71132
#
# Poissons Ratio (x) = -0.09090 0.61315
# Poissons Ratio (y) = -0.06044 0.31079
# Poissons Ratio (z) = 0.41017 0.31267
#
# Static dielectric constant tensor:
#      x y z
#    x 1.856860 0.000000 -0.061810 
#    y 0.000000 1.862930 0.000000 
#    z -0.061810 0.000000 1.914050 
# 
# From -- ./inp_files/8090.got.cif
#   From: 2010.05.17/outbox.cif.g08.bks.cpg/sg4_5_cif.got.tgz:8090.got - 2010.06.03 18:43:04.
