data_PCOD9117055
_publ_section_title
;
Structure prediction by ZEFSAII (Michael W. Deem and Ramdas Pophale) SiO2 
 PCOD9117055
Probable space group: P 21
;
_chemical_formula_sum "Si O2"
_cell_formula_units_Z 16
_cell_length_a 7.765108
_cell_length_b 15.069787
_cell_length_c 6.935830
_cell_angle_alpha 90.000000
_cell_angle_beta 118.702741
_cell_angle_gamma 90.000000
_cell_volume 711.891237
_symmetry_space_group_name_H-M "P 21"
_symmetry_group_IT_number 4
_symmetry_cell_setting 'monoclinic'
loop_
_space_group_symop_operation_xyz
x,y,z
-x,1/2+y,-z
loop_
_atom_site_type_symbol
_atom_site_label
_atom_site_fract_x
_atom_site_fract_y
_atom_site_fract_z
Si Si1 0.010769 0.354460 0.830437
Si Si2 0.188456 0.165960 0.055853
Si Si3 0.582458 0.091991 0.306471
Si Si4 0.198191 0.849757 0.670816
Si Si5 0.097779 0.664482 0.786874
Si Si6 0.355813 0.570919 0.239222
Si Si7 0.019728 0.982369 0.839147
Si Si8 0.435061 0.437526 0.970404
O O1 0.210022 0.403910 0.860689
O O2 0.844271 0.342199 0.578467
O O3 0.926473 0.415881 0.956520
O O4 0.088883 0.258432 0.942985
O O5 0.420096 0.161021 0.140957
O O6 0.108356 0.080061 0.900868
O O7 0.115988 0.146120 0.237910
O O8 0.796823 0.111048 0.330386
O O9 0.561703 0.109213 0.521831
O O10 0.530636 0.991831 0.209347
O O11 0.104870 0.764394 0.720972
O O12 0.413577 0.862875 0.878941
O O13 0.079068 0.935446 0.677030
O O14 0.236596 0.640717 0.044786
O O15 0.476836 0.514844 0.151517
O O16 0.208912 0.497719 0.251227
#
# Coordination Sequence:
#
# PCOD9117055 Si02
#       8
#     2   2   2   2   2   2   2   2
#     4  11  25  45  66 101 139 179 229 292 346 402
#     4  11  23  45  69  99 139 178 234 283 339 428
#     4  11  22  44  69  98 136 183 223 289 346 401
#     4  12  23  42  71  95 134 186 218 284 357 401
#     4  10  24  42  62 103 133 168 236 276 330 425
#     4   9  22  43  66  96 136 176 221 292 335 399
#     4  10  22  43  65  96 135 172 233 283 331 422
#     4  10  23  44  66 102 136 172 242 277 336 434
#
# _framework density 22.475345999999998
#
# number of rings (size 3 to 8) (size 9 to 14) (size 15 to 20)
#    0.000    1.500    2.500    2.250    5.250    0.000 
#    6.750    0.000    0.000    0.000    0.000    0.000 
#    0.000    0.000    0.000    0.000    0.000    0.000 
#
# Total GULP energy -89186.222077 kJ/mol
# GULP energy per Si atom -5574.138880 kJ/mol
# Density = 2.242419 g / cm^3
# Si number density = 22.475346 Si / 1000 Ang^3
#
#
#
# Elastic Constant Matrix: (Units=GPa)
#
#
# Indices 1 2 3 4 5 6 
#
# 1 57.9543 -0.2151 4.8435 0.0000 2.8115 0.0000
# 2 -0.2151 93.1671 12.9076 0.0000 0.2785 0.0000
# 3 4.8435 12.9076 78.3252 0.0000 -7.7509 0.0000
# 4 0.0000 0.0000 0.0000 23.2228 0.0000 -7.9929
# 5 2.8115 0.2785 -7.7509 0.0000 11.3545 0.0000
# 6 0.0000 0.0000 0.0000 -7.9929 0.0000 34.7339
#
#
#
# Elastic Compliance Matrix: (Units=1/GPa)
#
#
# Indices 1 2 3 4 5 6 
#
# 1 0.017666 0.000291 -0.001688 0.000000 -0.005534 0.000000
# 2 0.000291 0.011017 -0.002003 0.000000 -0.001709 0.000000
# 3 -0.001688 -0.002003 0.014208 0.000000 0.010166 0.000000
# 4 0.000000 0.000000 0.000000 0.046765 0.000000 0.010761
# 5 -0.005534 -0.001709 0.010166 0.000000 0.096422 0.000000
# 6 0.000000 0.000000 0.000000 0.010761 0.000000 0.031267
#
#
# Mechanical properties :
#
#
# Convention : Reuss Voigt Hill
#
# Bulk Modulus (GPa) = 27.70778 29.39098 28.54938
# Shear Modulus (GPa) = 21.17096 27.98962 24.58029
#
# Velocity S-wave (km/s) = 3.07247 3.53278 3.31063
# Velocity P-wave (km/s) = 4.99416 5.45399 5.22913
#
# Compressibility (1/GPa) = 0.03609094
#
# Stress axis : x y z
#
# Youngs Moduli (GPa) = 56.60727 90.77183 70.38463
#
# Poissons Ratio (x) = -0.02643 0.11881
# Poissons Ratio (y) = -0.01648 0.14096
# Poissons Ratio (z) = 0.09555 0.18178
#
# Static dielectric constant tensor:
#      x y z
#    x 1.886250 0.000000 0.024040 
#    y 0.000000 1.843330 0.000000 
#    z 0.024040 0.000000 1.946240 
# 
# From -- ./inp_files/1877.got.cif
#   From: 2010.05.17/outbox.cif.g08.bks.cpg/sg4_1_cif.got.tgz:1877.got - 2010.06.03 18:43:04.
