data_PCOD9117192
_publ_section_title
;
Structure prediction by ZEFSAII (Michael W. Deem and Ramdas Pophale) SiO2 
 PCOD9117192
Probable space group: P 21
;
_chemical_formula_sum "Si O2"
_cell_formula_units_Z 14
_cell_length_a 22.359353
_cell_length_b 5.076923
_cell_length_c 5.138657
_cell_angle_alpha 90.000000
_cell_angle_beta 123.715440
_cell_angle_gamma 90.000000
_cell_volume 485.211117
_symmetry_space_group_name_H-M "P 21"
_symmetry_group_IT_number 4
_symmetry_cell_setting 'monoclinic'
loop_
_space_group_symop_operation_xyz
x,y,z
-x,1/2+y,-z
loop_
_atom_site_type_symbol
_atom_site_label
_atom_site_fract_x
_atom_site_fract_y
_atom_site_fract_z
Si Si1 0.910926 0.782920 0.203522
Si Si2 0.764934 0.561921 0.925801
Si Si3 0.465092 0.763959 0.528255
Si Si4 0.944626 0.276286 0.636858
Si Si5 0.658547 0.057898 0.074260
Si Si6 0.379442 0.069587 0.689633
Si Si7 0.201484 0.742266 0.481854
O O1 0.928737 0.549199 0.451255
O O2 0.969417 0.751676 0.112055
O O3 0.927105 0.052381 0.385002
O O4 0.825816 0.757734 0.960214
O O5 0.682465 0.641745 0.674063
O O6 0.779482 0.318774 0.764679
O O7 0.780047 0.464927 0.253881
O O8 0.385240 0.644419 0.284328
O O9 0.490145 0.992311 0.384892
O O10 0.451997 0.957244 0.739403
O O11 0.617710 0.821434 0.117127
O O12 0.884727 0.221773 0.709792
O O13 0.649800 0.322528 0.220801
O O14 0.744274 0.015657 0.281227
#
# Coordination Sequence:
#
# PCOD9117192 Si02
#       7
#     2   2   2   2   2   2   2
#     4   9  19  38  64  98 141 191 244 302 366 431
#     4  10  22  44  70 105 146 193 246 308 371 442
#     4  12  26  48  76 110 146 192 248 312 388 468
#     4   9  19  38  64  98 141 191 244 302 366 431
#     4  11  25  46  72 107 146 191 245 305 376 451
#     4  11  25  46  72 107 146 191 245 305 376 451
#     4  10  22  44  70 105 146 193 246 308 371 442
#
# _framework density 28.853415999999999
#
# number of rings (size 3 to 8) (size 9 to 14) (size 15 to 20)
#    0.000    1.714    1.429    1.714    0.000   11.429 
#    2.571   12.857    0.000    0.000    0.000    0.000 
#    0.000    0.000    0.000    0.000    0.000    0.000 
#
# Total GULP energy -78374.714937 kJ/mol
# GULP energy per Si atom -5598.193924 kJ/mol
# Density = 2.878774 g / cm^3
# Si number density = 28.853416 Si / 1000 Ang^3
#
#
#
# Elastic Constant Matrix: (Units=GPa)
#
#
# Indices 1 2 3 4 5 6 
#
# 1 153.6960 48.6137 20.5304 0.0000 14.2751 0.0000
# 2 48.6137 154.0630 53.7674 0.0000 4.0503 0.0000
# 3 20.5304 53.7674 72.6161 0.0000 14.0060 0.0000
# 4 0.0000 0.0000 0.0000 42.4555 0.0000 17.1584
# 5 14.2751 4.0503 14.0060 0.0000 30.8674 0.0000
# 6 0.0000 0.0000 0.0000 17.1584 0.0000 57.3408
#
#
#
# Elastic Compliance Matrix: (Units=1/GPa)
#
#
# Indices 1 2 3 4 5 6 
#
# 1 0.007530 -0.002384 0.000272 0.000000 -0.003293 0.000000
# 2 -0.002384 0.009618 -0.007032 0.000000 0.003031 0.000000
# 3 0.000272 -0.007032 0.020545 0.000000 -0.008525 0.000000
# 4 0.000000 0.000000 0.000000 0.026794 0.000000 -0.008018
# 5 -0.003293 0.003031 -0.008525 0.000000 0.037390 0.000000
# 6 0.000000 0.000000 0.000000 -0.008018 0.000000 0.019839
#
#
# Mechanical properties :
#
#
# Convention : Reuss Voigt Hill
#
# Bulk Modulus (GPa) = 51.53618 69.57757 60.55688
# Shear Modulus (GPa) = 34.13600 43.29697 38.71649
#
# Velocity S-wave (km/s) = 3.44333 3.87794 3.66708
# Velocity P-wave (km/s) = 5.80593 6.64964 6.24206
#
# Compressibility (1/GPa) = 0.01940384
#
# Stress axis : x y z
#
# Youngs Moduli (GPa) = 132.80137 103.97665 48.67333
#
# Poissons Ratio (x) = 0.24791 -0.01322
# Poissons Ratio (y) = 0.31663 0.34226
# Poissons Ratio (z) = -0.03606 0.73114
#
# Static dielectric constant tensor:
#      x y z
#    x 2.401830 0.000000 0.129580 
#    y 0.000000 2.175340 0.000000 
#    z 0.129580 0.000000 2.282810 
# 
# From -- ./inp_files/3937.got.cif
#   From: 2010.05.17/outbox.cif.g08.bks.cpg/sg4_2_cif.got.tgz:3937.got - 2010.06.03 18:43:04.
