data_PCOD9117517
_publ_section_title
;
Structure prediction by ZEFSAII (Michael W. Deem and Ramdas Pophale) SiO2 
 PCOD9117517
Probable space group: P 21
;
_chemical_formula_sum "Si O2"
_cell_formula_units_Z 16
_cell_length_a 10.380293
_cell_length_b 4.974799
_cell_length_c 13.855108
_cell_angle_alpha 90.000000
_cell_angle_beta 78.648639
_cell_angle_gamma 90.000000
_cell_volume 701.480292
_symmetry_space_group_name_H-M "P 21"
_symmetry_group_IT_number 4
_symmetry_cell_setting 'monoclinic'
loop_
_space_group_symop_operation_xyz
x,y,z
-x,1/2+y,-z
loop_
_atom_site_type_symbol
_atom_site_label
_atom_site_fract_x
_atom_site_fract_y
_atom_site_fract_z
Si Si1 0.234133 0.487160 0.660614
Si Si2 0.456609 0.454169 0.769424
Si Si3 0.409241 0.194910 0.500028
Si Si4 0.585648 0.843885 0.010473
Si Si5 0.962551 0.548969 0.773563
Si Si6 0.625366 0.932210 0.702978
Si Si7 0.023828 0.691398 0.559732
Si Si8 0.817820 0.043940 0.839612
O O1 0.354872 0.580456 0.707956
O O2 0.294188 0.236123 0.594358
O O3 0.110866 0.439200 0.748908
O O4 0.168130 0.672126 0.587642
O O5 0.389870 0.374539 0.879223
O O6 0.527738 0.187979 0.717914
O O7 0.561877 0.687158 0.772480
O O8 0.472468 0.901847 0.490567
O O9 0.357498 0.303331 0.404905
O O10 0.464432 0.043533 0.002620
O O11 0.709497 0.945397 0.931074
O O12 0.935460 0.584064 0.662110
O O13 0.866940 0.345917 0.840876
O O14 0.940845 0.841671 0.820694
O O15 0.751180 0.025045 0.743711
O O16 0.009765 0.483685 0.474108
#
# Coordination Sequence:
#
# PCOD9117517 Si02
#       8
#     2   2   2   2   2   2   2   2
#     4  10  26  43  66  93 143 170 225 259 337 393
#     4  12  23  46  64 100 131 175 212 278 348 395
#     4  12  24  39  60  94 132 171 215 263 322 391
#     4  12  23  43  71 101 129 169 222 283 343 401
#     4  10  26  40  65  91 137 177 218 264 330 384
#     4  12  24  39  66  97 135 168 222 272 334 385
#     4  10  23  42  62  90 125 181 228 254 311 385
#     4  12  23  44  64 100 128 169 228 275 323 402
#
# _framework density 22.808906
#
# number of rings (size 3 to 8) (size 9 to 14) (size 15 to 20)
#    0.750    0.000    5.000    2.250    3.500    4.000 
#    0.000    1.250    0.000    0.000    0.000    0.000 
#    0.000    0.000    0.000    0.000    0.000    0.000 
#
# Total GULP energy -89409.932504 kJ/mol
# GULP energy per Si atom -5588.120782 kJ/mol
# Density = 2.275699 g / cm^3
# Si number density = 22.808906 Si / 1000 Ang^3
#
#
#
# Elastic Constant Matrix: (Units=GPa)
#
#
# Indices 1 2 3 4 5 6 
#
# 1 56.8319 8.5105 6.9593 0.0000 -3.2423 0.0000
# 2 8.5105 87.8870 1.5870 0.0000 -2.7366 0.0000
# 3 6.9593 1.5870 56.5721 0.0000 -11.3765 0.0000
# 4 0.0000 0.0000 0.0000 24.3189 0.0000 -1.7672
# 5 -3.2423 -2.7366 -11.3765 0.0000 38.4485 0.0000
# 6 0.0000 0.0000 0.0000 -1.7672 0.0000 21.2477
#
#
#
# Elastic Compliance Matrix: (Units=1/GPa)
#
#
# Indices 1 2 3 4 5 6 
#
# 1 0.018143 -0.001695 -0.002021 0.000000 0.000811 0.000000
# 2 -0.001695 0.011563 0.000022 0.000000 0.000687 0.000000
# 3 -0.002021 0.000022 0.019022 0.000000 0.005460 0.000000
# 4 0.000000 0.000000 0.000000 0.041370 0.000000 0.003441
# 5 0.000811 0.000687 0.005460 0.000000 0.027742 0.000000
# 6 0.000000 0.000000 0.000000 0.003441 0.000000 0.047350
#
#
# Mechanical properties :
#
#
# Convention : Reuss Voigt Hill
#
# Bulk Modulus (GPa) = 24.18909 26.15607 25.17258
# Shear Modulus (GPa) = 26.82981 29.08530 27.95756
#
# Velocity S-wave (km/s) = 3.43342 3.57483 3.50484
# Velocity P-wave (km/s) = 5.13284 5.34150 5.23821
#
# Compressibility (1/GPa) = 0.04134096
#
# Stress axis : x y z
#
# Youngs Moduli (GPa) = 55.11650 86.47996 52.56934
#
# Poissons Ratio (x) = 0.14660 0.10625
# Poissons Ratio (y) = 0.09343 -0.00117
# Poissons Ratio (z) = 0.11140 -0.00192
#
# Static dielectric constant tensor:
#      x y z
#    x 1.890140 0.000000 -0.016550 
#    y 0.000000 1.785740 0.000000 
#    z -0.016550 0.000000 1.881400 
# 
# From -- ./inp_files/13591.got.cif
#   From: 2010.05.17/outbox.cif.g08.bks.cpg/sg4_7_cif.got.tgz:13591.got - 2010.06.03 18:43:04.
