data_PCOD9117506
_publ_section_title
;
Structure prediction by ZEFSAII (Michael W. Deem and Ramdas Pophale) SiO2 
 PCOD9117506
Probable space group: P 21
;
_chemical_formula_sum "Si O2"
_cell_formula_units_Z 16
_cell_length_a 5.847976
_cell_length_b 8.665132
_cell_length_c 13.201227
_cell_angle_alpha 90.000000
_cell_angle_beta 62.917783
_cell_angle_gamma 90.000000
_cell_volume 595.604336
_symmetry_space_group_name_H-M "P 21"
_symmetry_group_IT_number 4
_symmetry_cell_setting 'monoclinic'
loop_
_space_group_symop_operation_xyz
x,y,z
-x,1/2+y,-z
loop_
_atom_site_type_symbol
_atom_site_label
_atom_site_fract_x
_atom_site_fract_y
_atom_site_fract_z
Si Si1 0.500957 0.637140 0.628554
Si Si2 0.757076 0.846831 0.725566
Si Si3 0.117469 0.410049 0.793538
Si Si4 0.203574 0.670783 0.521928
Si Si5 0.455659 0.261830 0.023342
Si Si6 0.856406 0.033281 0.986987
Si Si7 0.624288 0.613894 0.175370
Si Si8 0.097566 0.886636 0.370441
O O1 0.560169 0.783841 0.681856
O O2 0.238317 0.558278 0.714103
O O3 0.486383 0.678632 0.513350
O O4 0.694333 0.507778 0.629494
O O5 0.703390 0.752891 0.840311
O O6 0.030535 0.791002 0.625555
O O7 0.639171 0.017798 0.764167
O O8 0.077796 0.477033 0.913811
O O9 0.313075 0.264679 0.769059
O O10 0.907397 0.363604 0.750065
O O11 0.137398 0.731954 0.424951
O O12 0.144147 0.488448 0.542712
O O13 0.742852 0.206192 0.994809
O O14 0.388912 0.434326 0.000019
O O15 0.362528 0.172088 0.943145
O O16 0.112215 0.013789 0.868275
#
# Coordination Sequence:
#
# PCOD9117506 Si02
#       8
#     2   2   2   2   2   2   2   2
#     4  10  23  41  73 101 137 183 236 298 359 426
#     4  11  24  43  68 105 142 188 236 294 359 431
#     4  10  24  43  69 103 142 184 234 302 355 429
#     4  10  25  46  74 103 141 183 236 302 364 431
#     4  11  24  42  66  99 146 185 238 288 351 423
#     4  11  25  42  70 103 143 191 241 289 360 423
#     4  11  27  41  70 106 143 194 238 291 358 440
#     4  10  24  48  74 102 138 184 239 300 368 429
#
# _framework density 26.863471000000001
#
# number of rings (size 3 to 8) (size 9 to 14) (size 15 to 20)
#    0.000    1.500    2.500    0.000   10.500    8.000 
#    0.000    1.250    0.000    0.000    0.000    0.000 
#    0.000    0.000    0.000    0.000    0.000    0.000 
#
# Total GULP energy -89276.474130 kJ/mol
# GULP energy per Si atom -5579.779633 kJ/mol
# Density = 2.680233 g / cm^3
# Si number density = 26.863471 Si / 1000 Ang^3
#
#
#
# Elastic Constant Matrix: (Units=GPa)
#
#
# Indices 1 2 3 4 5 6 
#
# 1 99.1609 40.8559 54.4858 0.0000 38.4983 0.0000
# 2 40.8559 105.4466 43.0803 0.0000 14.0915 0.0000
# 3 54.4858 43.0803 118.4502 0.0000 33.5704 0.0000
# 4 0.0000 0.0000 0.0000 41.1242 0.0000 4.0308
# 5 38.4983 14.0915 33.5704 0.0000 51.8235 0.0000
# 6 0.0000 0.0000 0.0000 4.0308 0.0000 59.1249
#
#
#
# Elastic Compliance Matrix: (Units=1/GPa)
#
#
# Indices 1 2 3 4 5 6 
#
# 1 0.017523 -0.003910 -0.003981 0.000000 -0.009375 0.000000
# 2 -0.003910 0.012021 -0.003026 0.000000 0.001596 0.000000
# 3 -0.003981 -0.003026 0.012620 0.000000 -0.004394 0.000000
# 4 0.000000 0.000000 0.000000 0.024480 0.000000 -0.001669
# 5 -0.009375 0.001596 -0.004394 0.000000 0.028673 0.000000
# 6 0.000000 0.000000 0.000000 -0.001669 0.000000 0.017027
#
#
# Mechanical properties :
#
#
# Convention : Reuss Voigt Hill
#
# Bulk Modulus (GPa) = 49.18917 66.65573 57.92245
# Shear Modulus (GPa) = 35.47212 42.72359 39.09785
#
# Velocity S-wave (km/s) = 3.63775 3.99230 3.81915
# Velocity P-wave (km/s) = 5.99957 6.79102 6.40753
#
# Compressibility (1/GPa) = 0.02032968
#
# Stress axis : x y z
#
# Youngs Moduli (GPa) = 57.06787 83.18512 79.24127
#
# Poissons Ratio (x) = 0.32525 0.31548
# Poissons Ratio (y) = 0.22313 0.23978
# Poissons Ratio (z) = 0.22720 0.25171
#
# Static dielectric constant tensor:
#      x y z
#    x 2.241160 0.000000 -0.014340 
#    y 0.000000 2.149160 0.000000 
#    z -0.014340 0.000000 2.138760 
# 
# From -- ./inp_files/12074.got.cif
#   From: 2010.05.17/outbox.cif.g08.bks.cpg/sg4_7_cif.got.tgz:12074.got - 2010.06.03 18:43:04.
