data_PCOD9117425
_publ_section_title
;
Structure prediction by ZEFSAII (Michael W. Deem and Ramdas Pophale) SiO2 
 PCOD9117425
Probable space group: P 21
;
_chemical_formula_sum "Si O2"
_cell_formula_units_Z 12
_cell_length_a 9.366490
_cell_length_b 4.885778
_cell_length_c 8.955496
_cell_angle_alpha 90.000000
_cell_angle_beta 89.399228
_cell_angle_gamma 90.000000
_cell_volume 409.804170
_symmetry_space_group_name_H-M "P 21"
_symmetry_group_IT_number 4
_symmetry_cell_setting 'monoclinic'
loop_
_space_group_symop_operation_xyz
x,y,z
-x,1/2+y,-z
loop_
_atom_site_type_symbol
_atom_site_label
_atom_site_fract_x
_atom_site_fract_y
_atom_site_fract_z
Si Si1 0.984886 0.776290 0.201874
Si Si2 0.732675 0.167714 0.246255
Si Si3 0.830944 0.414679 0.548543
Si Si4 0.829322 0.765217 0.804056
Si Si5 0.592756 0.547172 0.003097
Si Si6 0.522694 0.343942 0.594308
O O1 0.025995 0.795320 0.378755
O O2 0.054910 0.491709 0.157515
O O3 0.833468 0.922842 0.184050
O O4 0.096413 0.992288 0.134566
O O5 0.815996 0.326674 0.378206
O O6 0.686216 0.393483 0.126980
O O7 0.594005 0.015768 0.313700
O O8 0.819704 0.716023 0.624977
O O9 0.687980 0.289362 0.633059
O O10 0.677018 0.736118 0.882873
O O11 0.484409 0.778602 0.066362
O O12 0.541532 0.555016 0.453740
#
# Coordination Sequence:
#
# PCOD9117425 Si02
#       6
#     2   2   2   2   2   2
#     4  10  25  47  81 114 169 223 272 346 437 521
#     4  11  26  49  85 127 161 227 293 352 428 516
#     4   9  24  45  81 115 166 211 270 351 429 505
#     4  10  24  50  77 111 175 220 268 346 440 506
#     4  12  28  52  84 125 171 227 298 361 421 516
#     4  10  23  39  68 114 162 200 263 336 417 490
#
# _framework density 29.282284000000001
#
# number of rings (size 3 to 8) (size 9 to 14) (size 15 to 20)
#    1.000    0.667    0.000    2.000    4.667   14.667 
#    0.000    3.333    0.000    0.000    4.333    0.000 
#    0.000    0.000    0.000    0.000    0.000    0.000 
#
# Total GULP energy -67115.915865 kJ/mol
# GULP energy per Si atom -5592.992989 kJ/mol
# Density = 2.921564 g / cm^3
# Si number density = 29.282284 Si / 1000 Ang^3
#
#
#
# Elastic Constant Matrix: (Units=GPa)
#
#
# Indices 1 2 3 4 5 6 
#
# 1 167.0801 55.1619 23.4243 0.0000 -8.2707 0.0000
# 2 55.1619 207.7639 68.3059 0.0000 1.3589 0.0000
# 3 23.4243 68.3059 144.0007 0.0000 19.1680 0.0000
# 4 0.0000 0.0000 0.0000 45.2583 0.0000 18.7247
# 5 -8.2707 1.3589 19.1680 0.0000 41.3353 0.0000
# 6 0.0000 0.0000 0.0000 18.7247 0.0000 65.2065
#
#
#
# Elastic Compliance Matrix: (Units=1/GPa)
#
#
# Indices 1 2 3 4 5 6 
#
# 1 0.006672 -0.001604 -0.000543 0.000000 0.001639 0.000000
# 2 -0.001604 0.006138 -0.002751 0.000000 0.000753 0.000000
# 3 -0.000543 -0.002751 0.008889 0.000000 -0.004140 0.000000
# 4 0.000000 0.000000 0.000000 0.025074 0.000000 -0.007200
# 5 0.001639 0.000753 -0.004140 0.000000 0.026416 0.000000
# 6 0.000000 0.000000 0.000000 -0.007200 0.000000 0.017404
#
#
# Mechanical properties :
#
#
# Convention : Reuss Voigt Hill
#
# Bulk Modulus (GPa) = 84.00622 90.29211 87.14916
# Shear Modulus (GPa) = 47.91299 55.15686 51.53492
#
# Velocity S-wave (km/s) = 4.04944 4.34478 4.19971
# Velocity P-wave (km/s) = 7.11440 7.48809 7.30364
#
# Compressibility (1/GPa) = 0.01190388
#
# Stress axis : x y z
#
# Youngs Moduli (GPa) = 149.88327 162.90663 112.50133
#
# Poissons Ratio (x) = 0.26125 0.06107
# Poissons Ratio (y) = 0.24036 0.30951
# Poissons Ratio (z) = 0.08136 0.44818
#
# Static dielectric constant tensor:
#      x y z
#    x 2.342240 0.000000 -0.007660 
#    y 0.000000 2.230190 0.000000 
#    z -0.007660 0.000000 2.657330 
# 
# From -- ./inp_files/13807.got.cif
#   From: 2010.05.17/outbox.cif.g08.bks.cpg/sg4_7_cif.got.tgz:13807.got - 2010.06.03 18:43:04.
