data_PCOD9117708
_publ_section_title
;
Structure prediction by ZEFSAII (Michael W. Deem and Ramdas Pophale) SiO2 
 PCOD9117708
Probable space group: P 21
;
_chemical_formula_sum "Si O2"
_cell_formula_units_Z 16
_cell_length_a 6.789707
_cell_length_b 8.604845
_cell_length_c 15.474633
_cell_angle_alpha 90.000000
_cell_angle_beta 53.552717
_cell_angle_gamma 90.000000
_cell_volume 727.258090
_symmetry_space_group_name_H-M "P 21"
_symmetry_group_IT_number 4
_symmetry_cell_setting 'monoclinic'
loop_
_space_group_symop_operation_xyz
x,y,z
-x,1/2+y,-z
loop_
_atom_site_type_symbol
_atom_site_label
_atom_site_fract_x
_atom_site_fract_y
_atom_site_fract_z
Si Si1 0.421809 0.278690 0.103075
Si Si2 0.862886 0.231414 0.267538
Si Si3 0.254211 0.405621 0.782640
Si Si4 0.714518 0.475710 0.166088
Si Si5 0.323932 0.712384 0.341046
Si Si6 0.369172 0.574099 0.510315
Si Si7 0.729038 0.964094 0.024244
Si Si8 0.839036 0.751639 0.362065
O O1 0.593042 0.389538 0.115945
O O2 0.145560 0.271186 0.212020
O O3 0.548379 0.110821 0.072710
O O4 0.378146 0.343849 0.017893
O O5 0.733226 0.360909 0.243432
O O6 0.726849 0.189279 0.390622
O O7 0.847489 0.074904 0.213935
O O8 0.539521 0.377907 0.681097
O O9 0.243170 0.390532 0.888074
O O10 0.122453 0.290210 0.749294
O O11 0.533111 0.612182 0.239699
O O12 0.996452 0.516194 0.073035
O O13 0.259956 0.628849 0.447298
O O14 0.092903 0.726439 0.341565
O O15 0.657477 0.607250 0.422899
O O16 0.288018 0.403863 0.561923
#
# Coordination Sequence:
#
# PCOD9117708 Si02
#       8
#     2   2   2   2   2   2   2   2
#     4  11  27  44  72 102 131 188 229 289 346 419
#     4  10  23  45  69  98 135 183 231 284 348 413
#     4  10  24  43  68  96 141 175 233 281 340 409
#     4  11  26  45  67 102 143 181 228 293 341 414
#     4  11  26  42  70 107 137 184 231 290 344 415
#     4  10  23  44  69  99 139 176 234 291 346 404
#     4  11  27  45  70 101 138 181 234 286 351 409
#     4  10  24  44  69 101 136 190 226 292 346 413
#
# _framework density 22.000442
#
# number of rings (size 3 to 8) (size 9 to 14) (size 15 to 20)
#    0.000    1.500    1.250    0.750    8.750   10.000 
#    0.000    0.000    0.000    0.000    0.000    0.000 
#    0.000    0.000    0.000    0.000    0.000    0.000 
#
# Total GULP energy -89486.462780 kJ/mol
# GULP energy per Si atom -5592.903924 kJ/mol
# Density = 2.195037 g / cm^3
# Si number density = 22.000442 Si / 1000 Ang^3
#
#
#
# Elastic Constant Matrix: (Units=GPa)
#
#
# Indices 1 2 3 4 5 6 
#
# 1 183.8576 30.9918 42.1925 0.0000 8.6075 0.0000
# 2 30.9918 46.1029 19.8195 0.0000 -3.5679 0.0000
# 3 42.1925 19.8195 90.1227 0.0000 31.2159 0.0000
# 4 0.0000 0.0000 0.0000 30.9642 0.0000 -1.3453
# 5 8.6075 -3.5679 31.2159 0.0000 32.4433 0.0000
# 6 0.0000 0.0000 0.0000 -1.3453 0.0000 26.2691
#
#
#
# Elastic Compliance Matrix: (Units=1/GPa)
#
#
# Indices 1 2 3 4 5 6 
#
# 1 0.006545 -0.003354 -0.002396 0.000000 0.000200 0.000000
# 2 -0.003354 0.028958 -0.009313 0.000000 0.013035 0.000000
# 3 -0.002396 -0.009313 0.021598 0.000000 -0.021170 0.000000
# 4 0.000000 0.000000 0.000000 0.032367 0.000000 0.001658
# 5 0.000200 0.013035 -0.021170 0.000000 0.052572 0.000000
# 6 0.000000 0.000000 0.000000 0.001658 0.000000 0.038152
#
#
# Mechanical properties :
#
#
# Convention : Reuss Voigt Hill
#
# Bulk Modulus (GPa) = 37.07108 56.23231 46.65170
# Shear Modulus (GPa) = 22.79878 33.07396 27.93637
#
# Velocity S-wave (km/s) = 3.22263 3.88149 3.56730
# Velocity P-wave (km/s) = 5.54382 6.76040 6.18211
#
# Compressibility (1/GPa) = 0.02697521
#
# Stress axis : x y z
#
# Youngs Moduli (GPa) = 152.79295 34.53294 46.30040
#
# Poissons Ratio (x) = 0.11584 0.11091
# Poissons Ratio (y) = 0.51252 0.43119
# Poissons Ratio (z) = 0.36602 0.32160
#
# Static dielectric constant tensor:
#      x y z
#    x 1.758610 0.000000 0.015480 
#    y 0.000000 1.856440 0.000000 
#    z 0.015480 0.000000 1.798840 
# 
# From -- ./inp_files/11950.got.cif
#   From: 2010.05.17/outbox.cif.g08.bks.cpg/sg4_6_cif.got.tgz:11950.got - 2010.06.03 18:43:04.
