data_PCOD9117826
_publ_section_title
;
Structure prediction by ZEFSAII (Michael W. Deem and Ramdas Pophale) SiO2 
 PCOD9117826
Probable space group: P 21
;
_chemical_formula_sum "Si O2"
_cell_formula_units_Z 14
_cell_length_a 12.244401
_cell_length_b 9.121283
_cell_length_c 5.117758
_cell_angle_alpha 90.000000
_cell_angle_beta 93.616799
_cell_angle_gamma 90.000000
_cell_volume 570.436574
_symmetry_space_group_name_H-M "P 21"
_symmetry_group_IT_number 4
_symmetry_cell_setting 'monoclinic'
loop_
_space_group_symop_operation_xyz
x,y,z
-x,1/2+y,-z
loop_
_atom_site_type_symbol
_atom_site_label
_atom_site_fract_x
_atom_site_fract_y
_atom_site_fract_z
Si Si1 0.513672 0.917020 0.560463
Si Si2 0.650425 0.984928 0.067151
Si Si3 0.862968 0.367556 0.518551
Si Si4 0.324991 0.034541 0.824297
Si Si5 0.343249 0.784820 0.214768
Si Si6 0.830174 0.789465 0.173784
Si Si7 0.049826 0.179533 0.305847
O O1 0.590123 0.897611 0.823421
O O2 0.423671 0.037812 0.636791
O O3 0.430312 0.787813 0.462909
O O4 0.591974 0.953689 0.331758
O O5 0.638287 0.152195 0.975726
O O6 0.779518 0.947599 0.112718
O O7 0.778421 0.447820 0.311879
O O8 0.781627 0.288710 0.707456
O O9 0.932708 0.503623 0.655002
O O10 0.936087 0.248928 0.381701
O O11 0.276396 0.188998 0.889206
O O12 0.362633 0.938982 0.073468
O O13 0.867654 0.757063 0.473661
O O14 0.919432 0.732857 0.980030
#
# Coordination Sequence:
#
# PCOD9117826 Si02
#       7
#     2   2   2   2   2   2   2
#     4  11  26  44  68 103 139 185 230 278 353 406
#     4  12  28  42  72 105 139 183 235 291 341 419
#     4  10  25  44  73 104 138 184 232 289 351 414
#     4  10  23  46  72  97 144 182 228 287 347 421
#     4  11  25  46  70 107 140 181 235 292 346 412
#     4  11  26  46  66 102 139 182 231 286 347 410
#     4  11  25  46  73 100 137 187 229 287 353 412
#
# _framework density 24.542608999999999
#
# number of rings (size 3 to 8) (size 9 to 14) (size 15 to 20)
#    0.000    1.143    2.857    0.857   10.000    2.286 
#    0.000    0.000    0.000    0.000    0.000    0.000 
#    0.000    0.000    0.000    0.000    0.000    0.000 
#
# Total GULP energy -78350.642662 kJ/mol
# GULP energy per Si atom -5596.474476 kJ/mol
# Density = 2.448675 g / cm^3
# Si number density = 24.542609 Si / 1000 Ang^3
#
#
#
# Elastic Constant Matrix: (Units=GPa)
#
#
# Indices 1 2 3 4 5 6 
#
# 1 88.2908 32.3423 26.3630 0.0000 -26.6840 0.0000
# 2 32.3423 46.6179 12.0682 0.0000 -5.0046 0.0000
# 3 26.3630 12.0682 103.9146 0.0000 -24.7868 0.0000
# 4 0.0000 0.0000 0.0000 24.9227 0.0000 -3.7194
# 5 -26.6840 -5.0046 -24.7868 0.0000 53.4903 0.0000
# 6 0.0000 0.0000 0.0000 -3.7194 0.0000 36.0115
#
#
#
# Elastic Compliance Matrix: (Units=1/GPa)
#
#
# Indices 1 2 3 4 5 6 
#
# 1 0.018174 -0.011427 -0.001547 0.000000 0.007280 0.000000
# 2 -0.011427 0.029347 -0.001365 0.000000 -0.003587 0.000000
# 3 -0.001547 -0.001365 0.011197 0.000000 0.004289 0.000000
# 4 0.000000 0.000000 0.000000 0.040752 0.000000 0.004209
# 5 0.007280 -0.003587 0.004289 0.000000 0.023979 0.000000
# 6 0.000000 0.000000 0.000000 0.004209 0.000000 0.028204
#
#
# Mechanical properties :
#
#
# Convention : Reuss Voigt Hill
#
# Bulk Modulus (GPa) = 33.28790 42.26337 37.77564
# Shear Modulus (GPa) = 26.26815 34.08821 30.17818
#
# Velocity S-wave (km/s) = 3.27511 3.73089 3.51040
# Velocity P-wave (km/s) = 5.28153 5.98475 5.64410
#
# Compressibility (1/GPa) = 0.03004094
#
# Stress axis : x y z
#
# Youngs Moduli (GPa) = 55.02268 34.07519 89.30621
#
# Poissons Ratio (x) = 0.38937 0.13817
# Poissons Ratio (y) = 0.62873 0.12189
# Poissons Ratio (z) = 0.08513 0.04651
#
# Static dielectric constant tensor:
#      x y z
#    x 1.949850 0.000000 0.026110 
#    y 0.000000 2.010720 0.000000 
#    z 0.026110 0.000000 1.915440 
# 
# From -- ./inp_files/2473.got.cif
#   From: 2010.05.17/outbox.cif.g08.bks.cpg/sg4_2_cif.got.tgz:2473.got - 2010.06.03 18:43:04.
