data_PCOD9117209
_publ_section_title
;
Structure prediction by ZEFSAII (Michael W. Deem and Ramdas Pophale) SiO2 
 PCOD9117209
Probable space group: P 21
;
_chemical_formula_sum "Si O2"
_cell_formula_units_Z 16
_cell_length_a 9.585771
_cell_length_b 9.416342
_cell_length_c 17.825107
_cell_angle_alpha 90.000000
_cell_angle_beta 154.487209
_cell_angle_gamma 90.000000
_cell_volume 692.993210
_symmetry_space_group_name_H-M "P 21"
_symmetry_group_IT_number 4
_symmetry_cell_setting 'monoclinic'
loop_
_space_group_symop_operation_xyz
x,y,z
-x,1/2+y,-z
loop_
_atom_site_type_symbol
_atom_site_label
_atom_site_fract_x
_atom_site_fract_y
_atom_site_fract_z
Si Si1 0.295685 0.616780 0.749682
Si Si2 0.429105 0.759705 0.361804
Si Si3 0.619867 0.470966 0.421913
Si Si4 0.618581 0.046883 0.374337
Si Si5 0.382832 0.561586 0.015063
Si Si6 0.282438 0.231612 0.337627
Si Si7 0.702340 0.424111 0.300454
Si Si8 0.279638 0.254783 0.916449
O O1 0.473170 0.574158 0.757543
O O2 0.169067 0.777454 0.672467
O O3 0.999614 0.507896 0.622916
O O4 0.534872 0.652485 0.934072
O O5 0.456592 0.621098 0.324843
O O6 0.656557 0.724688 0.544085
O O7 0.082580 0.773058 0.232317
O O8 0.493007 0.895921 0.343074
O O9 0.391419 0.392904 0.370932
O O10 0.610518 0.386399 0.339986
O O11 0.512352 0.147043 0.391367
O O12 0.006306 0.035375 0.557091
O O13 0.412403 0.415819 0.981014
O O14 0.066115 0.658624 0.847245
O O15 0.415730 0.493915 0.113505
O O16 0.674252 0.669026 0.137689
#
# Coordination Sequence:
#
# PCOD9117209 Si02
#       8
#     2   2   2   2   2   2   2   2
#     4  10  22  44  72 100 142 182 232 290 349 425
#     4  12  25  43  67 107 142 187 235 292 350 425
#     4  11  24  43  71 103 136 189 236 291 354 418
#     4  11  22  44  70 102 137 188 232 289 352 420
#     4  11  26  46  70 104 143 187 235 296 357 419
#     4  12  25  43  72 102 142 186 239 289 351 424
#     4  10  22  45  70 100 142 181 234 288 352 423
#     4  11  26  46  70 104 142 186 235 299 355 420
#
# _framework density 23.088248
#
# number of rings (size 3 to 8) (size 9 to 14) (size 15 to 20)
#    0.000    1.000    3.750    2.250    5.250    1.000 
#    2.250    0.000    0.000    0.000    0.000    0.000 
#    0.000    0.000    0.000    0.000    0.000    0.000 
#
# Total GULP energy -89254.285317 kJ/mol
# GULP energy per Si atom -5578.392832 kJ/mol
# Density = 2.303570 g / cm^3
# Si number density = 23.088248 Si / 1000 Ang^3
#
#
#
# Elastic Constant Matrix: (Units=GPa)
#
#
# Indices 1 2 3 4 5 6 
#
# 1 97.0234 26.4639 17.7492 0.0000 -0.9537 0.0000
# 2 26.4639 89.9968 33.0476 0.0000 0.9849 0.0000
# 3 17.7492 33.0476 55.0029 0.0000 -7.7503 0.0000
# 4 0.0000 0.0000 0.0000 29.4200 0.0000 10.7017
# 5 -0.9537 0.9849 -7.7503 0.0000 26.7381 0.0000
# 6 0.0000 0.0000 0.0000 10.7017 0.0000 60.2956
#
#
#
# Elastic Compliance Matrix: (Units=1/GPa)
#
#
# Indices 1 2 3 4 5 6 
#
# 1 0.011398 -0.002557 -0.002159 0.000000 -0.000125 0.000000
# 2 -0.002557 0.015088 -0.008686 0.000000 -0.003165 0.000000
# 3 -0.002159 -0.008686 0.025158 0.000000 0.007535 0.000000
# 4 0.000000 0.000000 0.000000 0.036336 0.000000 -0.006449
# 5 -0.000125 -0.003165 0.007535 0.000000 0.039696 0.000000
# 6 0.000000 0.000000 0.000000 -0.006449 0.000000 0.017730
#
#
# Mechanical properties :
#
#
# Convention : Reuss Voigt Hill
#
# Bulk Modulus (GPa) = 40.25918 44.06052 42.15985
# Shear Modulus (GPa) = 27.70228 34.27490 30.98859
#
# Velocity S-wave (km/s) = 3.46763 3.85712 3.66755
# Velocity P-wave (km/s) = 5.78857 6.24191 6.01951
#
# Compressibility (1/GPa) = 0.02483905
#
# Stress axis : x y z
#
# Youngs Moduli (GPa) = 87.73384 66.27925 39.74862
#
# Poissons Ratio (x) = 0.16950 0.08582
# Poissons Ratio (y) = 0.22437 0.34525
# Poissons Ratio (z) = 0.18943 0.57569
#
# Static dielectric constant tensor:
#      x y z
#    x 1.855320 0.000000 -0.009380 
#    y 0.000000 1.912190 0.000000 
#    z -0.009380 0.000000 1.917660 
# 
# From -- ./inp_files/14976.got.cif
#   From: 2010.05.17/outbox.cif.g08.bks.cpg/sg4_8_cif.got.tgz:14976.got - 2010.06.03 18:43:04.
