data_PCOD9117975
_publ_section_title
;
Structure prediction by ZEFSAII (Michael W. Deem and Ramdas Pophale) SiO2 
 PCOD9117975
Probable space group: P 21
;
_chemical_formula_sum "Si O2"
_cell_formula_units_Z 12
_cell_length_a 7.560722
_cell_length_b 7.786186
_cell_length_c 9.360494
_cell_angle_alpha 90.000000
_cell_angle_beta 60.134122
_cell_angle_gamma 90.000000
_cell_volume 477.862345
_symmetry_space_group_name_H-M "P 21"
_symmetry_group_IT_number 4
_symmetry_cell_setting 'monoclinic'
loop_
_space_group_symop_operation_xyz
x,y,z
-x,1/2+y,-z
loop_
_atom_site_type_symbol
_atom_site_label
_atom_site_fract_x
_atom_site_fract_y
_atom_site_fract_z
Si Si1 0.156777 0.482700 0.798272
Si Si2 0.255886 0.379169 0.290491
Si Si3 0.617712 0.400673 0.583100
Si Si4 0.396123 0.051276 0.695251
Si Si5 0.163960 0.247920 0.040765
Si Si6 0.058549 0.758043 0.357025
O O1 0.399577 0.490308 0.692826
O O2 0.038329 0.657041 0.821630
O O3 0.060277 0.341569 0.728819
O O4 0.109811 0.418479 0.976592
O O5 0.458093 0.404736 0.301598
O O6 0.299996 0.292452 0.121631
O O7 0.157435 0.569289 0.302828
O O8 0.098265 0.269413 0.447691
O O9 0.547674 0.204459 0.585260
O O10 0.713998 0.484350 0.402842
O O11 0.759634 0.385857 0.664189
O O12 0.273901 0.129544 0.878034
#
# Coordination Sequence:
#
# PCOD9117975 Si02
#       6
#     2   2   2   2   2   2
#     4  11  24  46  67 108 144 193 236 294 361 423
#     4  11  24  45  72 109 145 187 241 295 358 429
#     4  10  24  42  71 103 138 186 242 287 347 427
#     4  10  24  45  70 107 143 187 239 291 357 424
#     4  11  26  43  73 105 151 188 235 300 366 419
#     4  11  24  43  75 104 143 191 243 293 351 430
#
# _framework density 25.111836
#
# number of rings (size 3 to 8) (size 9 to 14) (size 15 to 20)
#    0.000    1.333    1.667    2.000    9.333    5.333 
#    0.000    1.667    0.000    0.000    0.000    0.000 
#    0.000    0.000    0.000    0.000    0.000    0.000 
#
# Total GULP energy -67197.725815 kJ/mol
# GULP energy per Si atom -5599.810485 kJ/mol
# Density = 2.505468 g / cm^3
# Si number density = 25.111836 Si / 1000 Ang^3
#
#
#
# Elastic Constant Matrix: (Units=GPa)
#
#
# Indices 1 2 3 4 5 6 
#
# 1 96.3178 9.1649 17.3381 0.0000 6.4057 0.0000
# 2 9.1649 57.5630 30.6911 0.0000 -9.4220 0.0000
# 3 17.3381 30.6911 103.6293 0.0000 19.8447 0.0000
# 4 0.0000 0.0000 0.0000 56.2358 0.0000 3.3515
# 5 6.4057 -9.4220 19.8447 0.0000 26.7626 0.0000
# 6 0.0000 0.0000 0.0000 3.3515 0.0000 35.0889
#
#
#
# Elastic Compliance Matrix: (Units=1/GPa)
#
#
# Indices 1 2 3 4 5 6 
#
# 1 0.010865 -0.001727 -0.000806 0.000000 -0.002611 0.000000
# 2 -0.001727 0.026398 -0.010942 0.000000 0.017820 0.000000
# 3 -0.000806 -0.010942 0.015997 0.000000 -0.015521 0.000000
# 4 0.000000 0.000000 0.000000 0.017884 0.000000 -0.001708
# 5 -0.002611 0.017820 -0.015521 0.000000 0.055774 0.000000
# 6 0.000000 0.000000 0.000000 -0.001708 0.000000 0.028662
#
#
# Mechanical properties :
#
#
# Convention : Reuss Voigt Hill
#
# Bulk Modulus (GPa) = 38.00805 41.32204 39.66504
# Shear Modulus (GPa) = 26.13676 36.97187 31.55432
#
# Velocity S-wave (km/s) = 3.22967 3.84120 3.54863
# Velocity P-wave (km/s) = 5.39222 6.01366 5.71140
#
# Compressibility (1/GPa) = 0.02631021
#
# Stress axis : x y z
#
# Youngs Moduli (GPa) = 92.03489 37.88170 62.50984
#
# Poissons Ratio (x) = 0.06544 0.05040
# Poissons Ratio (y) = 0.15898 0.68396
# Poissons Ratio (z) = 0.07421 0.41449
#
# Static dielectric constant tensor:
#      x y z
#    x 2.017400 0.000000 -0.055000 
#    y 0.000000 2.021740 0.000000 
#    z -0.055000 0.000000 1.960700 
# 
# From -- ./inp_files/5342.got.cif
#   From: 2010.05.17/outbox.cif.g08.bks.cpg/sg4_3_cif.got.tgz:5342.got - 2010.06.03 18:43:04.
