data_PCOD9117369
_publ_section_title
;
Structure prediction by ZEFSAII (Michael W. Deem and Ramdas Pophale) SiO2 
 PCOD9117369
Probable space group: P 21
;
_chemical_formula_sum "Si O2"
_cell_formula_units_Z 10
_cell_length_a 7.615330
_cell_length_b 5.197852
_cell_length_c 10.367362
_cell_angle_alpha 90.000000
_cell_angle_beta 81.044515
_cell_angle_gamma 90.000000
_cell_volume 405.372361
_symmetry_space_group_name_H-M "P 21"
_symmetry_group_IT_number 4
_symmetry_cell_setting 'monoclinic'
loop_
_space_group_symop_operation_xyz
x,y,z
-x,1/2+y,-z
loop_
_atom_site_type_symbol
_atom_site_label
_atom_site_fract_x
_atom_site_fract_y
_atom_site_fract_z
Si Si1 0.069976 0.330910 0.749713
Si Si2 0.552628 0.810423 0.569042
Si Si3 0.430184 0.140376 0.816171
Si Si4 0.271631 0.989492 0.104573
Si Si5 0.900743 0.819653 0.676666
O O1 0.263897 0.304579 0.784076
O O2 0.035022 0.581129 0.667313
O O3 0.922152 0.358067 0.881079
O O4 0.007262 0.079529 0.680642
O O5 0.506323 0.029894 0.469893
O O6 0.460056 0.917840 0.708470
O O7 0.761634 0.809552 0.577200
O O8 0.603315 0.318079 0.816896
O O9 0.370690 0.026722 0.960070
O O10 0.222009 0.255795 0.182317
#
# Coordination Sequence:
#
# PCOD9117369 Si02
#       5
#     2   2   2   2   2
#     4  10  25  44  72 111 146 176 234 301 362 433
#     4  12  25  47  74 103 143 196 249 294 341 425
#     4  12  25  45  78 108 140 205 228 288 383 412
#     4  10  25  42  74 110 150 174 236 302 348 457
#     4  10  22  48  68 104 151 175 229 311 350 409
#
# _framework density 24.668676999999999
#
# number of rings (size 3 to 8) (size 9 to 14) (size 15 to 20)
#    1.200    0.000    2.000    3.600    2.800    4.800 
#    0.000    4.000    0.000    0.000    0.000    0.000 
#    0.000    0.000    0.000    0.000    0.000    0.000 
#
# Total GULP energy -56013.441929 kJ/mol
# GULP energy per Si atom -5601.344193 kJ/mol
# Density = 2.461253 g / cm^3
# Si number density = 24.668677 Si / 1000 Ang^3
#
#
#
# Elastic Constant Matrix: (Units=GPa)
#
#
# Indices 1 2 3 4 5 6 
#
# 1 96.7179 7.8531 17.7140 0.0000 4.8320 0.0000
# 2 7.8531 100.1258 4.9933 0.0000 9.2533 0.0000
# 3 17.7140 4.9933 93.6593 0.0000 -9.9370 0.0000
# 4 0.0000 0.0000 0.0000 35.6093 0.0000 9.7781
# 5 4.8320 9.2533 -9.9370 0.0000 43.4008 0.0000
# 6 0.0000 0.0000 0.0000 9.7781 0.0000 42.2957
#
#
#
# Elastic Compliance Matrix: (Units=1/GPa)
#
#
# Indices 1 2 3 4 5 6 
#
# 1 0.010868 -0.000597 -0.002192 0.000000 -0.001585 0.000000
# 2 -0.000597 0.010279 -0.000677 0.000000 -0.002280 0.000000
# 3 -0.002192 -0.000677 0.011447 0.000000 0.003009 0.000000
# 4 0.000000 0.000000 0.000000 0.029986 0.000000 -0.006932
# 5 -0.001585 -0.002280 0.003009 0.000000 0.024393 0.000000
# 6 0.000000 0.000000 0.000000 -0.006932 0.000000 0.025246
#
#
# Mechanical properties :
#
#
# Convention : Reuss Voigt Hill
#
# Bulk Modulus (GPa) = 38.96686 39.06930 39.01808
# Shear Modulus (GPa) = 39.15305 41.59067 40.37186
#
# Velocity S-wave (km/s) = 3.98824 4.11051 4.04984
# Velocity P-wave (km/s) = 6.08592 6.19681 6.14161
#
# Compressibility (1/GPa) = 0.02566283
#
# Stress axis : x y z
#
# Youngs Moduli (GPa) = 92.00977 97.28846 87.35979
#
# Poissons Ratio (x) = 0.05805 0.19148
# Poissons Ratio (y) = 0.05490 0.05915
# Poissons Ratio (z) = 0.20167 0.06587
#
# Static dielectric constant tensor:
#      x y z
#    x 1.934200 0.000000 -0.050620 
#    y 0.000000 1.920910 0.000000 
#    z -0.050620 0.000000 1.990010 
# 
# From -- ./inp_files/5109.got.cif
#   From: 2010.05.17/outbox.cif.g08.bks.cpg/sg4_3_cif.got.tgz:5109.got - 2010.06.03 18:43:04.
