data_PCOD9117289
_publ_section_title
;
Structure prediction by ZEFSAII (Michael W. Deem and Ramdas Pophale) SiO2 
 PCOD9117289
Probable space group: P 21
;
_chemical_formula_sum "Si O2"
_cell_formula_units_Z 12
_cell_length_a 9.071408
_cell_length_b 7.428879
_cell_length_c 10.170017
_cell_angle_alpha 90.000000
_cell_angle_beta 136.625243
_cell_angle_gamma 90.000000
_cell_volume 470.683847
_symmetry_space_group_name_H-M "P 21"
_symmetry_group_IT_number 4
_symmetry_cell_setting 'monoclinic'
loop_
_space_group_symop_operation_xyz
x,y,z
-x,1/2+y,-z
loop_
_atom_site_type_symbol
_atom_site_label
_atom_site_fract_x
_atom_site_fract_y
_atom_site_fract_z
Si Si1 0.744760 0.318620 0.214454
Si Si2 0.888561 0.929494 0.726953
Si Si3 0.944102 0.289867 0.917414
Si Si4 0.439472 0.038381 0.362410
Si Si5 0.587551 0.431866 0.364685
Si Si6 0.708517 0.966109 0.045909
O O1 0.775031 0.373990 0.386208
O O2 0.488449 0.348348 0.022503
O O3 0.905989 0.435780 0.232908
O O4 0.784795 0.113777 0.198148
O O5 0.867018 0.104899 0.804908
O O6 0.667334 0.932540 0.504067
O O7 0.935149 0.774072 0.864685
O O8 0.748388 0.423130 0.824058
O O9 0.099377 0.365668 0.903295
O O10 0.486497 0.235955 0.336207
O O11 0.375510 0.029413 0.475429
O O12 0.427391 0.543984 0.167017
#
# Coordination Sequence:
#
# PCOD9117289 Si02
#       6
#     2   2   2   2   2   2
#     4  10  24  44  73 106 148 188 244 302 366 434
#     4  12  25  45  74 107 147 190 243 308 362 439
#     4  12  25  42  77 105 145 196 243 297 368 439
#     4  12  25  48  72 106 147 188 251 298 358 446
#     4  10  25  48  67 108 143 191 246 293 371 422
#     4  10  22  45  71 106 146 191 245 292 369 438
#
# _framework density 25.494817000000001
#
# number of rings (size 3 to 8) (size 9 to 14) (size 15 to 20)
#    1.000    0.000    3.333    3.000    4.667    0.000 
#    3.000    0.000    0.000    0.000    0.000    0.000 
#    0.000    0.000    0.000    0.000    0.000    0.000 
#
# Total GULP energy -67061.305477 kJ/mol
# GULP energy per Si atom -5588.442123 kJ/mol
# Density = 2.543679 g / cm^3
# Si number density = 25.494817 Si / 1000 Ang^3
#
#
#
# Elastic Constant Matrix: (Units=GPa)
#
#
# Indices 1 2 3 4 5 6 
#
# 1 197.1281 28.2626 21.2136 0.0000 8.0211 0.0000
# 2 28.2626 82.7666 10.9337 0.0000 4.1665 0.0000
# 3 21.2136 10.9337 89.2139 0.0000 16.4563 0.0000
# 4 0.0000 0.0000 0.0000 30.1633 0.0000 -5.4201
# 5 8.0211 4.1665 16.4563 0.0000 37.7686 0.0000
# 6 0.0000 0.0000 0.0000 -5.4201 0.0000 45.7273
#
#
#
# Elastic Compliance Matrix: (Units=1/GPa)
#
#
# Indices 1 2 3 4 5 6 
#
# 1 0.005445 -0.001702 -0.000987 0.000000 -0.000539 0.000000
# 2 -0.001702 0.012833 -0.001059 0.000000 -0.000593 0.000000
# 3 -0.000987 -0.001059 0.012519 0.000000 -0.005128 0.000000
# 4 0.000000 0.000000 0.000000 0.033874 0.000000 0.004015
# 5 -0.000539 -0.000593 -0.005128 0.000000 0.028891 0.000000
# 6 0.000000 0.000000 0.000000 0.004015 0.000000 0.022345
#
#
# Mechanical properties :
#
#
# Convention : Reuss Voigt Hill
#
# Bulk Modulus (GPa) = 42.91350 54.43651 48.67501
# Shear Modulus (GPa) = 38.11845 43.31174 40.71509
#
# Velocity S-wave (km/s) = 3.87091 4.12618 4.00058
# Velocity P-wave (km/s) = 6.07020 6.64069 6.36184
#
# Compressibility (1/GPa) = 0.02330269
#
# Stress axis : x y z
#
# Youngs Moduli (GPa) = 183.65647 77.92400 79.87603
#
# Poissons Ratio (x) = 0.13261 0.07882
# Poissons Ratio (y) = 0.31255 0.08457
# Poissons Ratio (z) = 0.18123 0.08250
#
# Static dielectric constant tensor:
#      x y z
#    x 2.019670 0.000000 0.049440 
#    y 0.000000 2.051850 0.000000 
#    z 0.049440 0.000000 2.035390 
# 
# From -- ./inp_files/11096.got.cif
#   From: 2010.05.17/outbox.cif.g08.bks.cpg/sg4_6_cif.got.tgz:11096.got - 2010.06.03 18:43:04.
