data_PCOD9117234
_publ_section_title
;
Structure prediction by ZEFSAII (Michael W. Deem and Ramdas Pophale) SiO2 
 PCOD9117234
Probable space group: P 21
;
_chemical_formula_sum "Si O2"
_cell_formula_units_Z 10
_cell_length_a 7.634568
_cell_length_b 5.102355
_cell_length_c 13.752219
_cell_angle_alpha 90.000000
_cell_angle_beta 125.238280
_cell_angle_gamma 90.000000
_cell_volume 437.544434
_symmetry_space_group_name_H-M "P 21"
_symmetry_group_IT_number 4
_symmetry_cell_setting 'monoclinic'
loop_
_space_group_symop_operation_xyz
x,y,z
-x,1/2+y,-z
loop_
_atom_site_type_symbol
_atom_site_label
_atom_site_fract_x
_atom_site_fract_y
_atom_site_fract_z
Si Si1 0.373063 0.546300 0.497622
Si Si2 0.926963 0.860130 0.917762
Si Si3 0.577607 0.900547 0.084233
Si Si4 0.423772 0.003164 0.244575
Si Si5 0.044594 0.710482 0.242508
O O1 0.458672 0.274939 0.479046
O O2 0.383812 0.527821 0.617384
O O3 0.148296 0.621955 0.376894
O O4 0.681991 0.780636 0.818795
O O5 0.033766 0.599078 0.995810
O O6 0.015333 0.962202 0.843903
O O7 0.481017 0.873565 0.161225
O O8 0.833272 0.882349 0.179574
O O9 0.498938 0.668507 0.989225
O O10 0.237151 0.854262 0.245456
#
# Coordination Sequence:
#
# PCOD9117234 Si02
#       5
#     2   2   2   2   2
#     4  10  22  44  76 104 132 188 248 286 352 432
#     4  12  24  38  76 102 138 194 232 280 366 416
#     4  12  32  44  70 112 148 186 244 292 360 438
#     4  11  26  48  74 104 142 194 234 305 349 431
#     4  11  26  48  74 104 142 194 234 305 349 431
#
# _framework density 22.854818000000002
#
# number of rings (size 3 to 8) (size 9 to 14) (size 15 to 20)
#    0.000    0.800    4.000    1.200   11.200    0.000 
#    0.000   10.000    0.000    0.000    0.000    0.000 
#    0.000    0.000    0.000    0.000    0.000    0.000 
#
# Total GULP energy -55977.368105 kJ/mol
# GULP energy per Si atom -5597.736810 kJ/mol
# Density = 2.280280 g / cm^3
# Si number density = 22.854818 Si / 1000 Ang^3
#
#
#
# Elastic Constant Matrix: (Units=GPa)
#
#
# Indices 1 2 3 4 5 6 
#
# 1 82.0865 2.5742 20.6238 0.0000 -8.2819 0.0000
# 2 2.5742 107.9137 11.2889 0.0000 -13.1660 0.0000
# 3 20.6238 11.2889 150.0377 0.0000 -27.4959 0.0000
# 4 0.0000 0.0000 0.0000 26.9038 0.0000 2.6384
# 5 -8.2819 -13.1660 -27.4959 0.0000 29.6759 0.0000
# 6 0.0000 0.0000 0.0000 2.6384 0.0000 22.4591
#
#
#
# Elastic Compliance Matrix: (Units=1/GPa)
#
#
# Indices 1 2 3 4 5 6 
#
# 1 0.012752 0.000126 -0.001325 0.000000 0.002387 0.000000
# 2 0.000126 0.009799 0.000059 0.000000 0.004437 0.000000
# 3 -0.001325 0.000059 0.008166 0.000000 0.007223 0.000000
# 4 0.000000 0.000000 0.000000 0.037603 0.000000 -0.004417
# 5 0.002387 0.004437 0.007223 0.000000 0.043024 0.000000
# 6 0.000000 0.000000 0.000000 -0.004417 0.000000 0.045044
#
#
# Mechanical properties :
#
#
# Convention : Reuss Voigt Hill
#
# Bulk Modulus (GPa) = 35.16698 45.44572 40.30635
# Shear Modulus (GPa) = 29.73568 36.17783 32.95676
#
# Velocity S-wave (km/s) = 3.61095 3.98294 3.80149
# Velocity P-wave (km/s) = 5.72763 6.40932 6.07804
#
# Compressibility (1/GPa) = 0.02843577
#
# Stress axis : x y z
#
# Youngs Moduli (GPa) = 78.41888 102.05286 122.45405
#
# Poissons Ratio (x) = -0.01282 0.16224
# Poissons Ratio (y) = -0.00985 -0.00717
# Poissons Ratio (z) = 0.10390 -0.00597
#
# Static dielectric constant tensor:
#      x y z
#    x 1.870180 0.000000 0.024200 
#    y 0.000000 1.883600 0.000000 
#    z 0.024200 0.000000 1.880970 
# 
# From -- ./inp_files/7195.got.cif
#   From: 2010.05.17/outbox.cif.g08.bks.cpg/sg4_4_cif.got.tgz:7195.got - 2010.06.03 18:43:04.
