data_PCOD9117993
_publ_section_title
;
Structure prediction by ZEFSAII (Michael W. Deem and Ramdas Pophale) SiO2 
 PCOD9117993
Probable space group: P 21
;
_chemical_formula_sum "Si O2"
_cell_formula_units_Z 14
_cell_length_a 7.967118
_cell_length_b 11.531404
_cell_length_c 9.571869
_cell_angle_alpha 90.000000
_cell_angle_beta 46.388410
_cell_angle_gamma 90.000000
_cell_volume 636.704843
_symmetry_space_group_name_H-M "P 21"
_symmetry_group_IT_number 4
_symmetry_cell_setting 'monoclinic'
loop_
_space_group_symop_operation_xyz
x,y,z
-x,1/2+y,-z
loop_
_atom_site_type_symbol
_atom_site_label
_atom_site_fract_x
_atom_site_fract_y
_atom_site_fract_z
Si Si1 0.446664 0.170860 0.186542
Si Si2 0.436657 0.268567 0.895874
Si Si3 0.276442 0.367809 0.449215
Si Si4 0.984721 0.403184 0.220085
Si Si5 0.824552 0.438745 0.615001
Si Si6 0.382569 0.711949 0.619910
Si Si7 0.371019 0.056367 0.740137
O O1 0.254797 0.264266 0.349519
O O2 0.629484 0.179022 0.208793
O O3 0.330020 0.046966 0.254442
O O4 0.521188 0.212738 0.992945
O O5 0.657264 0.328505 0.699235
O O6 0.333268 0.165137 0.861901
O O7 0.244602 0.367325 0.034042
O O8 0.405076 0.306290 0.504622
O O9 0.462459 0.460187 0.285837
O O10 0.026148 0.420332 0.612635
O O11 0.949332 0.456455 0.394333
O O12 0.842352 0.281638 0.295765
O O13 0.854957 0.491103 0.188587
O O14 0.471150 0.604877 0.478748
#
# Coordination Sequence:
#
# PCOD9117993 Si02
#       7
#     2   2   2   2   2   2   2
#     4  10  24  43  65 103 134 178 226 278 343 402
#     4  12  28  43  69 112 133 180 235 287 343 413
#     4   9  23  43  70  96 133 180 230 268 342 415
#     4  11  22  47  68  98 145 176 232 281 344 411
#     4  12  24  44  75  96 139 191 222 283 350 415
#     4   9  20  43  68  95 132 181 221 276 337 404
#     4  11  23  45  73 100 138 178 232 287 341 408
#
# _framework density 21.988211
#
# number of rings (size 3 to 8) (size 9 to 14) (size 15 to 20)
#    0.857    0.571    4.286    0.000    6.000    1.143 
#    7.714    0.000    0.000    0.000    0.000    0.000 
#    0.000    0.000    0.000    0.000    0.000    0.000 
#
# Total GULP energy -78131.701481 kJ/mol
# GULP energy per Si atom -5580.835820 kJ/mol
# Density = 2.193817 g / cm^3
# Si number density = 21.988211 Si / 1000 Ang^3
#
#
#
# Elastic Constant Matrix: (Units=GPa)
#
#
# Indices 1 2 3 4 5 6 
#
# 1 56.8360 4.2950 24.6520 0.0000 -3.6173 0.0000
# 2 4.2950 81.8033 14.3312 0.0000 0.0352 0.0000
# 3 24.6520 14.3312 55.1680 0.0000 2.9393 0.0000
# 4 0.0000 0.0000 0.0000 17.4370 0.0000 4.9750
# 5 -3.6173 0.0352 2.9393 0.0000 30.2741 0.0000
# 6 0.0000 0.0000 0.0000 4.9750 0.0000 18.0596
#
#
#
# Elastic Compliance Matrix: (Units=1/GPa)
#
#
# Indices 1 2 3 4 5 6 
#
# 1 0.022247 0.000635 -0.010301 0.000000 0.003658 0.000000
# 2 0.000635 0.012828 -0.003638 0.000000 0.000414 0.000000
# 3 -0.010301 -0.003638 0.023863 0.000000 -0.003544 0.000000
# 4 0.000000 0.000000 0.000000 0.062241 0.000000 -0.017146
# 5 0.003658 0.000414 -0.003544 0.000000 0.033812 0.000000
# 6 0.000000 0.000000 0.000000 -0.017146 0.000000 0.060096
#
#
# Mechanical properties :
#
#
# Convention : Reuss Voigt Hill
#
# Bulk Modulus (GPa) = 30.93073 31.15152 31.04113
# Shear Modulus (GPa) = 19.80405 23.18942 21.49673
#
# Velocity S-wave (km/s) = 3.00437 3.25103 3.13013
# Velocity P-wave (km/s) = 5.11199 5.31887 5.21646
#
# Compressibility (1/GPa) = 0.03233030
#
# Stress axis : x y z
#
# Youngs Moduli (GPa) = 44.94937 77.95248 41.90512
#
# Poissons Ratio (x) = -0.04950 0.43167
# Poissons Ratio (y) = -0.02854 0.15246
# Poissons Ratio (z) = 0.46303 0.28361
#
# Static dielectric constant tensor:
#      x y z
#    x 1.835520 0.000000 0.021940 
#    y 0.000000 1.832190 0.000000 
#    z 0.021940 0.000000 1.773150 
# 
# From -- ./inp_files/11324.got.cif
#   From: 2010.05.17/outbox.cif.g08.bks.cpg/sg4_6_cif.got.tgz:11324.got - 2010.06.03 18:43:04.
