data_PCOD9117624
_publ_section_title
;
Structure prediction by ZEFSAII (Michael W. Deem and Ramdas Pophale) SiO2 
 PCOD9117624
Probable space group: P 21
;
_chemical_formula_sum "Si O2"
_cell_formula_units_Z 16
_cell_length_a 7.248663
_cell_length_b 12.137698
_cell_length_c 9.819319
_cell_angle_alpha 90.000000
_cell_angle_beta 49.466602
_cell_angle_gamma 90.000000
_cell_volume 656.605900
_symmetry_space_group_name_H-M "P 21"
_symmetry_group_IT_number 4
_symmetry_cell_setting 'monoclinic'
loop_
_space_group_symop_operation_xyz
x,y,z
-x,1/2+y,-z
loop_
_atom_site_type_symbol
_atom_site_label
_atom_site_fract_x
_atom_site_fract_y
_atom_site_fract_z
Si Si1 0.875893 0.742020 0.664861
Si Si2 0.664955 0.185447 0.684160
Si Si3 0.825010 0.365716 0.824061
Si Si4 0.375248 0.764560 0.810349
Si Si5 0.657196 0.865760 0.290361
Si Si6 0.184051 0.915086 0.657791
Si Si7 0.099849 0.540667 0.996835
Si Si8 0.695968 0.582579 0.962922
O O1 0.663561 0.752941 0.656948
O O2 0.744708 0.696215 0.862497
O O3 0.098691 0.661387 0.518864
O O4 0.003292 0.857118 0.638956
O O5 0.758514 0.278082 0.743512
O O6 0.457316 0.247548 0.694976
O O7 0.546964 0.090617 0.831657
O O8 0.726125 0.486924 0.837672
O O9 0.109160 0.359200 0.724670
O O10 0.685094 0.341050 0.032211
O O11 0.249948 0.821826 0.740894
O O12 0.267330 0.647306 0.908331
O O13 0.440797 0.935917 0.462486
O O14 0.753383 0.930358 0.111717
O O15 0.052989 0.016206 0.794401
O O16 0.909424 0.561231 0.967314
#
# Coordination Sequence:
#
# PCOD9117624 Si02
#       8
#     2   2   2   2   2   2   2   2
#     4  11  25  43  67  98 134 173 218 271 324 391
#     4  11  24  45  67  95 133 175 215 271 327 384
#     4  11  24  43  66  97 132 171 216 271 327 385
#     4  12  23  43  69  96 136 171 215 274 324 387
#     4  10  23  43  69  95 131 171 218 270 322 388
#     4  11  23  47  68  95 132 174 220 268 329 385
#     4  11  24  43  69  96 131 173 216 272 326 389
#     4  11  22  43  67  96 131 172 220 269 323 391
#
# _framework density 24.367740000000001
#
# number of rings (size 3 to 8) (size 9 to 14) (size 15 to 20)
#    0.000    1.000    5.000    2.250    1.750    2.000 
#    6.750    0.000    0.000    0.000    0.000    0.000 
#    0.000    0.000    0.000    0.000    0.000    0.000 
#
# Total GULP energy -89564.063627 kJ/mol
# GULP energy per Si atom -5597.753977 kJ/mol
# Density = 2.431228 g / cm^3
# Si number density = 24.367740 Si / 1000 Ang^3
#
#
#
# Elastic Constant Matrix: (Units=GPa)
#
#
# Indices 1 2 3 4 5 6 
#
# 1 98.4522 30.3442 22.5762 0.0000 -30.5876 0.0000
# 2 30.3442 49.2295 8.4588 0.0000 -17.8134 0.0000
# 3 22.5762 8.4588 109.6411 0.0000 -21.4067 0.0000
# 4 0.0000 0.0000 0.0000 27.1237 0.0000 -3.1672
# 5 -30.5876 -17.8134 -21.4067 0.0000 35.6689 0.0000
# 6 0.0000 0.0000 0.0000 -3.1672 0.0000 17.7168
#
#
#
# Elastic Compliance Matrix: (Units=1/GPa)
#
#
# Indices 1 2 3 4 5 6 
#
# 1 0.015077 -0.005676 -0.000788 0.000000 0.009621 0.000000
# 2 -0.005676 0.026962 0.000869 0.000000 0.009119 0.000000
# 3 -0.000788 0.000869 0.010386 0.000000 0.005991 0.000000
# 4 0.000000 0.000000 0.000000 0.037654 0.000000 0.006731
# 5 0.009621 0.009119 0.005991 0.000000 0.044436 0.000000
# 6 0.000000 0.000000 0.000000 0.006731 0.000000 0.057647
#
#
# Mechanical properties :
#
#
# Convention : Reuss Voigt Hill
#
# Bulk Modulus (GPa) = 24.25180 42.23123 33.24152
# Shear Modulus (GPa) = 23.03127 29.16479 26.09803
#
# Velocity S-wave (km/s) = 3.07767 3.46332 3.27618
# Velocity P-wave (km/s) = 4.75431 5.77592 5.28983
#
# Compressibility (1/GPa) = 0.04123404
#
# Stress axis : x y z
#
# Youngs Moduli (GPa) = 66.32835 37.08912 96.28695
#
# Poissons Ratio (x) = 0.21052 0.07588
# Poissons Ratio (y) = 0.37649 -0.08368
# Poissons Ratio (z) = 0.05227 -0.03223
#
# Static dielectric constant tensor:
#      x y z
#    x 1.930450 0.000000 -0.006550 
#    y 0.000000 1.988120 0.000000 
#    z -0.006550 0.000000 1.935120 
# 
# From -- ./inp_files/11139.got.cif
#   From: 2010.05.17/outbox.cif.g08.bks.cpg/sg4_6_cif.got.tgz:11139.got - 2010.06.03 18:43:04.
