data_PCOD9117324
_publ_section_title
;
Structure prediction by ZEFSAII (Michael W. Deem and Ramdas Pophale) SiO2 
 PCOD9117324
Probable space group: P 21
;
_chemical_formula_sum "Si O2"
_cell_formula_units_Z 14
_cell_length_a 8.960432
_cell_length_b 10.228852
_cell_length_c 9.074776
_cell_angle_alpha 90.000000
_cell_angle_beta 131.253329
_cell_angle_gamma 90.000000
_cell_volume 625.309380
_symmetry_space_group_name_H-M "P 21"
_symmetry_group_IT_number 4
_symmetry_cell_setting 'monoclinic'
loop_
_space_group_symop_operation_xyz
x,y,z
-x,1/2+y,-z
loop_
_atom_site_type_symbol
_atom_site_label
_atom_site_fract_x
_atom_site_fract_y
_atom_site_fract_z
Si Si1 0.769001 0.046580 0.110238
Si Si2 0.710125 0.917942 0.374404
Si Si3 0.270799 0.891516 0.165002
Si Si4 0.115335 0.003913 0.777801
Si Si5 0.910657 0.773515 0.058277
Si Si6 0.824378 0.645485 0.719552
Si Si7 0.364906 0.130031 0.703452
O O1 0.588562 0.110935 0.903530
O O2 0.965341 0.135622 0.227887
O O3 0.702032 0.020177 0.234616
O O4 0.828634 0.904497 0.081630
O O5 0.725152 0.772269 0.317123
O O6 0.505609 0.905020 0.330318
O O7 0.896402 0.955021 0.595510
O O8 0.180446 0.019714 0.180405
O O9 0.144936 0.781285 0.166381
O O10 0.220554 0.905362 0.959499
O O11 0.117333 0.145692 0.859262
O O12 0.236207 0.021579 0.704756
O O13 0.809012 0.759543 0.830016
O O14 0.659539 0.627422 0.487970
#
# Coordination Sequence:
#
# PCOD9117324 Si02
#       7
#     2   2   2   2   2   2   2
#     4  11  23  43  69  98 137 182 231 280 344 411
#     4  12  24  41  69 100 134 178 230 281 344 412
#     4  10  23  42  64  96 136 174 226 284 341 405
#     4  11  23  43  69  98 137 182 231 280 344 411
#     4  10  22  46  68  96 138 182 226 292 342 404
#     4  10  23  42  64  96 136 174 226 284 341 405
#     4  12  24  41  69 100 134 178 230 281 344 412
#
# _framework density 22.388916999999999
#
# number of rings (size 3 to 8) (size 9 to 14) (size 15 to 20)
#    0.000    1.143    4.286    1.714    0.000    5.714 
#    0.000   10.000    0.000    0.000    0.000    0.000 
#    0.000    0.000    0.000    0.000    0.000    0.000 
#
# Total GULP energy -78174.211849 kJ/mol
# GULP energy per Si atom -5583.872275 kJ/mol
# Density = 2.233796 g / cm^3
# Si number density = 22.388917 Si / 1000 Ang^3
#
#
#
# Elastic Constant Matrix: (Units=GPa)
#
#
# Indices 1 2 3 4 5 6 
#
# 1 53.8352 -5.7336 9.9269 0.0000 -11.8734 0.0000
# 2 -5.7336 55.9232 3.5971 0.0000 -3.9282 0.0000
# 3 9.9269 3.5971 111.6916 0.0000 20.6315 0.0000
# 4 0.0000 0.0000 0.0000 28.2044 0.0000 14.2239
# 5 -11.8734 -3.9282 20.6315 0.0000 16.4334 0.0000
# 6 0.0000 0.0000 0.0000 14.2239 0.0000 -0.1369
#
#
#
# Elastic Compliance Matrix: (Units=1/GPa)
#
#
# Indices 1 2 3 4 5 6 
#
# 1 0.027920 0.005694 -0.008648 0.000000 0.032391 0.000000
# 2 0.005694 0.019633 -0.003600 0.000000 0.013327 0.000000
# 3 -0.008648 -0.003600 0.014518 0.000000 -0.025335 0.000000
# 4 0.000000 0.000000 0.000000 0.000664 0.000000 0.068987
# 5 0.032391 0.013327 -0.025335 0.000000 0.119248 0.000000
# 6 0.000000 0.000000 0.000000 0.068987 0.000000 -0.136794
#
#
# Mechanical properties :
#
#
# Convention : Reuss Voigt Hill
#
# Bulk Modulus (GPa) = 20.42368 26.33674 23.38021
# Shear Modulus (GPa) = 67.00752 23.14415 45.07583
#
# Velocity S-wave (km/s) = 5.47666 3.21866 4.49186
# Velocity P-wave (km/s) = 7.00955 5.05983 6.11292
#
# Compressibility (1/GPa) = 0.04896276
#
# Stress axis : x y z
#
# Youngs Moduli (GPa) = 35.81638 50.93424 68.88129
#
# Poissons Ratio (x) = -0.29002 0.59569
# Poissons Ratio (y) = -0.20394 0.24798
# Poissons Ratio (z) = 0.30974 0.18337
#
# Static dielectric constant tensor:
#      x y z
#    x 1.836940 0.000000 -0.005670 
#    y 0.000000 1.889360 0.000000 
#    z -0.005670 0.000000 1.817970 
# 
# From -- ./inp_files/1116.got.cif
#   From: 2010.05.17/outbox.cif.g08.bks.cpg/sg4_1_cif.got.tgz:1116.got - 2010.06.03 18:43:04.
