data_PCOD9117714
_publ_section_title
;
Structure prediction by ZEFSAII (Michael W. Deem and Ramdas Pophale) SiO2 
 PCOD9117714
Probable space group: P 21
;
_chemical_formula_sum "Si O2"
_cell_formula_units_Z 14
_cell_length_a 8.030919
_cell_length_b 7.260875
_cell_length_c 9.175431
_cell_angle_alpha 90.000000
_cell_angle_beta 104.315278
_cell_angle_gamma 90.000000
_cell_volume 518.420268
_symmetry_space_group_name_H-M "P 21"
_symmetry_group_IT_number 4
_symmetry_cell_setting 'monoclinic'
loop_
_space_group_symop_operation_xyz
x,y,z
-x,1/2+y,-z
loop_
_atom_site_type_symbol
_atom_site_label
_atom_site_fract_x
_atom_site_fract_y
_atom_site_fract_z
Si Si1 0.115899 0.478200 0.723534
Si Si2 0.532477 0.082339 0.080733
Si Si3 0.409220 0.002379 0.442536
Si Si4 0.394563 0.983557 0.779979
Si Si5 0.790833 0.373832 0.850159
Si Si6 0.227166 0.389595 0.441096
Si Si7 0.936985 0.376324 0.192623
O O1 0.304923 0.460035 0.836785
O O2 0.111693 0.388610 0.562549
O O3 0.084776 0.699259 0.707513
O O4 0.964486 0.421165 0.798780
O O5 0.562348 0.282798 0.149646
O O6 0.350215 0.012315 0.103530
O O7 0.525338 0.103607 0.903285
O O8 0.309009 0.195357 0.406593
O O9 0.398200 0.971627 0.611133
O O10 0.330443 0.845439 0.321078
O O11 0.612977 0.008452 0.464141
O O12 0.200971 0.026746 0.787100
O O13 0.884253 0.303888 0.020891
O O14 0.123292 0.454303 0.275075
#
# Coordination Sequence:
#
# PCOD9117714 Si02
#       7
#     2   2   2   2   2   2   2
#     4  11  24  45  74 108 156 200 256 316 382 462
#     4  10  23  44  70 110 153 195 254 315 384 458
#     4  12  26  47  79 111 156 202 262 321 396 453
#     4  10  24  44  77 108 155 203 253 323 387 464
#     4  11  23  48  72 109 151 197 257 319 380 462
#     4  12  27  49  76 116 157 208 259 325 389 473
#     4  10  25  47  74 110 148 203 263 317 388 460
#
# _framework density 27.005119000000001
#
# number of rings (size 3 to 8) (size 9 to 14) (size 15 to 20)
#    0.000    1.143    2.857    1.714    6.000    1.143 
#    2.571    0.000    0.000    0.000    0.000    0.000 
#    0.000    0.000    0.000    0.000    0.000    0.000 
#
# Total GULP energy -78130.884370 kJ/mol
# GULP energy per Si atom -5580.777455 kJ/mol
# Density = 2.694365 g / cm^3
# Si number density = 27.005119 Si / 1000 Ang^3
#
#
#
# Elastic Constant Matrix: (Units=GPa)
#
#
# Indices 1 2 3 4 5 6 
#
# 1 128.6572 13.6430 65.6945 0.0000 13.4222 0.0000
# 2 13.6430 52.0187 23.2925 0.0000 12.4138 0.0000
# 3 65.6945 23.2925 251.7116 0.0000 21.8030 0.0000
# 4 0.0000 0.0000 0.0000 39.9048 0.0000 5.8216
# 5 13.4222 12.4138 21.8030 0.0000 56.1558 0.0000
# 6 0.0000 0.0000 0.0000 5.8216 0.0000 24.4784
#
#
#
# Elastic Compliance Matrix: (Units=1/GPa)
#
#
# Indices 1 2 3 4 5 6 
#
# 1 0.009121 -0.001159 -0.002180 0.000000 -0.001078 0.000000
# 2 -0.001159 0.021036 -0.001309 0.000000 -0.003865 0.000000
# 3 -0.002180 -0.001309 0.004753 0.000000 -0.001035 0.000000
# 4 0.000000 0.000000 0.000000 0.025960 0.000000 -0.006174
# 5 -0.001078 -0.003865 -0.001035 0.000000 0.019321 0.000000
# 6 0.000000 0.000000 0.000000 -0.006174 0.000000 0.042321
#
#
# Mechanical properties :
#
#
# Convention : Reuss Voigt Hill
#
# Bulk Modulus (GPa) = 39.04189 70.84971 54.94580
# Shear Modulus (GPa) = 35.62609 46.09165 40.85887
#
# Velocity S-wave (km/s) = 3.63607 4.13579 3.89396
# Velocity P-wave (km/s) = 5.66715 7.00707 6.37242
#
# Compressibility (1/GPa) = 0.02561352
#
# Stress axis : x y z
#
# Youngs Moduli (GPa) = 109.63705 47.53651 210.41409
#
# Poissons Ratio (x) = 0.05509 0.45869
# Poissons Ratio (y) = 0.12706 0.27552
# Poissons Ratio (z) = 0.23900 0.06224
#
# Static dielectric constant tensor:
#      x y z
#    x 2.191800 0.000000 0.031340 
#    y 0.000000 2.178330 0.000000 
#    z 0.031340 0.000000 2.144090 
# 
# From -- ./inp_files/5477.got.cif
#   From: 2010.05.17/outbox.cif.g08.bks.cpg/sg4_3_cif.got.tgz:5477.got - 2010.06.03 18:43:04.
