data_PCOD9117958
_publ_section_title
;
Structure prediction by ZEFSAII (Michael W. Deem and Ramdas Pophale) SiO2 
 PCOD9117958
Probable space group: P 21
;
_chemical_formula_sum "Si O2"
_cell_formula_units_Z 12
_cell_length_a 7.961241
_cell_length_b 8.761041
_cell_length_c 6.734470
_cell_angle_alpha 90.000000
_cell_angle_beta 82.228383
_cell_angle_gamma 90.000000
_cell_volume 465.406513
_symmetry_space_group_name_H-M "P 21"
_symmetry_group_IT_number 4
_symmetry_cell_setting 'monoclinic'
loop_
_space_group_symop_operation_xyz
x,y,z
-x,1/2+y,-z
loop_
_atom_site_type_symbol
_atom_site_label
_atom_site_fract_x
_atom_site_fract_y
_atom_site_fract_z
Si Si1 0.149693 0.375000 0.586654
Si Si2 0.939385 0.649043 0.715300
Si Si3 0.407061 0.562084 0.825842
Si Si4 0.597681 0.268452 0.835263
Si Si5 0.229339 0.121630 0.846527
Si Si6 0.710422 0.310807 0.377713
O O1 0.172276 0.274271 0.384635
O O2 0.301854 0.467732 0.673025
O O3 0.110178 0.242774 0.751548
O O4 0.001091 0.499094 0.585253
O O5 0.113869 0.738989 0.724212
O O6 0.862655 0.590214 0.932202
O O7 0.551439 0.447403 0.881167
O O8 0.444712 0.718335 0.700148
O O9 0.318684 0.643683 0.030614
O O10 0.407300 0.204146 0.855927
O O11 0.691339 0.277451 0.611904
O O12 0.280407 0.982278 0.697251
#
# Coordination Sequence:
#
# PCOD9117958 Si02
#       6
#     2   2   2   2   2   2
#     4  10  24  42  66 101 140 183 235 288 348 418
#     4  11  24  42  68 100 141 185 232 289 349 417
#     4  10  24  42  66 101 140 183 235 288 348 418
#     4  11  24  42  68 100 141 185 232 289 349 417
#     4  11  24  43  70 102 139 184 236 290 355 425
#     4  11  24  43  70 102 139 184 236 290 355 425
#
# _framework density 25.783911
#
# number of rings (size 3 to 8) (size 9 to 14) (size 15 to 20)
#    0.000    1.333    0.000    4.000    0.000   16.000 
#    0.000    0.000    0.000    0.000    0.000    0.000 
#    0.000    0.000    0.000    0.000    0.000    0.000 
#
# Total GULP energy -66940.828523 kJ/mol
# GULP energy per Si atom -5578.402377 kJ/mol
# Density = 2.572523 g / cm^3
# Si number density = 25.783911 Si / 1000 Ang^3
#
#
#
# Elastic Constant Matrix: (Units=GPa)
#
#
# Indices 1 2 3 4 5 6 
#
# 1 75.4414 8.2195 10.7033 0.0000 -6.7534 0.0000
# 2 8.2195 113.3719 1.6950 0.0000 9.0344 0.0000
# 3 10.7033 1.6950 92.7801 0.0000 2.2074 0.0000
# 4 0.0000 0.0000 0.0000 55.5666 0.0000 16.6579
# 5 -6.7534 9.0344 2.2074 0.0000 24.4044 0.0000
# 6 0.0000 0.0000 0.0000 16.6579 0.0000 36.9631
#
#
#
# Elastic Compliance Matrix: (Units=1/GPa)
#
#
# Indices 1 2 3 4 5 6 
#
# 1 0.014052 -0.001355 -0.001704 0.000000 0.004544 0.000000
# 2 -0.001355 0.009220 0.000078 0.000000 -0.003795 0.000000
# 3 -0.001704 0.000078 0.011009 0.000000 -0.001496 0.000000
# 4 0.000000 0.000000 0.000000 0.020808 0.000000 -0.009377
# 5 0.004544 -0.003795 -0.001496 0.000000 0.043774 0.000000
# 6 0.000000 0.000000 0.000000 -0.009377 0.000000 0.031280
#
#
# Mechanical properties :
#
#
# Convention : Reuss Voigt Hill
#
# Bulk Modulus (GPa) = 35.31383 35.86989 35.59186
# Shear Modulus (GPa) = 34.35373 40.78519 37.56946
#
# Velocity S-wave (km/s) = 3.65413 3.98151 3.82132
# Velocity P-wave (km/s) = 5.61510 5.92271 5.77095
#
# Compressibility (1/GPa) = 0.02831752
#
# Stress axis : x y z
#
# Youngs Moduli (GPa) = 71.16616 108.45904 90.83510
#
# Poissons Ratio (x) = 0.14701 0.15482
# Poissons Ratio (y) = 0.09646 -0.00711
# Poissons Ratio (z) = 0.12129 -0.00848
#
# Static dielectric constant tensor:
#      x y z
#    x 2.128790 0.000000 0.092460 
#    y 0.000000 2.073700 0.000000 
#    z 0.092460 0.000000 2.122200 
# 
# From -- ./inp_files/1015.got.cif
#   From: 2010.05.17/outbox.cif.g08.bks.cpg/sg4_1_cif.got.tgz:1015.got - 2010.06.03 18:43:04.
