data_PCOD9117132
_publ_section_title
;
Structure prediction by ZEFSAII (Michael W. Deem and Ramdas Pophale) SiO2 
 PCOD9117132
Probable space group: P 21
;
_chemical_formula_sum "Si O2"
_cell_formula_units_Z 16
_cell_length_a 9.739516
_cell_length_b 8.323559
_cell_length_c 20.004159
_cell_angle_alpha 90.000000
_cell_angle_beta 151.478041
_cell_angle_gamma 90.000000
_cell_volume 774.347772
_symmetry_space_group_name_H-M "P 21"
_symmetry_group_IT_number 4
_symmetry_cell_setting 'monoclinic'
loop_
_space_group_symop_operation_xyz
x,y,z
-x,1/2+y,-z
loop_
_atom_site_type_symbol
_atom_site_label
_atom_site_fract_x
_atom_site_fract_y
_atom_site_fract_z
Si Si1 0.846063 0.761500 0.116643
Si Si2 0.735930 0.593051 0.929969
Si Si3 0.808421 0.262101 0.364048
Si Si4 0.524726 0.546749 0.080359
Si Si5 0.098961 0.404500 0.366350
Si Si6 0.318094 0.715780 0.124060
Si Si7 0.342245 0.047267 0.612750
Si Si8 0.572344 0.154465 0.572307
O O1 0.615500 0.688336 0.069747
O O2 0.161187 0.757808 0.284408
O O3 0.829882 0.645373 0.044835
O O4 0.746793 0.939608 0.055206
O O5 0.446003 0.688621 0.789019
O O6 0.686084 0.404426 0.895319
O O7 0.991998 0.654429 0.991992
O O8 0.672122 0.369151 0.363714
O O9 0.004580 0.378862 0.402146
O O10 0.021854 0.120492 0.476006
O O11 0.475124 0.620281 0.132082
O O12 0.802872 0.430086 0.200375
O O13 0.295253 0.253814 0.431973
O O14 0.294625 0.555214 0.431382
O O15 0.474675 0.663353 0.259792
O O16 0.469239 0.050994 0.592364
#
# Coordination Sequence:
#
# PCOD9117132 Si02
#       8
#     2   2   2   2   2   2   2   2
#     4  11  22  42  64  94 128 168 219 264 325 386
#     4  12  24  42  66  95 131 170 214 271 330 386
#     4  11  23  43  66  93 131 171 214 271 319 394
#     4  11  23  43  66  93 131 171 214 271 319 394
#     4  10  22  44  62  92 128 168 210 262 320 370
#     4  12  24  42  66  95 131 170 214 271 330 386
#     4  11  22  42  64  94 128 168 219 264 325 386
#     4  10  24  40  66  90 130 168 212 270 314 386
#
# _framework density 20.662551000000001
#
# number of rings (size 3 to 8) (size 9 to 14) (size 15 to 20)
#    0.000    1.000    3.750    3.000    0.000    2.000 
#    9.000    0.000    0.000    0.000    0.000    0.000 
#    0.000    0.000    0.000    0.000    0.000    0.000 
#
# Total GULP energy -89383.465008 kJ/mol
# GULP energy per Si atom -5586.466563 kJ/mol
# Density = 2.061552 g / cm^3
# Si number density = 20.662551 Si / 1000 Ang^3
#
#
#
# Elastic Constant Matrix: (Units=GPa)
#
#
# Indices 1 2 3 4 5 6 
#
# 1 64.1212 26.0991 37.9829 0.0000 18.3620 0.0000
# 2 26.0991 50.6685 22.7811 0.0000 6.2366 0.0000
# 3 37.9829 22.7811 49.0848 0.0000 9.0918 0.0000
# 4 0.0000 0.0000 0.0000 22.0151 0.0000 10.7242
# 5 18.3620 6.2366 9.0918 0.0000 24.8405 0.0000
# 6 0.0000 0.0000 0.0000 10.7242 0.0000 27.9942
#
#
#
# Elastic Compliance Matrix: (Units=1/GPa)
#
#
# Indices 1 2 3 4 5 6 
#
# 1 0.035989 -0.006747 -0.021566 0.000000 -0.017016 0.000000
# 2 -0.006747 0.026315 -0.007179 0.000000 0.001008 0.000000
# 3 -0.021566 -0.007179 0.039805 0.000000 0.003175 0.000000
# 4 0.000000 0.000000 0.000000 0.055845 0.000000 -0.021393
# 5 -0.017016 0.001008 0.003175 0.000000 0.051420 0.000000
# 6 0.000000 0.000000 0.000000 -0.021393 0.000000 0.043917
#
#
# Mechanical properties :
#
#
# Convention : Reuss Voigt Hill
#
# Bulk Modulus (GPa) = 32.12842 37.51119 34.81981
# Shear Modulus (GPa) = 14.94093 20.10404 17.52248
#
# Velocity S-wave (km/s) = 2.69195 3.12263 2.91526
# Velocity P-wave (km/s) = 5.02444 5.58522 5.31224
#
# Compressibility (1/GPa) = 0.03112509
#
# Stress axis : x y z
#
# Youngs Moduli (GPa) = 27.78589 38.00085 25.12239
#
# Poissons Ratio (x) = 0.25640 0.54180
# Poissons Ratio (y) = 0.18748 0.18035
# Poissons Ratio (z) = 0.59924 0.27281
#
# Static dielectric constant tensor:
#      x y z
#    x 1.722780 0.000000 0.002360 
#    y 0.000000 1.847660 0.000000 
#    z 0.002360 0.000000 1.721360 
# 
# From -- ./inp_files/5585.got.cif
#   From: 2010.05.17/outbox.cif.g08.bks.cpg/sg4_3_cif.got.tgz:5585.got - 2010.06.03 18:43:04.
