data_PCOD9117667
_publ_section_title
;
Structure prediction by ZEFSAII (Michael W. Deem and Ramdas Pophale) SiO2 
 PCOD9117667
Probable space group: P 21
;
_chemical_formula_sum "Si O2"
_cell_formula_units_Z 16
_cell_length_a 15.429427
_cell_length_b 8.549845
_cell_length_c 12.256334
_cell_angle_alpha 90.000000
_cell_angle_beta 154.181070
_cell_angle_gamma 90.000000
_cell_volume 704.182518
_symmetry_space_group_name_H-M "P 21"
_symmetry_group_IT_number 4
_symmetry_cell_setting 'monoclinic'
loop_
_space_group_symop_operation_xyz
x,y,z
-x,1/2+y,-z
loop_
_atom_site_type_symbol
_atom_site_label
_atom_site_fract_x
_atom_site_fract_y
_atom_site_fract_z
Si Si1 0.588170 0.272360 0.543466
Si Si2 0.757441 0.668578 0.140934
Si Si3 0.911449 0.437522 0.490196
Si Si4 0.144402 0.188892 0.113503
Si Si5 0.573238 0.412858 0.283569
Si Si6 0.777548 0.463635 0.955093
Si Si7 0.242265 0.633945 0.956974
Si Si8 0.899511 0.031766 0.977469
O O1 0.370709 0.216487 0.335055
O O2 0.594262 0.348066 0.430944
O O3 0.649864 0.392250 0.709879
O O4 0.737309 0.125231 0.721826
O O5 0.775780 0.518570 0.242373
O O6 0.957957 0.777574 0.372031
O O7 0.575524 0.791279 0.947910
O O8 0.719125 0.591877 0.978647
O O9 0.774679 0.423880 0.442853
O O10 0.080618 0.569583 0.692029
O O11 0.050960 0.357483 0.997608
O O12 0.061537 0.060254 0.934130
O O13 0.099632 0.129911 0.184056
O O14 0.458888 0.580423 0.162694
O O15 0.806389 0.308508 0.060003
O O16 0.196281 0.532611 0.013068
#
# Coordination Sequence:
#
# PCOD9117667 Si02
#       8
#     2   2   2   2   2   2   2   2
#     4  11  24  43  66 102 143 190 225 296 360 432
#     4  11  25  49  70 106 140 182 244 301 343 435
#     4  11  26  47  79  99 142 189 235 301 366 409
#     4  12  23  42  62  99 142 191 235 287 349 428
#     4  11  25  45  74 104 142 181 240 292 367 429
#     4  11  24  42  70  99 149 185 233 291 352 426
#     4  10  23  44  64 106 137 183 232 296 341 433
#     4  11  24  38  65  97 143 185 238 282 350 428
#
# _framework density 22.721382999999999
#
# number of rings (size 3 to 8) (size 9 to 14) (size 15 to 20)
#    0.000    1.000    2.500    3.750    7.000    3.000 
#    0.000    1.250    0.000    0.000    0.000    0.000 
#    0.000    0.000    0.000    0.000    0.000    0.000 
#
# Total GULP energy -89191.881178 kJ/mol
# GULP energy per Si atom -5574.492574 kJ/mol
# Density = 2.266967 g / cm^3
# Si number density = 22.721383 Si / 1000 Ang^3
#
#
#
# Elastic Constant Matrix: (Units=GPa)
#
#
# Indices 1 2 3 4 5 6 
#
# 1 78.2655 24.6853 31.2571 0.0000 11.1208 0.0000
# 2 24.6853 135.7729 23.6279 0.0000 -0.7759 0.0000
# 3 31.2571 23.6279 67.9997 0.0000 7.6367 0.0000
# 4 0.0000 0.0000 0.0000 25.1816 0.0000 -3.3272
# 5 11.1208 -0.7759 7.6367 0.0000 35.6686 0.0000
# 6 0.0000 0.0000 0.0000 -3.3272 0.0000 46.5156
#
#
#
# Elastic Compliance Matrix: (Units=1/GPa)
#
#
# Indices 1 2 3 4 5 6 
#
# 1 0.016511 -0.001891 -0.006506 0.000000 -0.003796 0.000000
# 2 -0.001891 0.008077 -0.002073 0.000000 0.001209 0.000000
# 3 -0.006506 -0.002073 0.018642 0.000000 -0.002008 0.000000
# 4 0.000000 0.000000 0.000000 0.040090 0.000000 0.002868
# 5 -0.003796 0.001209 -0.002008 0.000000 0.029676 0.000000
# 6 0.000000 0.000000 0.000000 0.002868 0.000000 0.021703
#
#
# Mechanical properties :
#
#
# Convention : Reuss Voigt Hill
#
# Bulk Modulus (GPa) = 44.86386 49.01986 46.94186
# Shear Modulus (GPa) = 30.66157 34.97101 32.81629
#
# Velocity S-wave (km/s) = 3.67748 3.92742 3.80451
# Velocity P-wave (km/s) = 6.14979 6.49518 6.32484
#
# Compressibility (1/GPa) = 0.02228966
#
# Stress axis : x y z
#
# Youngs Moduli (GPa) = 60.56431 123.81208 53.64126
#
# Poissons Ratio (x) = 0.23418 0.34900
# Poissons Ratio (y) = 0.11455 0.11119
# Poissons Ratio (z) = 0.39404 0.25664
#
# Static dielectric constant tensor:
#      x y z
#    x 1.836960 0.000000 -0.018130 
#    y 0.000000 1.919640 0.000000 
#    z -0.018130 0.000000 1.940790 
# 
# From -- ./inp_files/12590.got.cif
#   From: 2010.05.17/outbox.cif.g08.bks.cpg/sg4_7_cif.got.tgz:12590.got - 2010.06.03 18:43:04.
