data_PCOD9117494
_publ_section_title
;
Structure prediction by ZEFSAII (Michael W. Deem and Ramdas Pophale) SiO2 
 PCOD9117494
Probable space group: P 21
;
_chemical_formula_sum "Si O2"
_cell_formula_units_Z 16
_cell_length_a 10.948931
_cell_length_b 11.627722
_cell_length_c 10.088948
_cell_angle_alpha 90.000000
_cell_angle_beta 29.311030
_cell_angle_gamma 90.000000
_cell_volume 628.795732
_symmetry_space_group_name_H-M "P 21"
_symmetry_group_IT_number 4
_symmetry_cell_setting 'monoclinic'
loop_
_space_group_symop_operation_xyz
x,y,z
-x,1/2+y,-z
loop_
_atom_site_type_symbol
_atom_site_label
_atom_site_fract_x
_atom_site_fract_y
_atom_site_fract_z
Si Si1 0.266422 0.000000 0.660520
Si Si2 0.078676 0.814734 0.473449
Si Si3 0.279987 0.492974 0.104950
Si Si4 0.520783 0.313025 0.699979
Si Si5 0.224874 0.586196 0.743827
Si Si6 0.862417 0.645983 0.876511
Si Si7 0.376115 0.908156 0.976991
Si Si8 0.524679 0.186296 0.252689
O O1 0.286239 0.873758 0.579467
O O2 0.012967 0.016674 0.977992
O O3 0.299320 0.104212 0.520315
O O4 0.522031 0.013515 0.502376
O O5 0.333314 0.779947 0.305165
O O6 0.146142 0.835899 0.258829
O O7 0.991125 0.942342 0.604283
O O8 0.891071 0.720175 0.712813
O O9 0.350465 0.619131 0.990269
O O10 0.353413 0.421036 0.904822
O O11 0.442818 0.453495 0.077008
O O12 0.323221 0.216443 0.850820
O O13 0.289879 0.679157 0.796368
O O14 0.129823 0.634460 0.694370
O O15 0.745883 0.522280 0.965105
O O16 0.518775 0.816860 0.749640
#
# Coordination Sequence:
#
# PCOD9117494 Si02
#       8
#     2   2   2   2   2   2   2   2
#     4   9  21  44  71 103 135 188 236 279 360 424
#     4  10  23  41  69  95 135 187 229 297 361 426
#     4   9  20  40  64  96 125 178 236 284 354 426
#     4   9  20  40  67  93 133 180 232 287 348 430
#     4  10  23  45  71 105 144 185 232 299 350 441
#     4  11  26  42  66 108 138 180 245 296 366 425
#     4  11  25  41  67 103 138 182 234 306 351 431
#     4   9  22  41  67  99 140 188 236 290 364 419
#
# _framework density 25.445466
#
# number of rings (size 3 to 8) (size 9 to 14) (size 15 to 20)
#    0.750    1.500    0.000    0.750   10.500    2.000 
#    2.250    0.000    0.000    0.000    0.000    0.000 
#    0.000    0.000    0.000    0.000    0.000    0.000 
#
# Total GULP energy -89328.854041 kJ/mol
# GULP energy per Si atom -5583.053378 kJ/mol
# Density = 2.538755 g / cm^3
# Si number density = 25.445466 Si / 1000 Ang^3
#
#
#
# Elastic Constant Matrix: (Units=GPa)
#
#
# Indices 1 2 3 4 5 6 
#
# 1 104.6826 42.6460 4.8611 0.0000 -16.7143 0.0000
# 2 42.6460 139.3325 14.8184 0.0000 10.8830 0.0000
# 3 4.8611 14.8184 77.9679 0.0000 -2.2477 0.0000
# 4 0.0000 0.0000 0.0000 33.9451 0.0000 6.8940
# 5 -16.7143 10.8830 -2.2477 0.0000 36.3542 0.0000
# 6 0.0000 0.0000 0.0000 6.8940 0.0000 34.8427
#
#
#
# Elastic Compliance Matrix: (Units=1/GPa)
#
#
# Indices 1 2 3 4 5 6 
#
# 1 0.012457 -0.004392 0.000262 0.000000 0.007058 0.000000
# 2 -0.004392 0.009068 -0.001589 0.000000 -0.004832 0.000000
# 3 0.000262 -0.001589 0.013152 0.000000 0.001409 0.000000
# 4 0.000000 0.000000 0.000000 0.030693 0.000000 -0.006073
# 5 0.007058 -0.004832 0.001409 0.000000 0.032286 0.000000
# 6 0.000000 0.000000 0.000000 -0.006073 0.000000 0.029902
#
#
# Mechanical properties :
#
#
# Convention : Reuss Voigt Hill
#
# Bulk Modulus (GPa) = 43.03265 49.62600 46.32932
# Shear Modulus (GPa) = 34.07366 38.33889 36.20627
#
# Velocity S-wave (km/s) = 3.66332 3.88584 3.77622
# Velocity P-wave (km/s) = 5.90268 6.29907 6.10409
#
# Compressibility (1/GPa) = 0.02323817
#
# Stress axis : x y z
#
# Youngs Moduli (GPa) = 80.27884 110.28201 76.03358
#
# Poissons Ratio (x) = 0.48433 -0.01988
# Poissons Ratio (y) = 0.35256 0.12081
# Poissons Ratio (z) = -0.02099 0.17522
#
# Static dielectric constant tensor:
#      x y z
#    x 2.054660 0.000000 0.021050 
#    y 0.000000 2.050060 0.000000 
#    z 0.021050 0.000000 2.057770 
# 
# From -- ./inp_files/12269.got.cif
#   From: 2010.05.17/outbox.cif.g08.bks.cpg/sg4_7_cif.got.tgz:12269.got - 2010.06.03 18:43:04.
