data_PCOD9117472
_publ_section_title
;
Structure prediction by ZEFSAII (Michael W. Deem and Ramdas Pophale) SiO2 
 PCOD9117472
Probable space group: P 21
;
_chemical_formula_sum "Si O2"
_cell_formula_units_Z 16
_cell_length_a 10.923754
_cell_length_b 7.862579
_cell_length_c 7.572626
_cell_angle_alpha 90.000000
_cell_angle_beta 67.144742
_cell_angle_gamma 90.000000
_cell_volume 599.340454
_symmetry_space_group_name_H-M "P 21"
_symmetry_group_IT_number 4
_symmetry_cell_setting 'monoclinic'
loop_
_space_group_symop_operation_xyz
x,y,z
-x,1/2+y,-z
loop_
_atom_site_type_symbol
_atom_site_label
_atom_site_fract_x
_atom_site_fract_y
_atom_site_fract_z
Si Si1 0.210048 0.063170 0.841412
Si Si2 0.108452 0.651365 0.212237
Si Si3 0.919252 0.956493 0.435598
Si Si4 0.033232 0.734735 0.879198
Si Si5 0.633443 0.047692 0.515071
Si Si6 0.401545 0.115755 0.414097
Si Si7 0.465813 0.921860 0.871653
Si Si8 0.365622 0.799334 0.259441
O O1 0.305247 0.131193 0.634156
O O2 0.104456 0.917983 0.840665
O O3 0.316450 0.972529 0.910450
O O4 0.120973 0.213051 0.975320
O O5 0.073593 0.492528 0.359202
O O6 0.248525 0.715599 0.207636
O O7 0.111116 0.639902 0.999095
O O8 0.002400 0.798379 0.320317
O O9 0.959386 0.124098 0.302321
O O10 0.764073 0.943261 0.473015
O O11 0.533719 0.017130 0.413707
O O12 0.667706 0.247494 0.510379
O O13 0.554145 0.080990 0.750926
O O14 0.466348 0.286112 0.299189
O O15 0.329135 0.004413 0.310051
O O16 0.485711 0.850633 0.053251
#
# Coordination Sequence:
#
# PCOD9117472 Si02
#       8
#     2   2   2   2   2   2   2   2
#     4  11  25  44  72 105 143 192 247 294 369 440
#     4  11  26  43  73 101 144 191 244 315 361 441
#     4  11  25  44  68 104 142 189 248 300 376 431
#     4  12  23  47  72 103 145 195 243 304 365 447
#     4  10  23  41  65  98 133 182 231 287 356 435
#     4  11  24  42  73  97 140 190 230 300 356 432
#     4  11  22  43  66 100 139 177 237 295 352 432
#     4  11  22  44  65  98 138 180 238 299 357 426
#
# _framework density 26.696010999999999
#
# number of rings (size 3 to 8) (size 9 to 14) (size 15 to 20)
#    0.000    1.000    2.500    4.500    5.250    0.000 
#    0.000    2.500    0.000    0.000    0.000    0.000 
#    0.000    0.000    0.000    0.000    0.000    0.000 
#
# Total GULP energy -89298.330410 kJ/mol
# GULP energy per Si atom -5581.145651 kJ/mol
# Density = 2.663525 g / cm^3
# Si number density = 26.696011 Si / 1000 Ang^3
#
#
#
# Elastic Constant Matrix: (Units=GPa)
#
#
# Indices 1 2 3 4 5 6 
#
# 1 114.4242 25.0566 5.1729 0.0000 -17.4323 0.0000
# 2 25.0566 85.5536 4.5536 0.0000 3.7263 0.0000
# 3 5.1729 4.5536 75.1905 0.0000 12.0320 0.0000
# 4 0.0000 0.0000 0.0000 46.6772 0.0000 -0.9194
# 5 -17.4323 3.7263 12.0320 0.0000 39.4013 0.0000
# 6 0.0000 0.0000 0.0000 -0.9194 0.0000 40.4014
#
#
#
# Elastic Compliance Matrix: (Units=1/GPa)
#
#
# Indices 1 2 3 4 5 6 
#
# 1 0.010299 -0.003174 -0.001360 0.000000 0.005272 0.000000
# 2 -0.003174 0.012737 -0.000143 0.000000 -0.002565 0.000000
# 3 -0.001360 -0.000143 0.014189 0.000000 -0.004921 0.000000
# 4 0.000000 0.000000 0.000000 0.021433 0.000000 0.000488
# 5 0.005272 -0.002565 -0.004921 0.000000 0.029458 0.000000
# 6 0.000000 0.000000 0.000000 0.000488 0.000000 0.024763
#
#
# Mechanical properties :
#
#
# Convention : Reuss Voigt Hill
#
# Bulk Modulus (GPa) = 35.87655 38.30383 37.09019
# Shear Modulus (GPa) = 38.01622 41.32167 39.66894
#
# Velocity S-wave (km/s) = 3.77774 3.93855 3.85898
# Velocity P-wave (km/s) = 5.70057 5.92134 5.81200
#
# Compressibility (1/GPa) = 0.02787336
#
# Stress axis : x y z
#
# Youngs Moduli (GPa) = 97.09657 78.50926 70.47590
#
# Poissons Ratio (x) = 0.24916 0.09585
# Poissons Ratio (y) = 0.30814 0.01005
# Poissons Ratio (z) = 0.13205 0.01119
#
# Static dielectric constant tensor:
#      x y z
#    x 2.021570 0.000000 -0.045690 
#    y 0.000000 2.449600 0.000000 
#    z -0.045690 0.000000 2.397040 
# 
# From -- ./inp_files/7876.got.cif
#   From: 2010.05.17/outbox.cif.g08.bks.cpg/sg4_4_cif.got.tgz:7876.got - 2010.06.03 18:43:04.
