data_PCOD9117000
_publ_section_title
;
Structure prediction by ZEFSAII (Michael W. Deem and Ramdas Pophale) SiO2 
 PCOD9117000
Probable space group: P 21
;
_chemical_formula_sum "Si O2"
_cell_formula_units_Z 16
_cell_length_a 19.631062
_cell_length_b 8.109263
_cell_length_c 6.214949
_cell_angle_alpha 90.000000
_cell_angle_beta 135.386467
_cell_angle_gamma 90.000000
_cell_volume 694.861956
_symmetry_space_group_name_H-M "P 21"
_symmetry_group_IT_number 4
_symmetry_cell_setting 'monoclinic'
loop_
_space_group_symop_operation_xyz
x,y,z
-x,1/2+y,-z
loop_
_atom_site_type_symbol
_atom_site_label
_atom_site_fract_x
_atom_site_fract_y
_atom_site_fract_z
Si Si1 0.741883 0.601240 0.887561
Si Si2 0.579667 0.077093 0.171825
Si Si3 0.436374 0.895190 0.579270
Si Si4 0.605507 0.903023 0.646283
Si Si5 0.193528 0.908578 0.347188
Si Si6 0.727191 0.134406 0.173435
Si Si7 0.934134 0.490310 0.570683
Si Si8 0.888275 0.180608 0.208687
O O1 0.659455 0.463131 0.751161
O O2 0.693492 0.774996 0.832359
O O3 0.760782 0.563450 0.676007
O O4 0.841523 0.575618 0.242692
O O5 0.584769 0.255701 0.292318
O O6 0.680610 0.039810 0.273592
O O7 0.567091 0.942072 0.326275
O O8 0.487333 0.051565 0.811478
O O9 0.520580 0.838446 0.607414
O O10 0.643734 0.081611 0.817865
O O11 0.250522 0.810896 0.664226
O O12 0.096047 0.966174 0.249657
O O13 0.174189 0.779233 0.110280
O O14 0.821357 0.094642 0.239910
O O15 0.943863 0.315685 0.474911
O O16 0.034105 0.579422 0.749891
#
# Coordination Sequence:
#
# PCOD9117000 Si02
#       8
#     2   2   2   2   2   2   2   2
#     4  11  24  45  64 105 136 180 230 287 347 412
#     4  11  23  43  68 102 133 189 227 283 344 417
#     4  11  24  42  68  98 139 183 233 281 346 415
#     4  11  25  41  67 104 137 179 231 291 340 406
#     4  10  22  43  71  95 136 181 224 280 353 418
#     4  10  22  42  69  95 136 179 225 278 340 417
#     4  10  25  44  72  97 136 174 225 284 348 409
#     4  10  23  46  67 102 129 179 221 282 346 414
#
# _framework density 23.026154999999999
#
# number of rings (size 3 to 8) (size 9 to 14) (size 15 to 20)
#    0.000    1.500    1.250    2.250    5.250    9.000 
#    2.250    0.000    0.000    0.000    0.000    0.000 
#    0.000    0.000    0.000    0.000    0.000    0.000 
#
# Total GULP energy -89238.187012 kJ/mol
# GULP energy per Si atom -5577.386688 kJ/mol
# Density = 2.297375 g / cm^3
# Si number density = 23.026155 Si / 1000 Ang^3
#
#
#
# Elastic Constant Matrix: (Units=GPa)
#
#
# Indices 1 2 3 4 5 6 
#
# 1 169.1384 37.2322 25.7063 0.0000 -0.9144 0.0000
# 2 37.2322 60.9385 16.2924 0.0000 2.0875 0.0000
# 3 25.7063 16.2924 51.9441 0.0000 0.5771 0.0000
# 4 0.0000 0.0000 0.0000 25.5394 0.0000 14.7148
# 5 -0.9144 2.0875 0.5771 0.0000 29.5176 0.0000
# 6 0.0000 0.0000 0.0000 14.7148 0.0000 38.4106
#
#
#
# Elastic Compliance Matrix: (Units=1/GPa)
#
#
# Indices 1 2 3 4 5 6 
#
# 1 0.007092 -0.003723 -0.002348 0.000000 0.000529 0.000000
# 2 -0.003723 0.019906 -0.004385 0.000000 -0.001437 0.000000
# 3 -0.002348 -0.004385 0.021791 0.000000 -0.000189 0.000000
# 4 0.000000 0.000000 0.000000 0.050245 0.000000 -0.019249
# 5 0.000529 -0.001437 -0.000189 0.000000 0.034000 0.000000
# 6 0.000000 0.000000 0.000000 -0.019249 0.000000 0.033408
#
#
# Mechanical properties :
#
#
# Convention : Reuss Voigt Hill
#
# Bulk Modulus (GPa) = 35.87212 48.94253 42.40732
# Shear Modulus (GPa) = 25.42630 32.21286 28.81958
#
# Velocity S-wave (km/s) = 3.32661 3.74434 3.54164
# Velocity P-wave (km/s) = 5.51070 6.32414 5.93138
#
# Compressibility (1/GPa) = 0.02787680
#
# Stress axis : x y z
#
# Youngs Moduli (GPa) = 141.01249 50.23488 45.89101
#
# Poissons Ratio (x) = 0.18704 0.10773
# Poissons Ratio (y) = 0.52503 0.20124
# Poissons Ratio (z) = 0.33104 0.22029
#
# Static dielectric constant tensor:
#      x y z
#    x 1.877330 0.000000 -0.007720 
#    y 0.000000 1.904690 0.000000 
#    z -0.007720 0.000000 1.873650 
# 
# From -- ./inp_files/3443.got.cif
#   From: 2010.05.17/outbox.cif.g08.bks.cpg/sg4_2_cif.got.tgz:3443.got - 2010.06.03 18:43:04.
