data_PCOD9117408
_publ_section_title
;
Structure prediction by ZEFSAII (Michael W. Deem and Ramdas Pophale) SiO2 
 PCOD9117408
Probable space group: P 21
;
_chemical_formula_sum "Si O2"
_cell_formula_units_Z 16
_cell_length_a 19.643020
_cell_length_b 5.808632
_cell_length_c 11.884667
_cell_angle_alpha 90.000000
_cell_angle_beta 29.964165
_cell_angle_gamma 90.000000
_cell_volume 677.280133
_symmetry_space_group_name_H-M "P 21"
_symmetry_group_IT_number 4
_symmetry_cell_setting 'monoclinic'
loop_
_space_group_symop_operation_xyz
x,y,z
-x,1/2+y,-z
loop_
_atom_site_type_symbol
_atom_site_label
_atom_site_fract_x
_atom_site_fract_y
_atom_site_fract_z
Si Si1 0.181571 0.230770 0.130678
Si Si2 0.685873 0.020948 0.227619
Si Si3 0.299319 0.221943 0.302021
Si Si4 0.920915 0.965568 0.504764
Si Si5 0.727174 0.325816 0.370373
Si Si6 0.229185 0.719861 0.466585
Si Si7 0.533652 0.716708 0.620014
Si Si8 0.455408 0.098863 0.862545
O O1 0.126447 0.418698 0.300112
O O2 0.202324 0.347842 0.980619
O O3 0.079584 0.015572 0.275510
O O4 0.326516 0.143739 0.966779
O O5 0.574104 0.900975 0.467172
O O6 0.749406 0.217879 0.215942
O O7 0.596360 0.094726 0.248437
O O8 0.300091 0.969072 0.353960
O O9 0.147826 0.252775 0.463077
O O10 0.308315 0.471623 0.350192
O O11 0.410343 0.204489 0.044819
O O12 0.859188 0.179681 0.520364
O O13 0.831151 0.248915 0.320017
O O14 0.677516 0.586538 0.429335
O O15 0.585517 0.222878 0.623545
O O16 0.483381 0.827050 0.808484
#
# Coordination Sequence:
#
# PCOD9117408 Si02
#       8
#     2   2   2   2   2   2   2   2
#     4  11  22  43  70 101 136 174 235 292 363 406
#     4  11  22  39  63 101 138 182 227 292 350 417
#     4   9  23  43  64  98 136 182 231 281 344 410
#     4   9  25  42  71 102 132 183 227 298 343 417
#     4  11  24  41  66  98 140 189 226 290 342 434
#     4  10  24  45  67  98 141 186 232 282 351 416
#     4  11  21  38  64 101 143 177 234 284 362 413
#     4  10  23  37  65 103 134 179 222 291 351 429
#
# _framework density 23.623902000000001
#
# number of rings (size 3 to 8) (size 9 to 14) (size 15 to 20)
#    0.750    1.000    2.500    0.750   10.500    1.000 
#    0.000    0.000    2.750    0.000    0.000    0.000 
#    0.000    0.000    0.000    0.000    0.000    0.000 
#
# Total GULP energy -89095.216777 kJ/mol
# GULP energy per Si atom -5568.451049 kJ/mol
# Density = 2.357013 g / cm^3
# Si number density = 23.623902 Si / 1000 Ang^3
#
#
#
# Elastic Constant Matrix: (Units=GPa)
#
#
# Indices 1 2 3 4 5 6 
#
# 1 74.2338 19.1755 13.3031 0.0000 9.1154 0.0000
# 2 19.1755 96.7053 11.8208 0.0000 8.9765 0.0000
# 3 13.3031 11.8208 40.4563 0.0000 5.2513 0.0000
# 4 0.0000 0.0000 0.0000 40.9836 0.0000 4.7582
# 5 9.1154 8.9765 5.2513 0.0000 20.2857 0.0000
# 6 0.0000 0.0000 0.0000 4.7582 0.0000 33.3729
#
#
#
# Elastic Compliance Matrix: (Units=1/GPa)
#
#
# Indices 1 2 3 4 5 6 
#
# 1 0.015302 -0.002112 -0.003770 0.000000 -0.004965 0.000000
# 2 -0.002112 0.011350 -0.002166 0.000000 -0.003513 0.000000
# 3 -0.003770 -0.002166 0.027159 0.000000 -0.004378 0.000000
# 4 0.000000 0.000000 0.000000 0.024811 0.000000 -0.003537
# 5 -0.004965 -0.003513 -0.004378 0.000000 0.054215 0.000000
# 6 0.000000 0.000000 0.000000 -0.003537 0.000000 0.030469
#
#
# Mechanical properties :
#
#
# Convention : Reuss Voigt Hill
#
# Bulk Modulus (GPa) = 26.51497 33.33269 29.92383
# Shear Modulus (GPa) = 26.04529 30.06816 28.05673
#
# Velocity S-wave (km/s) = 3.32399 3.57148 3.44996
# Velocity P-wave (km/s) = 5.09706 5.58101 5.34452
#
# Compressibility (1/GPa) = 0.03771454
#
# Stress axis : x y z
#
# Youngs Moduli (GPa) = 65.35124 88.10278 36.82046
#
# Poissons Ratio (x) = 0.18612 0.13881
# Poissons Ratio (y) = 0.13805 0.07975
# Poissons Ratio (z) = 0.24637 0.19082
#
# Static dielectric constant tensor:
#      x y z
#    x 2.026920 0.000000 -0.020490 
#    y 0.000000 1.998820 0.000000 
#    z -0.020490 0.000000 1.855020 
# 
# From -- ./inp_files/13028.got.cif
#   From: 2010.05.17/outbox.cif.g08.bks.cpg/sg4_7_cif.got.tgz:13028.got - 2010.06.03 18:43:04.
