data_PCOD9117305
_publ_section_title
;
Structure prediction by ZEFSAII (Michael W. Deem and Ramdas Pophale) SiO2 
 PCOD9117305
Probable space group: P 21
;
_chemical_formula_sum "Si O2"
_cell_formula_units_Z 16
_cell_length_a 9.546624
_cell_length_b 4.954038
_cell_length_c 29.111036
_cell_angle_alpha 90.000000
_cell_angle_beta 29.641527
_cell_angle_gamma 90.000000
_cell_volume 680.920294
_symmetry_space_group_name_H-M "P 21"
_symmetry_group_IT_number 4
_symmetry_cell_setting 'monoclinic'
loop_
_space_group_symop_operation_xyz
x,y,z
-x,1/2+y,-z
loop_
_atom_site_type_symbol
_atom_site_label
_atom_site_fract_x
_atom_site_fract_y
_atom_site_fract_z
Si Si1 0.694631 0.179340 0.685102
Si Si2 0.388379 0.203244 0.232157
Si Si3 0.217567 0.353089 0.183622
Si Si4 0.090735 0.460670 0.500581
Si Si5 0.629845 0.709906 0.022199
Si Si6 0.122493 0.965850 0.130294
Si Si7 0.044714 0.013900 0.957736
Si Si8 0.338690 0.135951 0.696971
O O1 0.580780 0.416822 0.751171
O O2 0.949185 0.327860 0.585333
O O3 0.787578 0.917046 0.686903
O O4 0.475781 0.067249 0.708275
O O5 0.241408 0.187562 0.223934
O O6 0.679603 0.370136 0.141683
O O7 0.479283 0.563390 0.108084
O O8 0.916108 0.490694 0.257957
O O9 0.255886 0.172211 0.128053
O O10 0.393608 0.609071 0.412902
O O11 0.889709 0.699184 0.538577
O O12 0.353773 0.729095 0.068091
O O13 0.867613 0.563309 0.924057
O O14 0.792247 0.970952 0.993706
O O15 0.822668 0.903652 0.239142
O O16 0.050754 0.319709 0.972728
#
# Coordination Sequence:
#
# PCOD9117305 Si02
#       8
#     2   2   2   2   2   2   2   2
#     4  11  25  45  72 106 136 181 236 294 356 426
#     4  12  26  45  67 101 149 185 234 293 353 426
#     4  11  25  44  65  99 145 192 234 293 365 416
#     4  10  22  45  76 107 141 172 231 296 360 418
#     4  11  23  40  63  94 133 191 235 296 330 422
#     4  11  23  40  66  95 140 175 247 284 359 401
#     4  12  25  41  65  92 134 187 241 274 348 408
#     4  10  25  42  74 104 130 183 234 300 355 425
#
# _framework density 23.497609000000001
#
# number of rings (size 3 to 8) (size 9 to 14) (size 15 to 20)
#    0.000    1.000    2.500    3.750   10.500    0.000 
#    0.000    1.250    0.000    0.000    0.000    0.000 
#    0.000    0.000    0.000    0.000    0.000    0.000 
#
# Total GULP energy -89211.902954 kJ/mol
# GULP energy per Si atom -5575.743935 kJ/mol
# Density = 2.344413 g / cm^3
# Si number density = 23.497609 Si / 1000 Ang^3
#
#
#
# Elastic Constant Matrix: (Units=GPa)
#
#
# Indices 1 2 3 4 5 6 
#
# 1 91.0243 25.6966 22.3172 0.0000 0.8838 0.0000
# 2 25.6966 85.5229 18.0725 0.0000 7.5759 0.0000
# 3 22.3172 18.0725 104.4011 0.0001 -9.5937 -0.0001
# 4 0.0000 0.0000 0.0001 38.0520 0.0000 11.9787
# 5 0.8838 7.5759 -9.5937 0.0000 30.7940 0.0000
# 6 0.0000 0.0000 -0.0001 11.9787 0.0000 41.8158
#
#
#
# Elastic Compliance Matrix: (Units=1/GPa)
#
#
# Indices 1 2 3 4 5 6 
#
# 1 0.012429 -0.003270 -0.002110 0.000000 -0.000210 0.000000
# 2 -0.003270 0.013432 -0.001978 0.000000 -0.003827 0.000000
# 3 -0.002110 -0.001978 0.010729 0.000000 0.003890 0.000000
# 4 0.000000 0.000000 0.000000 0.028885 0.000000 -0.008274
# 5 -0.000210 -0.003827 0.003890 0.000000 0.034633 0.000000
# 6 0.000000 0.000000 0.000000 -0.008274 0.000000 0.026285
#
#
# Mechanical properties :
#
#
# Convention : Reuss Voigt Hill
#
# Bulk Modulus (GPa) = 45.71525 45.90232 45.80879
# Shear Modulus (GPa) = 33.69279 36.45648 35.07464
#
# Velocity S-wave (km/s) = 3.79077 3.94318 3.86773
# Velocity P-wave (km/s) = 6.21751 6.34892 6.28356
#
# Compressibility (1/GPa) = 0.02187454
#
# Stress axis : x y z
#
# Youngs Moduli (GPa) = 80.45996 74.44787 93.20261
#
# Poissons Ratio (x) = 0.24344 0.19666
# Poissons Ratio (y) = 0.26309 0.18434
# Poissons Ratio (z) = 0.16977 0.14725
#
# Static dielectric constant tensor:
#      x y z
#    x 1.933610 0.000000 0.001020 
#    y 0.000000 2.079500 0.000000 
#    z 0.001020 0.000000 1.959840 
# 
# From -- ./inp_files/9016.got.cif
#   From: 2010.05.17/outbox.cif.g08.bks.cpg/sg4_5_cif.got.tgz:9016.got - 2010.06.03 18:43:04.
