data_PCOD9117316
_publ_section_title
;
Structure prediction by ZEFSAII (Michael W. Deem and Ramdas Pophale) SiO2 
 PCOD9117316
Probable space group: P 21
;
_chemical_formula_sum "Si O2"
_cell_formula_units_Z 14
_cell_length_a 22.983389
_cell_length_b 5.170332
_cell_length_c 25.245637
_cell_angle_alpha 90.000000
_cell_angle_beta 169.301346
_cell_angle_gamma 90.000000
_cell_volume 556.927488
_symmetry_space_group_name_H-M "P 21"
_symmetry_group_IT_number 4
_symmetry_cell_setting 'monoclinic'
loop_
_space_group_symop_operation_xyz
x,y,z
-x,1/2+y,-z
loop_
_atom_site_type_symbol
_atom_site_label
_atom_site_fract_x
_atom_site_fract_y
_atom_site_fract_z
Si Si1 0.564770 0.267880 0.856256
Si Si2 0.205995 0.290994 0.063048
Si Si3 0.637241 0.615296 0.525921
Si Si4 0.353010 0.761959 0.725319
Si Si5 0.714197 0.918613 0.496762
Si Si6 0.625656 0.803171 0.084082
Si Si7 0.864448 0.047830 0.850356
O O1 0.353607 0.492039 0.694008
O O2 0.435787 0.229672 0.681168
O O3 0.536075 0.994571 0.859949
O O4 0.914037 0.388498 0.174297
O O5 0.380687 0.457577 0.263411
O O6 0.489472 0.162011 0.284902
O O7 0.964483 0.467837 0.815453
O O8 0.985792 0.090239 0.899215
O O9 0.655983 0.870373 0.507377
O O10 0.499893 0.609588 0.462252
O O11 0.996050 0.849067 0.413959
O O12 0.510235 0.721310 0.922806
O O13 0.543623 0.566900 0.049707
O O14 0.030053 0.270427 0.034046
#
# Coordination Sequence:
#
# PCOD9117316 Si02
#       7
#     2   2   2   2   2   2   2
#     4  12  28  45  76  98 155 200 248 304 354 430
#     4  11  25  44  71  99 140 182 244 312 393 462
#     4  11  25  44  71  99 140 182 244 312 393 462
#     4  12  26  49  70 114 151 198 244 290 364 420
#     4  12  26  47  70 104 137 198 258 308 366 446
#     4  12  24  45  80 114 153 190 240 296 354 424
#     4  10  22  46  68 102 138 180 228 314 398 478
#
# _framework density 25.137922
#
# number of rings (size 3 to 8) (size 9 to 14) (size 15 to 20)
#    0.000    0.571    1.429    6.000    6.000    4.571 
#    2.571    0.000    0.000    0.000    0.000    0.000 
#    0.000    0.000    0.000    0.000    0.000    0.000 
#
# Total GULP energy -78397.906691 kJ/mol
# GULP energy per Si atom -5599.850478 kJ/mol
# Density = 2.508071 g / cm^3
# Si number density = 25.137922 Si / 1000 Ang^3
#
#
#
# Elastic Constant Matrix: (Units=GPa)
#
#
# Indices 1 2 3 4 5 6 
#
# 1 83.3496 17.8786 25.6490 0.0000 -18.5566 0.0000
# 2 17.8786 95.1201 14.4267 0.0000 0.6028 0.0000
# 3 25.6490 14.4267 146.0684 0.0000 -3.7959 0.0000
# 4 0.0000 0.0000 0.0000 32.9733 0.0000 -9.6654
# 5 -18.5566 0.6028 -3.7959 0.0000 41.2057 0.0000
# 6 0.0000 0.0000 0.0000 -9.6654 0.0000 8.9180
#
#
#
# Elastic Compliance Matrix: (Units=1/GPa)
#
#
# Indices 1 2 3 4 5 6 
#
# 1 0.014619 -0.002461 -0.002157 0.000000 0.006421 0.000000
# 2 -0.002461 0.011090 -0.000698 0.000000 -0.001335 0.000000
# 3 -0.002157 -0.000698 0.007286 0.000000 -0.000290 0.000000
# 4 0.000000 0.000000 0.000000 0.044449 0.000000 0.048174
# 5 0.006421 -0.001335 -0.000290 0.000000 0.027153 0.000000
# 6 0.000000 0.000000 0.000000 0.048174 0.000000 0.164344
#
#
# Mechanical properties :
#
#
# Convention : Reuss Voigt Hill
#
# Bulk Modulus (GPa) = 44.71717 48.93855 46.82786
# Shear Modulus (GPa) = 17.41997 34.39164 25.90580
#
# Velocity S-wave (km/s) = 2.63530 3.70282 3.21370
# Velocity P-wave (km/s) = 5.20453 6.14748 5.69555
#
# Compressibility (1/GPa) = 0.02236277
#
# Stress axis : x y z
#
# Youngs Moduli (GPa) = 68.40457 90.17179 137.24454
#
# Poissons Ratio (x) = 0.22194 0.29605
# Poissons Ratio (y) = 0.16836 0.09577
# Poissons Ratio (z) = 0.14755 0.06292
#
# Static dielectric constant tensor:
#      x y z
#    x 2.107070 0.000000 0.063120 
#    y 0.000000 1.998800 0.000000 
#    z 0.063120 0.000000 1.959020 
# 
# From -- ./inp_files/15916.got.cif
#   From: 2010.05.17/outbox.cif.g08.bks.cpg/sg4_8_cif.got.tgz:15916.got - 2010.06.03 18:43:04.
