data_PCOD9117747
_publ_section_title
;
Structure prediction by ZEFSAII (Michael W. Deem and Ramdas Pophale) SiO2 
 PCOD9117747
Probable space group: P 21
;
_chemical_formula_sum "Si O2"
_cell_formula_units_Z 14
_cell_length_a 11.173184
_cell_length_b 7.233064
_cell_length_c 9.032952
_cell_angle_alpha 90.000000
_cell_angle_beta 50.877246
_cell_angle_gamma 90.000000
_cell_volume 566.338951
_symmetry_space_group_name_H-M "P 21"
_symmetry_group_IT_number 4
_symmetry_cell_setting 'monoclinic'
loop_
_space_group_symop_operation_xyz
x,y,z
-x,1/2+y,-z
loop_
_atom_site_type_symbol
_atom_site_label
_atom_site_fract_x
_atom_site_fract_y
_atom_site_fract_z
Si Si1 0.325048 0.658640 0.792624
Si Si2 0.218453 0.953730 0.567304
Si Si3 0.708770 0.784986 0.073500
Si Si4 0.025315 0.257556 0.882704
Si Si5 0.897869 0.051651 0.428825
Si Si6 0.204871 0.201087 0.321104
Si Si7 0.516927 0.502382 0.396508
O O1 0.326060 0.500641 0.913691
O O2 0.366216 0.545314 0.609208
O O3 0.457373 0.812148 0.710189
O O4 0.152601 0.741662 0.929632
O O5 0.079503 0.078362 0.745119
O O6 0.277700 0.053987 0.374085
O O7 0.173948 0.745419 0.565487
O O8 0.351920 0.971416 0.582607
O O9 0.857434 0.769215 0.068801
O O10 0.569931 0.674436 0.258599
O O11 0.735122 0.706142 0.891552
O O12 0.041685 0.432688 0.759588
O O13 0.797770 0.901866 0.598408
O O14 0.032169 0.120000 0.433955
#
# Coordination Sequence:
#
# PCOD9117747 Si02
#       7
#     2   2   2   2   2   2   2
#     4  12  24  42  69 102 136 178 225 286 340 401
#     4  10  23  45  68 101 138 179 224 274 340 408
#     4  11  25  43  68 106 135 172 230 282 341 399
#     4  10  25  39  71 105 130 171 227 285 336 398
#     4  11  21  40  63 103 136 173 217 282 342 396
#     4  11  23  37  67  99 142 174 219 278 338 402
#     4  11  25  46  70  96 139 183 226 283 341 402
#
# _framework density 24.720179999999999
#
# number of rings (size 3 to 8) (size 9 to 14) (size 15 to 20)
#    0.000    1.143    2.857    2.571   10.000    1.143 
#    0.000    0.000    9.429    1.714    0.000    0.000 
#    0.000    0.000    0.000    0.000    0.000    0.000 
#
# Total GULP energy -78433.009093 kJ/mol
# GULP energy per Si atom -5602.357792 kJ/mol
# Density = 2.466392 g / cm^3
# Si number density = 24.720180 Si / 1000 Ang^3
#
#
#
# Elastic Constant Matrix: (Units=GPa)
#
#
# Indices 1 2 3 4 5 6 
#
# 1 68.2630 35.1973 42.3694 0.0000 -0.3276 0.0000
# 2 35.1973 170.7501 49.2581 0.0000 1.5544 0.0000
# 3 42.3694 49.2581 147.7214 0.0000 1.1930 0.0000
# 4 0.0000 0.0000 0.0000 47.1354 0.0000 0.2765
# 5 -0.3276 1.5544 1.1930 0.0000 43.2879 0.0000
# 6 0.0000 0.0000 0.0000 0.2765 0.0000 34.8661
#
#
#
# Elastic Compliance Matrix: (Units=1/GPa)
#
#
# Indices 1 2 3 4 5 6 
#
# 1 0.018791 -0.002568 -0.004536 0.000000 0.000359 0.000000
# 2 -0.002568 0.006832 -0.001540 0.000000 -0.000222 0.000000
# 3 -0.004536 -0.001540 0.008586 0.000000 -0.000216 0.000000
# 4 0.000000 0.000000 0.000000 0.021216 0.000000 -0.000168
# 5 0.000359 -0.000222 -0.000216 0.000000 0.023118 0.000000
# 6 0.000000 0.000000 0.000000 -0.000168 0.000000 0.028682
#
#
# Mechanical properties :
#
#
# Convention : Reuss Voigt Hill
#
# Bulk Modulus (GPa) = 59.10002 71.15379 65.12690
# Shear Modulus (GPa) = 38.41629 42.38519 40.40074
#
# Velocity S-wave (km/s) = 3.94642 4.14526 4.04706
# Velocity P-wave (km/s) = 6.68768 7.19424 6.94558
#
# Compressibility (1/GPa) = 0.01692047
#
# Stress axis : x y z
#
# Youngs Moduli (GPa) = 53.21836 146.36774 116.47234
#
# Poissons Ratio (x) = 0.37588 0.52833
# Poissons Ratio (y) = 0.13667 0.17935
# Poissons Ratio (z) = 0.24140 0.22538
#
# Static dielectric constant tensor:
#      x y z
#    x 1.961950 0.000000 -0.014270 
#    y 0.000000 2.005000 0.000000 
#    z -0.014270 0.000000 1.942550 
# 
# From -- ./inp_files/9123.got.cif
#   From: 2010.05.17/outbox.cif.g08.bks.cpg/sg4_5_cif.got.tgz:9123.got - 2010.06.03 18:43:04.
