data_PCOD9117164
_publ_section_title
;
Structure prediction by ZEFSAII (Michael W. Deem and Ramdas Pophale) SiO2 
 PCOD9117164
Probable space group: P 21
;
_chemical_formula_sum "Si O2"
_cell_formula_units_Z 14
_cell_length_a 5.945904
_cell_length_b 9.781667
_cell_length_c 10.615347
_cell_angle_alpha 90.000000
_cell_angle_beta 76.114837
_cell_angle_gamma 90.000000
_cell_volume 599.356448
_symmetry_space_group_name_H-M "P 21"
_symmetry_group_IT_number 4
_symmetry_cell_setting 'monoclinic'
loop_
_space_group_symop_operation_xyz
x,y,z
-x,1/2+y,-z
loop_
_atom_site_type_symbol
_atom_site_label
_atom_site_fract_x
_atom_site_fract_y
_atom_site_fract_z
Si Si1 0.199529 0.791630 0.329124
Si Si2 0.730699 0.706822 0.831037
Si Si3 0.064288 0.436599 0.036064
Si Si4 0.263562 0.717834 0.048461
Si Si5 0.121928 0.494482 0.777927
Si Si6 0.769481 0.724634 0.527545
Si Si7 0.480791 0.484880 0.542399
O O1 0.324326 0.730101 0.189244
O O2 0.359637 0.890478 0.389318
O O3 0.037965 0.709778 0.449392
O O4 0.000240 0.876534 0.283693
O O5 0.828910 0.851630 0.864566
O O6 0.734139 0.696434 0.679955
O O7 0.922176 0.596919 0.845657
O O8 0.489093 0.683350 0.934688
O O9 0.072924 0.595558 0.072921
O O10 0.230322 0.434490 0.890019
O O11 0.845807 0.351658 0.007843
O O12 0.301612 0.559836 0.659726
O O13 0.632419 0.607761 0.466769
O O14 0.658068 0.875308 0.522304
#
# Coordination Sequence:
#
# PCOD9117164 Si02
#       7
#     2   2   2   2   2   2   2
#     4  10  24  45  69  95 145 180 231 280 351 405
#     4  12  25  42  74 103 139 178 240 278 343 414
#     4  11  24  42  69 103 140 173 235 285 345 411
#     4  11  26  43  71 105 140 186 225 292 345 411
#     4  10  22  44  67  99 135 193 220 274 355 414
#     4  11  27  42  72 105 133 191 229 288 340 417
#     4  11  24  46  72  96 144 185 232 281 351 410
#
# _framework density 23.358387
#
# number of rings (size 3 to 8) (size 9 to 14) (size 15 to 20)
#    0.000    1.143    2.857    1.714    6.000    3.429 
#    0.000    0.000    0.000    0.000    0.000    0.000 
#    0.000    0.000    0.000    0.000    0.000    0.000 
#
# Total GULP energy -78038.904403 kJ/mol
# GULP energy per Si atom -5574.207457 kJ/mol
# Density = 2.330522 g / cm^3
# Si number density = 23.358387 Si / 1000 Ang^3
#
#
#
# Elastic Constant Matrix: (Units=GPa)
#
#
# Indices 1 2 3 4 5 6 
#
# 1 47.4726 20.3314 35.3395 0.0000 -21.3030 0.0000
# 2 20.3314 87.1531 18.6403 0.0000 -11.5618 0.0000
# 3 35.3395 18.6403 102.2534 0.0000 -15.3884 0.0000
# 4 0.0000 0.0000 0.0000 21.5534 0.0000 8.0804
# 5 -21.3030 -11.5618 -15.3884 0.0000 39.5045 0.0000
# 6 0.0000 0.0000 0.0000 8.0804 0.0000 47.7190
#
#
#
# Elastic Compliance Matrix: (Units=1/GPa)
#
#
# Indices 1 2 3 4 5 6 
#
# 1 0.036855 -0.004568 -0.009682 0.000000 0.014766 0.000000
# 2 -0.004568 0.012807 -0.000598 0.000000 0.001052 0.000000
# 3 -0.009682 -0.000598 0.013196 0.000000 -0.000256 0.000000
# 4 0.000000 0.000000 0.000000 0.049541 0.000000 -0.008389
# 5 0.014766 0.001052 -0.000256 0.000000 0.033484 0.000000
# 6 0.000000 0.000000 0.000000 -0.008389 0.000000 0.022377
#
#
# Mechanical properties :
#
#
# Convention : Reuss Voigt Hill
#
# Bulk Modulus (GPa) = 30.15468 42.83349 36.49408
# Shear Modulus (GPa) = 23.92220 32.59322 28.25771
#
# Velocity S-wave (km/s) = 3.20369 3.73950 3.48191
# Velocity P-wave (km/s) = 5.15969 6.08461 5.64114
#
# Compressibility (1/GPa) = 0.03316235
#
# Stress axis : x y z
#
# Youngs Moduli (GPa) = 27.13345 78.08178 75.77819
#
# Poissons Ratio (x) = 0.35667 0.73372
# Poissons Ratio (y) = 0.12394 0.04529
# Poissons Ratio (z) = 0.26272 0.04666
#
# Static dielectric constant tensor:
#      x y z
#    x 1.892930 0.000000 -0.008460 
#    y 0.000000 1.917150 0.000000 
#    z -0.008460 0.000000 1.954800 
# 
# From -- ./inp_files/2685.got.cif
#   From: 2010.05.17/outbox.cif.g08.bks.cpg/sg4_2_cif.got.tgz:2685.got - 2010.06.03 18:43:04.
