data_PCOD9117182
_publ_section_title
;
Structure prediction by ZEFSAII (Michael W. Deem and Ramdas Pophale) SiO2 
 PCOD9117182
Probable space group: P 21
;
_chemical_formula_sum "Si O2"
_cell_formula_units_Z 14
_cell_length_a 11.641691
_cell_length_b 9.897326
_cell_length_c 8.125208
_cell_angle_alpha 90.000000
_cell_angle_beta 141.364500
_cell_angle_gamma 90.000000
_cell_volume 584.529019
_symmetry_space_group_name_H-M "P 21"
_symmetry_group_IT_number 4
_symmetry_cell_setting 'monoclinic'
loop_
_space_group_symop_operation_xyz
x,y,z
-x,1/2+y,-z
loop_
_atom_site_type_symbol
_atom_site_label
_atom_site_fract_x
_atom_site_fract_y
_atom_site_fract_z
Si Si1 0.326776 0.261810 0.002318
Si Si2 0.733150 0.840983 0.405160
Si Si3 0.408602 0.688742 0.982291
Si Si4 0.223972 0.581013 0.308103
Si Si5 0.487973 0.991707 0.609024
Si Si6 0.922906 0.267124 0.592347
Si Si7 0.893930 0.553741 0.693246
O O1 0.254497 0.363468 0.775399
O O2 0.129007 0.207595 0.835793
O O3 0.469695 0.173674 0.051699
O O4 0.428410 0.343702 0.259745
O O5 0.806311 0.958575 0.598779
O O6 0.831355 0.698092 0.551905
O O7 0.513423 0.816873 0.181904
O O8 0.200884 0.715090 0.697357
O O9 0.446654 0.573681 0.155513
O O10 0.422282 0.558649 0.449529
O O11 0.180268 0.714769 0.359633
O O12 0.082893 0.568291 0.000511
O O13 0.270009 0.008013 0.367732
O O14 0.912908 0.429716 0.587877
#
# Coordination Sequence:
#
# PCOD9117182 Si02
#       7
#     2   2   2   2   2   2   2
#     4  10  22  44  69  94 134 172 232 279 318 403
#     4   9  23  46  64  95 137 172 228 279 321 406
#     4   9  23  43  68  96 128 177 230 273 332 387
#     4  12  26  42  67 103 139 176 221 274 350 401
#     4  11  23  44  69  97 142 174 223 288 331 403
#     4  12  24  41  74 100 131 183 225 278 339 395
#     4  11  23  42  65  99 137 176 223 269 343 397
#
# _framework density 23.950907000000001
#
# number of rings (size 3 to 8) (size 9 to 14) (size 15 to 20)
#    0.857    0.571    2.857    1.714    2.000    4.571 
#    2.571    0.000    0.000    0.000    0.000    0.000 
#    0.000    0.000    0.000    0.000    0.000    0.000 
#
# Total GULP energy -78157.520425 kJ/mol
# GULP energy per Si atom -5582.680030 kJ/mol
# Density = 2.389639 g / cm^3
# Si number density = 23.950907 Si / 1000 Ang^3
#
#
#
# Elastic Constant Matrix: (Units=GPa)
#
#
# Indices 1 2 3 4 5 6 
#
# 1 83.6361 8.3097 -14.7369 0.0000 15.3258 0.0000
# 2 8.3097 93.2941 4.0862 0.0000 -5.6181 0.0000
# 3 -14.7369 4.0862 39.2930 0.0000 19.2119 0.0000
# 4 0.0000 0.0000 0.0000 31.4172 0.0000 -10.3978
# 5 15.3258 -5.6181 19.2119 0.0000 34.5749 0.0000
# 6 0.0000 0.0000 0.0000 -10.3978 0.0000 25.8693
#
#
#
# Elastic Compliance Matrix: (Units=1/GPa)
#
#
# Indices 1 2 3 4 5 6 
#
# 1 0.018220 -0.003351 0.015648 0.000000 -0.017316 0.000000
# 2 -0.003351 0.011658 -0.005659 0.000000 0.006524 0.000000
# 3 0.015648 -0.005659 0.049083 0.000000 -0.035129 0.000000
# 4 0.000000 0.000000 0.000000 0.036714 0.000000 0.014757
# 5 -0.017316 0.006524 -0.035129 0.000000 0.057178 0.000000
# 6 0.000000 0.000000 0.000000 0.014757 0.000000 0.044587
#
#
# Mechanical properties :
#
#
# Convention : Reuss Voigt Hill
#
# Bulk Modulus (GPa) = 10.84159 23.50458 17.17308
# Shear Modulus (GPa) = 21.28481 32.94323 27.11402
#
# Velocity S-wave (km/s) = 2.98432 3.71273 3.36827
# Velocity P-wave (km/s) = 4.05108 5.31169 4.72363
#
# Compressibility (1/GPa) = 0.09223741
#
# Stress axis : x y z
#
# Youngs Moduli (GPa) = 54.88562 85.77809 20.37349
#
# Poissons Ratio (x) = 0.28744 -0.31881
# Poissons Ratio (y) = 0.18392 0.11529
# Poissons Ratio (z) = -0.85886 0.48542
#
# Static dielectric constant tensor:
#      x y z
#    x 2.034460 0.000000 0.068190 
#    y 0.000000 1.938750 0.000000 
#    z 0.068190 0.000000 1.907270 
# 
# From -- ./inp_files/8461.got.cif
#   From: 2010.05.17/outbox.cif.g08.bks.cpg/sg4_5_cif.got.tgz:8461.got - 2010.06.03 18:43:04.
