data_PCOD9117955
_publ_section_title
;
Structure prediction by ZEFSAII (Michael W. Deem and Ramdas Pophale) SiO2 
 PCOD9117955
Probable space group: P 21
;
_chemical_formula_sum "Si O2"
_cell_formula_units_Z 14
_cell_length_a 10.621957
_cell_length_b 9.440975
_cell_length_c 11.849654
_cell_angle_alpha 90.000000
_cell_angle_beta 144.021954
_cell_angle_gamma 90.000000
_cell_volume 698.098344
_symmetry_space_group_name_H-M "P 21"
_symmetry_group_IT_number 4
_symmetry_cell_setting 'monoclinic'
loop_
_space_group_symop_operation_xyz
x,y,z
-x,1/2+y,-z
loop_
_atom_site_type_symbol
_atom_site_label
_atom_site_fract_x
_atom_site_fract_y
_atom_site_fract_z
Si Si1 0.495686 0.317260 0.091649
Si Si2 0.250051 0.566695 0.834054
Si Si3 0.372698 0.695355 0.154735
Si Si4 0.183765 0.274225 0.078350
Si Si5 0.481149 0.474303 0.413010
Si Si6 0.771795 0.530671 0.423641
Si Si7 0.220117 0.956888 0.164911
O O1 0.593327 0.176795 0.112157
O O2 0.341295 0.289027 0.086104
O O3 0.690358 0.420019 0.271550
O O4 0.352808 0.411594 0.905039
O O5 0.017917 0.565160 0.610470
O O6 0.242709 0.616993 0.960769
O O7 0.364650 0.608786 0.268238
O O8 0.620946 0.669268 0.301861
O O9 0.297310 0.853604 0.120410
O O10 0.320255 0.343660 0.280054
O O11 0.140015 0.110045 0.068378
O O12 0.969964 0.367850 0.913767
O O13 0.687662 0.461559 0.480114
O O14 0.577341 0.483816 0.606284
#
# Coordination Sequence:
#
# PCOD9117955 Si02
#       7
#     2   2   2   2   2   2   2
#     4  10  24  42  64  98 123 167 214 259 316 377
#     4  11  21  43  70  86 134 163 205 272 311 369
#     4   9  22  38  63  98 118 169 213 251 324 372
#     4  11  24  40  61  96 126 166 215 253 323 373
#     4   9  20  40  60  87 123 164 206 266 305 372
#     4   8  20  40  63  85 124 162 208 249 327 361
#     4  12  23  37  67  90 132 165 209 264 314 380
#
# _framework density 20.054482
#
# number of rings (size 3 to 8) (size 9 to 14) (size 15 to 20)
#    0.857    1.143    1.429    2.571    4.000    2.286 
#    0.000    0.000    0.000    0.000    0.000    0.000 
#    0.000    0.000    0.000    0.000    0.000    0.000 
#
# Total GULP energy -78032.792411 kJ/mol
# GULP energy per Si atom -5573.770886 kJ/mol
# Density = 2.000884 g / cm^3
# Si number density = 20.054482 Si / 1000 Ang^3
#
#
#
# Elastic Constant Matrix: (Units=GPa)
#
#
# Indices 1 2 3 4 5 6 
#
# 1 48.0989 35.7094 34.9243 0.0000 15.9004 0.0000
# 2 35.7094 126.3305 33.4611 0.0000 17.8722 0.0000
# 3 34.9243 33.4611 82.9948 0.0000 21.8932 0.0000
# 4 0.0000 0.0000 0.0000 13.8910 0.0000 3.5500
# 5 15.9004 17.8722 21.8932 0.0000 24.0503 0.0000
# 6 0.0000 0.0000 0.0000 3.5500 0.0000 33.3779
#
#
#
# Elastic Compliance Matrix: (Units=1/GPa)
#
#
# Indices 1 2 3 4 5 6 
#
# 1 0.035896 -0.006068 -0.009986 0.000000 -0.010132 0.000000
# 2 -0.006068 0.010254 -0.000828 0.000000 -0.002855 0.000000
# 3 -0.009986 -0.000828 0.019320 0.000000 -0.010371 0.000000
# 4 0.000000 0.000000 0.000000 0.074001 0.000000 -0.007870
# 5 -0.010132 -0.002855 -0.010371 0.000000 0.059840 0.000000
# 6 0.000000 0.000000 0.000000 -0.007870 0.000000 0.030797
#
#
# Mechanical properties :
#
#
# Convention : Reuss Voigt Hill
#
# Bulk Modulus (GPa) = 31.53856 51.73486 41.63671
# Shear Modulus (GPa) = 18.21896 24.48581 21.35238
#
# Velocity S-wave (km/s) = 3.01736 3.49802 3.26654
# Velocity P-wave (km/s) = 5.28203 6.49369 5.91895
#
# Compressibility (1/GPa) = 0.03170722
#
# Stress axis : x y z
#
# Youngs Moduli (GPa) = 27.85855 97.52215 51.75935
#
# Poissons Ratio (x) = 0.59178 0.51685
# Poissons Ratio (y) = 0.16905 0.04284
# Poissons Ratio (z) = 0.27818 0.08071
#
# Static dielectric constant tensor:
#      x y z
#    x 1.723060 0.000000 -0.014550 
#    y 0.000000 1.714660 0.000000 
#    z -0.014550 0.000000 1.712930 
# 
# From -- ./inp_files/2565.got.cif
#   From: 2010.05.17/outbox.cif.g08.bks.cpg/sg4_2_cif.got.tgz:2565.got - 2010.06.03 18:43:04.
