data_PCOD9117681
_publ_section_title
;
Structure prediction by ZEFSAII (Michael W. Deem and Ramdas Pophale) SiO2 
 PCOD9117681
Probable space group: P 21
;
_chemical_formula_sum "Si O2"
_cell_formula_units_Z 16
_cell_length_a 5.001151
_cell_length_b 12.730468
_cell_length_c 10.534882
_cell_angle_alpha 90.000000
_cell_angle_beta 83.553847
_cell_angle_gamma 90.000000
_cell_volume 666.483807
_symmetry_space_group_name_H-M "P 21"
_symmetry_group_IT_number 4
_symmetry_cell_setting 'monoclinic'
loop_
_space_group_symop_operation_xyz
x,y,z
-x,1/2+y,-z
loop_
_atom_site_type_symbol
_atom_site_label
_atom_site_fract_x
_atom_site_fract_y
_atom_site_fract_z
Si Si1 0.492022 0.911960 0.230161
Si Si2 0.923220 0.803805 0.840411
Si Si3 0.304173 0.622119 0.280332
Si Si4 0.201920 0.976964 0.697453
Si Si5 0.484304 0.746453 0.030726
Si Si6 0.984998 0.830438 0.364821
Si Si7 0.592712 0.812899 0.616660
Si Si8 0.680595 0.146721 0.229401
O O1 0.405012 0.855308 0.103587
O O2 0.733010 0.841100 0.279108
O O3 0.212152 0.917802 0.323426
O O4 0.622732 0.026089 0.213705
O O5 0.701995 0.842951 0.750608
O O6 0.129665 0.901833 0.823742
O O7 0.024086 0.695481 0.769206
O O8 0.797661 0.770506 0.980645
O O9 0.578353 0.569195 0.311323
O O10 0.385726 0.657688 0.133339
O O11 0.072166 0.537093 0.314359
O O12 0.171202 0.726932 0.344666
O O13 0.341739 0.889024 0.601798
O O14 0.382657 0.706676 0.900124
O O15 0.824473 0.829003 0.504135
O O16 0.484019 0.695471 0.644023
#
# Coordination Sequence:
#
# PCOD9117681 Si02
#       8
#     2   2   2   2   2   2   2   2
#     4  11  27  47  70 108 142 189 236 293 371 421
#     4  10  23  44  67 106 137 188 238 296 349 432
#     4  11  24  44  67 106 134 185 232 293 361 418
#     4  11  23  43  69 100 134 179 244 281 352 420
#     4  10  25  43  69 103 144 180 230 294 351 428
#     4  11  27  47  69 100 148 184 238 305 349 428
#     4  10  24  47  69 102 143 186 243 298 353 423
#     4  10  25  43  74 105 144 189 239 292 360 434
#
# _framework density 24.006587
#
# number of rings (size 3 to 8) (size 9 to 14) (size 15 to 20)
#    0.000    1.500    1.250    1.500   14.000    2.000 
#    0.000    0.000    0.000    0.000    0.000    0.000 
#    0.000    0.000    0.000    0.000    0.000    0.000 
#
# Total GULP energy -89132.042819 kJ/mol
# GULP energy per Si atom -5570.752676 kJ/mol
# Density = 2.395195 g / cm^3
# Si number density = 24.006587 Si / 1000 Ang^3
#
#
#
# Elastic Constant Matrix: (Units=GPa)
#
#
# Indices 1 2 3 4 5 6 
#
# 1 99.7178 -4.7942 30.7899 0.0000 -22.4961 0.0000
# 2 -4.7942 70.9694 0.0722 0.0000 -0.2445 0.0000
# 3 30.7899 0.0722 96.5564 0.0000 -30.8873 0.0000
# 4 0.0000 0.0000 0.0000 9.1245 0.0000 -9.9011
# 5 -22.4961 -0.2445 -30.8873 0.0000 40.7972 0.0000
# 6 0.0000 0.0000 0.0000 -9.9011 0.0000 29.7158
#
#
#
# Elastic Compliance Matrix: (Units=1/GPa)
#
#
# Indices 1 2 3 4 5 6 
#
# 1 0.011850 0.000820 -0.002227 0.000000 0.004853 0.000000
# 2 0.000820 0.014148 -0.000132 0.000000 0.000437 0.000000
# 3 -0.002227 -0.000132 0.014085 0.000000 0.009435 0.000000
# 4 0.000000 0.000000 0.000000 0.171658 0.000000 0.057195
# 5 0.004853 0.000437 0.009435 0.000000 0.034333 0.000000
# 6 0.000000 0.000000 0.000000 0.057195 0.000000 0.052709
#
#
# Mechanical properties :
#
#
# Convention : Reuss Voigt Hill
#
# Bulk Modulus (GPa) = 27.02449 35.48659 31.25554
# Shear Modulus (GPa) = 15.91358 32.00588 23.95973
#
# Velocity S-wave (km/s) = 2.57745 3.65528 3.16262
# Velocity P-wave (km/s) = 4.48767 5.71217 5.13654
#
# Compressibility (1/GPa) = 0.03700347
#
# Stress axis : x y z
#
# Youngs Moduli (GPa) = 84.38679 70.68350 70.99763
#
# Poissons Ratio (x) = -0.05793 0.15810
# Poissons Ratio (y) = -0.06916 0.00939
# Poissons Ratio (z) = 0.18792 0.00935
#
# Static dielectric constant tensor:
#      x y z
#    x 2.131750 0.000000 0.018240 
#    y 0.000000 1.961520 0.000000 
#    z 0.018240 0.000000 1.930690 
# 
# From -- ./inp_files/10413.got.cif
#   From: 2010.05.17/outbox.cif.g08.bks.cpg/sg4_6_cif.got.tgz:10413.got - 2010.06.03 18:43:04.
