data_PCOD9117996
_publ_section_title
;
Structure prediction by ZEFSAII (Michael W. Deem and Ramdas Pophale) SiO2 
 PCOD9117996
Probable space group: P 21
;
_chemical_formula_sum "Si O2"
_cell_formula_units_Z 16
_cell_length_a 20.034263
_cell_length_b 5.394256
_cell_length_c 8.745405
_cell_angle_alpha 90.000000
_cell_angle_beta 135.821200
_cell_angle_gamma 90.000000
_cell_volume 658.650741
_symmetry_space_group_name_H-M "P 21"
_symmetry_group_IT_number 4
_symmetry_cell_setting 'monoclinic'
loop_
_space_group_symop_operation_xyz
x,y,z
-x,1/2+y,-z
loop_
_atom_site_type_symbol
_atom_site_label
_atom_site_fract_x
_atom_site_fract_y
_atom_site_fract_z
Si Si1 0.610736 0.115960 0.237223
Si Si2 0.086932 0.907012 0.781238
Si Si3 0.272650 0.131732 0.570544
Si Si4 0.563806 0.262702 0.484540
Si Si5 0.263605 0.158449 0.214690
Si Si6 0.434619 0.665289 0.161663
Si Si7 0.107015 0.190911 0.511722
Si Si8 0.240089 0.530013 0.934890
O O1 0.674222 0.368009 0.350783
O O2 0.583816 0.070774 0.374090
O O3 0.663163 0.863728 0.264161
O O4 0.541725 0.200731 0.980370
O O5 0.070303 0.998567 0.579708
O O6 0.156819 0.673691 0.884018
O O7 0.985828 0.845543 0.689165
O O8 0.157455 0.096261 0.979436
O O9 0.250444 0.231634 0.365844
O O10 0.171897 0.079499 0.487147
O O11 0.659770 0.434334 0.655877
O O12 0.474731 0.391522 0.253758
O O13 0.533883 0.263651 0.616908
O O14 0.297689 0.370717 0.154849
O O15 0.319396 0.699663 0.983832
O O16 0.184523 0.361781 0.724617
#
# Coordination Sequence:
#
# PCOD9117996 Si02
#       8
#     2   2   2   2   2   2   2   2
#     4  11  27  49  74 107 149 192 239 305 358 423
#     4  11  22  41  67 101 135 183 235 301 358 423
#     4  11  25  47  73 102 143 191 237 295 364 431
#     4  11  26  44  71 109 145 185 251 292 357 436
#     4  10  24  43  65  98 140 185 226 304 358 417
#     4  12  24  44  74 105 140 197 236 295 363 430
#     4  11  23  40  69 101 134 181 244 291 356 437
#     4  11  21  42  69  95 138 178 236 291 358 425
#
# _framework density 24.292086000000001
#
# number of rings (size 3 to 8) (size 9 to 14) (size 15 to 20)
#    0.000    1.000    3.750    2.250    3.500    5.000 
#    2.250    0.000    0.000    0.000    0.000    0.000 
#    0.000    0.000    0.000    0.000    0.000    0.000 
#
# Total GULP energy -89111.293090 kJ/mol
# GULP energy per Si atom -5569.455818 kJ/mol
# Density = 2.423680 g / cm^3
# Si number density = 24.292086 Si / 1000 Ang^3
#
#
#
# Elastic Constant Matrix: (Units=GPa)
#
#
# Indices 1 2 3 4 5 6 
#
# 1 103.8370 2.3833 57.8227 0.0000 -2.7200 0.0000
# 2 2.3833 27.0937 4.1127 0.0000 -0.7163 0.0000
# 3 57.8227 4.1127 100.1309 0.0000 -18.5586 0.0000
# 4 0.0000 0.0000 0.0000 28.3613 0.0000 -11.0108
# 5 -2.7200 -0.7163 -18.5586 0.0000 36.2684 0.0000
# 6 0.0000 0.0000 0.0000 -11.0108 0.0000 19.9447
#
#
#
# Elastic Compliance Matrix: (Units=1/GPa)
#
#
# Indices 1 2 3 4 5 6 
#
# 1 0.014599 0.000002 -0.009090 0.000000 -0.003556 0.000000
# 2 0.000002 0.037141 -0.001536 0.000000 -0.000052 0.000000
# 3 -0.009090 -0.001536 0.016756 0.000000 0.007862 0.000000
# 4 0.000000 0.000000 0.000000 0.044878 0.000000 0.024776
# 5 -0.003556 -0.000052 0.007862 0.000000 0.031328 0.000000
# 6 0.000000 0.000000 0.000000 0.024776 0.000000 0.063817
#
#
# Mechanical properties :
#
#
# Convention : Reuss Voigt Hill
#
# Bulk Modulus (GPa) = 21.16519 39.96657 30.56588
# Shear Modulus (GPa) = 20.36529 28.03105 24.19817
#
# Velocity S-wave (km/s) = 2.89857 3.40062 3.15958
# Velocity P-wave (km/s) = 4.46475 5.64864 5.09123
#
# Compressibility (1/GPa) = 0.04724738
#
# Stress axis : x y z
#
# Youngs Moduli (GPa) = 68.49790 26.92473 59.67917
#
# Poissons Ratio (x) = -0.00004 0.54247
# Poissons Ratio (y) = -0.00010 0.09167
# Poissons Ratio (z) = 0.62263 0.04136
#
# Static dielectric constant tensor:
#      x y z
#    x 2.010050 0.000000 -0.018330 
#    y 0.000000 2.099540 0.000000 
#    z -0.018330 0.000000 1.944380 
# 
# From -- ./inp_files/8730.got.cif
#   From: 2010.05.17/outbox.cif.g08.bks.cpg/sg4_5_cif.got.tgz:8730.got - 2010.06.03 18:43:04.
