data_PCOD9117915
_publ_section_title
;
Structure prediction by ZEFSAII (Michael W. Deem and Ramdas Pophale) SiO2 
 PCOD9117915
Probable space group: P 21
;
_chemical_formula_sum "Si O2"
_cell_formula_units_Z 16
_cell_length_a 18.477192
_cell_length_b 7.539138
_cell_length_c 6.245610
_cell_angle_alpha 90.000000
_cell_angle_beta 135.414415
_cell_angle_gamma 90.000000
_cell_volume 610.735953
_symmetry_space_group_name_H-M "P 21"
_symmetry_group_IT_number 4
_symmetry_cell_setting 'monoclinic'
loop_
_space_group_symop_operation_xyz
x,y,z
-x,1/2+y,-z
loop_
_atom_site_type_symbol
_atom_site_label
_atom_site_fract_x
_atom_site_fract_y
_atom_site_fract_z
Si Si1 0.857319 0.329670 0.942551
Si Si2 0.695138 0.058288 0.650641
Si Si3 0.627842 0.570119 0.530429
Si Si4 0.812279 0.766754 0.149864
Si Si5 0.992112 0.030815 0.988720
Si Si6 0.971191 0.241009 0.582330
Si Si7 0.323258 0.266314 0.756725
Si Si8 0.526034 0.874592 0.539584
O O1 0.934123 0.178057 0.008894
O O2 0.886349 0.330893 0.255018
O O3 0.742918 0.247663 0.685940
O O4 0.892774 0.496302 0.872175
O O5 0.687263 0.931691 0.426717
O O6 0.587539 0.035371 0.550174
O O7 0.777559 0.957077 0.978871
O O8 0.735322 0.636077 0.856977
O O9 0.583372 0.420831 0.592487
O O10 0.642984 0.593612 0.308440
O O11 0.539511 0.720046 0.394065
O O12 0.928431 0.716939 0.349830
O O13 0.781507 0.746602 0.331074
O O14 0.937086 0.065253 0.640692
O O15 0.986543 0.865780 0.137930
O O16 0.405461 0.315721 0.112152
#
# Coordination Sequence:
#
# PCOD9117915 Si02
#       8
#     2   2   2   2   2   2   2   2
#     4  11  22  38  59  86 119 154 192 240 289 344
#     4   9  19  36  58  85 112 151 194 233 275 347
#     4   9  19  37  58  87 112 144 191 232 283 343
#     4   9  19  35  61  84 110 152 189 237 280 346
#     4  10  24  36  58  85 113 153 194 240 285 344
#     4  11  22  40  60  85 117 154 195 240 296 338
#     4   8  18  32  60  87 107 152 190 227 286 344
#     4   9  19  36  60  83 114 148 185 233 284 340
#
# _framework density 26.197903
#
# number of rings (size 3 to 8) (size 9 to 14) (size 15 to 20)
#    0.000    3.000    1.250    0.750    1.750    8.000 
#    2.250    0.000    2.750    0.000    0.000    0.000 
#    0.000    0.000    0.000    0.000    0.000    0.000 
#
# Total GULP energy -89235.493584 kJ/mol
# GULP energy per Si atom -5577.218349 kJ/mol
# Density = 2.613828 g / cm^3
# Si number density = 26.197903 Si / 1000 Ang^3
#
#
#
# Elastic Constant Matrix: (Units=GPa)
#
#
# Indices 1 2 3 4 5 6 
#
# 1 175.8900 6.0530 34.5914 0.0000 -30.1833 0.0000
# 2 6.0530 47.6410 -2.5959 0.0000 -6.2068 0.0000
# 3 34.5914 -2.5959 53.7266 0.0000 -19.7810 0.0000
# 4 0.0000 0.0000 0.0000 29.2542 0.0000 -7.5263
# 5 -30.1833 -6.2068 -19.7810 0.0000 38.4621 0.0000
# 6 0.0000 0.0000 0.0000 -7.5263 0.0000 61.4664
#
#
#
# Elastic Compliance Matrix: (Units=1/GPa)
#
#
# Indices 1 2 3 4 5 6 
#
# 1 0.006966 -0.000564 -0.003125 0.000000 0.003768 0.000000
# 2 -0.000564 0.021846 0.003150 0.000000 0.004703 0.000000
# 3 -0.003125 0.003150 0.024747 0.000000 0.010784 0.000000
# 4 0.000000 0.000000 0.000000 0.035295 0.000000 0.004322
# 5 0.003768 0.004703 0.010784 0.000000 0.035262 0.000000
# 6 0.000000 0.000000 0.000000 0.004322 0.000000 0.016798
#
#
# Mechanical properties :
#
#
# Convention : Reuss Voigt Hill
#
# Bulk Modulus (GPa) = 19.05417 39.26162 29.15789
# Shear Modulus (GPa) = 31.35068 41.78380 36.56724
#
# Velocity S-wave (km/s) = 3.46307 3.99799 3.74010
# Velocity P-wave (km/s) = 4.82487 6.02752 5.45941
#
# Compressibility (1/GPa) = 0.05248195
#
# Stress axis : x y z
#
# Youngs Moduli (GPa) = 143.55420 45.77416 40.40871
#
# Poissons Ratio (x) = 0.02583 0.12627
# Poissons Ratio (y) = 0.08102 -0.12730
# Poissons Ratio (z) = 0.44858 -0.14421
#
# Static dielectric constant tensor:
#      x y z
#    x 2.049650 0.000000 0.007930 
#    y 0.000000 2.311650 0.000000 
#    z 0.007930 0.000000 2.011440 
# 
# From -- ./inp_files/4119.got.cif
#   From: 2010.05.17/outbox.cif.g08.bks.cpg/sg4_3_cif.got.tgz:4119.got - 2010.06.03 18:43:04.
