data_PCOD9117507
_publ_section_title
;
Structure prediction by ZEFSAII (Michael W. Deem and Ramdas Pophale) SiO2 
 PCOD9117507
Probable space group: P 21
;
_chemical_formula_sum "Si O2"
_cell_formula_units_Z 16
_cell_length_a 7.798945
_cell_length_b 11.664324
_cell_length_c 8.759189
_cell_angle_alpha 90.000000
_cell_angle_beta 63.065645
_cell_angle_gamma 90.000000
_cell_volume 710.384349
_symmetry_space_group_name_H-M "P 21"
_symmetry_group_IT_number 4
_symmetry_cell_setting 'monoclinic'
loop_
_space_group_symop_operation_xyz
x,y,z
-x,1/2+y,-z
loop_
_atom_site_type_symbol
_atom_site_label
_atom_site_fract_x
_atom_site_fract_y
_atom_site_fract_z
Si Si1 0.202269 0.335180 0.237744
Si Si2 0.569804 0.467502 0.113648
Si Si3 0.426045 0.728760 0.943027
Si Si4 0.109459 0.103467 0.175295
Si Si5 0.434396 0.093221 0.566929
Si Si6 0.731674 0.027743 0.181423
Si Si7 0.862298 0.477698 0.522370
Si Si8 0.493807 0.809428 0.258054
O O1 0.368601 0.245196 0.230433
O O2 0.040494 0.400215 0.396738
O O3 0.358602 0.433550 0.135852
O O4 0.314048 0.055748 0.036007
O O5 0.680943 0.346009 0.062532
O O6 0.691346 0.389171 0.635413
O O7 0.548587 0.511366 0.292769
O O8 0.324125 0.616910 0.927302
O O9 0.456147 0.745288 0.112549
O O10 0.952021 0.045993 0.131587
O O11 0.097576 0.241781 0.172719
O O12 0.077758 0.054904 0.357967
O O13 0.603538 0.066618 0.379284
O O14 0.461456 0.219618 0.626113
O O15 0.232975 0.060178 0.567146
O O16 0.670207 0.897829 0.175040
#
# Coordination Sequence:
#
# PCOD9117507 Si02
#       8
#     2   2   2   2   2   2   2   2
#     4  10  23  41  73  97 144 188 233 294 358 419
#     4  10  25  45  70  99 143 187 246 289 361 425
#     4  10  24  46  73  95 146 187 238 295 365 417
#     4  12  24  47  71 106 147 189 243 301 362 435
#     4  11  25  42  72 105 148 186 246 294 360 430
#     4  11  27  45  74 108 146 186 242 304 361 430
#     4  11  24  43  71 110 141 193 243 293 363 435
#     4  11  24  47  72 102 147 194 239 296 362 427
#
# _framework density 22.523018
#
# number of rings (size 3 to 8) (size 9 to 14) (size 15 to 20)
#    0.750    0.500    1.250    3.750    7.000    2.000 
#    2.250    5.000    0.000    0.000    0.000    0.000 
#    0.000    0.000    0.000    0.000    0.000    0.000 
#
# Total GULP energy -89264.822045 kJ/mol
# GULP energy per Si atom -5579.051378 kJ/mol
# Density = 2.247175 g / cm^3
# Si number density = 22.523018 Si / 1000 Ang^3
#
#
#
# Elastic Constant Matrix: (Units=GPa)
#
#
# Indices 1 2 3 4 5 6 
#
# 1 108.9034 48.2254 42.2995 0.0000 -4.2060 0.0000
# 2 48.2254 128.4920 59.6372 0.0000 16.7999 0.0000
# 3 42.2995 59.6372 86.6904 0.0000 7.9909 0.0000
# 4 0.0000 0.0000 0.0000 51.7703 0.0000 4.0140
# 5 -4.2060 16.7999 7.9909 0.0000 36.1113 0.0000
# 6 0.0000 0.0000 0.0000 4.0140 0.0000 30.7107
#
#
#
# Elastic Compliance Matrix: (Units=1/GPa)
#
#
# Indices 1 2 3 4 5 6 
#
# 1 0.012379 -0.003206 -0.004191 0.000000 0.003861 0.000000
# 2 -0.003206 0.012756 -0.006767 0.000000 -0.004810 0.000000
# 3 -0.004191 -0.006767 0.018365 0.000000 -0.001404 0.000000
# 4 0.000000 0.000000 0.000000 0.019514 0.000000 -0.002551
# 5 0.003861 -0.004810 -0.001404 0.000000 0.030690 0.000000
# 6 0.000000 0.000000 0.000000 -0.002551 0.000000 0.032895
#
#
# Mechanical properties :
#
#
# Convention : Reuss Voigt Hill
#
# Bulk Modulus (GPa) = 65.91147 69.37888 67.64518
# Shear Modulus (GPa) = 31.25318 35.31337 33.28328
#
# Velocity S-wave (km/s) = 3.72911 3.96394 3.84832
# Velocity P-wave (km/s) = 6.91876 7.19867 7.06010
#
# Compressibility (1/GPa) = 0.01517187
#
# Stress axis : x y z
#
# Youngs Moduli (GPa) = 80.78307 78.39664 54.45146
#
# Poissons Ratio (x) = 0.25132 0.22818
# Poissons Ratio (y) = 0.25897 0.36850
# Poissons Ratio (z) = 0.33853 0.53054
#
# Static dielectric constant tensor:
#      x y z
#    x 1.862280 0.000000 0.003470 
#    y 0.000000 1.912310 0.000000 
#    z 0.003470 0.000000 1.844960 
# 
# From -- ./inp_files/6418.got.cif
#   From: 2010.05.17/outbox.cif.g08.bks.cpg/sg4_4_cif.got.tgz:6418.got - 2010.06.03 18:43:04.
