data_PCOD9117414
_publ_section_title
;
Structure prediction by ZEFSAII (Michael W. Deem and Ramdas Pophale) SiO2 
 PCOD9117414
Probable space group: P 21
;
_chemical_formula_sum "Si O2"
_cell_formula_units_Z 16
_cell_length_a 11.213162
_cell_length_b 8.250759
_cell_length_c 9.104908
_cell_angle_alpha 90.000000
_cell_angle_beta 48.001611
_cell_angle_gamma 90.000000
_cell_volume 626.011070
_symmetry_space_group_name_H-M "P 21"
_symmetry_group_IT_number 4
_symmetry_cell_setting 'monoclinic'
loop_
_space_group_symop_operation_xyz
x,y,z
-x,1/2+y,-z
loop_
_atom_site_type_symbol
_atom_site_label
_atom_site_fract_x
_atom_site_fract_y
_atom_site_fract_z
Si Si1 0.248904 0.959110 0.518467
Si Si2 0.277913 0.686095 0.018367
Si Si3 0.192416 0.496322 0.493955
Si Si4 0.567087 0.509623 0.124835
Si Si5 0.973871 0.679459 0.462302
Si Si6 0.236012 0.165598 0.795218
Si Si7 0.412155 0.353716 0.885214
Si Si8 0.137620 0.668321 0.820291
O O1 0.408265 0.890346 0.314154
O O2 0.174444 0.826597 0.690248
O O3 0.280913 0.119611 0.592449
O O4 0.128199 0.020823 0.494134
O O5 0.383764 0.838434 0.981005
O O6 0.345275 0.513380 0.016417
O O7 0.256586 0.671123 0.860726
O O8 0.102890 0.708498 0.228214
O O9 0.381959 0.517442 0.320313
O O10 0.081383 0.636845 0.513864
O O11 0.157165 0.513904 0.696098
O O12 0.139180 0.334627 0.453536
O O13 0.680554 0.524858 0.175120
O O14 0.607004 0.681878 0.015474
O O15 0.314336 0.317496 0.814568
O O16 0.045658 0.168900 0.973594
#
# Coordination Sequence:
#
# PCOD9117414 Si02
#       8
#     2   2   2   2   2   2   2   2
#     4  12  23  43  72 105 153 191 247 300 385 439
#     4  12  25  47  79 112 150 190 252 313 376 442
#     4  12  28  50  73 103 156 196 254 299 372 454
#     4  10  24  48  67 115 141 199 240 311 369 446
#     4  12  29  50  74 108 145 207 251 303 376 445
#     4  10  23  38  66 111 145 188 236 306 367 430
#     4  10  25  41  71 107 154 186 240 305 383 429
#     4  12  23  43  74 109 150 187 244 315 364 443
#
# _framework density 25.558654000000001
#
# number of rings (size 3 to 8) (size 9 to 14) (size 15 to 20)
#    0.750    0.000    3.750    3.000    5.250    0.000 
#    2.250    1.250    0.000    0.000    0.000    0.000 
#    0.000    0.000    0.000    0.000    0.000    0.000 
#
# Total GULP energy -89595.025730 kJ/mol
# GULP energy per Si atom -5599.689108 kJ/mol
# Density = 2.550048 g / cm^3
# Si number density = 25.558654 Si / 1000 Ang^3
#
#
#
# Elastic Constant Matrix: (Units=GPa)
#
#
# Indices 1 2 3 4 5 6 
#
# 1 72.9715 36.3473 14.9949 0.0000 14.4034 0.0000
# 2 36.3473 159.8667 32.9474 0.0000 -14.8616 0.0000
# 3 14.9949 32.9474 67.1070 0.0000 -11.7033 0.0000
# 4 0.0000 0.0000 0.0000 36.0455 0.0000 -7.5427
# 5 14.4034 -14.8616 -11.7033 0.0000 35.7545 0.0000
# 6 0.0000 0.0000 0.0000 -7.5427 0.0000 47.0046
#
#
#
# Elastic Compliance Matrix: (Units=1/GPa)
#
#
# Indices 1 2 3 4 5 6 
#
# 1 0.018853 -0.004484 -0.003882 0.000000 -0.010729 0.000000
# 2 -0.004484 0.008147 -0.002219 0.000000 0.004466 0.000000
# 3 -0.003882 -0.002219 0.017998 0.000000 0.006533 0.000000
# 4 0.000000 0.000000 0.000000 0.028707 0.000000 0.004606
# 5 -0.010729 0.004466 0.006533 0.000000 0.036285 0.000000
# 6 0.000000 0.000000 0.000000 0.004606 0.000000 0.022014
#
#
# Mechanical properties :
#
#
# Convention : Reuss Voigt Hill
#
# Bulk Modulus (GPa) = 41.96861 52.05826 47.01344
# Shear Modulus (GPa) = 31.03338 38.13796 34.58567
#
# Velocity S-wave (km/s) = 3.48832 3.86706 3.68256
# Velocity P-wave (km/s) = 5.71670 6.35226 6.04284
#
# Compressibility (1/GPa) = 0.02382733
#
# Stress axis : x y z
#
# Youngs Moduli (GPa) = 53.04237 122.74192 55.56189
#
# Poissons Ratio (x) = 0.55033 0.21571
# Poissons Ratio (y) = 0.23782 0.12331
# Poissons Ratio (z) = 0.20593 0.27239
#
# Static dielectric constant tensor:
#      x y z
#    x 2.015210 0.000000 0.024280 
#    y 0.000000 2.106380 0.000000 
#    z 0.024280 0.000000 1.884370 
# 
# From -- ./inp_files/11986.got.cif
#   From: 2010.05.17/outbox.cif.g08.bks.cpg/sg4_6_cif.got.tgz:11986.got - 2010.06.03 18:43:04.
