data_PCOD9117852
_publ_section_title
;
Structure prediction by ZEFSAII (Michael W. Deem and Ramdas Pophale) SiO2 
 PCOD9117852
Probable space group: P 21
;
_chemical_formula_sum "Si O2"
_cell_formula_units_Z 12
_cell_length_a 9.400703
_cell_length_b 10.649976
_cell_length_c 9.477385
_cell_angle_alpha 90.000000
_cell_angle_beta 148.446567
_cell_angle_gamma 90.000000
_cell_volume 496.526943
_symmetry_space_group_name_H-M "P 21"
_symmetry_group_IT_number 4
_symmetry_cell_setting 'monoclinic'
loop_
_space_group_symop_operation_xyz
x,y,z
-x,1/2+y,-z
loop_
_atom_site_type_symbol
_atom_site_label
_atom_site_fract_x
_atom_site_fract_y
_atom_site_fract_z
Si Si1 0.493995 0.000000 0.286548
Si Si2 0.459492 0.468136 0.985937
Si Si3 0.927419 0.628885 0.514245
Si Si4 0.173368 0.840530 0.206284
Si Si5 0.750265 0.777011 0.630520
Si Si6 0.289180 0.771424 0.609175
O O1 0.570764 0.252446 0.622771
O O2 0.258643 0.970749 0.201160
O O3 0.576788 0.141659 0.329395
O O4 0.430840 0.941737 0.079280
O O5 0.498019 0.351838 0.121692
O O6 0.650837 0.575112 0.215971
O O7 0.158141 0.521970 0.714468
O O8 0.048178 0.733538 0.511409
O O9 0.881442 0.684845 0.629701
O O10 0.743485 0.917551 0.557696
O O11 0.185193 0.844343 0.383552
O O12 0.904091 0.788151 0.907919
#
# Coordination Sequence:
#
# PCOD9117852 Si02
#       6
#     2   2   2   2   2   2
#     4   9  25  44  72  98 147 182 234 291 358 411
#     4  11  26  43  70 113 135 188 236 298 355 418
#     4  11  26  44  75 103 144 181 244 297 349 423
#     4  10  24  44  68 102 139 188 232 283 358 421
#     4  10  23  47  69  99 145 190 229 292 357 414
#     4  11  26  46  74 107 142 187 241 295 351 427
#
# _framework density 24.167874999999999
#
# number of rings (size 3 to 8) (size 9 to 14) (size 15 to 20)
#    1.000    0.667    0.000    2.000   14.000    6.667 
#    3.000    0.000    0.000    0.000    0.000    0.000 
#    0.000    0.000    0.000    0.000    0.000    0.000 
#
# Total GULP energy -67160.250290 kJ/mol
# GULP energy per Si atom -5596.687524 kJ/mol
# Density = 2.411287 g / cm^3
# Si number density = 24.167875 Si / 1000 Ang^3
#
#
#
# Elastic Constant Matrix: (Units=GPa)
#
#
# Indices 1 2 3 4 5 6 
#
# 1 88.1219 34.8649 25.8375 0.0000 -26.0397 0.0000
# 2 34.8649 70.0729 24.6849 0.0000 -15.2473 0.0000
# 3 25.8375 24.6849 118.0295 0.0000 -30.4062 0.0000
# 4 0.0000 0.0000 0.0000 29.5516 0.0000 1.0890
# 5 -26.0397 -15.2473 -30.4062 0.0000 46.5616 0.0000
# 6 0.0000 0.0000 0.0000 1.0890 0.0000 28.4038
#
#
#
# Elastic Compliance Matrix: (Units=1/GPa)
#
#
# Indices 1 2 3 4 5 6 
#
# 1 0.015920 -0.006334 -0.000482 0.000000 0.006514 0.000000
# 2 -0.006334 0.018426 -0.002194 0.000000 0.001059 0.000000
# 3 -0.000482 -0.002194 0.010559 0.000000 0.005907 0.000000
# 4 0.000000 0.000000 0.000000 0.033887 0.000000 -0.001299
# 5 0.006514 0.001059 0.005907 0.000000 0.029324 0.000000
# 6 0.000000 0.000000 0.000000 -0.001299 0.000000 0.035256
#
#
# Mechanical properties :
#
#
# Convention : Reuss Voigt Hill
#
# Bulk Modulus (GPa) = 37.19703 49.66655 43.43179
# Shear Modulus (GPa) = 29.35068 33.62588 31.48828
#
# Velocity S-wave (km/s) = 3.48868 3.73412 3.61348
# Velocity P-wave (km/s) = 5.62604 6.25994 5.95143
#
# Compressibility (1/GPa) = 0.02688387
#
# Stress axis : x y z
#
# Youngs Moduli (GPa) = 62.81327 54.27239 94.70915
#
# Poissons Ratio (x) = 0.34375 0.04567
# Poissons Ratio (y) = 0.39784 0.20782
# Poissons Ratio (z) = 0.03029 0.11909
#
# Static dielectric constant tensor:
#      x y z
#    x 1.938310 0.000000 0.010840 
#    y 0.000000 1.969790 0.000000 
#    z 0.010840 0.000000 1.857200 
# 
# From -- ./inp_files/1079.got.cif
#   From: 2010.05.17/outbox.cif.g08.bks.cpg/sg4_1_cif.got.tgz:1079.got - 2010.06.03 18:43:04.
