data_PCOD9117430
_publ_section_title
;
Structure prediction by ZEFSAII (Michael W. Deem and Ramdas Pophale) SiO2 
 PCOD9117430
Probable space group: P 21
;
_chemical_formula_sum "Si O2"
_cell_formula_units_Z 14
_cell_length_a 11.145273
_cell_length_b 9.016025
_cell_length_c 7.584660
_cell_angle_alpha 90.000000
_cell_angle_beta 58.921404
_cell_angle_gamma 90.000000
_cell_volume 652.753205
_symmetry_space_group_name_H-M "P 21"
_symmetry_group_IT_number 4
_symmetry_cell_setting 'monoclinic'
loop_
_space_group_symop_operation_xyz
x,y,z
-x,1/2+y,-z
loop_
_atom_site_type_symbol
_atom_site_label
_atom_site_fract_x
_atom_site_fract_y
_atom_site_fract_z
Si Si1 0.170776 0.444220 0.417575
Si Si2 0.651693 0.194505 0.813711
Si Si3 0.078430 0.120979 0.928874
Si Si4 0.853123 0.441183 0.788943
Si Si5 0.263669 0.132584 0.447984
Si Si6 0.473431 0.467991 0.808799
Si Si7 0.163673 0.436298 0.998331
O O1 0.250505 0.598752 0.392355
O O2 0.264871 0.306585 0.406760
O O3 0.153120 0.438540 0.218719
O O4 0.017480 0.424117 0.617390
O O5 0.762859 0.291406 0.843056
O O6 0.545871 0.314150 0.812010
O O7 0.567534 0.074063 0.993833
O O8 0.154444 0.103172 0.685205
O O9 0.091758 0.288051 0.983467
O O10 0.919337 0.071530 0.023164
O O11 0.152000 0.018179 0.018522
O O12 0.788832 0.550040 0.689097
O O13 0.412564 0.062523 0.383064
O O14 0.326837 0.436185 0.827053
#
# Coordination Sequence:
#
# PCOD9117430 Si02
#       7
#     2   2   2   2   2   2   2
#     4  11  21  42  72 105 139 183 240 289 357 417
#     4  10  23  39  74 104 137 193 234 292 356 421
#     4  12  26  44  69 103 141 185 234 297 346 423
#     4  11  23  42  73 103 139 184 235 296 352 416
#     4  11  23  46  70  98 139 184 233 291 356 421
#     4  10  23  44  66 103 141 181 239 286 354 430
#     4  11  25  43  68 100 144 180 241 291 355 422
#
# _framework density 21.447614999999999
#
# number of rings (size 3 to 8) (size 9 to 14) (size 15 to 20)
#    0.000    1.143    2.857    3.429    8.000    0.000 
#    2.571    1.429    0.000    0.000    0.000    0.000 
#    0.000    0.000    0.000    0.000    0.000    0.000 
#
# Total GULP energy -78301.725923 kJ/mol
# GULP energy per Si atom -5592.980423 kJ/mol
# Density = 2.139880 g / cm^3
# Si number density = 21.447615 Si / 1000 Ang^3
#
#
#
# Elastic Constant Matrix: (Units=GPa)
#
#
# Indices 1 2 3 4 5 6 
#
# 1 111.2839 81.4296 40.7481 0.0000 -20.5465 0.0000
# 2 81.4296 141.4101 19.2455 0.0000 -22.1141 0.0000
# 3 40.7481 19.2455 37.2994 0.0000 -7.7570 0.0000
# 4 0.0000 0.0000 0.0000 24.6005 0.0000 -7.3053
# 5 -20.5465 -22.1141 -7.7570 0.0000 41.6962 0.0000
# 6 0.0000 0.0000 0.0000 -7.3053 0.0000 51.3450
#
#
#
# Elastic Compliance Matrix: (Units=1/GPa)
#
#
# Indices 1 2 3 4 5 6 
#
# 1 0.025878 -0.011533 -0.021783 0.000000 0.002583 0.000000
# 2 -0.011533 0.013251 0.006285 0.000000 0.002514 0.000000
# 3 -0.021783 0.006285 0.047669 0.000000 0.001468 0.000000
# 4 0.000000 0.000000 0.000000 0.042443 0.000000 0.006039
# 5 0.002583 0.002514 0.001468 0.000000 0.026862 0.000000
# 6 0.000000 0.000000 0.000000 0.006039 0.000000 0.020335
#
#
# Mechanical properties :
#
#
# Convention : Reuss Voigt Hill
#
# Bulk Modulus (GPa) = 30.54688 63.64885 47.09787
# Shear Modulus (GPa) = 20.71149 33.43302 27.07226
#
# Velocity S-wave (km/s) = 3.11091 3.95248 3.55667
# Velocity P-wave (km/s) = 5.21317 7.11128 6.23488
#
# Compressibility (1/GPa) = 0.03273657
#
# Stress axis : x y z
#
# Youngs Moduli (GPa) = 38.64261 75.46836 20.97784
#
# Poissons Ratio (x) = 0.87039 0.45696
# Poissons Ratio (y) = 0.44567 -0.13185
# Poissons Ratio (z) = 0.84175 -0.47435
#
# Static dielectric constant tensor:
#      x y z
#    x 1.783710 0.000000 -0.014420 
#    y 0.000000 1.784890 0.000000 
#    z -0.014420 0.000000 1.773330 
# 
# From -- ./inp_files/7965.got.cif
#   From: 2010.05.17/outbox.cif.g08.bks.cpg/sg4_4_cif.got.tgz:7965.got - 2010.06.03 18:43:04.
