data_PCOD9117527
_publ_section_title
;
Structure prediction by ZEFSAII (Michael W. Deem and Ramdas Pophale) SiO2 
 PCOD9117527
Probable space group: P 21
;
_chemical_formula_sum "Si O2"
_cell_formula_units_Z 16
_cell_length_a 21.334935
_cell_length_b 6.196866
_cell_length_c 5.458072
_cell_angle_alpha 90.000000
_cell_angle_beta 70.212328
_cell_angle_gamma 90.000000
_cell_volume 679.001779
_symmetry_space_group_name_H-M "P 21"
_symmetry_group_IT_number 4
_symmetry_cell_setting 'monoclinic'
loop_
_space_group_symop_operation_xyz
x,y,z
-x,1/2+y,-z
loop_
_atom_site_type_symbol
_atom_site_label
_atom_site_fract_x
_atom_site_fract_y
_atom_site_fract_z
Si Si1 0.386700 0.684130 0.147560
Si Si2 0.531622 0.215156 0.462834
Si Si3 0.733528 0.498963 0.637761
Si Si4 0.708922 0.888828 0.448368
Si Si5 0.166526 0.634305 0.507058
Si Si6 0.218340 0.355197 0.046861
Si Si7 0.047097 0.886227 0.679885
Si Si8 0.082156 0.136472 0.131187
O O1 0.431504 0.744360 0.324307
O O2 0.325754 0.849892 0.198848
O O3 0.348121 0.473383 0.304034
O O4 0.426715 0.679643 0.843093
O O5 0.500626 0.464964 0.467872
O O6 0.709416 0.631878 0.434640
O O7 0.798612 0.362586 0.498701
O O8 0.751573 0.686236 0.800289
O O9 0.714380 0.957453 0.161313
O O10 0.783632 0.975657 0.415426
O O11 0.089571 0.664354 0.661131
O O12 0.179099 0.555177 0.216447
O O13 0.157866 0.216019 0.012869
O O14 0.969706 0.831810 0.762716
O O15 0.072263 0.991587 0.390688
O O16 0.061836 0.024743 0.902650
#
# Coordination Sequence:
#
# PCOD9117527 Si02
#       8
#     2   2   2   2   2   2   2   2
#     4  11  28  47  80 118 158 207 258 311 378 450
#     4  12  30  54  85 119 165 214 264 317 377 453
#     4  10  23  44  68 109 149 196 242 314 374 453
#     4  10  25  40  72 105 153 194 249 310 381 450
#     4  10  23  42  65 100 144 185 247 308 387 451
#     4  11  24  41  71 103 148 194 248 315 392 455
#     4  12  26  46  68  98 135 189 249 316 384 469
#     4  12  27  44  71  96 138 189 249 315 389 465
#
# _framework density 23.564005999999999
#
# number of rings (size 3 to 8) (size 9 to 14) (size 15 to 20)
#    0.000    1.000    1.250    3.000   15.750    1.000 
#    0.000    0.000    0.000    0.000    0.000    0.000 
#    0.000    0.000    0.000    0.000    0.000    0.000 
#
# Total GULP energy -89073.049896 kJ/mol
# GULP energy per Si atom -5567.065619 kJ/mol
# Density = 2.351037 g / cm^3
# Si number density = 23.564006 Si / 1000 Ang^3
#
#
#
# Elastic Constant Matrix: (Units=GPa)
#
#
# Indices 1 2 3 4 5 6 
#
# 1 67.4446 9.3180 9.7443 0.0000 0.5709 0.0000
# 2 9.3180 68.7645 0.9022 0.0000 -6.7810 0.0000
# 3 9.7443 0.9022 107.1785 0.0000 -16.0214 0.0000
# 4 0.0000 0.0000 0.0000 40.4007 0.0000 1.8957
# 5 0.5709 -6.7810 -16.0214 0.0000 27.1044 0.0000
# 6 0.0000 0.0000 0.0000 1.8957 0.0000 27.3423
#
#
#
# Elastic Compliance Matrix: (Units=1/GPa)
#
#
# Indices 1 2 3 4 5 6 
#
# 1 0.015393 -0.002248 -0.001660 0.000000 -0.001868 0.000000
# 2 -0.002248 0.015261 0.000717 0.000000 0.004289 0.000000
# 3 -0.001660 0.000717 0.010429 0.000000 0.006379 0.000000
# 4 0.000000 0.000000 0.000000 0.024833 0.000000 -0.001722
# 5 -0.001868 0.004289 0.006379 0.000000 0.041777 0.000000
# 6 0.000000 0.000000 0.000000 -0.001722 0.000000 0.036693
#
#
# Mechanical properties :
#
#
# Convention : Reuss Voigt Hill
#
# Bulk Modulus (GPa) = 28.81805 31.47963 30.14884
# Shear Modulus (GPa) = 30.80070 33.86435 32.33253
#
# Velocity S-wave (km/s) = 3.61932 3.79505 3.70823
# Velocity P-wave (km/s) = 5.45181 5.70889 5.58183
#
# Compressibility (1/GPa) = 0.03470047
#
# Stress axis : x y z
#
# Youngs Moduli (GPa) = 64.96364 65.52821 95.89008
#
# Poissons Ratio (x) = 0.14733 0.15916
# Poissons Ratio (y) = 0.14606 -0.06876
# Poissons Ratio (z) = 0.10783 -0.04699
#
# Static dielectric constant tensor:
#      x y z
#    x 2.001560 0.000000 0.167370 
#    y 0.000000 1.988740 0.000000 
#    z 0.167370 0.000000 2.159390 
# 
# From -- ./inp_files/3968.got.cif
#   From: 2010.05.17/outbox.cif.g08.bks.cpg/sg4_2_cif.got.tgz:3968.got - 2010.06.03 18:43:04.
