data_PCOD9117803
_publ_section_title
;
Structure prediction by ZEFSAII (Michael W. Deem and Ramdas Pophale) SiO2 
 PCOD9117803
Probable space group: P 21
;
_chemical_formula_sum "Si O2"
_cell_formula_units_Z 14
_cell_length_a 5.234906
_cell_length_b 12.525078
_cell_length_c 8.179571
_cell_angle_alpha 90.000000
_cell_angle_beta 96.383429
_cell_angle_gamma 90.000000
_cell_volume 532.989799
_symmetry_space_group_name_H-M "P 21"
_symmetry_group_IT_number 4
_symmetry_cell_setting 'monoclinic'
loop_
_space_group_symop_operation_xyz
x,y,z
-x,1/2+y,-z
loop_
_atom_site_type_symbol
_atom_site_label
_atom_site_fract_x
_atom_site_fract_y
_atom_site_fract_z
Si Si1 0.667212 0.800250 0.133916
Si Si2 0.949969 0.590283 0.247372
Si Si3 0.361558 0.919203 0.578155
Si Si4 0.128964 0.690359 0.601841
Si Si5 0.788439 0.898120 0.830576
Si Si6 0.650602 0.581680 0.724142
Si Si7 0.166923 0.886697 0.114157
O O1 0.795135 0.685874 0.154106
O O2 0.391971 0.810903 0.197978
O O3 0.902250 0.878932 0.201969
O O4 0.600096 0.844557 0.949064
O O5 0.752880 0.500241 0.295978
O O6 0.082161 0.635238 0.421890
O O7 0.156950 0.525304 0.155581
O O8 0.191059 0.813404 0.571223
O O9 0.651441 0.886562 0.647970
O O10 0.359600 0.990243 0.416602
O O11 0.378063 0.638835 0.705730
O O12 0.876608 0.662760 0.690265
O O13 0.048377 0.851053 0.930998
O O14 0.725991 0.506702 0.881068
#
# Coordination Sequence:
#
# PCOD9117803 Si02
#       7
#     2   2   2   2   2   2   2
#     4  10  24  43  73  97 139 186 231 277 360 414
#     4  11  24  47  71 105 142 188 234 295 356 418
#     4  11  25  44  73 100 148 179 243 290 353 425
#     4  11  26  42  71 105 136 189 232 292 359 414
#     4  10  24  45  69 106 140 185 235 294 345 426
#     4  11  24  45  71 103 140 184 234 295 354 419
#     4  10  23  46  68 106 139 181 237 291 345 430
#
# _framework density 26.266915000000001
#
# number of rings (size 3 to 8) (size 9 to 14) (size 15 to 20)
#    0.857    0.571    1.429    2.571    4.000    4.571 
#    2.571    0.000    0.000    0.000    0.000    0.000 
#    0.000    0.000    0.000    0.000    0.000    0.000 
#
# Total GULP energy -78212.005509 kJ/mol
# GULP energy per Si atom -5586.571822 kJ/mol
# Density = 2.620713 g / cm^3
# Si number density = 26.266915 Si / 1000 Ang^3
#
#
#
# Elastic Constant Matrix: (Units=GPa)
#
#
# Indices 1 2 3 4 5 6 
#
# 1 174.0241 49.7857 28.6097 0.0000 43.3196 0.0000
# 2 49.7857 143.0872 26.2227 0.0000 19.9995 0.0000
# 3 28.6097 26.2227 65.3028 0.0000 15.2451 0.0000
# 4 0.0000 0.0000 0.0000 50.6279 0.0000 4.2242
# 5 43.3196 19.9995 15.2451 0.0000 35.1283 0.0000
# 6 0.0000 0.0000 0.0000 4.2242 0.0000 50.6330
#
#
#
# Elastic Compliance Matrix: (Units=1/GPa)
#
#
# Indices 1 2 3 4 5 6 
#
# 1 0.008690 -0.001525 -0.000997 0.000000 -0.009416 0.000000
# 2 -0.001525 0.008175 -0.002189 0.000000 -0.001824 0.000000
# 3 -0.000997 -0.002189 0.017861 0.000000 -0.005276 0.000000
# 4 0.000000 0.000000 0.000000 0.019890 0.000000 -0.001659
# 5 -0.009416 -0.001824 -0.005276 0.000000 0.043407 0.000000
# 6 0.000000 0.000000 0.000000 -0.001659 0.000000 0.019888
#
#
# Mechanical properties :
#
#
# Convention : Reuss Voigt Hill
#
# Bulk Modulus (GPa) = 39.51784 65.73890 52.62837
# Shear Modulus (GPa) = 36.82736 45.79757 41.31246
#
# Velocity S-wave (km/s) = 3.74845 4.18011 3.97015
# Velocity P-wave (km/s) = 5.81480 6.95553 6.41059
#
# Compressibility (1/GPa) = 0.02530503
#
# Stress axis : x y z
#
# Youngs Moduli (GPa) = 115.06944 122.31750 55.98910
#
# Poissons Ratio (x) = 0.18653 0.05581
# Poissons Ratio (y) = 0.17548 0.12256
# Poissons Ratio (z) = 0.11470 0.26775
#
# Static dielectric constant tensor:
#      x y z
#    x 2.133690 0.000000 -0.084180 
#    y 0.000000 2.021150 0.000000 
#    z -0.084180 0.000000 2.139180 
# 
# From -- ./inp_files/10477.got.cif
#   From: 2010.05.17/outbox.cif.g08.bks.cpg/sg4_6_cif.got.tgz:10477.got - 2010.06.03 18:43:04.
