data_PCOD9117633
_publ_section_title
;
Structure prediction by ZEFSAII (Michael W. Deem and Ramdas Pophale) SiO2 
 PCOD9117633
Probable space group: P 21
;
_chemical_formula_sum "Si O2"
_cell_formula_units_Z 16
_cell_length_a 11.217418
_cell_length_b 7.755761
_cell_length_c 9.034956
_cell_angle_alpha 90.000000
_cell_angle_beta 123.183212
_cell_angle_gamma 90.000000
_cell_volume 657.854359
_symmetry_space_group_name_H-M "P 21"
_symmetry_group_IT_number 4
_symmetry_cell_setting 'monoclinic'
loop_
_space_group_symop_operation_xyz
x,y,z
-x,1/2+y,-z
loop_
_atom_site_type_symbol
_atom_site_label
_atom_site_fract_x
_atom_site_fract_y
_atom_site_fract_z
Si Si1 0.280411 0.003300 0.481570
Si Si2 0.437588 0.386138 0.190719
Si Si3 0.579806 0.247113 0.882370
Si Si4 0.381471 0.557094 0.694585
Si Si5 0.175601 0.207689 0.144970
Si Si6 0.027788 0.935362 0.858010
Si Si7 0.795330 0.332834 0.278079
Si Si8 0.746705 0.164193 0.689662
O O1 0.248768 0.159844 0.351772
O O2 0.446635 0.953454 0.610260
O O3 0.226081 0.980402 0.612625
O O4 0.206422 0.846338 0.346767
O O5 0.440600 0.547395 0.081454
O O6 0.499489 0.201982 0.183655
O O7 0.280186 0.344963 0.139794
O O8 0.440242 0.365447 0.764516
O O9 0.666389 0.213554 0.787555
O O10 0.678463 0.338277 0.068828
O O11 0.239009 0.645415 0.670085
O O12 0.360167 0.580941 0.504177
O O13 0.017080 0.272052 0.074772
O O14 0.150862 0.049815 0.016097
O O15 0.883571 0.043924 0.770706
O O16 0.062758 0.868247 0.717746
#
# Coordination Sequence:
#
# PCOD9117633 Si02
#       8
#     2   2   2   2   2   2   2   2
#     4  10  25  45  70 104 148 186 255 318 389 456
#     4  10  24  40  72 106 141 186 248 316 384 434
#     4  12  23  43  76 104 148 189 254 319 382 453
#     4  10  26  44  69 108 150 189 246 322 390 453
#     4  12  25  45  73 111 144 203 257 327 371 456
#     4  12  25  44  74 103 151 200 257 307 378 463
#     4  10  25  46  64 105 145 201 240 299 392 463
#     4  10  23  43  70 107 139 196 251 314 380 446
#
# _framework density 24.321494999999999
#
# number of rings (size 3 to 8) (size 9 to 14) (size 15 to 20)
#    0.000    1.500    1.250    3.750   12.250    2.000 
#    0.000    0.000    0.000    0.000    0.000    0.000 
#    0.000    0.000    0.000    0.000    0.000    0.000 
#
# Total GULP energy -89258.706542 kJ/mol
# GULP energy per Si atom -5578.669159 kJ/mol
# Density = 2.426614 g / cm^3
# Si number density = 24.321495 Si / 1000 Ang^3
#
#
#
# Elastic Constant Matrix: (Units=GPa)
#
#
# Indices 1 2 3 4 5 6 
#
# 1 148.9074 50.7939 24.9384 0.0000 -30.7628 0.0000
# 2 50.7939 115.1544 21.2241 0.0000 -9.6698 0.0000
# 3 24.9384 21.2241 68.6871 0.0000 -23.2074 0.0000
# 4 0.0000 0.0000 0.0000 36.7769 0.0000 0.6016
# 5 -30.7628 -9.6698 -23.2074 0.0000 33.9557 0.0000
# 6 0.0000 0.0000 0.0000 0.6016 0.0000 46.9802
#
#
#
# Elastic Compliance Matrix: (Units=1/GPa)
#
#
# Indices 1 2 3 4 5 6 
#
# 1 0.009499 -0.003590 0.000290 0.000000 0.007782 0.000000
# 2 -0.003590 0.010585 -0.002663 0.000000 -0.002058 0.000000
# 3 0.000290 -0.002663 0.019645 0.000000 0.012931 0.000000
# 4 0.000000 0.000000 0.000000 0.027197 0.000000 -0.000348
# 5 0.007782 -0.002058 0.012931 0.000000 0.044752 0.000000
# 6 0.000000 0.000000 0.000000 -0.000348 0.000000 0.021290
#
#
# Mechanical properties :
#
#
# Convention : Reuss Voigt Hill
#
# Bulk Modulus (GPa) = 35.96628 58.51795 47.24211
# Shear Modulus (GPa) = 32.43325 39.26208 35.84766
#
# Velocity S-wave (km/s) = 3.65570 4.02219 3.84332
# Velocity P-wave (km/s) = 5.71304 6.75893 6.25787
#
# Compressibility (1/GPa) = 0.02780382
#
# Stress axis : x y z
#
# Youngs Moduli (GPa) = 105.27122 94.46896 50.90252
#
# Poissons Ratio (x) = 0.33914 -0.01474
# Poissons Ratio (y) = 0.37792 0.13554
# Poissons Ratio (z) = -0.03048 0.25154
#
# Static dielectric constant tensor:
#      x y z
#    x 2.012230 0.000000 -0.012900 
#    y 0.000000 2.062140 0.000000 
#    z -0.012900 0.000000 1.974250 
# 
# From -- ./inp_files/7792.got.cif
#   From: 2010.05.17/outbox.cif.g08.bks.cpg/sg4_4_cif.got.tgz:7792.got - 2010.06.03 18:43:04.
