data_PCOD9117106
_publ_section_title
;
Structure prediction by ZEFSAII (Michael W. Deem and Ramdas Pophale) SiO2 
 PCOD9117106
Probable space group: P 21
;
_chemical_formula_sum "Si O2"
_cell_formula_units_Z 16
_cell_length_a 13.609570
_cell_length_b 9.097959
_cell_length_c 10.154059
_cell_angle_alpha 90.000000
_cell_angle_beta 148.679899
_cell_angle_gamma 90.000000
_cell_volume 653.551904
_symmetry_space_group_name_H-M "P 21"
_symmetry_group_IT_number 4
_symmetry_cell_setting 'monoclinic'
loop_
_space_group_symop_operation_xyz
x,y,z
-x,1/2+y,-z
loop_
_atom_site_type_symbol
_atom_site_label
_atom_site_fract_x
_atom_site_fract_y
_atom_site_fract_z
Si Si1 0.172999 0.412840 0.528386
Si Si2 0.800437 0.051125 0.892808
Si Si3 0.378238 0.125016 0.845521
Si Si4 0.745643 0.407293 0.062998
Si Si5 0.020216 0.257200 0.962360
Si Si6 0.655566 0.191776 0.385149
Si Si7 0.706258 0.064072 0.068373
Si Si8 0.592343 0.603958 0.677841
O O1 0.245189 0.247693 0.630166
O O2 0.290565 0.517176 0.566184
O O3 0.955805 0.421897 0.250380
O O4 0.192546 0.491520 0.692426
O O5 0.809101 0.010650 0.055442
O O6 0.576967 0.076771 0.616465
O O7 0.913380 0.190949 0.966664
O O8 0.893178 0.917641 0.919743
O O9 0.485087 0.039109 0.850587
O O10 0.288256 0.015838 0.850793
O O11 0.540202 0.211023 0.117317
O O12 0.718014 0.240048 0.071228
O O13 0.622270 0.457723 0.798129
O O14 0.856507 0.259469 0.660233
O O15 0.206633 0.161105 0.141641
O O16 0.502864 0.215970 0.325443
#
# Coordination Sequence:
#
# PCOD9117106 Si02
#       8
#     2   2   2   2   2   2   2   2
#     4  11  22  43  70 106 141 182 239 288 359 431
#     4  11  29  47  72 110 140 193 245 302 365 426
#     4  10  22  43  70 102 143 190 230 296 362 430
#     4  11  23  43  71  99 140 189 230 294 362 427
#     4  11  25  50  73 102 146 191 249 304 355 436
#     4   9  21  42  71 102 138 187 233 291 363 422
#     4  11  25  42  65 105 142 178 236 287 359 432
#     4  10  23  44  74  96 138 188 236 300 359 424
#
# _framework density 24.481607
#
# number of rings (size 3 to 8) (size 9 to 14) (size 15 to 20)
#    0.000    1.500    1.250    3.000    7.000    3.000 
#    4.500    1.250    0.000    0.000    0.000    0.000 
#    0.000    0.000    0.000    0.000    0.000    0.000 
#
# Total GULP energy -89408.187473 kJ/mol
# GULP energy per Si atom -5588.011717 kJ/mol
# Density = 2.442589 g / cm^3
# Si number density = 24.481607 Si / 1000 Ang^3
#
#
#
# Elastic Constant Matrix: (Units=GPa)
#
#
# Indices 1 2 3 4 5 6 
#
# 1 110.7949 13.5479 43.4910 0.0000 18.5916 0.0000
# 2 13.5479 80.3322 -4.6790 0.0000 12.4976 0.0000
# 3 43.4910 -4.6790 93.1066 0.0000 36.2149 0.0000
# 4 0.0000 0.0000 0.0000 26.2623 0.0000 5.3283
# 5 18.5916 12.4976 36.2149 0.0000 32.3935 0.0000
# 6 0.0000 0.0000 0.0000 5.3283 0.0000 37.3028
#
#
#
# Elastic Compliance Matrix: (Units=1/GPa)
#
#
# Indices 1 2 3 4 5 6 
#
# 1 0.011454 -0.002398 -0.005792 0.000000 0.000827 0.000000
# 2 -0.002398 0.015016 0.006357 0.000000 -0.011524 0.000000
# 3 -0.005792 0.006357 0.023757 0.000000 -0.025688 0.000000
# 4 0.000000 0.000000 0.000000 0.039214 0.000000 -0.005601
# 5 0.000827 -0.011524 -0.025688 0.000000 0.063560 0.000000
# 6 0.000000 0.000000 0.000000 -0.005601 0.000000 0.027608
#
#
# Mechanical properties :
#
#
# Convention : Reuss Voigt Hill
#
# Bulk Modulus (GPa) = 21.47743 43.21705 32.34724
# Shear Modulus (GPa) = 25.02568 34.64995 29.83782
#
# Velocity S-wave (km/s) = 3.20069 3.76619 3.49490
# Velocity P-wave (km/s) = 4.73827 6.05008 5.43390
#
# Compressibility (1/GPa) = 0.04656050
#
# Stress axis : x y z
#
# Youngs Moduli (GPa) = 87.30714 66.59663 42.09263
#
# Poissons Ratio (x) = 0.15968 0.24382
# Poissons Ratio (y) = 0.20934 -0.26758
# Poissons Ratio (z) = 0.50572 -0.42335
#
# Static dielectric constant tensor:
#      x y z
#    x 1.995900 0.000000 -0.012760 
#    y 0.000000 1.982050 0.000000 
#    z -0.012760 0.000000 1.964140 
# 
# From -- ./inp_files/12595.got.cif
#   From: 2010.05.17/outbox.cif.g08.bks.cpg/sg4_7_cif.got.tgz:12595.got - 2010.06.03 18:43:04.
