data_PCOD9117734
_publ_section_title
;
Structure prediction by ZEFSAII (Michael W. Deem and Ramdas Pophale) SiO2 
 PCOD9117734
Probable space group: P 21
;
_chemical_formula_sum "Si O2"
_cell_formula_units_Z 16
_cell_length_a 15.745890
_cell_length_b 5.454845
_cell_length_c 23.105895
_cell_angle_alpha 90.000000
_cell_angle_beta 161.282658
_cell_angle_gamma 90.000000
_cell_volume 636.856664
_symmetry_space_group_name_H-M "P 21"
_symmetry_group_IT_number 4
_symmetry_cell_setting 'monoclinic'
loop_
_space_group_symop_operation_xyz
x,y,z
-x,1/2+y,-z
loop_
_atom_site_type_symbol
_atom_site_label
_atom_site_fract_x
_atom_site_fract_y
_atom_site_fract_z
Si Si1 0.171483 0.998490 0.105444
Si Si2 0.961501 0.233142 0.421671
Si Si3 0.815770 0.591128 0.012852
Si Si4 0.506009 0.381060 0.917894
Si Si5 0.436862 0.556972 0.425240
Si Si6 0.584850 0.451856 0.273019
Si Si7 0.638089 0.311309 0.441567
Si Si8 0.161999 0.050139 0.757670
O O1 0.420890 0.087892 0.305002
O O2 0.265475 0.970449 0.100197
O O3 0.022019 0.741585 0.021548
O O4 0.796918 0.288541 0.373704
O O5 0.015967 0.391936 0.399765
O O6 0.766166 0.032220 0.266301
O O7 0.258736 0.199310 0.637018
O O8 0.126903 0.597479 0.216649
O O9 0.695781 0.440831 0.987946
O O10 0.692978 0.865514 0.930981
O O11 0.390632 0.116464 0.857996
O O12 0.672046 0.448470 0.082158
O O13 0.536056 0.806008 0.519758
O O14 0.570453 0.496870 0.449592
O O15 0.592974 0.411974 0.347240
O O16 0.946149 0.237470 0.644180
#
# Coordination Sequence:
#
# PCOD9117734 Si02
#       8
#     2   2   2   2   2   2   2   2
#     4  11  25  50  80 111 154 197 259 330 390 457
#     4  11  23  45  72 109 155 189 255 309 383 460
#     4  10  25  50  74 112 147 202 256 315 390 453
#     4  11  24  46  69 110 151 202 247 307 376 461
#     4  12  29  53  79 113 157 206 263 323 384 461
#     4  10  23  44  75 111 147 198 245 322 383 454
#     4  11  25  47  78 112 148 197 263 314 392 454
#     4  12  24  45  73 110 153 203 252 306 382 462
#
# _framework density 25.123394999999999
#
# number of rings (size 3 to 8) (size 9 to 14) (size 15 to 20)
#    0.000    1.000    3.750    1.500    1.750    5.000 
#   11.250    0.000    0.000    0.000    0.000    0.000 
#    0.000    0.000    0.000    0.000    0.000    0.000 
#
# Total GULP energy -89347.764748 kJ/mol
# GULP energy per Si atom -5584.235297 kJ/mol
# Density = 2.506621 g / cm^3
# Si number density = 25.123395 Si / 1000 Ang^3
#
#
#
# Elastic Constant Matrix: (Units=GPa)
#
#
# Indices 1 2 3 4 5 6 
#
# 1 135.7779 40.2169 25.2901 0.0000 -7.5199 0.0000
# 2 40.2169 77.2814 32.8428 0.0000 -4.6682 0.0000
# 3 25.2901 32.8428 114.9618 0.0000 4.7094 0.0000
# 4 0.0000 0.0000 0.0000 26.2204 0.0000 -2.9567
# 5 -7.5199 -4.6682 4.7094 0.0000 41.2792 0.0000
# 6 0.0000 0.0000 0.0000 -2.9567 0.0000 27.7677
#
#
#
# Elastic Compliance Matrix: (Units=1/GPa)
#
#
# Indices 1 2 3 4 5 6 
#
# 1 0.008818 -0.004176 -0.000797 0.000000 0.001225 0.000000
# 2 -0.004176 0.016899 -0.003975 0.000000 0.001604 0.000000
# 3 -0.000797 -0.003975 0.010081 0.000000 -0.001745 0.000000
# 4 0.000000 0.000000 0.000000 0.038602 0.000000 0.004110
# 5 0.001225 0.001604 -0.001745 0.000000 0.024829 0.000000
# 6 0.000000 0.000000 0.000000 0.004110 0.000000 0.036451
#
#
# Mechanical properties :
#
#
# Convention : Reuss Voigt Hill
#
# Bulk Modulus (GPa) = 55.85923 58.30228 57.08076
# Shear Modulus (GPa) = 31.33948 34.36488 32.85218
#
# Velocity S-wave (km/s) = 3.53572 3.70245 3.62004
# Velocity P-wave (km/s) = 6.24104 6.44471 6.34369
#
# Compressibility (1/GPa) = 0.01790214
#
# Stress axis : x y z
#
# Youngs Moduli (GPa) = 113.40101 59.17472 99.19773
#
# Poissons Ratio (x) = 0.24713 0.07906
# Poissons Ratio (y) = 0.47359 0.39429
# Poissons Ratio (z) = 0.09038 0.23521
#
# Static dielectric constant tensor:
#      x y z
#    x 1.970730 0.000000 -0.005760 
#    y 0.000000 2.292850 0.000000 
#    z -0.005760 0.000000 1.952660 
# 
# From -- ./inp_files/15796.got.cif
#   From: 2010.05.17/outbox.cif.g08.bks.cpg/sg4_8_cif.got.tgz:15796.got - 2010.06.03 18:43:04.
