data_PCOD9117259
_publ_section_title
;
Structure prediction by ZEFSAII (Michael W. Deem and Ramdas Pophale) SiO2 
 PCOD9117259
Probable space group: P 21
;
_chemical_formula_sum "Si O2"
_cell_formula_units_Z 16
_cell_length_a 15.461611
_cell_length_b 4.878430
_cell_length_c 24.940231
_cell_angle_alpha 90.000000
_cell_angle_beta 161.207694
_cell_angle_gamma 90.000000
_cell_volume 606.007529
_symmetry_space_group_name_H-M "P 21"
_symmetry_group_IT_number 4
_symmetry_cell_setting 'monoclinic'
loop_
_space_group_symop_operation_xyz
x,y,z
-x,1/2+y,-z
loop_
_atom_site_type_symbol
_atom_site_label
_atom_site_fract_x
_atom_site_fract_y
_atom_site_fract_z
Si Si1 0.771159 0.448700 0.967688
Si Si2 0.668874 0.230577 0.596712
Si Si3 0.441662 0.436837 0.099835
Si Si4 0.430490 0.285967 0.926129
Si Si5 0.176993 0.875659 0.429100
Si Si6 0.481947 0.490432 0.692131
Si Si7 0.005560 0.215245 0.467247
Si Si8 0.298385 0.705248 0.269606
O O1 0.659623 0.149390 0.914492
O O2 0.609250 0.583231 0.822928
O O3 0.711694 0.650516 0.982769
O O4 0.086267 0.460781 0.140914
O O5 0.401849 0.416261 0.432771
O O6 0.823003 0.254342 0.631590
O O7 0.765293 0.346281 0.710854
O O8 0.428559 0.614861 0.038360
O O9 0.748715 0.343973 0.287836
O O10 0.133910 0.400014 0.737730
O O11 0.590317 0.549052 0.040861
O O12 0.321178 0.695398 0.559313
O O13 0.385451 0.126490 0.543881
O O14 0.265757 0.262591 0.584120
O O15 0.720314 0.376244 0.795353
O O16 0.037044 0.405538 0.538919
#
# Coordination Sequence:
#
# PCOD9117259 Si02
#       8
#     2   2   2   2   2   2   2   2
#     4  12  30  47  77 113 165 207 256 316 393 470
#     4  10  22  45  68 102 138 189 250 304 373 436
#     4  12  26  51  73 113 157 205 253 321 398 456
#     4  12  30  50  80 118 154 198 267 333 391 465
#     4  11  27  48  77 109 152 202 258 325 387 462
#     4  12  26  46  77 112 155 203 263 316 383 466
#     4  12  24  46  75 108 147 197 253 309 381 462
#     4  11  29  47  77 109 154 209 262 318 386 463
#
# _framework density 26.40231
#
# number of rings (size 3 to 8) (size 9 to 14) (size 15 to 20)
#    0.000    0.500    5.000    0.750   12.250    1.000 
#    2.250    0.000    0.000    0.000    0.000    0.000 
#    0.000    0.000    0.000    0.000    0.000    0.000 
#
# Total GULP energy -89542.119350 kJ/mol
# GULP energy per Si atom -5596.382459 kJ/mol
# Density = 2.634222 g / cm^3
# Si number density = 26.402310 Si / 1000 Ang^3
#
#
#
# Elastic Constant Matrix: (Units=GPa)
#
#
# Indices 1 2 3 4 5 6 
#
# 1 142.4275 27.2562 12.6844 0.0000 -11.0296 0.0000
# 2 27.2562 113.1361 16.6347 0.0000 9.2853 0.0000
# 3 12.6844 16.6347 66.5765 0.0000 8.2701 0.0000
# 4 0.0000 0.0000 0.0000 32.0036 0.0000 -4.5122
# 5 -11.0296 9.2853 8.2701 0.0000 18.7723 0.0000
# 6 0.0000 0.0000 0.0000 -4.5122 0.0000 48.2279
#
#
#
# Elastic Compliance Matrix: (Units=1/GPa)
#
#
# Indices 1 2 3 4 5 6 
#
# 1 0.008130 -0.002240 -0.001820 0.000000 0.006686 0.000000
# 2 -0.002240 0.010047 -0.001378 0.000000 -0.005678 0.000000
# 3 -0.001820 -0.001378 0.016672 0.000000 -0.007732 0.000000
# 4 0.000000 0.000000 0.000000 0.031664 0.000000 0.002962
# 5 0.006686 -0.005678 -0.007732 0.000000 0.063413 0.000000
# 6 0.000000 0.000000 0.000000 0.002962 0.000000 0.021012
#
#
# Mechanical properties :
#
#
# Convention : Reuss Voigt Hill
#
# Bulk Modulus (GPa) = 41.71349 48.36562 45.03955
# Shear Modulus (GPa) = 29.44559 37.50509 33.47534
#
# Velocity S-wave (km/s) = 3.34318 3.77307 3.56461
# Velocity P-wave (km/s) = 5.54400 6.11064 5.83420
#
# Compressibility (1/GPa) = 0.02397306
#
# Stress axis : x y z
#
# Youngs Moduli (GPa) = 123.00781 99.53046 59.98112
#
# Poissons Ratio (x) = 0.22292 0.10915
# Poissons Ratio (y) = 0.27550 0.08267
# Poissons Ratio (z) = 0.22385 0.13718
#
# Static dielectric constant tensor:
#      x y z
#    x 2.106850 0.000000 -0.032800 
#    y 0.000000 2.023820 0.000000 
#    z -0.032800 0.000000 2.088290 
# 
# From -- ./inp_files/13838.got.cif
#   From: 2010.05.17/outbox.cif.g08.bks.cpg/sg4_7_cif.got.tgz:13838.got - 2010.06.03 18:43:04.
