data_PCOD9117495
_publ_section_title
;
Structure prediction by ZEFSAII (Michael W. Deem and Ramdas Pophale) SiO2 
 PCOD9117495
Probable space group: P 21
;
_chemical_formula_sum "Si O2"
_cell_formula_units_Z 6
_cell_length_a 8.053888
_cell_length_b 4.604833
_cell_length_c 5.595350
_cell_angle_alpha 90.000000
_cell_angle_beta 72.041418
_cell_angle_gamma 90.000000
_cell_volume 197.403539
_symmetry_space_group_name_H-M "P 21"
_symmetry_group_IT_number 4
_symmetry_cell_setting 'monoclinic'
loop_
_space_group_symop_operation_xyz
x,y,z
-x,1/2+y,-z
loop_
_atom_site_type_symbol
_atom_site_label
_atom_site_fract_x
_atom_site_fract_y
_atom_site_fract_z
Si Si1 0.872162 0.805290 0.808774
Si Si2 0.215501 0.428170 0.649638
Si Si3 0.602710 0.228968 0.062541
O O1 0.774941 0.750003 0.598412
O O2 0.058474 0.659091 0.682663
O O3 0.166556 0.220956 0.896235
O O4 0.795896 0.139680 0.876431
O O5 0.379501 0.611215 0.676092
O O6 0.531303 0.542155 0.038654
#
# Coordination Sequence:
#
# PCOD9117495 Si02
#       3
#     2   2   2
#     4  10  23  41  69  99 134 176 232 277 335 397
#     4  10  23  41  69  99 134 176 232 277 335 397
#     4  10  26  44  68 100 142 178 222 280 346 408
#
# _framework density 30.394594999999999
#
# number of rings (size 3 to 8) (size 9 to 14) (size 15 to 20)
#    2.000    0.000    0.000    2.000    4.667    2.667 
#    0.000    0.000    0.000    0.000    0.000    0.000 
#    0.000    0.000    0.000    0.000    0.000    0.000 
#
# Total GULP energy -33441.200658 kJ/mol
# GULP energy per Si atom -5573.533443 kJ/mol
# Density = 3.032542 g / cm^3
# Si number density = 30.394595 Si / 1000 Ang^3
#
#
#
# Elastic Constant Matrix: (Units=GPa)
#
#
# Indices 1 2 3 4 5 6 
#
# 1 153.1289 44.8311 55.7161 0.0000 48.2052 0.0000
# 2 44.8311 86.9101 26.5446 0.0000 -3.8562 0.0000
# 3 55.7161 26.5446 271.1796 0.0000 23.9832 0.0000
# 4 0.0000 0.0000 0.0000 54.6537 0.0000 7.3040
# 5 48.2052 -3.8562 23.9832 0.0000 73.5914 0.0000
# 6 0.0000 0.0000 0.0000 7.3040 0.0000 82.0876
#
#
#
# Elastic Compliance Matrix: (Units=1/GPa)
#
#
# Indices 1 2 3 4 5 6 
#
# 1 0.010722 -0.005521 -0.001046 0.000000 -0.006972 0.000000
# 2 -0.005521 0.014779 -0.000722 0.000000 0.004626 0.000000
# 3 -0.001046 -0.000722 0.004032 0.000000 -0.000667 0.000000
# 4 0.000000 0.000000 0.000000 0.018517 0.000000 -0.001648
# 5 -0.006972 0.004626 -0.000667 0.000000 0.018615 0.000000
# 6 0.000000 0.000000 0.000000 -0.001648 0.000000 0.012329
#
#
# Mechanical properties :
#
#
# Convention : Reuss Voigt Hill
#
# Bulk Modulus (GPa) = 66.85697 85.04469 75.95083
# Shear Modulus (GPa) = 50.73232 67.67499 59.20366
#
# Velocity S-wave (km/s) = 4.08992 4.72375 4.41822
# Velocity P-wave (km/s) = 6.65938 7.60215 7.14633
#
# Compressibility (1/GPa) = 0.01495730
#
# Stress axis : x y z
#
# Youngs Moduli (GPa) = 93.26625 67.66132 248.01064
#
# Poissons Ratio (x) = 0.37353 0.25941
# Poissons Ratio (y) = 0.51489 0.17895
# Poissons Ratio (z) = 0.09755 0.04882
#
# Static dielectric constant tensor:
#      x y z
#    x 2.613350 0.000000 -0.087200 
#    y 0.000000 2.395720 0.000000 
#    z -0.087200 0.000000 2.300720 
# 
# From -- ./inp_files/857.got.cif
#   From: 2010.05.17/outbox.cif.g08.bks.cpg/sg4_1_cif.got.tgz:857.got - 2010.06.03 18:43:04.
