data_PCOD9117728
_publ_section_title
;
Structure prediction by ZEFSAII (Michael W. Deem and Ramdas Pophale) SiO2 
 PCOD9117728
Probable space group: P 21
;
_chemical_formula_sum "Si O2"
_cell_formula_units_Z 14
_cell_length_a 5.844628
_cell_length_b 11.142541
_cell_length_c 8.726482
_cell_angle_alpha 90.000000
_cell_angle_beta 110.142726
_cell_angle_gamma 90.000000
_cell_volume 533.544740
_symmetry_space_group_name_H-M "P 21"
_symmetry_group_IT_number 4
_symmetry_cell_setting 'monoclinic'
loop_
_space_group_symop_operation_xyz
x,y,z
-x,1/2+y,-z
loop_
_atom_site_type_symbol
_atom_site_label
_atom_site_fract_x
_atom_site_fract_y
_atom_site_fract_z
Si Si1 0.616977 0.391540 0.220471
Si Si2 0.650483 0.379404 0.685257
Si Si3 0.929624 0.609816 0.731191
Si Si4 0.201775 0.704595 0.546734
Si Si5 0.001880 0.216983 0.942209
Si Si6 0.326504 0.399166 0.852265
Si Si7 0.846016 0.000783 0.704399
O O1 0.640484 0.250255 0.271347
O O2 0.397418 0.437425 0.283009
O O3 0.901363 0.437203 0.294729
O O4 0.526409 0.426774 0.029633
O O5 0.753911 0.314371 0.560248
O O6 0.380853 0.370726 0.686791
O O7 0.708056 0.519195 0.696765
O O8 0.785903 0.308959 0.854763
O O9 0.948214 0.672801 0.571683
O O10 0.149708 0.513956 0.804044
O O11 0.939396 0.706053 0.867462
O O12 0.243644 0.590326 0.449722
O O13 0.214062 0.277720 0.894536
O O14 0.935892 0.087474 0.862543
#
# Coordination Sequence:
#
# PCOD9117728 Si02
#       7
#     2   2   2   2   2   2   2
#     4  12  27  48  76 112 151 198 268 314 385 470
#     4  10  24  45  68 108 148 190 262 317 374 472
#     4  11  23  46  72 105 147 202 252 320 388 459
#     4  11  27  46  73 105 152 207 248 315 398 460
#     4  10  23  44  73 105 145 194 250 317 388 446
#     4  11  25  44  75 110 146 199 262 322 374 465
#     4  11  27  49  73 109 155 200 252 325 387 460
#
# _framework density 26.239598999999998
#
# number of rings (size 3 to 8) (size 9 to 14) (size 15 to 20)
#    0.000    1.143    1.429    2.571   10.000    4.571 
#    0.000    0.000    0.000    0.000    0.000    0.000 
#    0.000    0.000    0.000    0.000    0.000    0.000 
#
# Total GULP energy -78173.466398 kJ/mol
# GULP energy per Si atom -5583.819028 kJ/mol
# Density = 2.617988 g / cm^3
# Si number density = 26.239599 Si / 1000 Ang^3
#
#
#
# Elastic Constant Matrix: (Units=GPa)
#
#
# Indices 1 2 3 4 5 6 
#
# 1 134.0509 64.0910 50.9021 0.0000 -22.9090 0.0000
# 2 64.0910 89.3883 38.7756 0.0000 -9.0167 0.0000
# 3 50.9021 38.7756 97.3212 0.0000 -25.4008 0.0000
# 4 0.0000 0.0000 0.0000 63.9428 0.0000 2.2284
# 5 -22.9090 -9.0167 -25.4008 0.0000 59.6773 0.0000
# 6 0.0000 0.0000 0.0000 2.2284 0.0000 2.4833
#
#
#
# Elastic Compliance Matrix: (Units=1/GPa)
#
#
# Indices 1 2 3 4 5 6 
#
# 1 0.012582 -0.007492 -0.002960 0.000000 0.002438 0.000000
# 2 -0.007492 0.017989 -0.003702 0.000000 -0.001733 0.000000
# 3 -0.002960 -0.003702 0.014462 0.000000 0.004460 0.000000
# 4 0.000000 0.000000 0.000000 0.016144 0.000000 -0.014487
# 5 0.002438 -0.001733 0.004460 0.000000 0.019329 0.000000
# 6 0.000000 0.000000 0.000000 -0.014487 0.000000 0.415690
#
#
# Mechanical properties :
#
#
# Convention : Reuss Voigt Hill
#
# Bulk Modulus (GPa) = 59.77907 69.81085 64.79496
# Shear Modulus (GPa) = 9.43256 36.35345 22.89301
#
# Velocity S-wave (km/s) = 1.89805 3.72619 2.95695
# Velocity P-wave (km/s) = 5.25689 6.72128 6.03368
#
# Compressibility (1/GPa) = 0.01672826
#
# Stress axis : x y z
#
# Youngs Moduli (GPa) = 79.47746 55.58828 69.14600
#
# Poissons Ratio (x) = 0.41644 0.20464
# Poissons Ratio (y) = 0.59541 0.25595
# Poissons Ratio (z) = 0.23522 0.20577
#
# Static dielectric constant tensor:
#      x y z
#    x 2.240350 0.000000 0.040670 
#    y 0.000000 1.987450 0.000000 
#    z 0.040670 0.000000 2.102860 
# 
# From -- ./inp_files/1443.got.cif
#   From: 2010.05.17/outbox.cif.g08.bks.cpg/sg4_1_cif.got.tgz:1443.got - 2010.06.03 18:43:04.
