data_PCOD9117490
_publ_section_title
;
Structure prediction by ZEFSAII (Michael W. Deem and Ramdas Pophale) SiO2 
 PCOD9117490
Probable space group: P 21
;
_chemical_formula_sum "Si O2"
_cell_formula_units_Z 16
_cell_length_a 6.835919
_cell_length_b 18.857594
_cell_length_c 4.967251
_cell_angle_alpha 90.000000
_cell_angle_beta 70.786674
_cell_angle_gamma 90.000000
_cell_volume 604.657186
_symmetry_space_group_name_H-M "P 21"
_symmetry_group_IT_number 4
_symmetry_cell_setting 'monoclinic'
loop_
_space_group_symop_operation_xyz
x,y,z
-x,1/2+y,-z
loop_
_atom_site_type_symbol
_atom_site_label
_atom_site_fract_x
_atom_site_fract_y
_atom_site_fract_z
Si Si1 0.805431 0.836200 0.773259
Si Si2 0.752874 0.684038 0.713595
Si Si3 0.794870 0.933221 0.247472
Si Si4 0.681009 0.438981 0.475601
Si Si5 0.330840 0.719220 0.650905
Si Si6 0.344326 0.636537 0.128159
Si Si7 0.015492 0.547817 0.498581
Si Si8 0.333465 0.849179 0.025821
O O1 0.875661 0.754895 0.742559
O O2 0.889324 0.892009 0.950804
O O3 0.568349 0.827020 0.983414
O O4 0.797245 0.875523 0.490181
O O5 0.584229 0.713897 0.573234
O O6 0.592696 0.643354 0.986486
O O7 0.912811 0.624619 0.560191
O O8 0.261356 0.786993 0.856334
O O9 0.554334 0.955232 0.320305
O O10 0.839883 0.502180 0.432902
O O11 0.753867 0.375228 0.648181
O O12 0.659269 0.415566 0.178152
O O13 0.257719 0.654102 0.871545
O O14 0.293207 0.700520 0.360116
O O15 0.240915 0.563961 0.267661
O O16 0.071661 0.500920 0.731836
#
# Coordination Sequence:
#
# PCOD9117490 Si02
#       8
#     2   2   2   2   2   2   2   2
#     4   9  20  44  72 102 139 189 242 308 352 421
#     4   9  24  46  77 104 145 193 246 304 369 425
#     4  10  24  45  71 103 147 186 243 299 361 432
#     4  10  23  41  69 101 140 190 231 295 360 434
#     4   9  20  44  73 100 140 183 239 302 356 415
#     4  10  24  43  70 106 141 189 239 302 356 438
#     4  12  27  49  71 114 148 201 240 296 378 449
#     4   9  18  40  73  98 130 187 236 288 366 412
#
# _framework density 26.461271
#
# number of rings (size 3 to 8) (size 9 to 14) (size 15 to 20)
#    0.750    1.500    0.000    0.750    7.000    6.000 
#   11.250    0.000    0.000    0.000    0.000    0.000 
#    0.000    0.000    0.000    0.000    0.000    0.000 
#
# Total GULP energy -89398.169040 kJ/mol
# GULP energy per Si atom -5587.385565 kJ/mol
# Density = 2.640104 g / cm^3
# Si number density = 26.461271 Si / 1000 Ang^3
#
#
#
# Elastic Constant Matrix: (Units=GPa)
#
#
# Indices 1 2 3 4 5 6 
#
# 1 93.5755 41.7529 18.5158 0.0000 -10.2768 0.0000
# 2 41.7529 122.5220 9.5109 0.0000 5.7826 0.0000
# 3 18.5158 9.5109 96.4651 0.0000 24.9764 0.0000
# 4 0.0000 0.0000 0.0000 40.3801 0.0000 -8.4687
# 5 -10.2768 5.7826 24.9764 0.0000 34.2246 0.0000
# 6 0.0000 0.0000 0.0000 -8.4687 0.0000 48.2728
#
#
#
# Elastic Compliance Matrix: (Units=1/GPa)
#
#
# Indices 1 2 3 4 5 6 
#
# 1 0.014822 -0.005104 -0.004583 0.000000 0.008658 0.000000
# 2 -0.005104 0.010009 0.001020 0.000000 -0.003968 0.000000
# 3 -0.004583 0.001020 0.014237 0.000000 -0.011938 0.000000
# 4 0.000000 0.000000 0.000000 0.025711 0.000000 0.004511
# 5 0.008658 -0.003968 -0.011938 0.000000 0.041201 0.000000
# 6 0.000000 0.000000 0.000000 0.004511 0.000000 0.021507
#
#
# Mechanical properties :
#
#
# Convention : Reuss Voigt Hill
#
# Bulk Modulus (GPa) = 46.01161 50.23578 48.12369
# Shear Modulus (GPa) = 32.88089 40.76102 36.82095
#
# Velocity S-wave (km/s) = 3.52888 3.92905 3.73433
# Velocity P-wave (km/s) = 5.83353 6.29358 6.06792
#
# Compressibility (1/GPa) = 0.02173364
#
# Stress axis : x y z
#
# Youngs Moduli (GPa) = 67.46955 99.90892 70.24155
#
# Poissons Ratio (x) = 0.50990 0.32194
# Poissons Ratio (y) = 0.34434 -0.07166
# Poissons Ratio (z) = 0.30923 -0.10193
#
# Static dielectric constant tensor:
#      x y z
#    x 2.135140 0.000000 -0.027340 
#    y 0.000000 2.111640 0.000000 
#    z -0.027340 0.000000 2.061190 
# 
# From -- ./inp_files/2212.got.cif
#   From: 2010.05.17/outbox.cif.g08.bks.cpg/sg4_2_cif.got.tgz:2212.got - 2010.06.03 18:43:04.
