data_PCOD9117510
_publ_section_title
;
Structure prediction by ZEFSAII (Michael W. Deem and Ramdas Pophale) SiO2 
 PCOD9117510
Probable space group: P 21
;
_chemical_formula_sum "Si O2"
_cell_formula_units_Z 16
_cell_length_a 9.399060
_cell_length_b 5.345668
_cell_length_c 17.119189
_cell_angle_alpha 90.000000
_cell_angle_beta 65.206246
_cell_angle_gamma 90.000000
_cell_volume 780.855850
_symmetry_space_group_name_H-M "P 21"
_symmetry_group_IT_number 4
_symmetry_cell_setting 'monoclinic'
loop_
_space_group_symop_operation_xyz
x,y,z
-x,1/2+y,-z
loop_
_atom_site_type_symbol
_atom_site_label
_atom_site_fract_x
_atom_site_fract_y
_atom_site_fract_z
Si Si1 0.683498 0.617710 0.213729
Si Si2 0.987935 0.565637 0.238376
Si Si3 0.707616 0.982920 0.934457
Si Si4 0.019353 0.797121 0.396340
Si Si5 0.795306 0.184697 0.388263
Si Si6 0.436773 0.600785 0.682881
Si Si7 0.250276 0.971600 0.461554
Si Si8 0.643537 0.485771 0.043831
O O1 0.856428 0.670536 0.209533
O O2 0.613721 0.371538 0.272962
O O3 0.689236 0.538274 0.122292
O O4 0.583189 0.870443 0.252107
O O5 0.038363 0.732254 0.300795
O O6 0.897006 0.343043 0.303668
O O7 0.141144 0.497015 0.154964
O O8 0.545449 0.991215 0.922852
O O9 0.701234 0.221260 0.994799
O O10 0.707380 0.719479 0.979368
O O11 0.897903 0.617811 0.468549
O O12 0.923158 0.053541 0.413129
O O13 0.178308 0.809546 0.407674
O O14 0.679488 0.024397 0.361743
O O15 0.689418 0.332002 0.474936
O O16 0.610255 0.624623 0.608770
#
# Coordination Sequence:
#
# PCOD9117510 Si02
#       8
#     2   2   2   2   2   2   2   2
#     4  11  24  44  64  98 132 162 221 263 318 390
#     4  10  24  40  65  93 126 173 206 268 325 378
#     4  10  23  42  68  95 127 167 206 257 332 376
#     4  11  22  42  58  94 129 165 222 270 313 382
#     4  10  23  42  60  89 135 162 221 268 313 382
#     4  11  26  41  66  95 127 179 213 267 323 375
#     4  11  25  38  66  91 128 178 221 269 324 376
#     4  10  23  43  65  97 130 160 210 266 310 399
#
# _framework density 20.490338000000001
#
# number of rings (size 3 to 8) (size 9 to 14) (size 15 to 20)
#    0.000    1.500    2.500    0.750    7.000    2.000 
#    0.000    0.000    0.000    0.000    0.000    0.000 
#    0.000    0.000    0.000    0.000    0.000    0.000 
#
# Total GULP energy -89241.293048 kJ/mol
# GULP energy per Si atom -5577.580815 kJ/mol
# Density = 2.044370 g / cm^3
# Si number density = 20.490338 Si / 1000 Ang^3
#
#
#
# Elastic Constant Matrix: (Units=GPa)
#
#
# Indices 1 2 3 4 5 6 
#
# 1 56.4653 -1.8805 48.5745 0.0000 3.5710 0.0000
# 2 -1.8805 54.4494 -2.4277 0.0000 -3.5353 0.0000
# 3 48.5745 -2.4277 89.1332 0.0000 2.6210 0.0000
# 4 0.0000 0.0000 0.0000 15.4395 0.0000 5.8638
# 5 3.5710 -3.5353 2.6210 0.0000 34.5653 0.0000
# 6 0.0000 0.0000 0.0000 5.8638 0.0000 18.0980
#
#
#
# Elastic Compliance Matrix: (Units=1/GPa)
#
#
# Indices 1 2 3 4 5 6 
#
# 1 0.033491 0.000212 -0.018185 0.000000 -0.002059 0.000000
# 2 0.000212 0.018508 0.000334 0.000000 0.001846 0.000000
# 3 -0.018185 0.000334 0.021129 0.000000 0.000311 0.000000
# 4 0.000000 0.000000 0.000000 0.073858 0.000000 -0.023930
# 5 -0.002059 0.001846 0.000311 0.000000 0.029309 0.000000
# 6 0.000000 0.000000 0.000000 -0.023930 0.000000 0.063008
#
#
# Mechanical properties :
#
#
# Convention : Reuss Voigt Hill
#
# Bulk Modulus (GPa) = 26.41961 32.06449 29.24205
# Shear Modulus (GPa) = 17.40964 24.00601 20.70782
#
# Velocity S-wave (km/s) = 2.91804 3.42654 3.18246
# Velocity P-wave (km/s) = 4.92696 5.59799 5.27316
#
# Compressibility (1/GPa) = 0.03785067
#
# Stress axis : x y z
#
# Youngs Moduli (GPa) = 29.85863 54.03149 47.32738
#
# Poissons Ratio (x) = -0.01146 0.86066
# Poissons Ratio (y) = -0.00633 -0.01582
# Poissons Ratio (z) = 0.54298 -0.01806
#
# Static dielectric constant tensor:
#      x y z
#    x 1.731220 0.000000 0.037480 
#    y 0.000000 1.840830 0.000000 
#    z 0.037480 0.000000 1.698450 
# 
# From -- ./inp_files/7307.got.cif
#   From: 2010.05.17/outbox.cif.g08.bks.cpg/sg4_4_cif.got.tgz:7307.got - 2010.06.03 18:43:04.
