data_PCOD9117336
_publ_section_title
;
Structure prediction by ZEFSAII (Michael W. Deem and Ramdas Pophale) SiO2 
 PCOD9117336
Probable space group: P 21
;
_chemical_formula_sum "Si O2"
_cell_formula_units_Z 14
_cell_length_a 4.969412
_cell_length_b 9.859557
_cell_length_c 14.179774
_cell_angle_alpha 90.000000
_cell_angle_beta 123.664570
_cell_angle_gamma 90.000000
_cell_volume 578.242591
_symmetry_space_group_name_H-M "P 21"
_symmetry_group_IT_number 4
_symmetry_cell_setting 'monoclinic'
loop_
_space_group_symop_operation_xyz
x,y,z
-x,1/2+y,-z
loop_
_atom_site_type_symbol
_atom_site_label
_atom_site_fract_x
_atom_site_fract_y
_atom_site_fract_z
Si Si1 0.296228 0.736470 0.103676
Si Si2 0.188402 0.443125 0.997681
Si Si3 0.393060 0.811543 0.780455
Si Si4 0.172543 0.674265 0.429358
Si Si5 0.966149 0.891122 0.249364
Si Si6 0.545659 0.079006 0.689974
Si Si7 0.736110 0.678872 0.687418
O O1 0.269535 0.598955 0.036022
O O2 0.630089 0.809862 0.195243
O O3 0.223785 0.666776 0.193533
O O4 0.104529 0.856576 0.012702
O O5 0.481415 0.351092 0.091494
O O6 0.066526 0.419631 0.868722
O O7 0.599871 0.693618 0.768192
O O8 0.016737 0.783988 0.716896
O O9 0.474632 0.941062 0.731638
O O10 0.290074 0.559524 0.378823
O O11 0.418267 0.690028 0.561972
O O12 0.191375 0.801469 0.361502
O O13 0.807616 0.647180 0.392050
O O14 0.075939 0.040556 0.300105
#
# Coordination Sequence:
#
# PCOD9117336 Si02
#       7
#     2   2   2   2   2   2   2
#     4  10  24  43  70 105 146 192 240 302 364 440
#     4  11  24  45  73 103 149 195 242 306 369 441
#     4  11  27  45  73 107 145 192 245 301 369 438
#     4  11  24  47  73 103 143 194 236 311 361 438
#     4  11  27  43  74 106 148 187 253 296 376 434
#     4  10  22  46  71 103 142 190 245 291 366 439
#     4  12  28  47  72 111 147 192 249 307 367 440
#
# _framework density 24.211293000000001
#
# number of rings (size 3 to 8) (size 9 to 14) (size 15 to 20)
#    0.000    1.143    1.429    2.571   12.000    0.000 
#    0.000    0.000    0.000    0.000    0.000    0.000 
#    0.000    0.000    0.000    0.000    0.000    0.000 
#
# Total GULP energy -77962.264594 kJ/mol
# GULP energy per Si atom -5568.733185 kJ/mol
# Density = 2.415619 g / cm^3
# Si number density = 24.211293 Si / 1000 Ang^3
#
#
#
# Elastic Constant Matrix: (Units=GPa)
#
#
# Indices 1 2 3 4 5 6 
#
# 1 46.3798 17.5060 1.2702 0.0000 11.0111 0.0000
# 2 17.5060 102.2238 42.6566 0.0000 29.7497 0.0000
# 3 1.2702 42.6566 111.6970 0.0000 21.3224 0.0000
# 4 0.0000 0.0000 0.0000 37.4068 0.0000 -8.9566
# 5 11.0111 29.7497 21.3224 0.0000 35.2130 0.0000
# 6 0.0000 0.0000 0.0000 -8.9566 0.0000 74.7699
#
#
#
# Elastic Compliance Matrix: (Units=1/GPa)
#
#
# Indices 1 2 3 4 5 6 
#
# 1 0.024180 -0.003255 0.002133 0.000000 -0.006103 0.000000
# 2 -0.003255 0.014534 -0.003803 0.000000 -0.008958 0.000000
# 3 0.002133 -0.003803 0.011188 0.000000 -0.004228 0.000000
# 4 0.000000 0.000000 0.000000 0.027522 0.000000 0.003297
# 5 -0.006103 -0.008958 -0.004228 0.000000 0.040436 0.000000
# 6 0.000000 0.000000 0.000000 0.003297 0.000000 0.013769
#
#
# Mechanical properties :
#
#
# Convention : Reuss Voigt Hill
#
# Bulk Modulus (GPa) = 24.96755 42.57402 33.77078
# Shear Modulus (GPa) = 32.29324 42.73579 37.51451
#
# Velocity S-wave (km/s) = 3.65610 4.20589 3.94059
# Velocity P-wave (km/s) = 5.30636 6.41939 5.88923
#
# Compressibility (1/GPa) = 0.04005199
#
# Stress axis : x y z
#
# Youngs Moduli (GPa) = 41.35622 68.80402 89.37959
#
# Poissons Ratio (x) = 0.22395 -0.19065
# Poissons Ratio (y) = 0.13461 0.33995
# Poissons Ratio (z) = -0.08822 0.26169
#
# Static dielectric constant tensor:
#      x y z
#    x 2.099850 0.000000 0.004460 
#    y 0.000000 2.156600 0.000000 
#    z 0.004460 0.000000 1.888600 
# 
# From -- ./inp_files/2373.got.cif
#   From: 2010.05.17/outbox.cif.g08.bks.cpg/sg4_2_cif.got.tgz:2373.got - 2010.06.03 18:43:04.
