data_PCOD9117782
_publ_section_title
;
Structure prediction by ZEFSAII (Michael W. Deem and Ramdas Pophale) SiO2 
 PCOD9117782
Probable space group: P 21
;
_chemical_formula_sum "Si O2"
_cell_formula_units_Z 12
_cell_length_a 15.353754
_cell_length_b 4.627497
_cell_length_c 9.881273
_cell_angle_alpha 90.000000
_cell_angle_beta 144.654214
_cell_angle_gamma 90.000000
_cell_volume 406.147902
_symmetry_space_group_name_H-M "P 21"
_symmetry_group_IT_number 4
_symmetry_cell_setting 'monoclinic'
loop_
_space_group_symop_operation_xyz
x,y,z
-x,1/2+y,-z
loop_
_atom_site_type_symbol
_atom_site_label
_atom_site_fract_x
_atom_site_fract_y
_atom_site_fract_z
Si Si1 0.814410 0.105390 0.858024
Si Si2 0.389692 0.212759 0.859578
Si Si3 0.052294 0.043740 0.652535
Si Si4 0.305003 0.584659 0.002236
Si Si5 0.868346 0.780547 0.661891
Si Si6 0.572833 0.587768 0.518252
O O1 0.729750 0.416959 0.734727
O O2 0.770533 0.977393 0.951234
O O3 0.786229 0.944734 0.680143
O O4 0.995462 0.107480 0.098586
O O5 0.259981 0.126631 0.589248
O O6 0.515579 0.441090 0.967635
O O7 0.304511 0.397885 0.866228
O O8 0.959087 0.979485 0.670055
O O9 0.216268 0.889621 0.874565
O O10 0.981679 0.869682 0.434575
O O11 0.482076 0.557343 0.264597
O O12 0.532250 0.916007 0.505523
#
# Coordination Sequence:
#
# PCOD9117782 Si02
#       6
#     2   2   2   2   2   2
#     4  10  25  46  76 116 154 208 251 323 384 460
#     4  12  29  50  77 114 155 204 260 322 386 458
#     4  11  25  46  78 110 152 200 255 315 379 460
#     4  10  24  48  77 110 149 204 250 314 385 453
#     4  11  26  49  75 117 157 200 262 320 383 463
#     4  10  23  45  73 111 151 200 256 306 379 462
#
# _framework density 29.54589
#
# number of rings (size 3 to 8) (size 9 to 14) (size 15 to 20)
#    0.000    1.333    1.667    1.000    2.333   20.000 
#    0.000    0.000    0.000    0.000    0.000    0.000 
#    0.000    0.000    0.000    0.000    0.000    0.000 
#
# Total GULP energy -67174.173982 kJ/mol
# GULP energy per Si atom -5597.847832 kJ/mol
# Density = 2.947864 g / cm^3
# Si number density = 29.545890 Si / 1000 Ang^3
#
#
#
# Elastic Constant Matrix: (Units=GPa)
#
#
# Indices 1 2 3 4 5 6 
#
# 1 175.6073 25.3002 21.8288 0.0000 17.8316 0.0000
# 2 25.3002 100.9233 6.8539 0.0000 0.6180 0.0000
# 3 21.8288 6.8539 199.8819 0.0000 13.0930 0.0000
# 4 0.0000 0.0000 0.0000 48.2377 0.0000 2.4468
# 5 17.8316 0.6180 13.0930 0.0000 60.4659 0.0000
# 6 0.0000 0.0000 0.0000 2.4468 0.0000 49.0810
#
#
#
# Elastic Compliance Matrix: (Units=1/GPa)
#
#
# Indices 1 2 3 4 5 6 
#
# 1 0.006145 -0.001495 -0.000509 0.000000 -0.001686 0.000000
# 2 -0.001495 0.010296 -0.000215 0.000000 0.000382 0.000000
# 3 -0.000509 -0.000215 0.005129 0.000000 -0.000958 0.000000
# 4 0.000000 0.000000 0.000000 0.020783 0.000000 -0.001036
# 5 -0.001686 0.000382 -0.000958 0.000000 0.017239 0.000000
# 6 0.000000 0.000000 0.000000 -0.001036 0.000000 0.020426
#
#
# Mechanical properties :
#
#
# Convention : Reuss Voigt Hill
#
# Bulk Modulus (GPa) = 58.37746 64.93092 61.65419
# Shear Modulus (GPa) = 55.45306 59.71890 57.58598
#
# Velocity S-wave (km/s) = 4.33696 4.50068 4.41958
# Velocity P-wave (km/s) = 6.69926 7.00230 6.85245
#
# Compressibility (1/GPa) = 0.01712990
#
# Stress axis : x y z
#
# Youngs Moduli (GPa) = 162.74635 97.12837 194.98123
#
# Poissons Ratio (x) = 0.14525 0.09930
# Poissons Ratio (y) = 0.24338 0.04187
# Poissons Ratio (z) = 0.08288 0.02086
#
# Static dielectric constant tensor:
#      x y z
#    x 2.405100 0.000000 0.186360 
#    y 0.000000 2.527130 0.000000 
#    z 0.186360 0.000000 2.477250 
# 
# From -- ./inp_files/8892.got.cif
#   From: 2010.05.17/outbox.cif.g08.bks.cpg/sg4_5_cif.got.tgz:8892.got - 2010.06.03 18:43:04.
