data_PCOD9117567
_publ_section_title
;
Structure prediction by ZEFSAII (Michael W. Deem and Ramdas Pophale) SiO2 
 PCOD9117567
Probable space group: P 21
;
_chemical_formula_sum "Si O2"
_cell_formula_units_Z 16
_cell_length_a 7.675935
_cell_length_b 16.857563
_cell_length_c 5.595647
_cell_angle_alpha 90.000000
_cell_angle_beta 122.310079
_cell_angle_gamma 90.000000
_cell_volume 611.954796
_symmetry_space_group_name_H-M "P 21"
_symmetry_group_IT_number 4
_symmetry_cell_setting 'monoclinic'
loop_
_space_group_symop_operation_xyz
x,y,z
-x,1/2+y,-z
loop_
_atom_site_type_symbol
_atom_site_label
_atom_site_fract_x
_atom_site_fract_y
_atom_site_fract_z
Si Si1 0.476628 0.756880 0.644913
Si Si2 0.216818 0.654508 0.159912
Si Si3 0.563517 0.437049 0.470791
Si Si4 0.382992 0.153802 0.861537
Si Si5 0.562927 0.481995 0.967354
Si Si6 0.976712 0.918470 0.637807
Si Si7 0.110023 0.243568 0.372025
Si Si8 0.026763 0.490635 0.869432
O O1 0.296995 0.692410 0.464359
O O2 0.396546 0.844377 0.538289
O O3 0.558073 0.735385 0.964546
O O4 0.679670 0.748460 0.628193
O O5 0.433392 0.640000 0.187897
O O6 0.089421 0.574439 0.032811
O O7 0.082614 0.721501 0.931747
O O8 0.457603 0.450663 0.649801
O O9 0.777673 0.484207 0.660573
O O10 0.460854 0.467992 0.152006
O O11 0.386436 0.075120 0.022546
O O12 0.161116 0.170716 0.586319
O O13 0.776978 0.434353 0.156918
O O14 0.930070 0.827802 0.536641
O O15 0.912284 0.973096 0.362849
O O16 0.913537 0.930021 0.871583
#
# Coordination Sequence:
#
# PCOD9117567 Si02
#       8
#     2   2   2   2   2   2   2   2
#     4  11  28  46  74 110 151 195 247 311 378 447
#     4  11  26  47  74 107 148 198 248 307 377 449
#     4  10  23  45  74 101 148 194 243 306 368 438
#     4  11  28  46  74 110 151 195 247 311 378 447
#     4  10  23  45  74 101 148 194 243 306 368 438
#     4  10  23  42  71 104 141 192 250 302 364 440
#     4  11  26  47  74 107 148 198 248 307 377 449
#     4  10  23  42  71 104 141 192 250 302 364 440
#
# _framework density 26.145721000000002
#
# number of rings (size 3 to 8) (size 9 to 14) (size 15 to 20)
#    0.000    1.500    0.000    3.000   17.500    3.000 
#    0.000    0.000    0.000    0.000    0.000    0.000 
#    0.000    0.000    0.000    0.000    0.000    0.000 
#
# Total GULP energy -89498.178656 kJ/mol
# GULP energy per Si atom -5593.636166 kJ/mol
# Density = 2.608621 g / cm^3
# Si number density = 26.145721 Si / 1000 Ang^3
#
#
#
# Elastic Constant Matrix: (Units=GPa)
#
#
# Indices 1 2 3 4 5 6 
#
# 1 83.6135 6.7760 14.7456 0.0000 -10.6488 0.0000
# 2 6.7760 93.9520 -9.8962 0.0000 -6.1202 0.0000
# 3 14.7456 -9.8962 135.3148 0.0000 -11.3083 0.0000
# 4 0.0000 0.0000 0.0000 44.8589 0.0000 5.0393
# 5 -10.6488 -6.1202 -11.3083 0.0000 45.5479 0.0000
# 6 0.0000 0.0000 0.0000 5.0393 0.0000 36.7840
#
#
#
# Elastic Compliance Matrix: (Units=1/GPa)
#
#
# Indices 1 2 3 4 5 6 
#
# 1 0.012567 -0.000871 -0.001223 0.000000 0.002517 0.000000
# 2 -0.000871 0.010913 0.001020 0.000000 0.001516 0.000000
# 3 -0.001223 0.001020 0.007746 0.000000 0.001774 0.000000
# 4 0.000000 0.000000 0.000000 0.022641 0.000000 -0.003102
# 5 0.002517 0.001516 0.001774 0.000000 0.023188 0.000000
# 6 0.000000 0.000000 0.000000 -0.003102 0.000000 0.027611
#
#
# Mechanical properties :
#
#
# Convention : Reuss Voigt Hill
#
# Bulk Modulus (GPa) = 34.39113 37.34788 35.86951
# Shear Modulus (GPa) = 42.91652 45.52182 44.21917
#
# Velocity S-wave (km/s) = 4.05586 4.17715 4.11695
# Velocity P-wave (km/s) = 5.92583 6.13028 6.02892
#
# Compressibility (1/GPa) = 0.02907726
#
# Stress axis : x y z
#
# Youngs Moduli (GPa) = 79.57583 91.63621 129.09421
#
# Poissons Ratio (x) = 0.07983 0.15785
# Poissons Ratio (y) = 0.06932 -0.13164
# Poissons Ratio (z) = 0.09730 -0.09344
#
# Static dielectric constant tensor:
#      x y z
#    x 2.140870 0.000000 -0.052350 
#    y 0.000000 2.013660 0.000000 
#    z -0.052350 0.000000 2.014360 
# 
# From -- ./inp_files/1968.got.cif
#   From: 2010.05.17/outbox.cif.g08.bks.cpg/sg4_1_cif.got.tgz:1968.got - 2010.06.03 18:43:04.
