data_PCOD9117231
_publ_section_title
;
Structure prediction by ZEFSAII (Michael W. Deem and Ramdas Pophale) SiO2 
 PCOD9117231
Probable space group: P 21
;
_chemical_formula_sum "Si O2"
_cell_formula_units_Z 14
_cell_length_a 14.167589
_cell_length_b 8.919236
_cell_length_c 9.263560
_cell_angle_alpha 90.000000
_cell_angle_beta 27.987590
_cell_angle_gamma 90.000000
_cell_volume 549.330681
_symmetry_space_group_name_H-M "P 21"
_symmetry_group_IT_number 4
_symmetry_cell_setting 'monoclinic'
loop_
_space_group_symop_operation_xyz
x,y,z
-x,1/2+y,-z
loop_
_atom_site_type_symbol
_atom_site_label
_atom_site_fract_x
_atom_site_fract_y
_atom_site_fract_z
Si Si1 0.390370 0.205140 0.297615
Si Si2 0.279358 0.528569 0.316659
Si Si3 0.974360 0.766711 0.838596
Si Si4 0.966599 0.870053 0.553245
Si Si5 0.646320 0.388091 0.159355
Si Si6 0.745512 0.422964 0.360397
Si Si7 0.380803 0.211467 0.873815
O O1 0.313540 0.363552 0.336926
O O2 0.523400 0.253473 0.256972
O O3 0.249888 0.080274 0.562087
O O4 0.523377 0.123904 0.992274
O O5 0.109257 0.618178 0.636068
O O6 0.178960 0.504072 0.293973
O O7 0.043467 0.842433 0.891347
O O8 0.049583 0.871080 0.602925
O O9 0.739609 0.750762 0.114473
O O10 0.814807 0.727794 0.760171
O O11 0.139061 0.869923 0.205878
O O12 0.689948 0.413414 0.267866
O O13 0.546732 0.543146 0.238201
O O14 0.558123 0.323647 0.674592
#
# Coordination Sequence:
#
# PCOD9117231 Si02
#       7
#     2   2   2   2   2   2   2
#     4  12  26  42  72 108 144 190 244 299 364 434
#     4  12  23  43  72 110 137 189 251 304 357 423
#     4  10  23  46  75 103 144 186 247 295 359 433
#     4  10  22  44  75  97 144 188 243 304 349 430
#     4  12  25  47  73 104 148 186 242 301 365 429
#     4  12  26  49  70 109 149 193 232 299 375 434
#     4  10  23  47  75  97 146 188 239 296 351 433
#
# _framework density 25.48556
#
# number of rings (size 3 to 8) (size 9 to 14) (size 15 to 20)
#    0.857    0.000    4.286    2.571    2.000    1.143 
#    7.714    0.000    0.000    0.000    0.000    0.000 
#    0.000    0.000    0.000    0.000    0.000    0.000 
#
# Total GULP energy -78184.109429 kJ/mol
# GULP energy per Si atom -5584.579245 kJ/mol
# Density = 2.542755 g / cm^3
# Si number density = 25.485560 Si / 1000 Ang^3
#
#
#
# Elastic Constant Matrix: (Units=GPa)
#
#
# Indices 1 2 3 4 5 6 
#
# 1 112.3481 60.1563 15.2444 0.0000 0.7693 0.0000
# 2 60.1563 113.1436 13.7452 0.0000 -4.6300 0.0000
# 3 15.2444 13.7452 44.0131 0.0000 4.4436 0.0000
# 4 0.0000 0.0000 0.0000 35.6324 0.0000 -15.7501
# 5 0.7693 -4.6300 4.4436 0.0000 45.3301 0.0000
# 6 0.0000 0.0000 0.0000 -15.7501 0.0000 61.4143
#
#
#
# Elastic Compliance Matrix: (Units=1/GPa)
#
#
# Indices 1 2 3 4 5 6 
#
# 1 0.012697 -0.006498 -0.002303 0.000000 -0.000653 0.000000
# 2 -0.006498 0.012581 -0.001837 0.000000 0.001575 0.000000
# 3 -0.002303 -0.001837 0.024348 0.000000 -0.002535 0.000000
# 4 0.000000 0.000000 0.000000 0.031652 0.000000 0.008117
# 5 -0.000653 0.001575 -0.002535 0.000000 0.022481 0.000000
# 6 0.000000 0.000000 0.000000 0.008117 0.000000 0.018365
#
#
# Mechanical properties :
#
#
# Convention : Reuss Voigt Hill
#
# Bulk Modulus (GPa) = 35.27321 49.75516 42.51419
# Shear Modulus (GPa) = 32.71204 40.49931 36.60568
#
# Velocity S-wave (km/s) = 3.58656 3.99069 3.79401
# Velocity P-wave (km/s) = 5.56971 6.38744 5.99254
#
# Compressibility (1/GPa) = 0.02835013
#
# Stress axis : x y z
#
# Youngs Moduli (GPa) = 78.75868 79.48655 41.07145
#
# Poissons Ratio (x) = 0.51649 0.09457
# Poissons Ratio (y) = 0.51176 0.07546
# Poissons Ratio (z) = 0.18135 0.14605
#
# Static dielectric constant tensor:
#      x y z
#    x 2.104050 0.000000 0.028740 
#    y 0.000000 2.044350 0.000000 
#    z 0.028740 0.000000 1.994860 
# 
# From -- ./inp_files/7929.got.cif
#   From: 2010.05.17/outbox.cif.g08.bks.cpg/sg4_4_cif.got.tgz:7929.got - 2010.06.03 18:43:04.
