data_PCOD9117516
_publ_section_title
;
Structure prediction by ZEFSAII (Michael W. Deem and Ramdas Pophale) SiO2 
 PCOD9117516
Probable space group: P 21
;
_chemical_formula_sum "Si O2"
_cell_formula_units_Z 16
_cell_length_a 11.505006
_cell_length_b 7.896792
_cell_length_c 10.236660
_cell_angle_alpha 90.000000
_cell_angle_beta 47.113958
_cell_angle_gamma 90.000000
_cell_volume 681.439307
_symmetry_space_group_name_H-M "P 21"
_symmetry_group_IT_number 4
_symmetry_cell_setting 'monoclinic'
loop_
_space_group_symop_operation_xyz
x,y,z
-x,1/2+y,-z
loop_
_atom_site_type_symbol
_atom_site_label
_atom_site_fract_x
_atom_site_fract_y
_atom_site_fract_z
Si Si1 0.471165 0.565020 0.431483
Si Si2 0.701695 0.413584 0.748252
Si Si3 0.482689 0.557683 0.124421
Si Si4 0.287204 0.920651 0.562497
Si Si5 0.141601 0.387124 0.747805
Si Si6 0.962134 0.745993 0.897406
Si Si7 0.188786 0.356432 0.237814
Si Si8 0.998583 0.707366 0.392940
O O1 0.522984 0.517992 0.244174
O O2 0.395185 0.751124 0.486173
O O3 0.617791 0.548285 0.417668
O O4 0.322042 0.449972 0.591381
O O5 0.592367 0.244112 0.822000
O O6 0.719963 0.471828 0.584234
O O7 0.861862 0.342347 0.687485
O O8 0.618494 0.538590 0.913050
O O9 0.349126 0.425609 0.177968
O O10 0.114624 0.865005 0.746695
O O11 0.031006 0.556465 0.831931
O O12 0.093108 0.269350 0.664212
O O13 0.103626 0.291281 0.910705
O O14 0.824401 0.786030 0.898181
O O15 0.080621 0.526649 0.318263
O O16 0.106965 0.224157 0.397284
#
# Coordination Sequence:
#
# PCOD9117516 Si02
#       8
#     2   2   2   2   2   2   2   2
#     4  10  23  43  62  87 125 163 202 251 304 362
#     4  10  23  42  62  90 124 160 203 252 304 361
#     4  10  23  42  62  90 124 160 203 252 304 361
#     4  10  23  43  62  87 125 163 202 251 304 362
#     4  11  24  43  64  92 126 162 206 257 308 367
#     4  11  24  43  64  92 126 162 206 257 308 367
#     4  11  22  41  66  92 123 161 206 257 309 365
#     4  11  22  41  66  92 123 161 206 257 309 365
#
# _framework density 23.479714999999999
#
# number of rings (size 3 to 8) (size 9 to 14) (size 15 to 20)
#    0.000    1.500    2.500    1.500    3.500    5.000 
#    0.000    0.000    0.000    0.000    0.000    0.000 
#    0.000    0.000    0.000    0.000    0.000    0.000 
#
# Total GULP energy -89678.584067 kJ/mol
# GULP energy per Si atom -5604.911504 kJ/mol
# Density = 2.342627 g / cm^3
# Si number density = 23.479715 Si / 1000 Ang^3
#
#
#
# Elastic Constant Matrix: (Units=GPa)
#
#
# Indices 1 2 3 4 5 6 
#
# 1 121.5896 22.4320 42.4907 0.0000 29.2536 0.0000
# 2 22.4320 91.6757 26.5661 0.0000 10.1255 0.0000
# 3 42.4907 26.5661 150.7984 0.0000 22.1121 0.0000
# 4 0.0000 0.0000 0.0000 45.9473 0.0000 -4.0036
# 5 29.2536 10.1255 22.1121 0.0000 35.8873 0.0000
# 6 0.0000 0.0000 0.0000 -4.0036 0.0000 45.4793
#
#
#
# Elastic Compliance Matrix: (Units=1/GPa)
#
#
# Indices 1 2 3 4 5 6 
#
# 1 0.010860 -0.001336 -0.001739 0.000000 -0.007404 0.000000
# 2 -0.001336 0.011818 -0.001513 0.000000 -0.001314 0.000000
# 3 -0.001739 -0.001513 0.007824 0.000000 -0.002977 0.000000
# 4 0.000000 0.000000 0.000000 0.021932 0.000000 0.001931
# 5 -0.007404 -0.001314 -0.002977 0.000000 0.036105 0.000000
# 6 0.000000 0.000000 0.000000 0.001931 0.000000 0.022158
#
#
# Mechanical properties :
#
#
# Convention : Reuss Voigt Hill
#
# Bulk Modulus (GPa) = 46.88834 60.78236 53.83535
# Shear Modulus (GPa) = 39.37548 43.63444 41.50496
#
# Velocity S-wave (km/s) = 4.09956 4.31558 4.20896
# Velocity P-wave (km/s) = 6.51319 7.12571 6.82632
#
# Compressibility (1/GPa) = 0.02132726
#
# Stress axis : x y z
#
# Youngs Moduli (GPa) = 92.08203 84.61407 127.80524
#
# Poissons Ratio (x) = 0.11301 0.22226
# Poissons Ratio (y) = 0.12298 0.19338
# Poissons Ratio (z) = 0.16013 0.12803
#
# Static dielectric constant tensor:
#      x y z
#    x 1.852140 0.000000 -0.041830 
#    y 0.000000 1.918900 0.000000 
#    z -0.041830 0.000000 1.848450 
# 
# From -- ./inp_files/5396.got.cif
#   From: 2010.05.17/outbox.cif.g08.bks.cpg/sg4_3_cif.got.tgz:5396.got - 2010.06.03 18:43:04.
