data_PCOD9117330
_publ_section_title
;
Structure prediction by ZEFSAII (Michael W. Deem and Ramdas Pophale) SiO2 
 PCOD9117330
Probable space group: P 21
;
_chemical_formula_sum "Si O2"
_cell_formula_units_Z 16
_cell_length_a 8.861886
_cell_length_b 7.775516
_cell_length_c 17.282352
_cell_angle_alpha 90.000000
_cell_angle_beta 146.737759
_cell_angle_gamma 90.000000
_cell_volume 653.149496
_symmetry_space_group_name_H-M "P 21"
_symmetry_group_IT_number 4
_symmetry_cell_setting 'monoclinic'
loop_
_space_group_symop_operation_xyz
x,y,z
-x,1/2+y,-z
loop_
_atom_site_type_symbol
_atom_site_label
_atom_site_fract_x
_atom_site_fract_y
_atom_site_fract_z
Si Si1 0.431037 0.003720 0.736491
Si Si2 0.244626 0.804839 0.948938
Si Si3 0.612543 0.864897 0.227883
Si Si4 0.059281 0.857938 0.290749
Si Si5 0.414089 0.422742 0.036713
Si Si6 0.781438 0.978118 0.462282
Si Si7 0.374898 0.289091 0.319734
Si Si8 0.624515 0.706654 0.517888
O O1 0.522887 0.199654 0.788287
O O2 0.565928 0.889920 0.863197
O O3 0.493982 0.929414 0.679605
O O4 0.103958 0.009595 0.607924
O O5 0.936514 0.763164 0.840557
O O6 0.314332 0.860668 0.892018
O O7 0.388329 0.935739 0.070818
O O8 0.410788 0.628297 0.028481
O O9 0.713225 0.977204 0.341899
O O10 0.872838 0.819605 0.285508
O O11 0.204798 0.039795 0.379110
O O12 0.291913 0.718733 0.370440
O O13 0.853334 0.870999 0.128745
O O14 0.729341 0.799201 0.485234
O O15 0.573778 0.123483 0.404671
O O16 0.335091 0.335621 0.391885
#
# Coordination Sequence:
#
# PCOD9117330 Si02
#       8
#     2   2   2   2   2   2   2   2
#     4  11  25  43  72  98 144 190 238 293 366 437
#     4  10  22  46  69  99 141 188 236 296 359 426
#     4  10  26  43  68 101 142 189 236 294 362 434
#     4  11  24  46  71 103 150 185 250 302 359 432
#     4  10  22  46  71 102 143 190 238 291 364 437
#     4  12  25  43  69 103 142 187 242 295 367 425
#     4  12  26  45  70 105 144 184 248 300 353 437
#     4  12  24  42  72 101 142 191 238 305 360 424
#
# _framework density 24.496690000000001
#
# number of rings (size 3 to 8) (size 9 to 14) (size 15 to 20)
#    0.000    1.000    2.500    3.000    5.250    4.000 
#    2.250    1.250    0.000    0.000    0.000    0.000 
#    0.000    0.000    0.000    0.000    0.000    0.000 
#
# Total GULP energy -89363.206987 kJ/mol
# GULP energy per Si atom -5585.200437 kJ/mol
# Density = 2.444093 g / cm^3
# Si number density = 24.496690 Si / 1000 Ang^3
#
#
#
# Elastic Constant Matrix: (Units=GPa)
#
#
# Indices 1 2 3 4 5 6 
#
# 1 54.8401 0.7146 17.6566 0.0000 3.2896 0.0000
# 2 0.7146 54.6167 9.7075 0.0000 14.2523 0.0000
# 3 17.6566 9.7075 96.6726 0.0000 2.0632 0.0000
# 4 0.0000 0.0000 0.0000 31.3533 0.0000 4.9426
# 5 3.2896 14.2523 2.0632 0.0000 50.0503 0.0000
# 6 0.0000 0.0000 0.0000 4.9426 0.0000 35.1551
#
#
#
# Elastic Compliance Matrix: (Units=1/GPa)
#
#
# Indices 1 2 3 4 5 6 
#
# 1 0.019465 0.000735 -0.003600 0.000000 -0.001340 0.000000
# 2 0.000735 0.020150 -0.002036 0.000000 -0.005702 0.000000
# 3 -0.003600 -0.002036 0.011199 0.000000 0.000355 0.000000
# 4 0.000000 0.000000 0.000000 0.032618 0.000000 -0.004586
# 5 -0.001340 -0.005702 0.000355 0.000000 0.021677 0.000000
# 6 0.000000 0.000000 0.000000 -0.004586 0.000000 0.029090
#
#
# Mechanical properties :
#
#
# Convention : Reuss Voigt Hill
#
# Bulk Modulus (GPa) = 24.38390 29.14297 26.76343
# Shear Modulus (GPa) = 31.71168 35.18177 33.44673
#
# Velocity S-wave (km/s) = 3.60186 3.79381 3.69908
# Velocity P-wave (km/s) = 5.22240 5.57792 5.40308
#
# Compressibility (1/GPa) = 0.04101067
#
# Stress axis : x y z
#
# Youngs Moduli (GPa) = 51.37472 49.62864 89.29663
#
# Poissons Ratio (x) = -0.03648 0.32150
# Poissons Ratio (y) = -0.03776 0.18180
# Poissons Ratio (z) = 0.18497 0.10104
#
# Static dielectric constant tensor:
#      x y z
#    x 1.929220 0.000000 -0.061170 
#    y 0.000000 2.029360 0.000000 
#    z -0.061170 0.000000 2.050450 
# 
# From -- ./inp_files/14948.got.cif
#   From: 2010.05.17/outbox.cif.g08.bks.cpg/sg4_8_cif.got.tgz:14948.got - 2010.06.03 18:43:04.
