data_PCOD9117391
_publ_section_title
;
Structure prediction by ZEFSAII (Michael W. Deem and Ramdas Pophale) SiO2 
 PCOD9117391
Probable space group: P 21
;
_chemical_formula_sum "Si O2"
_cell_formula_units_Z 16
_cell_length_a 12.537706
_cell_length_b 5.891797
_cell_length_c 14.652231
_cell_angle_alpha 90.000000
_cell_angle_beta 37.643674
_cell_angle_gamma 90.000000
_cell_volume 661.046966
_symmetry_space_group_name_H-M "P 21"
_symmetry_group_IT_number 4
_symmetry_cell_setting 'monoclinic'
loop_
_space_group_symop_operation_xyz
x,y,z
-x,1/2+y,-z
loop_
_atom_site_type_symbol
_atom_site_label
_atom_site_fract_x
_atom_site_fract_y
_atom_site_fract_z
Si Si1 0.652033 0.225970 0.506506
Si Si2 0.325814 0.456353 0.679487
Si Si3 0.956662 0.423601 0.924259
Si Si4 0.759108 0.808878 0.968244
Si Si5 0.607108 0.202682 0.198052
Si Si6 0.951116 0.220317 0.574323
Si Si7 0.584868 0.078411 0.759766
Si Si8 0.964553 0.581984 0.293600
O O1 0.457071 0.250568 0.596900
O O2 0.791822 0.429389 0.401898
O O3 0.718092 0.030406 0.393226
O O4 0.621904 0.185960 0.634007
O O5 0.430661 0.631321 0.673367
O O6 0.137833 0.426697 0.855122
O O7 0.991977 0.230786 0.824449
O O8 0.913286 0.666519 0.911027
O O9 0.774529 0.366498 0.095341
O O10 0.594262 0.644563 0.066782
O O11 0.673594 0.993964 0.092728
O O12 0.862023 0.921994 0.815254
O O13 0.451738 0.320096 0.247307
O O14 0.746089 0.160812 0.709726
O O15 0.035930 0.235100 0.616653
O O16 0.025543 0.976090 0.483546
#
# Coordination Sequence:
#
# PCOD9117391 Si02
#       8
#     2   2   2   2   2   2   2   2
#     4  12  24  42  68 106 142 192 244 310 360 452
#     4  12  24  38  68 102 140 194 246 294 372 434
#     4  10  24  41  70  99 146 188 245 306 363 439
#     4  10  22  50  68 102 144 194 238 318 364 434
#     4  10  24  41  70  99 146 188 245 306 363 439
#     4  12  30  50  84 114 146 198 244 306 390 452
#     4  11  25  48  73 104 147 188 248 309 376 440
#     4  11  25  48  73 104 147 188 248 309 376 440
#
# _framework density 24.204031000000001
#
# number of rings (size 3 to 8) (size 9 to 14) (size 15 to 20)
#    0.000    1.000    3.750    1.500    8.750    0.000 
#    6.750    0.000    0.000    0.000    0.000    0.000 
#    0.000    0.000    0.000    0.000    0.000    0.000 
#
# Total GULP energy -89242.036060 kJ/mol
# GULP energy per Si atom -5577.627254 kJ/mol
# Density = 2.414894 g / cm^3
# Si number density = 24.204031 Si / 1000 Ang^3
#
#
#
# Elastic Constant Matrix: (Units=GPa)
#
#
# Indices 1 2 3 4 5 6 
#
# 1 42.0920 -12.0935 -9.1764 0.0000 -14.3133 0.0000
# 2 -12.0935 55.1691 10.4579 0.0000 -1.7391 0.0000
# 3 -9.1764 10.4579 68.8726 0.0000 -24.5454 0.0000
# 4 0.0000 0.0000 0.0000 51.8135 0.0000 -6.0618
# 5 -14.3133 -1.7391 -24.5454 0.0000 41.5358 0.0000
# 6 0.0000 0.0000 0.0000 -6.0618 0.0000 29.3798
#
#
#
# Elastic Compliance Matrix: (Units=1/GPa)
#
#
# Indices 1 2 3 4 5 6 
#
# 1 0.033666 0.006067 0.009868 0.000000 0.017687 0.000000
# 2 0.006067 0.019799 -0.001466 0.000000 0.002053 0.000000
# 3 0.009868 -0.001466 0.021848 0.000000 0.016250 0.000000
# 4 0.000000 0.000000 0.000000 0.019777 0.000000 0.004081
# 5 0.017687 0.002053 0.016250 0.000000 0.039860 0.000000
# 6 0.000000 0.000000 0.000000 0.004081 0.000000 0.034879
#
#
# Mechanical properties :
#
#
# Convention : Reuss Voigt Hill
#
# Bulk Modulus (GPa) = 9.59232 16.05664 12.82448
# Shear Modulus (GPa) = 28.46694 36.34219 32.40457
#
# Velocity S-wave (km/s) = 3.43319 3.87911 3.66294
# Velocity P-wave (km/s) = 4.43705 5.16833 4.81659
#
# Compressibility (1/GPa) = 0.10425003
#
# Stress axis : x y z
#
# Youngs Moduli (GPa) = 29.70336 50.50848 45.77004
#
# Poissons Ratio (x) = -0.30643 -0.45165
# Poissons Ratio (y) = -0.18021 0.06711
# Poissons Ratio (z) = -0.29311 0.07406
#
# Static dielectric constant tensor:
#      x y z
#    x 1.880830 0.000000 -0.022950 
#    y 0.000000 2.117900 0.000000 
#    z -0.022950 0.000000 1.949430 
# 
# From -- ./inp_files/7299.got.cif
#   From: 2010.05.17/outbox.cif.g08.bks.cpg/sg4_4_cif.got.tgz:7299.got - 2010.06.03 18:43:04.
