data_PCOD9117926
_publ_section_title
;
Structure prediction by ZEFSAII (Michael W. Deem and Ramdas Pophale) SiO2 
 PCOD9117926
Probable space group: P 21
;
_chemical_formula_sum "Si O2"
_cell_formula_units_Z 14
_cell_length_a 14.083564
_cell_length_b 8.235592
_cell_length_c 13.443104
_cell_angle_alpha 90.000000
_cell_angle_beta 159.887640
_cell_angle_gamma 90.000000
_cell_volume 536.156382
_symmetry_space_group_name_H-M "P 21"
_symmetry_group_IT_number 4
_symmetry_cell_setting 'monoclinic'
loop_
_space_group_symop_operation_xyz
x,y,z
-x,1/2+y,-z
loop_
_atom_site_type_symbol
_atom_site_label
_atom_site_fract_x
_atom_site_fract_y
_atom_site_fract_z
Si Si1 0.945151 0.472560 0.042992
Si Si2 0.185920 0.979124 0.315127
Si Si3 0.550833 0.815325 0.366429
Si Si4 0.579234 0.391936 0.181687
Si Si5 0.671536 0.783665 0.870837
Si Si6 0.715148 0.892763 0.311025
Si Si7 0.107947 0.597096 0.676297
O O1 0.897108 0.506366 0.880427
O O2 0.757286 0.321674 0.894597
O O3 0.821560 0.621341 0.983731
O O4 0.258145 0.431185 0.376986
O O5 0.318908 0.137435 0.495605
O O6 0.423566 0.841422 0.555265
O O7 0.914419 0.916582 0.103750
O O8 0.574981 0.887447 0.279453
O O9 0.471932 0.276692 0.162601
O O10 0.889914 0.453344 0.488214
O O11 0.517733 0.842194 0.024286
O O12 0.389153 0.554142 0.008717
O O13 0.962461 0.763519 0.558036
O O14 0.834281 0.063571 0.385001
#
# Coordination Sequence:
#
# PCOD9117926 Si02
#       7
#     2   2   2   2   2   2   2
#     4  12  27  45  70 103 135 177 233 294 336 400
#     4  12  25  48  70 100 138 179 231 285 346 407
#     4  12  27  44  74 103 139 178 229 282 351 398
#     4  10  24  39  67  95 136 168 222 263 326 402
#     4  12  25  44  74  98 135 184 229 273 352 408
#     4  10  26  41  70  96 142 169 225 266 335 398
#     4  10  24  41  65  93 137 177 213 269 324 387
#
# _framework density 26.111785999999999
#
# number of rings (size 3 to 8) (size 9 to 14) (size 15 to 20)
#    0.857    0.000    0.000    6.857    6.000    1.143 
#    0.000    0.000    0.000    0.000    0.000    0.000 
#    0.000    0.000    0.000    0.000    0.000    0.000 
#
# Total GULP energy -78513.024278 kJ/mol
# GULP energy per Si atom -5608.073163 kJ/mol
# Density = 2.605235 g / cm^3
# Si number density = 26.111786 Si / 1000 Ang^3
#
#
#
# Elastic Constant Matrix: (Units=GPa)
#
#
# Indices 1 2 3 4 5 6 
#
# 1 132.5584 5.3071 20.8598 0.0000 -1.7155 0.0000
# 2 5.3071 73.0287 7.1961 0.0000 3.9759 0.0000
# 3 20.8598 7.1961 69.3637 0.0000 -0.2813 0.0000
# 4 0.0000 0.0000 0.0000 39.2220 0.0000 11.2393
# 5 -1.7155 3.9759 -0.2813 0.0000 47.6364 0.0000
# 6 0.0000 0.0000 0.0000 11.2393 0.0000 37.3846
#
#
#
# Elastic Compliance Matrix: (Units=1/GPa)
#
#
# Indices 1 2 3 4 5 6 
#
# 1 0.007931 -0.000362 -0.002346 0.000000 0.000302 0.000000
# 2 -0.000362 0.013916 -0.001340 0.000000 -0.001182 0.000000
# 3 -0.002346 -0.001340 0.015262 0.000000 0.000117 0.000000
# 4 0.000000 0.000000 0.000000 0.027899 0.000000 -0.008388
# 5 0.000302 -0.001182 0.000117 0.000000 0.021103 0.000000
# 6 0.000000 0.000000 0.000000 -0.008388 0.000000 0.029271
#
#
# Mechanical properties :
#
#
# Convention : Reuss Voigt Hill
#
# Bulk Modulus (GPa) = 34.46664 37.96410 36.21537
# Shear Modulus (GPa) = 37.55196 40.95446 39.25321
#
# Velocity S-wave (km/s) = 3.79637 3.96463 3.88142
# Velocity P-wave (km/s) = 5.69604 5.96057 5.82981
#
# Compressibility (1/GPa) = 0.02901356
#
# Stress axis : x y z
#
# Youngs Moduli (GPa) = 126.07980 71.86012 65.52268
#
# Poissons Ratio (x) = 0.02599 0.15375
# Poissons Ratio (y) = 0.04559 0.08778
# Poissons Ratio (z) = 0.29585 0.09627
#
# Static dielectric constant tensor:
#      x y z
#    x 2.020030 0.000000 -0.001760 
#    y 0.000000 2.134190 0.000000 
#    z -0.001760 0.000000 1.977720 
# 
# From -- ./inp_files/14196.got.cif
#   From: 2010.05.17/outbox.cif.g08.bks.cpg/sg4_8_cif.got.tgz:14196.got - 2010.06.03 18:43:04.
