data_PCOD9117929
_publ_section_title
;
Structure prediction by ZEFSAII (Michael W. Deem and Ramdas Pophale) SiO2 
 PCOD9117929
Probable space group: P 21
;
_chemical_formula_sum "Si O2"
_cell_formula_units_Z 16
_cell_length_a 18.713310
_cell_length_b 4.926417
_cell_length_c 8.922481
_cell_angle_alpha 90.000000
_cell_angle_beta 132.611531
_cell_angle_gamma 90.000000
_cell_volume 605.371715
_symmetry_space_group_name_H-M "P 21"
_symmetry_group_IT_number 4
_symmetry_cell_setting 'monoclinic'
loop_
_space_group_symop_operation_xyz
x,y,z
-x,1/2+y,-z
loop_
_atom_site_type_symbol
_atom_site_label
_atom_site_fract_x
_atom_site_fract_y
_atom_site_fract_z
Si Si1 0.266797 0.629600 0.984648
Si Si2 0.954006 0.547369 0.520419
Si Si3 0.732729 0.475854 0.262492
Si Si4 0.647622 0.588155 0.458361
Si Si5 0.984526 0.820747 0.067832
Si Si6 0.791119 0.661460 0.914014
Si Si7 0.562433 0.221067 0.575699
Si Si8 0.483915 0.958002 0.075988
O O1 0.199347 0.402625 0.955472
O O2 0.374277 0.586705 0.202629
O O3 0.237702 0.901236 0.032394
O O4 0.260800 0.672382 0.799292
O O5 0.837401 0.591584 0.363839
O O6 0.012879 0.815112 0.552106
O O7 0.976702 0.435149 0.719604
O O8 0.714553 0.523230 0.410958
O O9 0.626508 0.551586 0.038345
O O10 0.710228 0.732177 0.676354
O O11 0.614694 0.315644 0.498205
O O12 0.558530 0.779109 0.280644
O O13 0.890121 0.639901 0.967679
O O14 0.046174 0.586430 0.071874
O O15 0.521763 0.508543 0.574679
O O16 0.467607 0.730804 0.920816
#
# Coordination Sequence:
#
# PCOD9117929 Si02
#       8
#     2   2   2   2   2   2   2   2
#     4  11  24  41  65  93 131 180 223 280 348 410
#     4  12  27  49  74 105 144 191 240 299 371 433
#     4  11  25  45  71 103 140 184 239 297 349 418
#     4  10  24  43  70 102 139 187 236 287 346 421
#     4  12  25  44  72 104 135 178 236 300 357 419
#     4  11  24  45  66  96 136 179 229 285 351 423
#     4  11  23  41  63  93 134 181 230 279 338 414
#     4  10  24  40  61  96 137 174 219 279 346 408
#
# _framework density 26.430043999999999
#
# number of rings (size 3 to 8) (size 9 to 14) (size 15 to 20)
#    0.000    1.000    0.000    6.000    0.000   16.000 
#    0.000    0.000    0.000    0.000    0.000    0.000 
#    0.000    0.000    0.000    0.000    0.000    0.000 
#
# Total GULP energy -89506.194137 kJ/mol
# GULP energy per Si atom -5594.137134 kJ/mol
# Density = 2.636989 g / cm^3
# Si number density = 26.430044 Si / 1000 Ang^3
#
#
#
# Elastic Constant Matrix: (Units=GPa)
#
#
# Indices 1 2 3 4 5 6 
#
# 1 171.7065 50.0221 45.0528 0.0000 1.4958 0.0000
# 2 50.0221 92.8502 -6.3540 0.0000 -10.1801 0.0000
# 3 45.0528 -6.3540 107.1717 0.0000 -15.9978 0.0000
# 4 0.0000 0.0000 0.0000 34.7061 0.0000 -5.6828
# 5 1.4958 -10.1801 -15.9978 0.0000 53.0450 0.0000
# 6 0.0000 0.0000 0.0000 -5.6828 0.0000 24.1350
#
#
#
# Elastic Compliance Matrix: (Units=1/GPa)
#
#
# Indices 1 2 3 4 5 6 
#
# 1 0.008443 -0.005111 -0.004224 0.000000 -0.002493 0.000000
# 2 -0.005111 0.014202 0.003580 0.000000 0.003949 0.000000
# 3 -0.004224 0.003580 0.011979 0.000000 0.004419 0.000000
# 4 0.000000 0.000000 0.000000 0.029969 0.000000 0.007056
# 5 -0.002493 0.003949 0.004419 0.000000 0.021013 0.000000
# 6 0.000000 0.000000 0.000000 0.007056 0.000000 0.043095
#
#
# Mechanical properties :
#
#
# Convention : Reuss Voigt Hill
#
# Bulk Modulus (GPa) = 43.26690 61.01890 52.14290
# Shear Modulus (GPa) = 33.80334 41.24440 37.52387
#
# Velocity S-wave (km/s) = 3.58015 3.95462 3.77204
# Velocity P-wave (km/s) = 5.78756 6.63243 6.22435
#
# Compressibility (1/GPa) = 0.02311236
#
# Stress axis : x y z
#
# Youngs Moduli (GPa) = 118.44182 70.41503 83.48270
#
# Poissons Ratio (x) = 0.35989 0.35266
# Poissons Ratio (y) = 0.60535 -0.29887
# Poissons Ratio (z) = 0.50035 -0.25209
#
# Static dielectric constant tensor:
#      x y z
#    x 2.129700 0.000000 -0.026920 
#    y 0.000000 2.015890 0.000000 
#    z -0.026920 0.000000 2.166780 
# 
# From -- ./inp_files/9519.got.cif
#   From: 2010.05.17/outbox.cif.g08.bks.cpg/sg4_5_cif.got.tgz:9519.got - 2010.06.03 18:43:04.
