data_PCOD9117688
_publ_section_title
;
Structure prediction by ZEFSAII (Michael W. Deem and Ramdas Pophale) SiO2 
 PCOD9117688
Probable space group: P 21
;
_chemical_formula_sum "Si O2"
_cell_formula_units_Z 12
_cell_length_a 6.324065
_cell_length_b 17.528223
_cell_length_c 5.058961
_cell_angle_alpha 90.000000
_cell_angle_beta 101.140982
_cell_angle_gamma 90.000000
_cell_volume 550.215776
_symmetry_space_group_name_H-M "P 21"
_symmetry_group_IT_number 4
_symmetry_cell_setting 'monoclinic'
loop_
_space_group_symop_operation_xyz
x,y,z
-x,1/2+y,-z
loop_
_atom_site_type_symbol
_atom_site_label
_atom_site_fract_x
_atom_site_fract_y
_atom_site_fract_z
Si Si1 0.641834 0.546190 0.255419
Si Si2 0.077456 0.917695 0.895462
Si Si3 0.986405 0.160697 0.668509
Si Si4 0.243919 0.605524 0.862985
Si Si5 0.936949 0.833865 0.376492
Si Si6 0.690853 0.965487 0.465720
O O1 0.731111 0.477213 0.096774
O O2 0.835952 0.600419 0.388418
O O3 0.519771 0.504399 0.466403
O O4 0.477917 0.599044 0.052332
O O5 0.075058 0.850935 0.673556
O O6 0.862246 0.962781 0.748298
O O7 0.053673 0.879140 0.170066
O O8 0.792814 0.156236 0.407736
O O9 0.078450 0.245722 0.691101
O O10 0.910808 0.134452 0.940665
O O11 0.214364 0.520758 0.734980
O O12 0.709146 0.878677 0.367059
#
# Coordination Sequence:
#
# PCOD9117688 Si02
#       6
#     2   2   2   2   2   2
#     4  12  24  43  78  99 133 188 233 282 347 400
#     4  10  23  45  72  95 136 187 228 283 343 404
#     4  12  26  46  69 100 149 182 220 295 356 395
#     4  12  25  45  69 104 136 177 243 280 332 432
#     4  10  23  47  66  99 146 181 223 292 346 406
#     4  10  23  44  68 103 132 175 241 282 320 425
#
# _framework density 21.809625
#
# number of rings (size 3 to 8) (size 9 to 14) (size 15 to 20)
#    1.000    0.000    3.333    3.000    4.667    0.000 
#    3.000    3.333    0.000    0.000    0.000    0.000 
#    0.000    0.000    0.000    0.000    0.000    0.000 
#
# Total GULP energy -66945.419096 kJ/mol
# GULP energy per Si atom -5578.784925 kJ/mol
# Density = 2.175999 g / cm^3
# Si number density = 21.809625 Si / 1000 Ang^3
#
#
#
# Elastic Constant Matrix: (Units=GPa)
#
#
# Indices 1 2 3 4 5 6 
#
# 1 67.2489 38.3309 19.7880 0.0000 -14.2378 0.0000
# 2 38.3309 95.3164 -2.1201 0.0000 -22.5080 0.0000
# 3 19.7880 -2.1201 94.7153 0.0000 -23.1562 0.0000
# 4 0.0000 0.0000 0.0000 24.7832 0.0000 0.4570
# 5 -14.2378 -22.5080 -23.1562 0.0000 31.0017 0.0000
# 6 0.0000 0.0000 0.0000 0.4570 0.0000 18.3183
#
#
#
# Elastic Compliance Matrix: (Units=1/GPa)
#
#
# Indices 1 2 3 4 5 6 
#
# 1 0.021126 -0.008591 -0.004599 0.000000 0.000030 0.000000
# 2 -0.008591 0.016944 0.005159 0.000000 0.012210 0.000000
# 3 -0.004599 0.005159 0.014722 0.000000 0.012630 0.000000
# 4 0.000000 0.000000 0.000000 0.040368 0.000000 -0.001007
# 5 0.000030 0.012210 0.012630 0.000000 0.050569 0.000000
# 6 0.000000 0.000000 0.000000 -0.001007 0.000000 0.054615
#
#
# Mechanical properties :
#
#
# Convention : Reuss Voigt Hill
#
# Bulk Modulus (GPa) = 27.22422 41.03091 34.12757
# Shear Modulus (GPa) = 22.06043 28.23942 25.14993
#
# Velocity S-wave (km/s) = 3.18386 3.60226 3.39950
# Velocity P-wave (km/s) = 5.10154 6.01296 5.57590
#
# Compressibility (1/GPa) = 0.03673200
#
# Stress axis : x y z
#
# Youngs Moduli (GPa) = 47.33403 59.01712 67.92539
#
# Poissons Ratio (x) = 0.50702 0.31236
# Poissons Ratio (y) = 0.40665 -0.35044
# Poissons Ratio (z) = 0.21767 -0.30448
#
# Static dielectric constant tensor:
#      x y z
#    x 1.821230 0.000000 0.007620 
#    y 0.000000 1.793310 0.000000 
#    z 0.007620 0.000000 1.818720 
# 
# From -- ./inp_files/399.got.cif
#   From: 2010.05.17/outbox.cif.g08.bks.cpg/sg4_1_cif.got.tgz:399.got - 2010.06.03 18:43:04.
