data_PCOD9117646
_publ_section_title
;
Structure prediction by ZEFSAII (Michael W. Deem and Ramdas Pophale) SiO2 
 PCOD9117646
Probable space group: P 21
;
_chemical_formula_sum "Si O2"
_cell_formula_units_Z 16
_cell_length_a 4.844812
_cell_length_b 15.999825
_cell_length_c 8.903752
_cell_angle_alpha 90.000000
_cell_angle_beta 99.458368
_cell_angle_gamma 90.000000
_cell_volume 680.801649
_symmetry_space_group_name_H-M "P 21"
_symmetry_group_IT_number 4
_symmetry_cell_setting 'monoclinic'
loop_
_space_group_symop_operation_xyz
x,y,z
-x,1/2+y,-z
loop_
_atom_site_type_symbol
_atom_site_label
_atom_site_fract_x
_atom_site_fract_y
_atom_site_fract_z
Si Si1 0.887642 0.708140 0.872013
Si Si2 0.613420 0.308599 0.079035
Si Si3 0.756347 0.962704 0.984427
Si Si4 0.767891 0.068278 0.268525
Si Si5 0.674693 0.498361 0.577427
Si Si6 0.900033 0.686977 0.228867
Si Si7 0.803151 0.351846 0.791147
Si Si8 0.621850 0.076673 0.712925
O O1 0.568055 0.737928 0.852688
O O2 0.066491 0.792036 0.854843
O O3 0.039145 0.642050 0.779089
O O4 0.935444 0.681398 0.050130
O O5 0.473047 0.396903 0.091405
O O6 0.606687 0.304143 0.894877
O O7 0.014276 0.914032 0.085404
O O8 0.652326 0.020293 0.111521
O O9 0.797521 0.024168 0.850562
O O10 0.494645 0.070826 0.346699
O O11 0.994525 0.013765 0.381164
O O12 0.639452 0.409433 0.658363
O O13 0.544487 0.510753 0.403568
O O14 0.610563 0.641552 0.244576
O O15 0.988415 0.784009 0.263563
O O16 0.139905 0.634891 0.337512
#
# Coordination Sequence:
#
# PCOD9117646 Si02
#       8
#     2   2   2   2   2   2   2   2
#     4  11  22  37  66 101 129 166 225 290 327 395
#     4  11  20  37  62 103 130 164 224 286 339 385
#     4  11  23  38  69 101 129 170 230 285 340 389
#     4  11  23  41  68  95 130 177 226 282 333 408
#     4  11  25  45  65  98 139 179 231 272 346 413
#     4  11  23  41  68  98 137 177 228 279 353 404
#     4  10  23  43  72  99 133 187 236 284 338 428
#     4  12  27  42  66 103 141 178 220 292 344 410
#
# _framework density 23.501707
#
# number of rings (size 3 to 8) (size 9 to 14) (size 15 to 20)
#    0.000    1.000    5.000    3.000    3.500    0.000 
#    0.000    3.750    0.000    1.500    0.000    0.000 
#    0.000    0.000    0.000    0.000    0.000    0.000 
#
# Total GULP energy -89180.580970 kJ/mol
# GULP energy per Si atom -5573.786311 kJ/mol
# Density = 2.344822 g / cm^3
# Si number density = 23.501707 Si / 1000 Ang^3
#
#
#
# Elastic Constant Matrix: (Units=GPa)
#
#
# Indices 1 2 3 4 5 6 
#
# 1 110.9863 19.6678 2.3287 0.0000 -0.1465 0.0000
# 2 19.6678 72.6724 28.6893 0.0000 1.0350 0.0000
# 3 2.3287 28.6893 55.4458 0.0000 15.2239 0.0000
# 4 0.0000 0.0000 0.0000 29.6659 0.0000 3.6426
# 5 -0.1465 1.0350 15.2239 0.0000 24.1408 0.0000
# 6 0.0000 0.0000 0.0000 3.6426 0.0000 27.7938
#
#
#
# Elastic Compliance Matrix: (Units=1/GPa)
#
#
# Indices 1 2 3 4 5 6 
#
# 1 0.009534 -0.003126 0.001408 0.000000 -0.000696 0.000000
# 2 -0.003126 0.019049 -0.011484 0.000000 0.006407 0.000000
# 3 0.001408 -0.011484 0.028761 0.000000 -0.017637 0.000000
# 4 0.000000 0.000000 0.000000 0.034260 0.000000 -0.004490
# 5 -0.000696 0.006407 -0.017637 0.000000 0.052267 0.000000
# 6 0.000000 0.000000 0.000000 -0.004490 0.000000 0.036568
#
#
# Mechanical properties :
#
#
# Convention : Reuss Voigt Hill
#
# Bulk Modulus (GPa) = 32.32092 37.83066 35.07579
# Shear Modulus (GPa) = 23.02490 28.88134 25.95312
#
# Velocity S-wave (km/s) = 3.13343 3.50938 3.32672
# Velocity P-wave (km/s) = 5.18398 5.70551 5.45099
#
# Compressibility (1/GPa) = 0.03093971
#
# Stress axis : x y z
#
# Youngs Moduli (GPa) = 104.89161 52.49651 34.76890
#
# Poissons Ratio (x) = 0.16412 -0.04897
# Poissons Ratio (y) = 0.32791 0.39929
# Poissons Ratio (z) = -0.14773 0.60288
#
# Static dielectric constant tensor:
#      x y z
#    x 1.910500 0.000000 -0.016190 
#    y 0.000000 1.995330 0.000000 
#    z -0.016190 0.000000 1.907800 
# 
# From -- ./inp_files/4905.got.cif
#   From: 2010.05.17/outbox.cif.g08.bks.cpg/sg4_3_cif.got.tgz:4905.got - 2010.06.03 18:43:04.
