data_PCOD9117992
_publ_section_title
;
Structure prediction by ZEFSAII (Michael W. Deem and Ramdas Pophale) SiO2 
 PCOD9117992
Probable space group: P 21
;
_chemical_formula_sum "Si O2"
_cell_formula_units_Z 16
_cell_length_a 10.782615
_cell_length_b 8.720671
_cell_length_c 12.326289
_cell_angle_alpha 90.000000
_cell_angle_beta 139.387306
_cell_angle_gamma 90.000000
_cell_volume 754.482066
_symmetry_space_group_name_H-M "P 21"
_symmetry_group_IT_number 4
_symmetry_cell_setting 'monoclinic'
loop_
_space_group_symop_operation_xyz
x,y,z
-x,1/2+y,-z
loop_
_atom_site_type_symbol
_atom_site_label
_atom_site_fract_x
_atom_site_fract_y
_atom_site_fract_z
Si Si1 0.439125 0.361080 0.271629
Si Si2 0.726419 0.089141 0.439187
Si Si3 0.184234 0.040131 0.422087
Si Si4 0.366961 0.349530 0.805343
Si Si5 0.203200 0.842627 0.873707
Si Si6 0.804385 0.980107 0.092048
Si Si7 0.195553 0.370233 0.322281
Si Si8 0.875868 0.563261 0.372077
O O1 0.557900 0.210840 0.312900
O O2 0.608807 0.467307 0.429898
O O3 0.297134 0.336055 0.277453
O O4 0.315090 0.436306 0.093419
O O5 0.941339 0.149440 0.559046
O O6 0.717966 0.952267 0.346460
O O7 0.717967 0.011418 0.552159
O O8 0.034072 0.957769 0.241560
O O9 0.206644 0.216319 0.401914
O O10 0.092838 0.029327 0.481228
O O11 0.286578 0.388855 0.869538
O O12 0.308596 0.173079 0.750311
O O13 0.588663 0.389843 0.952053
O O14 0.209304 0.659225 0.884747
O O15 0.031292 0.899699 0.835535
O O16 0.160926 0.914623 0.727185
#
# Coordination Sequence:
#
# PCOD9117992 Si02
#       8
#     2   2   2   2   2   2   2   2
#     4  12  26  46  67 100 142 194 238 287 346 427
#     4  11  25  41  73 102 136 184 234 295 359 422
#     4  11  22  45  72  97 137 187 231 294 364 415
#     4  12  22  40  66 104 136 170 227 292 367 420
#     4  10  24  43  65 101 133 182 228 291 354 415
#     4  11  26  40  67 104 137 178 225 293 353 430
#     4  10  24  49  66  96 139 189 248 284 342 428
#     4  11  23  42  72 100 142 176 229 300 367 425
#
# _framework density 21.206600000000002
#
# number of rings (size 3 to 8) (size 9 to 14) (size 15 to 20)
#    0.000    1.000    2.500    3.750    5.250    0.000 
#    6.750    0.000    0.000    0.000    0.000    0.000 
#    0.000    0.000    0.000    0.000    0.000    0.000 
#
# Total GULP energy -89394.636175 kJ/mol
# GULP energy per Si atom -5587.164761 kJ/mol
# Density = 2.115833 g / cm^3
# Si number density = 21.206600 Si / 1000 Ang^3
#
#
#
# Elastic Constant Matrix: (Units=GPa)
#
#
# Indices 1 2 3 4 5 6 
#
# 1 107.1034 30.1397 50.7147 0.0000 5.1628 0.0000
# 2 30.1397 78.1543 48.5728 0.0000 -1.9774 0.0000
# 3 50.7147 48.5728 133.3269 0.0000 23.7157 0.0000
# 4 0.0000 0.0000 0.0000 32.8317 0.0000 2.0623
# 5 5.1628 -1.9774 23.7157 0.0000 24.5545 0.0000
# 6 0.0000 0.0000 0.0000 2.0623 0.0000 19.4917
#
#
#
# Elastic Compliance Matrix: (Units=1/GPa)
#
#
# Indices 1 2 3 4 5 6 
#
# 1 0.011712 -0.002058 -0.003909 0.000000 0.001148 0.000000
# 2 -0.002058 0.018571 -0.007638 0.000000 0.009306 0.000000
# 3 -0.003909 -0.007638 0.014167 0.000000 -0.013476 0.000000
# 4 0.000000 0.000000 0.000000 0.030662 0.000000 -0.003244
# 5 0.001148 0.009306 -0.013476 0.000000 0.054250 0.000000
# 6 0.000000 0.000000 0.000000 -0.003244 0.000000 0.051647
#
#
# Mechanical properties :
#
#
# Convention : Reuss Voigt Hill
#
# Bulk Modulus (GPa) = 58.00660 64.15989 61.08325
# Shear Modulus (GPa) = 23.36810 27.98608 25.67709
#
# Velocity S-wave (km/s) = 3.32313 3.63669 3.48344
# Velocity P-wave (km/s) = 6.49128 6.92491 6.71160
#
# Compressibility (1/GPa) = 0.01723942
#
# Stress axis : x y z
#
# Youngs Moduli (GPa) = 85.38513 53.84604 70.58536
#
# Poissons Ratio (x) = 0.11081 0.27594
# Poissons Ratio (y) = 0.17571 0.53915
# Poissons Ratio (z) = 0.33379 0.41129
#
# Static dielectric constant tensor:
#      x y z
#    x 1.747780 0.000000 0.052370 
#    y 0.000000 1.800960 0.000000 
#    z 0.052370 0.000000 1.798780 
# 
# From -- ./inp_files/12048.got.cif
#   From: 2010.05.17/outbox.cif.g08.bks.cpg/sg4_7_cif.got.tgz:12048.got - 2010.06.03 18:43:04.
