data_PCOD9117188
_publ_section_title
;
Structure prediction by ZEFSAII (Michael W. Deem and Ramdas Pophale) SiO2 
 PCOD9117188
Probable space group: P 21
;
_chemical_formula_sum "Si O2"
_cell_formula_units_Z 16
_cell_length_a 9.767047
_cell_length_b 5.765288
_cell_length_c 15.932547
_cell_angle_alpha 90.000000
_cell_angle_beta 131.326472
_cell_angle_gamma 90.000000
_cell_volume 673.729846
_symmetry_space_group_name_H-M "P 21"
_symmetry_group_IT_number 4
_symmetry_cell_setting 'monoclinic'
loop_
_space_group_symop_operation_xyz
x,y,z
-x,1/2+y,-z
loop_
_atom_site_type_symbol
_atom_site_label
_atom_site_fract_x
_atom_site_fract_y
_atom_site_fract_z
Si Si1 0.929535 0.255270 0.690410
Si Si2 0.596205 0.178784 0.168757
Si Si3 0.998558 0.670057 0.107673
Si Si4 0.327092 0.822734 0.988983
Si Si5 0.924037 0.409758 0.370602
Si Si6 0.557756 0.022496 0.562622
Si Si7 0.773424 0.586870 0.484102
Si Si8 0.730232 0.944690 0.896589
O O1 0.771427 0.069424 0.649525
O O2 0.843217 0.442388 0.593224
O O3 0.985209 0.340181 0.805213
O O4 0.080409 0.116776 0.698406
O O5 0.610243 0.288378 0.081107
O O6 0.799048 0.198076 0.287518
O O7 0.462209 0.312656 0.179005
O O8 0.493229 0.941126 0.107580
O O9 0.855926 0.477372 0.083095
O O10 0.192677 0.585313 0.150954
O O11 0.894092 0.768934 0.984551
O O12 0.283397 0.597952 0.025024
O O13 0.850231 0.484674 0.430093
O O14 0.133491 0.336403 0.468639
O O15 0.481675 0.252792 0.479324
O O16 0.442749 0.068737 0.600117
#
# Coordination Sequence:
#
# PCOD9117188 Si02
#       8
#     2   2   2   2   2   2   2   2
#     4  11  24  42  70 100 131 187 233 291 356 430
#     4  11  25  39  69  99 135 180 221 284 346 423
#     4  11  24  42  69  96 137 180 228 280 353 419
#     4  11  22  43  64  97 140 171 224 277 341 419
#     4  12  24  44  67  99 139 183 231 288 357 426
#     4  10  22  44  69  98 139 182 237 299 356 418
#     4  11  25  44  66  99 141 179 239 294 354 424
#     4  11  24  44  64 100 136 174 221 289 337 419
#
# _framework density 23.748391000000002
#
# number of rings (size 3 to 8) (size 9 to 14) (size 15 to 20)
#    0.000    1.000    6.250    0.000    3.500    1.000 
#    0.000    5.000    0.000    0.000    0.000    0.000 
#    0.000    0.000    0.000    0.000    0.000    0.000 
#
# Total GULP energy -89284.341230 kJ/mol
# GULP energy per Si atom -5580.271327 kJ/mol
# Density = 2.369434 g / cm^3
# Si number density = 23.748391 Si / 1000 Ang^3
#
#
#
# Elastic Constant Matrix: (Units=GPa)
#
#
# Indices 1 2 3 4 5 6 
#
# 1 150.0280 14.1755 17.0262 0.0000 -6.8470 0.0000
# 2 14.1755 36.2342 2.4242 0.0000 2.8345 0.0000
# 3 17.0262 2.4242 55.0380 0.0000 1.6492 0.0000
# 4 0.0000 0.0000 0.0000 18.0842 0.0000 10.6272
# 5 -6.8470 2.8345 1.6492 0.0000 37.6867 0.0000
# 6 0.0000 0.0000 0.0000 10.6272 0.0000 31.7326
#
#
#
# Elastic Compliance Matrix: (Units=1/GPa)
#
#
# Indices 1 2 3 4 5 6 
#
# 1 0.007252 -0.002819 -0.002168 0.000000 0.001624 0.000000
# 2 -0.002819 0.028932 -0.000322 0.000000 -0.002674 0.000000
# 3 -0.002168 -0.000322 0.018890 0.000000 -0.001196 0.000000
# 4 0.000000 0.000000 0.000000 0.068846 0.000000 -0.023056
# 5 0.001624 -0.002674 -0.001196 0.000000 0.027083 0.000000
# 6 0.000000 0.000000 0.000000 -0.023056 0.000000 0.039235
#
#
# Mechanical properties :
#
#
# Convention : Reuss Voigt Hill
#
# Bulk Modulus (GPa) = 22.49441 34.28355 28.38898
# Shear Modulus (GPa) = 23.18306 31.34565 27.26435
#
# Velocity S-wave (km/s) = 3.12780 3.63699 3.39197
# Velocity P-wave (km/s) = 4.74729 5.66608 5.22691
#
# Compressibility (1/GPa) = 0.04445549
#
# Stress axis : x y z
#
# Youngs Moduli (GPa) = 137.89384 34.56394 52.93821
#
# Poissons Ratio (x) = 0.09744 0.11477
# Poissons Ratio (y) = 0.38874 0.01705
# Poissons Ratio (z) = 0.29894 0.01113
#
# Static dielectric constant tensor:
#      x y z
#    x 1.898380 0.000000 0.025780 
#    y 0.000000 1.944940 0.000000 
#    z 0.025780 0.000000 1.914270 
# 
# From -- ./inp_files/7287.got.cif
#   From: 2010.05.17/outbox.cif.g08.bks.cpg/sg4_4_cif.got.tgz:7287.got - 2010.06.03 18:43:04.
