data_PCOD9117786
_publ_section_title
;
Structure prediction by ZEFSAII (Michael W. Deem and Ramdas Pophale) SiO2 
 PCOD9117786
Probable space group: P 21
;
_chemical_formula_sum "Si O2"
_cell_formula_units_Z 14
_cell_length_a 12.039105
_cell_length_b 5.138211
_cell_length_c 8.585907
_cell_angle_alpha 90.000000
_cell_angle_beta 82.517112
_cell_angle_gamma 90.000000
_cell_volume 526.596465
_symmetry_space_group_name_H-M "P 21"
_symmetry_group_IT_number 4
_symmetry_cell_setting 'monoclinic'
loop_
_space_group_symop_operation_xyz
x,y,z
-x,1/2+y,-z
loop_
_atom_site_type_symbol
_atom_site_label
_atom_site_fract_x
_atom_site_fract_y
_atom_site_fract_z
Si Si1 0.219540 0.252460 0.196793
Si Si2 0.683368 0.207672 0.217036
Si Si3 0.010723 0.925446 0.269784
Si Si4 0.570264 0.583578 0.441107
Si Si5 0.566212 0.849206 0.010043
Si Si6 0.785726 0.907559 0.484194
Si Si7 0.115380 0.618609 0.990296
O O1 0.347721 0.213351 0.126940
O O2 0.218651 0.472306 0.332655
O O3 0.167348 0.352161 0.043970
O O4 0.132422 0.044481 0.284417
O O5 0.599216 0.433996 0.275815
O O6 0.742495 0.117983 0.366862
O O7 0.775399 0.289083 0.071533
O O8 0.625094 0.953632 0.156077
O O9 0.037238 0.695924 0.145708
O O10 0.916186 0.857601 0.413046
O O11 0.949843 0.116146 0.158477
O O12 0.491960 0.841460 0.458958
O O13 0.691676 0.679821 0.483568
O O14 0.471936 0.632201 0.047540
#
# Coordination Sequence:
#
# PCOD9117786 Si02
#       7
#     2   2   2   2   2   2   2
#     4  11  27  47  71 116 150 204 260 325 390 468
#     4  10  26  48  80 112 156 206 263 317 394 463
#     4  11  24  46  75 106 150 206 255 329 385 469
#     4  12  27  49  79 116 156 208 259 314 389 474
#     4  11  29  50  80 115 158 208 264 324 384 461
#     4  11  28  47  75 117 161 203 258 325 396 467
#     4  10  23  45  76 102 149 197 265 320 390 458
#
# _framework density 26.585826000000001
#
# number of rings (size 3 to 8) (size 9 to 14) (size 15 to 20)
#    0.000    1.143    2.857    0.000   12.000    2.286 
#    0.000    0.000    0.000    0.000    0.000    0.000 
#    0.000    0.000    0.000    0.000    0.000    0.000 
#
# Total GULP energy -78122.920585 kJ/mol
# GULP energy per Si atom -5580.208613 kJ/mol
# Density = 2.652532 g / cm^3
# Si number density = 26.585826 Si / 1000 Ang^3
#
#
#
# Elastic Constant Matrix: (Units=GPa)
#
#
# Indices 1 2 3 4 5 6 
#
# 1 120.4117 60.8308 37.4502 0.0000 -34.1446 0.0000
# 2 60.8308 142.6021 29.8264 0.0000 -22.7617 0.0000
# 3 37.4502 29.8264 79.2335 0.0000 -7.7585 0.0000
# 4 0.0000 0.0000 0.0000 28.3204 0.0000 -0.9117
# 5 -34.1446 -22.7617 -7.7585 0.0000 42.7309 0.0000
# 6 0.0000 0.0000 0.0000 -0.9117 0.0000 29.6374
#
#
#
# Elastic Compliance Matrix: (Units=1/GPa)
#
#
# Indices 1 2 3 4 5 6 
#
# 1 0.013886 -0.003679 -0.004361 0.000000 0.008344 0.000000
# 2 -0.003679 0.009172 -0.001551 0.000000 0.001664 0.000000
# 3 -0.004361 -0.001551 0.015113 0.000000 -0.001567 0.000000
# 4 0.000000 0.000000 0.000000 0.035345 0.000000 0.001087
# 5 0.008344 0.001664 -0.001567 0.000000 0.030672 0.000000
# 6 0.000000 0.000000 0.000000 0.001087 0.000000 0.033775
#
#
# Mechanical properties :
#
#
# Convention : Reuss Voigt Hill
#
# Bulk Modulus (GPa) = 52.66461 66.49579 59.58020
# Shear Modulus (GPa) = 30.58584 34.41373 32.49978
#
# Velocity S-wave (km/s) = 3.39552 3.60173 3.50015
# Velocity P-wave (km/s) = 5.93507 6.50866 6.22847
#
# Compressibility (1/GPa) = 0.01898808
#
# Stress axis : x y z
#
# Youngs Moduli (GPa) = 72.01396 109.02701 66.17009
#
# Poissons Ratio (x) = 0.40116 0.28858
# Poissons Ratio (y) = 0.26497 0.10260
# Poissons Ratio (z) = 0.31407 0.16906
#
# Static dielectric constant tensor:
#      x y z
#    x 2.219460 0.000000 0.032350 
#    y 0.000000 2.177850 0.000000 
#    z 0.032350 0.000000 2.138780 
# 
# From -- ./inp_files/7149.got.cif
#   From: 2010.05.17/outbox.cif.g08.bks.cpg/sg4_4_cif.got.tgz:7149.got - 2010.06.03 18:43:04.
