data_PCOD9117912
_publ_section_title
;
Structure prediction by ZEFSAII (Michael W. Deem and Ramdas Pophale) SiO2 
 PCOD9117912
Probable space group: P 21
;
_chemical_formula_sum "Si O2"
_cell_formula_units_Z 16
_cell_length_a 22.598389
_cell_length_b 4.950174
_cell_length_c 5.221361
_cell_angle_alpha 90.000000
_cell_angle_beta 99.503620
_cell_angle_gamma 90.000000
_cell_volume 576.075979
_symmetry_space_group_name_H-M "P 21"
_symmetry_group_IT_number 4
_symmetry_cell_setting 'monoclinic'
loop_
_space_group_symop_operation_xyz
x,y,z
-x,1/2+y,-z
loop_
_atom_site_type_symbol
_atom_site_label
_atom_site_fract_x
_atom_site_fract_y
_atom_site_fract_z
Si Si1 0.383313 0.383210 0.490035
Si Si2 0.112186 0.096584 0.932685
Si Si3 0.741141 0.018086 0.680488
Si Si4 0.236454 0.186632 0.795100
Si Si5 0.640337 0.516124 0.020336
Si Si6 0.867543 0.105396 0.747232
Si Si7 0.989973 0.284037 0.617862
Si Si8 0.537808 0.152970 0.105513
O O1 0.327698 0.594160 0.413716
O O2 0.374400 0.201620 0.740836
O O3 0.378317 0.184104 0.245146
O O4 0.443272 0.547393 0.600348
O O5 0.165477 0.138959 0.767776
O O6 0.044182 0.180757 0.831046
O O7 0.115359 0.782417 0.994718
O O8 0.131287 0.292125 0.179131
O O9 0.747811 0.776864 0.478247
O O10 0.799208 0.191949 0.640882
O O11 0.751406 0.914934 0.976652
O O12 0.287512 0.972426 0.917697
O O13 0.599613 0.252883 0.019571
O O14 0.495337 0.412160 0.063764
O O15 0.922558 0.181955 0.608097
O O16 0.991311 0.605836 0.616320
#
# Coordination Sequence:
#
# PCOD9117912 Si02
#       8
#     2   2   2   2   2   2   2   2
#     4  10  23  50  77 112 153 201 253 317 382 455
#     4  11  23  43  65  99 138 191 242 302 368 438
#     4   9  20  43  73 106 146 190 245 304 372 440
#     4   9  20  43  73 106 146 190 245 304 372 440
#     4  10  23  50  77 112 153 201 253 317 382 455
#     4  11  23  43  65  99 138 191 242 302 368 438
#     4  12  24  40  64  98 140 190 244 302 366 436
#     4  12  26  54  78 120 154 210 258 322 388 474
#
# _framework density 27.774114999999998
#
# number of rings (size 3 to 8) (size 9 to 14) (size 15 to 20)
#    0.000    1.500    1.250    3.000    0.000    3.000 
#   29.250    0.000    0.000    0.000    0.000    0.000 
#    0.000    0.000    0.000    0.000    0.000    0.000 
#
# Total GULP energy -89545.160627 kJ/mol
# GULP energy per Si atom -5596.572539 kJ/mol
# Density = 2.771090 g / cm^3
# Si number density = 27.774115 Si / 1000 Ang^3
#
#
#
# Elastic Constant Matrix: (Units=GPa)
#
#
# Indices 1 2 3 4 5 6 
#
# 1 110.1657 50.2228 46.3183 0.0000 10.2144 0.0000
# 2 50.2228 109.5504 48.7416 0.0000 12.8383 0.0000
# 3 46.3183 48.7416 136.9526 0.0000 23.8701 0.0000
# 4 0.0000 0.0000 0.0000 23.2067 0.0000 -1.0481
# 5 10.2144 12.8383 23.8701 0.0000 44.5901 0.0000
# 6 0.0000 0.0000 0.0000 -1.0481 0.0000 52.9666
#
#
#
# Elastic Compliance Matrix: (Units=1/GPa)
#
#
# Indices 1 2 3 4 5 6 
#
# 1 0.012173 -0.004446 -0.002505 0.000000 -0.000167 0.000000
# 2 -0.004446 0.012525 -0.002760 0.000000 -0.001110 0.000000
# 3 -0.002505 -0.002760 0.009808 0.000000 -0.003882 0.000000
# 4 0.000000 0.000000 0.000000 0.043130 0.000000 0.000853
# 5 -0.000167 -0.001110 -0.003882 0.000000 0.024862 0.000000
# 6 0.000000 0.000000 0.000000 0.000853 0.000000 0.018897
#
#
# Mechanical properties :
#
#
# Convention : Reuss Voigt Hill
#
# Bulk Modulus (GPa) = 66.30518 71.91490 69.11004
# Shear Modulus (GPa) = 34.28260 38.24507 36.26383
#
# Velocity S-wave (km/s) = 3.51712 3.71483 3.61733
# Velocity P-wave (km/s) = 6.35755 6.65950 6.51027
#
# Compressibility (1/GPa) = 0.01508178
#
# Stress axis : x y z
#
# Youngs Moduli (GPa) = 82.14787 79.84116 101.95593
#
# Poissons Ratio (x) = 0.35501 0.25544
# Poissons Ratio (y) = 0.36526 0.28144
# Poissons Ratio (z) = 0.20582 0.22039
#
# Static dielectric constant tensor:
#      x y z
#    x 2.288350 0.000000 -0.019370 
#    y 0.000000 2.156080 0.000000 
#    z -0.019370 0.000000 2.219820 
# 
# From -- ./inp_files/4331.got.cif
#   From: 2010.05.17/outbox.cif.g08.bks.cpg/sg4_3_cif.got.tgz:4331.got - 2010.06.03 18:43:04.
