data_PCOD9117298
_publ_section_title
;
Structure prediction by ZEFSAII (Michael W. Deem and Ramdas Pophale) SiO2 
 PCOD9117298
Probable space group: P 21
;
_chemical_formula_sum "Si O2"
_cell_formula_units_Z 14
_cell_length_a 13.203280
_cell_length_b 6.908115
_cell_length_c 6.942598
_cell_angle_alpha 90.000000
_cell_angle_beta 68.692738
_cell_angle_gamma 90.000000
_cell_volume 589.948297
_symmetry_space_group_name_H-M "P 21"
_symmetry_group_IT_number 4
_symmetry_cell_setting 'monoclinic'
loop_
_space_group_symop_operation_xyz
x,y,z
-x,1/2+y,-z
loop_
_atom_site_type_symbol
_atom_site_label
_atom_site_fract_x
_atom_site_fract_y
_atom_site_fract_z
Si Si1 0.541523 0.758500 0.208324
Si Si2 0.877261 0.421661 0.318333
Si Si3 0.926751 0.712840 0.994105
Si Si4 0.640077 0.728570 0.772781
Si Si5 0.743901 0.998565 0.970962
Si Si6 0.813384 0.414675 0.792237
Si Si7 0.371276 0.983031 0.566241
O O1 0.439535 0.830390 0.397044
O O2 0.580577 0.553817 0.266472
O O3 0.533875 0.738309 0.982140
O O4 0.637304 0.921504 0.159203
O O5 0.877590 0.387893 0.546661
O O6 0.752114 0.415456 0.339269
O O7 0.917967 0.633872 0.217734
O O8 0.771355 0.218929 0.916733
O O9 0.844411 0.886622 0.999345
O O10 0.884854 0.536681 0.891085
O O11 0.044903 0.772275 0.841924
O O12 0.713908 0.910903 0.779375
O O13 0.711664 0.549168 0.802031
O O14 0.622443 0.681242 0.565202
#
# Coordination Sequence:
#
# PCOD9117298 Si02
#       7
#     2   2   2   2   2   2   2
#     4  10  23  42  69 102 139 180 224 289 343 413
#     4  11  26  46  70 101 140 184 237 287 350 425
#     4  11  25  46  67 101 145 177 233 298 346 414
#     4   8  21  44  66  98 140 170 230 282 347 418
#     4   9  21  47  70  99 137 180 222 295 355 405
#     4  10  22  45  73 101 135 181 235 289 350 421
#     4  11  22  46  67 100 138 184 235 280 349 424
#
# _framework density 23.730895
#
# number of rings (size 3 to 8) (size 9 to 14) (size 15 to 20)
#    0.857    1.143    1.429    0.000    4.000    5.714 
#   12.857    0.000    0.000    0.000    0.000    0.000 
#    0.000    0.000    0.000    0.000    0.000    0.000 
#
# Total GULP energy -78236.340826 kJ/mol
# GULP energy per Si atom -5588.310059 kJ/mol
# Density = 2.367688 g / cm^3
# Si number density = 23.730895 Si / 1000 Ang^3
#
#
#
# Elastic Constant Matrix: (Units=GPa)
#
#
# Indices 1 2 3 4 5 6 
#
# 1 67.1992 19.9597 29.3496 0.0000 -32.4360 0.0000
# 2 19.9597 81.2375 2.0255 0.0000 -9.9790 0.0000
# 3 29.3496 2.0255 99.1248 0.0000 -19.8611 0.0000
# 4 0.0000 0.0000 0.0000 47.3117 0.0000 -10.9287
# 5 -32.4360 -9.9790 -19.8611 0.0000 48.2558 0.0000
# 6 0.0000 0.0000 0.0000 -10.9287 0.0000 31.9059
#
#
#
# Elastic Compliance Matrix: (Units=1/GPa)
#
#
# Indices 1 2 3 4 5 6 
#
# 1 0.024852 -0.004277 -0.004470 0.000000 0.013981 0.000000
# 2 -0.004277 0.013374 0.001059 0.000000 0.000326 0.000000
# 3 -0.004470 0.001059 0.011806 0.000000 0.002073 0.000000
# 4 0.000000 0.000000 0.000000 0.022952 0.000000 0.007862
# 5 0.013981 0.000326 0.002073 0.000000 0.031041 0.000000
# 6 0.000000 0.000000 0.000000 0.007862 0.000000 0.034035
#
#
# Mechanical properties :
#
#
# Convention : Reuss Voigt Hill
#
# Bulk Modulus (GPa) = 28.85606 38.91457 33.88531
# Shear Modulus (GPa) = 30.30512 38.57647 34.44080
#
# Velocity S-wave (km/s) = 3.57744 4.03622 3.81373
# Velocity P-wave (km/s) = 5.40834 6.17700 5.80541
#
# Compressibility (1/GPa) = 0.03465477
#
# Stress axis : x y z
#
# Youngs Moduli (GPa) = 40.23833 74.77097 84.70607
#
# Poissons Ratio (x) = 0.31981 0.37861
# Poissons Ratio (y) = 0.17211 -0.08967
# Poissons Ratio (z) = 0.17986 -0.07915
#
# Static dielectric constant tensor:
#      x y z
#    x 1.910370 0.000000 0.027000 
#    y 0.000000 1.903380 0.000000 
#    z 0.027000 0.000000 1.922510 
# 
# From -- ./inp_files/3687.got.cif
#   From: 2010.05.17/outbox.cif.g08.bks.cpg/sg4_2_cif.got.tgz:3687.got - 2010.06.03 18:43:04.
