data_PCOD9117715
_publ_section_title
;
Structure prediction by ZEFSAII (Michael W. Deem and Ramdas Pophale) SiO2 
 PCOD9117715
Probable space group: P 21
;
_chemical_formula_sum "Si O2"
_cell_formula_units_Z 10
_cell_length_a 5.674358
_cell_length_b 5.109240
_cell_length_c 15.478061
_cell_angle_alpha 90.000000
_cell_angle_beta 56.178562
_cell_angle_gamma 90.000000
_cell_volume 372.798083
_symmetry_space_group_name_H-M "P 21"
_symmetry_group_IT_number 4
_symmetry_cell_setting 'monoclinic'
loop_
_space_group_symop_operation_xyz
x,y,z
-x,1/2+y,-z
loop_
_atom_site_type_symbol
_atom_site_label
_atom_site_fract_x
_atom_site_fract_y
_atom_site_fract_z
Si Si1 0.707510 0.652650 0.344010
Si Si2 0.541315 0.891380 0.215452
Si Si3 0.545641 0.048016 0.040802
Si Si4 0.122331 0.904853 0.856330
Si Si5 0.858599 0.897482 0.488602
O O1 0.506729 0.840286 0.324789
O O2 0.920045 0.516583 0.232504
O O3 0.871458 0.793820 0.387621
O O4 0.477934 0.446409 0.426822
O O5 0.383536 0.010763 0.164502
O O6 0.622039 0.598260 0.169949
O O7 0.791868 0.106266 0.167376
O O8 0.425749 0.842959 0.996457
O O9 0.868287 0.945748 0.973123
O O10 0.984582 0.672670 0.525231
#
# Coordination Sequence:
#
# PCOD9117715 Si02
#       5
#     2   2   2   2   2
#     4  10  28  50  76 104 154 200 238 324 374 440
#     4  10  23  44  70  94 138 195 234 277 381 429
#     4  12  24  42  66 108 144 182 242 304 346 442
#     4  10  23  44  70  94 138 195 234 277 381 429
#     4  12  28  48  80 112 146 196 264 314 384 454
#
# _framework density 26.824172000000001
#
# number of rings (size 3 to 8) (size 9 to 14) (size 15 to 20)
#    1.200    0.000    0.000    4.800    8.400    1.600 
#    0.000    0.000    0.000    0.000    0.000    0.000 
#    0.000    0.000    0.000    0.000    0.000    0.000 
#
# Total GULP energy -55780.154480 kJ/mol
# GULP energy per Si atom -5578.015448 kJ/mol
# Density = 2.676312 g / cm^3
# Si number density = 26.824172 Si / 1000 Ang^3
#
#
#
# Elastic Constant Matrix: (Units=GPa)
#
#
# Indices 1 2 3 4 5 6 
#
# 1 50.5074 28.5557 19.8372 0.0000 24.9363 0.0000
# 2 28.5557 108.4482 34.3542 0.0000 14.5250 0.0000
# 3 19.8372 34.3542 129.4343 0.0000 42.4600 0.0000
# 4 0.0000 0.0000 0.0000 37.4014 0.0000 -0.8204
# 5 24.9363 14.5250 42.4600 0.0000 48.4618 0.0000
# 6 0.0000 0.0000 0.0000 -0.8204 0.0000 59.7737
#
#
#
# Elastic Compliance Matrix: (Units=1/GPa)
#
#
# Indices 1 2 3 4 5 6 
#
# 1 0.030357 -0.006608 0.002211 0.000000 -0.015577 0.000000
# 2 -0.006608 0.011537 -0.002849 0.000000 0.002439 0.000000
# 3 0.002211 -0.002849 0.011559 0.000000 -0.010411 0.000000
# 4 0.000000 0.000000 0.000000 0.026745 0.000000 0.000367
# 5 -0.015577 0.002439 -0.010411 0.000000 0.037041 0.000000
# 6 0.000000 0.000000 0.000000 0.000367 0.000000 0.016735
#
#
# Mechanical properties :
#
#
# Convention : Reuss Voigt Hill
#
# Bulk Modulus (GPa) = 25.66651 50.43155 38.04903
# Shear Modulus (GPa) = 30.96903 42.83691 36.90297
#
# Velocity S-wave (km/s) = 3.40151 4.00052 3.71312
# Velocity P-wave (km/s) = 5.00162 6.33881 5.70950
#
# Compressibility (1/GPa) = 0.03896128
#
# Stress axis : x y z
#
# Youngs Moduli (GPa) = 32.94115 86.67884 86.51630
#
# Poissons Ratio (x) = 0.57273 -0.19131
# Poissons Ratio (y) = 0.21766 0.24652
# Poissons Ratio (z) = -0.07284 0.24698
#
# Static dielectric constant tensor:
#      x y z
#    x 2.230690 0.000000 0.066200 
#    y 0.000000 2.022120 0.000000 
#    z 0.066200 0.000000 2.250050 
# 
# From -- ./inp_files/3366.got.cif
#   From: 2010.05.17/outbox.cif.g08.bks.cpg/sg4_2_cif.got.tgz:3366.got - 2010.06.03 18:43:04.
