data_PCOD9117703
_publ_section_title
;
Structure prediction by ZEFSAII (Michael W. Deem and Ramdas Pophale) SiO2 
 PCOD9117703
Probable space group: P 21
;
_chemical_formula_sum "Si O2"
_cell_formula_units_Z 14
_cell_length_a 7.919008
_cell_length_b 8.357802
_cell_length_c 8.716316
_cell_angle_alpha 90.000000
_cell_angle_beta 71.714869
_cell_angle_gamma 90.000000
_cell_volume 547.764605
_symmetry_space_group_name_H-M "P 21"
_symmetry_group_IT_number 4
_symmetry_cell_setting 'monoclinic'
loop_
_space_group_symop_operation_xyz
x,y,z
-x,1/2+y,-z
loop_
_atom_site_type_symbol
_atom_site_label
_atom_site_fract_x
_atom_site_fract_y
_atom_site_fract_z
Si Si1 0.631965 0.080770 0.483246
Si Si2 0.891234 0.804380 0.749067
Si Si3 0.694446 0.953252 0.039818
Si Si4 0.765285 0.275028 0.162851
Si Si5 0.934370 0.224116 0.607805
Si Si6 0.285162 0.967620 0.123752
Si Si7 0.281762 0.234576 0.689815
O O1 0.645700 0.210023 0.338498
O O2 0.442522 0.111979 0.616544
O O3 0.794848 0.120082 0.549950
O O4 0.661807 0.903750 0.407282
O O5 0.961647 0.815010 0.558327
O O6 0.822702 0.626285 0.804418
O O7 0.055181 0.836524 0.813792
O O8 0.735795 0.918662 0.851392
O O9 0.487290 0.990043 0.118936
O O10 0.738489 0.796983 0.129811
O O11 0.800533 0.107608 0.064579
O O12 0.706565 0.402759 0.052718
O O13 0.099661 0.169730 0.667062
O O14 0.812353 0.333426 0.748753
#
# Coordination Sequence:
#
# PCOD9117703 Si02
#       7
#     2   2   2   2   2   2   2
#     4  10  24  44  66 106 131 183 228 287 344 418
#     4  11  25  44  70 100 134 184 231 280 345 407
#     4  11  24  44  69 103 136 179 228 283 347 408
#     4  10  23  44  69  95 139 175 231 280 343 407
#     4  11  24  43  69 100 137 180 228 281 341 414
#     4  12  24  44  69 102 139 179 230 286 339 411
#     4  11  24  43  72  96 144 178 230 285 351 407
#
# _framework density 25.558425
#
# number of rings (size 3 to 8) (size 9 to 14) (size 15 to 20)
#    0.000    1.143    1.429    5.143    6.000    4.571 
#    0.000    4.286    0.000    0.000    0.000    0.000 
#    0.000    0.000    0.000    0.000    0.000    0.000 
#
# Total GULP energy -78435.732692 kJ/mol
# GULP energy per Si atom -5602.552335 kJ/mol
# Density = 2.550025 g / cm^3
# Si number density = 25.558425 Si / 1000 Ang^3
#
#
#
# Elastic Constant Matrix: (Units=GPa)
#
#
# Indices 1 2 3 4 5 6 
#
# 1 119.9771 11.2802 36.1609 0.0000 9.3616 0.0000
# 2 11.2802 85.8944 33.4302 0.0000 5.9794 0.0000
# 3 36.1609 33.4302 140.0993 0.0000 -0.2671 0.0000
# 4 0.0000 0.0000 0.0000 -9.0927 0.0000 25.8397
# 5 9.3616 5.9794 -0.2671 0.0000 34.8963 0.0000
# 6 0.0000 0.0000 0.0000 25.8397 0.0000 15.2881
#
#
#
# Elastic Compliance Matrix: (Units=1/GPa)
#
#
# Indices 1 2 3 4 5 6 
#
# 1 0.009252 -0.000123 -0.002364 0.000000 -0.002479 0.000000
# 2 -0.000123 0.013010 -0.003077 0.000000 -0.002220 0.000000
# 3 -0.002364 -0.003077 0.008484 0.000000 0.001226 0.000000
# 4 0.000000 0.000000 0.000000 -0.018951 0.000000 0.032031
# 5 -0.002479 -0.002220 0.001226 0.000000 0.029711 0.000000
# 6 0.000000 0.000000 0.000000 0.032031 0.000000 0.011272
#
#
# Mechanical properties :
#
#
# Convention : Reuss Voigt Hill
#
# Bulk Modulus (GPa) = 50.96674 56.41258 53.68966
# Shear Modulus (GPa) = 70.97723 25.89165 48.43444
#
# Velocity S-wave (km/s) = 5.27550 3.18628 4.35794
# Velocity P-wave (km/s) = 7.55595 5.97130 6.80988
#
# Compressibility (1/GPa) = 0.01962064
#
# Stress axis : x y z
#
# Youngs Moduli (GPa) = 108.08162 76.86127 117.86271
#
# Poissons Ratio (x) = 0.00942 0.27858
# Poissons Ratio (y) = 0.01325 0.36268
# Poissons Ratio (z) = 0.25546 0.23651
#
# Static dielectric constant tensor:
#      x y z
#    x 1.950050 0.000000 0.054950 
#    y 0.000000 2.034470 0.000000 
#    z 0.054950 0.000000 2.040040 
# 
# From -- ./inp_files/5364.got.cif
#   From: 2010.05.17/outbox.cif.g08.bks.cpg/sg4_3_cif.got.tgz:5364.got - 2010.06.03 18:43:04.
