data_PCOD9117434
_publ_section_title
;
Structure prediction by ZEFSAII (Michael W. Deem and Ramdas Pophale) SiO2 
 PCOD9117434
Probable space group: P 21
;
_chemical_formula_sum "Si O2"
_cell_formula_units_Z 16
_cell_length_a 9.762766
_cell_length_b 8.109339
_cell_length_c 8.281434
_cell_angle_alpha 90.000000
_cell_angle_beta 91.077282
_cell_angle_gamma 90.000000
_cell_volume 655.521757
_symmetry_space_group_name_H-M "P 21"
_symmetry_group_IT_number 4
_symmetry_cell_setting 'monoclinic'
loop_
_space_group_symop_operation_xyz
x,y,z
-x,1/2+y,-z
loop_
_atom_site_type_symbol
_atom_site_label
_atom_site_fract_x
_atom_site_fract_y
_atom_site_fract_z
Si Si1 0.860388 0.024850 0.149201
Si Si2 0.641172 0.540581 0.857480
Si Si3 0.674695 0.076608 0.653941
Si Si4 0.113459 0.888657 0.991664
Si Si5 0.387510 0.407053 0.016877
Si Si6 0.943681 0.163556 0.487804
Si Si7 0.554259 0.422041 0.525733
Si Si8 0.822520 0.504872 0.352827
O O1 0.859784 0.203821 0.064254
O O2 0.919604 0.054019 0.327580
O O3 0.708421 0.953280 0.136270
O O4 0.959198 0.910374 0.046054
O O5 0.643034 0.723921 0.925367
O O6 0.577878 0.539961 0.678870
O O7 0.788439 0.453918 0.864445
O O8 0.543380 0.431633 0.969271
O O9 0.649265 0.030286 0.838094
O O10 0.597198 0.936817 0.547967
O O11 0.834037 0.099696 0.617117
O O12 0.598865 0.243567 0.593655
O O13 0.149584 0.000258 0.836712
O O14 0.898462 0.344763 0.430728
O O15 0.096617 0.152878 0.559934
O O16 0.663917 0.479518 0.392490
#
# Coordination Sequence:
#
# PCOD9117434 Si02
#       8
#     2   2   2   2   2   2   2   2
#     4  11  23  41  63  92 126 163 207 256 309 372
#     4  12  25  42  64  92 124 163 208 259 315 375
#     4  11  23  41  64  92 124 162 206 256 310 371
#     4  11  23  41  63  92 126 163 207 256 309 372
#     4  12  25  42  64  92 124 163 208 259 315 375
#     4  10  23  40  61  88 121 158 201 249 301 362
#     4  11  23  41  64  92 124 162 206 256 310 371
#     4  10  23  40  61  88 121 158 201 249 301 362
#
# _framework density 24.40804
#
# number of rings (size 3 to 8) (size 9 to 14) (size 15 to 20)
#    0.000    1.000    0.000    6.750    0.000   10.000 
#    0.000    0.000    0.000    0.000    0.000    0.000 
#    0.000    0.000    0.000    0.000    0.000    0.000 
#
# Total GULP energy -89705.006095 kJ/mol
# GULP energy per Si atom -5606.562881 kJ/mol
# Density = 2.435249 g / cm^3
# Si number density = 24.408040 Si / 1000 Ang^3
#
#
#
# Elastic Constant Matrix: (Units=GPa)
#
#
# Indices 1 2 3 4 5 6 
#
# 1 71.3172 10.1077 -1.2762 0.0000 1.1474 0.0000
# 2 10.1077 70.2180 -5.6489 0.0000 -3.2745 0.0000
# 3 -1.2762 -5.6489 62.4151 0.0000 8.4736 0.0000
# 4 0.0000 0.0000 0.0000 19.5389 0.0000 7.5682
# 5 1.1474 -3.2745 8.4736 0.0000 34.5883 0.0000
# 6 0.0000 0.0000 0.0000 7.5682 0.0000 33.6478
#
#
#
# Elastic Compliance Matrix: (Units=1/GPa)
#
#
# Indices 1 2 3 4 5 6 
#
# 1 0.014332 -0.002080 0.000203 0.000000 -0.000722 0.000000
# 2 -0.002080 0.014687 0.001126 0.000000 0.001184 0.000000
# 3 0.000203 0.001126 0.016669 0.000000 -0.003984 0.000000
# 4 0.000000 0.000000 0.000000 0.056064 0.000000 -0.012610
# 5 -0.000722 0.001184 -0.003984 0.000000 0.030023 0.000000
# 6 0.000000 0.000000 0.000000 -0.012610 0.000000 0.032556
#
#
# Mechanical properties :
#
#
# Convention : Reuss Voigt Hill
#
# Bulk Modulus (GPa) = 22.63264 23.36839 23.00051
# Shear Modulus (GPa) = 27.69127 30.93951 29.31539
#
# Velocity S-wave (km/s) = 3.37191 3.56419 3.46938
# Velocity P-wave (km/s) = 4.94494 5.15100 5.04902
#
# Compressibility (1/GPa) = 0.04418398
#
# Stress axis : x y z
#
# Youngs Moduli (GPa) = 69.77408 68.08923 59.99286
#
# Poissons Ratio (x) = 0.14165 -0.01217
# Poissons Ratio (y) = 0.14516 -0.06755
# Poissons Ratio (z) = -0.01415 -0.07667
#
# Static dielectric constant tensor:
#      x y z
#    x 1.866590 0.000000 0.018980 
#    y 0.000000 1.954900 0.000000 
#    z 0.018980 0.000000 1.909290 
# 
# From -- ./inp_files/5665.got.cif
#   From: 2010.05.17/outbox.cif.g08.bks.cpg/sg4_3_cif.got.tgz:5665.got - 2010.06.03 18:43:04.
