data_PCOD9117203
_publ_section_title
;
Structure prediction by ZEFSAII (Michael W. Deem and Ramdas Pophale) SiO2 
 PCOD9117203
Probable space group: P 21
;
_chemical_formula_sum "Si O2"
_cell_formula_units_Z 14
_cell_length_a 6.906380
_cell_length_b 17.319385
_cell_length_c 5.188685
_cell_angle_alpha 90.000000
_cell_angle_beta 74.277401
_cell_angle_gamma 90.000000
_cell_volume 597.419378
_symmetry_space_group_name_H-M "P 21"
_symmetry_group_IT_number 4
_symmetry_cell_setting 'monoclinic'
loop_
_space_group_symop_operation_xyz
x,y,z
-x,1/2+y,-z
loop_
_atom_site_type_symbol
_atom_site_label
_atom_site_fract_x
_atom_site_fract_y
_atom_site_fract_z
Si Si1 0.440412 0.104880 0.958235
Si Si2 0.269792 0.823780 0.224608
Si Si3 0.920116 0.260327 0.183232
Si Si4 0.085193 0.984076 0.108329
Si Si5 0.680908 0.773270 0.219964
Si Si6 0.176312 0.170275 0.436331
Si Si7 0.108982 0.548240 0.297664
O O1 0.278190 0.037573 0.968574
O O2 0.397476 0.187269 0.835410
O O3 0.376725 0.126108 0.276023
O O4 0.662277 0.075914 0.814246
O O5 0.171634 0.797427 0.528566
O O6 0.176118 0.902122 0.153938
O O7 0.502246 0.829676 0.217321
O O8 0.232749 0.763175 0.001856
O O9 0.120942 0.298879 0.999126
O O10 0.019424 0.181671 0.256133
O O11 0.959538 0.014407 0.401302
O O12 0.945965 0.988630 0.907715
O O13 0.754299 0.753216 0.481450
O O14 0.038940 0.122541 0.680625
#
# Coordination Sequence:
#
# PCOD9117203 Si02
#       7
#     2   2   2   2   2   2   2
#     4  10  24  41  73 102 133 180 228 294 349 402
#     4  12  27  43  70  96 144 191 230 287 357 415
#     4  11  25  45  65 102 138 178 228 284 349 416
#     4  11  26  46  62 101 138 183 242 281 336 437
#     4  11  24  43  72 106 137 176 234 295 346 415
#     4  10  22  44  71 108 139 167 238 295 342 425
#     4  11  24  44  71  95 137 181 226 290 353 406
#
# _framework density 23.434124000000001
#
# number of rings (size 3 to 8) (size 9 to 14) (size 15 to 20)
#    0.000    1.143    2.857    1.714    6.000    2.286 
#    0.000    0.000    0.000    0.000    0.000    0.000 
#    0.000    0.000    0.000    0.000    0.000    0.000 
#
# Total GULP energy -78148.886900 kJ/mol
# GULP energy per Si atom -5582.063350 kJ/mol
# Density = 2.338079 g / cm^3
# Si number density = 23.434124 Si / 1000 Ang^3
#
#
#
# Elastic Constant Matrix: (Units=GPa)
#
#
# Indices 1 2 3 4 5 6 
#
# 1 105.6444 -1.0557 60.8909 0.0000 -14.7621 0.0000
# 2 -1.0557 43.8724 16.1992 0.0000 2.2207 0.0000
# 3 60.8909 16.1992 87.2927 0.0000 2.1853 0.0000
# 4 0.0000 0.0000 0.0000 20.2503 0.0000 2.2947
# 5 -14.7621 2.2207 2.1853 0.0000 36.0227 0.0000
# 6 0.0000 0.0000 0.0000 2.2947 0.0000 32.4371
#
#
#
# Elastic Compliance Matrix: (Units=1/GPa)
#
#
# Indices 1 2 3 4 5 6 
#
# 1 0.019036 0.005384 -0.014486 0.000000 0.008348 0.000000
# 2 0.005384 0.026048 -0.008618 0.000000 0.001124 0.000000
# 3 -0.014486 -0.008618 0.023331 0.000000 -0.006821 0.000000
# 4 0.000000 0.000000 0.000000 0.049781 0.000000 -0.003522
# 5 0.008348 0.001124 -0.006821 0.000000 0.031526 0.000000
# 6 0.000000 0.000000 0.000000 -0.003522 0.000000 0.031078
#
#
# Mechanical properties :
#
#
# Convention : Reuss Voigt Hill
#
# Bulk Modulus (GPa) = 30.32633 43.20868 36.76751
# Shear Modulus (GPa) = 22.00412 28.46038 25.23225
#
# Velocity S-wave (km/s) = 3.06760 3.48873 3.28492
# Velocity P-wave (km/s) = 5.05134 5.89124 5.48738
#
# Compressibility (1/GPa) = 0.03297465
#
# Stress axis : x y z
#
# Youngs Moduli (GPa) = 52.53318 38.39057 42.86206
#
# Poissons Ratio (x) = -0.20671 0.62092
# Poissons Ratio (y) = -0.28286 0.36938
# Poissons Ratio (z) = 0.76102 0.33084
#
# Static dielectric constant tensor:
#      x y z
#    x 1.877370 0.000000 0.056990 
#    y 0.000000 1.960480 0.000000 
#    z 0.056990 0.000000 1.978330 
# 
# From -- ./inp_files/433.got.cif
#   From: 2010.05.17/outbox.cif.g08.bks.cpg/sg4_1_cif.got.tgz:433.got - 2010.06.03 18:43:04.
