data_PCOD9117216
_publ_section_title
;
Structure prediction by ZEFSAII (Michael W. Deem and Ramdas Pophale) SiO2 
 PCOD9117216
Probable space group: P 21
;
_chemical_formula_sum "Si O2"
_cell_formula_units_Z 12
_cell_length_a 13.008007
_cell_length_b 5.190325
_cell_length_c 8.712038
_cell_angle_alpha 90.000000
_cell_angle_beta 44.412134
_cell_angle_gamma 90.000000
_cell_volume 411.631021
_symmetry_space_group_name_H-M "P 21"
_symmetry_group_IT_number 4
_symmetry_cell_setting 'monoclinic'
loop_
_space_group_symop_operation_xyz
x,y,z
-x,1/2+y,-z
loop_
_atom_site_type_symbol
_atom_site_label
_atom_site_fract_x
_atom_site_fract_y
_atom_site_fract_z
Si Si1 0.315535 0.930530 0.668424
Si Si2 0.694598 0.914664 0.120375
Si Si3 0.788876 0.792510 0.433686
Si Si4 0.801124 0.418326 0.697320
Si Si5 0.975244 0.651937 0.754023
Si Si6 0.447680 0.713304 0.226720
O O1 0.324450 0.680524 0.765293
O O2 0.401242 0.898653 0.417508
O O3 0.364116 0.179854 0.710650
O O4 0.178758 0.069235 0.727845
O O5 0.616263 0.813173 0.044833
O O6 0.869414 0.879696 0.916607
O O7 0.817189 0.662709 0.567668
O O8 0.632672 0.948957 0.628534
O O9 0.907543 0.010956 0.265083
O O10 0.852605 0.458260 0.814848
O O11 0.638727 0.307509 0.833367
O O12 0.918795 0.224964 0.498997
#
# Coordination Sequence:
#
# PCOD9117216 Si02
#       6
#     2   2   2   2   2   2
#     4  11  24  47  71 103 149 195 238 301 371 450
#     4  12  27  44  74 112 148 187 249 308 372 432
#     4  10  22  47  75 101 142 204 246 294 380 444
#     4  10  22  44  72  99 145 196 247 295 376 440
#     4  11  24  46  73 108 146 197 250 313 366 446
#     4  10  23  46  71 107 142 197 242 301 375 442
#
# _framework density 29.15232
#
# number of rings (size 3 to 8) (size 9 to 14) (size 15 to 20)
#    0.000    1.333    3.333    1.000    7.000    0.000 
#   12.000    0.000    0.000    0.000    0.000    0.000 
#    0.000    0.000    0.000    0.000    0.000    0.000 
#
# Total GULP energy -66901.854444 kJ/mol
# GULP energy per Si atom -5575.154537 kJ/mol
# Density = 2.908597 g / cm^3
# Si number density = 29.152320 Si / 1000 Ang^3
#
#
#
# Elastic Constant Matrix: (Units=GPa)
#
#
# Indices 1 2 3 4 5 6 
#
# 1 130.5379 57.6795 25.4469 0.0000 -27.4229 0.0000
# 2 57.6795 218.0973 15.6752 0.0000 9.8434 0.0000
# 3 25.4469 15.6752 52.7158 0.0000 -16.1354 0.0000
# 4 0.0000 0.0000 0.0000 27.5574 0.0000 22.0885
# 5 -27.4229 9.8434 -16.1354 0.0000 40.7250 0.0000
# 6 0.0000 0.0000 0.0000 22.0885 0.0000 56.9704
#
#
#
# Elastic Compliance Matrix: (Units=1/GPa)
#
#
# Indices 1 2 3 4 5 6 
#
# 1 0.010967 -0.003074 -0.002153 0.000000 0.007275 0.000000
# 2 -0.003074 0.005682 -0.001434 0.000000 -0.004011 0.000000
# 3 -0.002153 -0.001434 0.022871 0.000000 0.007958 0.000000
# 4 0.000000 0.000000 0.000000 0.052650 0.000000 -0.020413
# 5 0.007275 -0.004011 0.007958 0.000000 0.033576 0.000000
# 6 0.000000 0.000000 0.000000 -0.020413 0.000000 0.025468
#
#
# Mechanical properties :
#
#
# Convention : Reuss Voigt Hill
#
# Bulk Modulus (GPa) = 38.16976 66.55047 52.36011
# Shear Modulus (GPa) = 28.85700 45.22053 37.03877
#
# Velocity S-wave (km/s) = 3.14963 3.94278 3.56831
# Velocity P-wave (km/s) = 5.13308 6.60344 5.91413
#
# Compressibility (1/GPa) = 0.02619875
#
# Stress axis : x y z
#
# Youngs Moduli (GPa) = 91.18410 175.99027 43.72313
#
# Poissons Ratio (x) = 0.54098 0.09415
# Poissons Ratio (y) = 0.28029 0.06268
# Poissons Ratio (z) = 0.19634 0.25229
#
# Static dielectric constant tensor:
#      x y z
#    x 2.953750 0.000000 -0.109160 
#    y 0.000000 2.360440 0.000000 
#    z -0.109160 0.000000 2.338930 
# 
# From -- ./inp_files/8549.got.cif
#   From: 2010.05.17/outbox.cif.g08.bks.cpg/sg4_5_cif.got.tgz:8549.got - 2010.06.03 18:43:04.
