data_PCOD9117428
_publ_section_title
;
Structure prediction by ZEFSAII (Michael W. Deem and Ramdas Pophale) SiO2 
 PCOD9117428
Probable space group: P 21
;
_chemical_formula_sum "Si O2"
_cell_formula_units_Z 12
_cell_length_a 11.989043
_cell_length_b 5.049610
_cell_length_c 23.293049
_cell_angle_alpha 90.000000
_cell_angle_beta 157.689613
_cell_angle_gamma 90.000000
_cell_volume 535.330788
_symmetry_space_group_name_H-M "P 21"
_symmetry_group_IT_number 4
_symmetry_cell_setting 'monoclinic'
loop_
_space_group_symop_operation_xyz
x,y,z
-x,1/2+y,-z
loop_
_atom_site_type_symbol
_atom_site_label
_atom_site_fract_x
_atom_site_fract_y
_atom_site_fract_z
Si Si1 0.656048 0.123180 0.594386
Si Si2 0.317267 0.323949 0.932318
Si Si3 0.442846 0.526933 0.328407
Si Si4 0.333438 0.118718 0.179749
Si Si5 0.167314 0.270072 0.560010
Si Si6 0.138570 0.369317 0.976704
O O1 0.460375 0.393400 0.503873
O O2 0.601086 0.959120 0.627072
O O3 0.996787 0.222726 0.756133
O O4 0.273691 0.417037 0.978399
O O5 0.461157 0.573365 0.967644
O O6 0.473415 0.293857 0.297065
O O7 0.740824 0.692193 0.460428
O O8 0.146238 0.688391 0.172855
O O9 0.519393 0.851668 0.264890
O O10 0.342638 0.228744 0.120229
O O11 0.008485 0.092289 0.052260
O O12 0.968667 0.524745 0.471967
#
# Coordination Sequence:
#
# PCOD9117428 Si02
#       6
#     2   2   2   2   2   2
#     4  11  26  47  74  99 134 193 247 280 344 428
#     4  11  26  49  70 105 148 184 233 305 355 404
#     4  10  23  42  70  95 138 177 228 288 336 412
#     4  11  21  41  70 106 131 181 229 281 348 420
#     4  11  23  42  59  94 140 177 214 274 346 403
#     4  10  23  39  73 101 137 176 233 280 351 421
#
# _framework density 22.416049000000001
#
# number of rings (size 3 to 8) (size 9 to 14) (size 15 to 20)
#    0.000    1.333    3.333    1.000   11.667    0.000 
#    9.000    0.000    0.000    0.000    0.000    0.000 
#    0.000    0.000    0.000    0.000    0.000    0.000 
#
# Total GULP energy -66822.201628 kJ/mol
# GULP energy per Si atom -5568.516802 kJ/mol
# Density = 2.236503 g / cm^3
# Si number density = 22.416049 Si / 1000 Ang^3
#
#
#
# Elastic Constant Matrix: (Units=GPa)
#
#
# Indices 1 2 3 4 5 6 
#
# 1 82.2086 11.1222 40.4710 0.0000 9.1489 0.0000
# 2 11.1222 77.3751 25.0402 0.0000 10.0528 0.0000
# 3 40.4710 25.0402 65.4134 0.0000 16.7686 0.0000
# 4 0.0000 0.0000 0.0000 37.1882 0.0000 11.9454
# 5 9.1489 10.0528 16.7686 0.0000 28.5736 0.0000
# 6 0.0000 0.0000 0.0000 11.9454 0.0000 27.3048
#
#
#
# Elastic Compliance Matrix: (Units=1/GPa)
#
#
# Indices 1 2 3 4 5 6 
#
# 1 0.017591 0.001095 -0.011488 0.000000 0.000724 0.000000
# 2 0.001095 0.014939 -0.005837 0.000000 -0.002181 0.000000
# 3 -0.011488 -0.005837 0.027262 0.000000 -0.010266 0.000000
# 4 0.000000 0.000000 0.000000 0.031287 0.000000 -0.013688
# 5 0.000724 -0.002181 -0.010266 0.000000 0.041558 0.000000
# 6 0.000000 0.000000 0.000000 -0.013688 0.000000 0.042612
#
#
# Mechanical properties :
#
#
# Convention : Reuss Voigt Hill
#
# Bulk Modulus (GPa) = 36.58877 42.02934 39.30905
# Shear Modulus (GPa) = 23.06069 28.50422 25.78246
#
# Velocity S-wave (km/s) = 3.21091 3.56982 3.39511
# Velocity P-wave (km/s) = 5.48676 5.98179 5.73962
#
# Compressibility (1/GPa) = 0.02733079
#
# Stress axis : x y z
#
# Youngs Moduli (GPa) = 56.84681 66.93883 36.68173
#
# Poissons Ratio (x) = -0.07331 0.42142
# Poissons Ratio (y) = -0.06226 0.21412
# Poissons Ratio (z) = 0.65308 0.39073
#
# Static dielectric constant tensor:
#      x y z
#    x 1.875120 0.000000 -0.039940 
#    y 0.000000 1.947060 0.000000 
#    z -0.039940 0.000000 1.949230 
# 
# From -- ./inp_files/9446.got.cif
#   From: 2010.05.17/outbox.cif.g08.bks.cpg/sg4_5_cif.got.tgz:9446.got - 2010.06.03 18:43:04.
