data_PCOD9117158
_publ_section_title
;
Structure prediction by ZEFSAII (Michael W. Deem and Ramdas Pophale) SiO2 
 PCOD9117158
Probable space group: P 21
;
_chemical_formula_sum "Si O2"
_cell_formula_units_Z 14
_cell_length_a 9.634651
_cell_length_b 9.937806
_cell_length_c 5.676332
_cell_angle_alpha 90.000000
_cell_angle_beta 79.360848
_cell_angle_gamma 90.000000
_cell_volume 534.150453
_symmetry_space_group_name_H-M "P 21"
_symmetry_group_IT_number 4
_symmetry_cell_setting 'monoclinic'
loop_
_space_group_symop_operation_xyz
x,y,z
-x,1/2+y,-z
loop_
_atom_site_type_symbol
_atom_site_label
_atom_site_fract_x
_atom_site_fract_y
_atom_site_fract_z
Si Si1 0.472845 0.865540 0.297414
Si Si2 0.156788 0.857234 0.508147
Si Si3 0.505674 0.594586 0.057552
Si Si4 0.197059 0.098298 0.811909
Si Si5 0.096490 0.284346 0.115230
Si Si6 0.285382 0.421101 0.410169
Si Si7 0.024380 0.482956 0.797036
O O1 0.320421 0.824420 0.445521
O O2 0.496482 0.755967 0.081389
O O3 0.593677 0.863870 0.454376
O O4 0.471681 0.016806 0.193897
O O5 0.060858 0.772400 0.715025
O O6 0.081504 0.869913 0.280059
O O7 0.153966 0.010476 0.609061
O O8 0.646794 0.560999 0.163222
O O9 0.370099 0.526722 0.219741
O O10 0.163853 0.253347 0.826011
O O11 0.096026 0.095530 0.087585
O O12 0.216508 0.302260 0.276703
O O13 0.076585 0.445350 0.039600
O O14 0.154998 0.497741 0.580639
#
# Coordination Sequence:
#
# PCOD9117158 Si02
#       7
#     2   2   2   2   2   2   2
#     4  12  27  50  74 113 152 200 249 311 374 443
#     4  10  23  46  71 105 144 190 243 300 376 438
#     4  12  26  45  76 111 151 195 252 313 367 447
#     4  11  22  44  71 104 142 193 243 305 364 444
#     4  10  24  45  73 105 143 192 246 307 367 446
#     4  11  24  46  72 110 145 196 245 304 376 440
#     4  10  22  44  67 102 145 180 244 296 364 436
#
# _framework density 26.209842999999999
#
# number of rings (size 3 to 8) (size 9 to 14) (size 15 to 20)
#    0.000    1.143    2.857    2.571    2.000    5.714 
#   10.286    0.000    0.000    0.000    0.000    0.000 
#    0.000    0.000    0.000    0.000    0.000    0.000 
#
# Total GULP energy -78106.030731 kJ/mol
# GULP energy per Si atom -5579.002195 kJ/mol
# Density = 2.615019 g / cm^3
# Si number density = 26.209843 Si / 1000 Ang^3
#
#
#
# Elastic Constant Matrix: (Units=GPa)
#
#
# Indices 1 2 3 4 5 6 
#
# 1 166.2618 23.5610 29.5574 0.0000 -4.7044 0.0000
# 2 23.5610 80.0034 20.2571 0.0000 8.0195 0.0000
# 3 29.5574 20.2571 48.3849 0.0000 -2.2235 0.0000
# 4 0.0000 0.0000 0.0000 43.0505 0.0000 -7.0021
# 5 -4.7044 8.0195 -2.2235 0.0000 68.1610 0.0000
# 6 0.0000 0.0000 0.0000 -7.0021 0.0000 36.0243
#
#
#
# Elastic Compliance Matrix: (Units=1/GPa)
#
#
# Indices 1 2 3 4 5 6 
#
# 1 0.006844 -0.001131 -0.003685 0.000000 0.000485 0.000000
# 2 -0.001131 0.014403 -0.005428 0.000000 -0.001950 0.000000
# 3 -0.003685 -0.005428 0.025247 0.000000 0.001208 0.000000
# 4 0.000000 0.000000 0.000000 0.023987 0.000000 0.004662
# 5 0.000485 -0.001950 0.001208 0.000000 0.014973 0.000000
# 6 0.000000 0.000000 0.000000 0.004662 0.000000 0.028665
#
#
# Mechanical properties :
#
#
# Convention : Reuss Voigt Hill
#
# Bulk Modulus (GPa) = 38.45526 49.04456 43.74991
# Shear Modulus (GPa) = 34.89777 44.19879 39.54828
#
# Velocity S-wave (km/s) = 3.65290 4.11097 3.88868
# Velocity P-wave (km/s) = 5.70048 6.42544 6.07379
#
# Compressibility (1/GPa) = 0.02600425
#
# Stress axis : x y z
#
# Youngs Moduli (GPa) = 146.11963 69.43230 39.60887
#
# Poissons Ratio (x) = 0.07853 0.14595
# Poissons Ratio (y) = 0.16527 0.21502
# Poissons Ratio (z) = 0.53843 0.37691
#
# Static dielectric constant tensor:
#      x y z
#    x 2.083190 0.000000 -0.127940 
#    y 0.000000 2.308390 0.000000 
#    z -0.127940 0.000000 2.020060 
# 
# From -- ./inp_files/1174.got.cif
#   From: 2010.05.17/outbox.cif.g08.bks.cpg/sg4_1_cif.got.tgz:1174.got - 2010.06.03 18:43:04.
