data_PCOD9117748
_publ_section_title
;
Structure prediction by ZEFSAII (Michael W. Deem and Ramdas Pophale) SiO2 
 PCOD9117748
Probable space group: P 21
;
_chemical_formula_sum "Si O2"
_cell_formula_units_Z 14
_cell_length_a 6.884839
_cell_length_b 9.170149
_cell_length_c 14.087175
_cell_angle_alpha 90.000000
_cell_angle_beta 39.535465
_cell_angle_gamma 90.000000
_cell_volume 566.148701
_symmetry_space_group_name_H-M "P 21"
_symmetry_group_IT_number 4
_symmetry_cell_setting 'monoclinic'
loop_
_space_group_symop_operation_xyz
x,y,z
-x,1/2+y,-z
loop_
_atom_site_type_symbol
_atom_site_label
_atom_site_fract_x
_atom_site_fract_y
_atom_site_fract_z
Si Si1 0.705292 0.198670 0.196757
Si Si2 0.192689 0.996279 0.093490
Si Si3 0.778385 0.645966 0.485472
Si Si4 0.942345 0.734458 0.107948
Si Si5 0.885773 0.013953 0.817838
Si Si6 0.116158 0.208767 0.280723
Si Si7 0.737319 0.322949 0.587694
O O1 0.540317 0.219988 0.361240
O O2 0.415015 0.210591 0.235428
O O3 0.910366 0.056055 0.138352
O O4 0.952903 0.278023 0.036884
O O5 0.128995 0.057671 0.221368
O O6 0.526757 0.049556 0.936401
O O7 0.159676 0.824960 0.097275
O O8 0.778453 0.494166 0.547456
O O9 0.878725 0.589975 0.344406
O O10 0.030227 0.762258 0.422176
O O11 0.596602 0.775748 0.256469
O O12 0.011757 0.569892 0.117262
O O13 0.884042 0.841158 0.795224
O O14 0.834146 0.236836 0.456020
#
# Coordination Sequence:
#
# PCOD9117748 Si02
#       7
#     2   2   2   2   2   2   2
#     4  11  23  43  68  99 138 179 232 286 343 416
#     4  12  23  44  72  98 139 185 233 289 350 415
#     4  10  23  45  69  98 140 180 232 287 349 417
#     4  12  25  43  70 104 139 180 242 283 350 419
#     4  11  23  45  67  99 141 178 233 293 346 416
#     4  10  24  45  66  99 141 178 228 293 350 412
#     4  10  23  45  68 101 138 182 232 289 350 421
#
# _framework density 24.728484000000002
#
# number of rings (size 3 to 8) (size 9 to 14) (size 15 to 20)
#    0.000    1.143    4.286    0.857    2.000    3.429 
#   12.857    0.000    0.000    0.000    0.000    0.000 
#    0.000    0.000    0.000    0.000    0.000    0.000 
#
# Total GULP energy -78105.343750 kJ/mol
# GULP energy per Si atom -5578.953125 kJ/mol
# Density = 2.467220 g / cm^3
# Si number density = 24.728484 Si / 1000 Ang^3
#
#
#
# Elastic Constant Matrix: (Units=GPa)
#
#
# Indices 1 2 3 4 5 6 
#
# 1 47.5911 33.5791 37.0833 0.0000 -16.5673 0.0000
# 2 33.5791 55.5240 38.9365 0.0000 -1.0723 0.0000
# 3 37.0833 38.9365 211.2213 0.0000 -22.0644 0.0000
# 4 0.0000 0.0000 0.0000 37.8639 0.0000 7.6890
# 5 -16.5673 -1.0723 -22.0644 0.0000 42.3175 0.0000
# 6 0.0000 0.0000 0.0000 7.6890 0.0000 44.8728
#
#
#
# Elastic Compliance Matrix: (Units=1/GPa)
#
#
# Indices 1 2 3 4 5 6 
#
# 1 0.047356 -0.027252 -0.001508 0.000000 0.017063 0.000000
# 2 -0.027252 0.036464 -0.003125 0.000000 -0.011375 0.000000
# 3 -0.001508 -0.003125 0.005822 0.000000 0.002366 0.000000
# 4 0.000000 0.000000 0.000000 0.027362 0.000000 -0.004689
# 5 0.017063 -0.011375 0.002366 0.000000 0.031257 0.000000
# 6 0.000000 0.000000 0.000000 -0.004689 0.000000 0.023089
#
#
# Mechanical properties :
#
#
# Convention : Reuss Voigt Hill
#
# Bulk Modulus (GPa) = 38.65392 59.28160 48.96776
# Shear Modulus (GPa) = 20.51329 38.66000 29.58664
#
# Velocity S-wave (km/s) = 2.88330 3.95825 3.46274
# Velocity P-wave (km/s) = 5.17202 6.70189 5.98603
#
# Compressibility (1/GPa) = 0.02587060
#
# Stress axis : x y z
#
# Youngs Moduli (GPa) = 21.11667 27.42463 171.74965
#
# Poissons Ratio (x) = 0.74739 0.25900
# Poissons Ratio (y) = 0.57548 0.53677
# Poissons Ratio (z) = 0.03184 0.08571
#
# Static dielectric constant tensor:
#      x y z
#    x 1.988630 0.000000 0.017210 
#    y 0.000000 1.964140 0.000000 
#    z 0.017210 0.000000 1.984850 
# 
# From -- ./inp_files/12863.got.cif
#   From: 2010.05.17/outbox.cif.g08.bks.cpg/sg4_7_cif.got.tgz:12863.got - 2010.06.03 18:43:04.
