data_PCOD9117221
_publ_section_title
;
Structure prediction by ZEFSAII (Michael W. Deem and Ramdas Pophale) SiO2 
 PCOD9117221
Probable space group: P 21
;
_chemical_formula_sum "Si O2"
_cell_formula_units_Z 14
_cell_length_a 5.556593
_cell_length_b 16.729036
_cell_length_c 6.300570
_cell_angle_alpha 90.000000
_cell_angle_beta 103.565644
_cell_angle_gamma 90.000000
_cell_volume 569.339220
_symmetry_space_group_name_H-M "P 21"
_symmetry_group_IT_number 4
_symmetry_cell_setting 'monoclinic'
loop_
_space_group_symop_operation_xyz
x,y,z
-x,1/2+y,-z
loop_
_atom_site_type_symbol
_atom_site_label
_atom_site_fract_x
_atom_site_fract_y
_atom_site_fract_z
Si Si1 0.500138 0.250000 0.537378
Si Si2 0.747111 0.668483 0.168519
Si Si3 0.989494 0.744955 0.850770
Si Si4 0.278743 0.989992 0.966921
Si Si5 0.837522 0.375949 0.409289
Si Si6 0.147971 0.620403 0.588560
Si Si7 0.825072 0.952942 0.211474
O O1 0.460532 0.224644 0.771969
O O2 0.258214 0.254034 0.340926
O O3 0.642123 0.332054 0.520232
O O4 0.645634 0.173029 0.479796
O O5 0.683195 0.587190 0.027106
O O6 0.906080 0.635563 0.397862
O O7 0.913208 0.730945 0.072835
O O8 0.112676 0.662407 0.806821
O O9 0.142582 0.818384 0.792125
O O10 0.220758 0.959673 0.715456
O O11 0.544643 0.947736 0.068548
O O12 0.045656 0.968898 0.078995
O O13 0.076898 0.384855 0.609153
O O14 0.196103 0.529498 0.639532
#
# Coordination Sequence:
#
# PCOD9117221 Si02
#       7
#     2   2   2   2   2   2   2
#     4  10  25  44  76 105 153 203 249 325 378 470
#     4  11  23  45  80 111 146 204 265 312 387 458
#     4  10  23  46  71 108 147 198 254 312 378 472
#     4  12  29  47  85 115 153 206 265 320 390 466
#     4  11  28  51  74 111 161 199 260 322 399 449
#     4  10  22  44  73 107 146 196 254 316 379 451
#     4  12  28  49  79 115 154 202 259 327 387 460
#
# _framework density 24.589912000000002
#
# number of rings (size 3 to 8) (size 9 to 14) (size 15 to 20)
#    0.000    1.143    2.857    0.857    8.000    6.857 
#    0.000    0.000    0.000    0.000    0.000    0.000 
#    0.000    0.000    0.000    0.000    0.000    0.000 
#
# Total GULP energy -78191.528977 kJ/mol
# GULP energy per Si atom -5585.109213 kJ/mol
# Density = 2.453394 g / cm^3
# Si number density = 24.589912 Si / 1000 Ang^3
#
#
#
# Elastic Constant Matrix: (Units=GPa)
#
#
# Indices 1 2 3 4 5 6 
#
# 1 99.8228 6.6504 30.2310 0.0000 -8.3839 0.0000
# 2 6.6504 73.3030 20.1867 0.0000 -6.9576 0.0000
# 3 30.2310 20.1867 84.0587 0.0000 -7.1639 0.0000
# 4 0.0000 0.0000 0.0000 31.5695 0.0000 9.5079
# 5 -8.3839 -6.9576 -7.1639 0.0000 53.2779 0.0000
# 6 0.0000 0.0000 0.0000 9.5079 0.0000 26.2442
#
#
#
# Elastic Compliance Matrix: (Units=1/GPa)
#
#
# Indices 1 2 3 4 5 6 
#
# 1 0.011326 0.000198 -0.004013 0.000000 0.001269 0.000000
# 2 0.000198 0.014724 -0.003480 0.000000 0.001486 0.000000
# 3 -0.004013 -0.003480 0.014246 0.000000 0.000830 0.000000
# 4 0.000000 0.000000 0.000000 0.035556 0.000000 -0.012881
# 5 0.001269 0.001486 0.000830 0.000000 0.019275 0.000000
# 6 0.000000 0.000000 0.000000 -0.012881 0.000000 0.042770
#
#
# Mechanical properties :
#
#
# Convention : Reuss Voigt Hill
#
# Bulk Modulus (GPa) = 38.90234 41.25789 40.08012
# Shear Modulus (GPa) = 31.04509 35.55943 33.30226
#
# Velocity S-wave (km/s) = 3.55704 3.80689 3.68408
# Velocity P-wave (km/s) = 5.72056 6.01149 5.86783
#
# Compressibility (1/GPa) = 0.02570539
#
# Stress axis : x y z
#
# Youngs Moduli (GPa) = 88.28936 67.91846 70.19438
#
# Poissons Ratio (x) = -0.01344 0.28168
# Poissons Ratio (y) = -0.01747 0.24430
# Poissons Ratio (z) = 0.35429 0.23638
#
# Static dielectric constant tensor:
#      x y z
#    x 2.051400 0.000000 -0.004440 
#    y 0.000000 1.980310 0.000000 
#    z -0.004440 0.000000 1.923330 
# 
# From -- ./inp_files/283.got.cif
#   From: 2010.05.17/outbox.cif.g08.bks.cpg/sg4_1_cif.got.tgz:283.got - 2010.06.03 18:43:04.
