data_PCOD9117092
_publ_section_title
;
Structure prediction by ZEFSAII (Michael W. Deem and Ramdas Pophale) SiO2 
 PCOD9117092
Probable space group: P 21
;
_chemical_formula_sum "Si O2"
_cell_formula_units_Z 14
_cell_length_a 5.494053
_cell_length_b 9.204002
_cell_length_c 12.101306
_cell_angle_alpha 90.000000
_cell_angle_beta 66.814265
_cell_angle_gamma 90.000000
_cell_volume 562.506550
_symmetry_space_group_name_H-M "P 21"
_symmetry_group_IT_number 4
_symmetry_cell_setting 'monoclinic'
loop_
_space_group_symop_operation_xyz
x,y,z
-x,1/2+y,-z
loop_
_atom_site_type_symbol
_atom_site_label
_atom_site_fract_x
_atom_site_fract_y
_atom_site_fract_z
Si Si1 0.934056 0.972400 0.534558
Si Si2 0.511277 0.570043 0.526926
Si Si3 0.503291 0.149446 0.710667
Si Si4 0.054339 0.750530 0.696570
Si Si5 0.606597 0.635687 0.898259
Si Si6 0.708861 0.851609 0.076833
Si Si7 0.767142 0.388804 0.121017
O O1 0.937992 0.831750 0.611460
O O2 0.240132 0.003867 0.454749
O O3 0.726083 0.962265 0.471393
O O4 0.807018 0.109746 0.625406
O O5 0.620036 0.626078 0.388848
O O6 0.346519 0.693210 0.618551
O O7 0.406824 0.295779 0.786370
O O8 0.414242 0.021966 0.810291
O O9 0.069268 0.861667 0.795314
O O10 0.863819 0.625773 0.775364
O O11 0.464184 0.483715 0.937444
O O12 0.405036 0.747240 0.874580
O O13 0.682057 0.716862 0.997512
O O14 0.014368 0.902793 0.014701
#
# Coordination Sequence:
#
# PCOD9117092 Si02
#       7
#     2   2   2   2   2   2   2
#     4  10  22  43  68  98 136 186 223 289 345 412
#     4  10  24  40  70 100 135 181 231 283 349 415
#     4  10  22  43  68  99 136 187 227 289 351 415
#     4  11  23  43  67  99 134 183 233 286 355 415
#     4  11  24  42  67  98 138 180 232 294 347 423
#     4  11  25  41  67 102 136 180 238 287 349 421
#     4  11  22  42  71  94 137 185 230 292 356 411
#
# _framework density 24.888601999999999
#
# number of rings (size 3 to 8) (size 9 to 14) (size 15 to 20)
#    0.857    0.571    2.857    1.714    4.000    3.429 
#    2.571    0.000    0.000    0.000    0.000    0.000 
#    0.000    0.000    0.000    0.000    0.000    0.000 
#
# Total GULP energy -78241.338676 kJ/mol
# GULP energy per Si atom -5588.667048 kJ/mol
# Density = 2.483195 g / cm^3
# Si number density = 24.888602 Si / 1000 Ang^3
#
#
#
# Elastic Constant Matrix: (Units=GPa)
#
#
# Indices 1 2 3 4 5 6 
#
# 1 106.0471 4.8655 20.0508 0.0000 -24.6600 0.0000
# 2 4.8655 46.3348 28.8088 0.0000 -9.6379 0.0000
# 3 20.0508 28.8088 83.4666 0.0000 -16.8368 0.0000
# 4 0.0000 0.0000 0.0000 36.7384 0.0000 -6.7606
# 5 -24.6600 -9.6379 -16.8368 0.0000 41.5085 0.0000
# 6 0.0000 0.0000 0.0000 -6.7606 0.0000 29.5721
#
#
#
# Elastic Compliance Matrix: (Units=1/GPa)
#
#
# Indices 1 2 3 4 5 6 
#
# 1 0.011160 0.001278 -0.001879 0.000000 0.006165 0.000000
# 2 0.001278 0.027919 -0.009238 0.000000 0.003495 0.000000
# 3 -0.001879 -0.009238 0.016296 0.000000 0.003349 0.000000
# 4 0.000000 0.000000 0.000000 0.028415 0.000000 0.006496
# 5 0.006165 0.003495 0.003349 0.000000 0.029924 0.000000
# 6 0.000000 0.000000 0.000000 0.006496 0.000000 0.035301
#
#
# Mechanical properties :
#
#
# Convention : Reuss Voigt Hill
#
# Bulk Modulus (GPa) = 28.01286 38.14431 33.07859
# Shear Modulus (GPa) = 27.68690 33.70535 30.69612
#
# Velocity S-wave (km/s) = 3.33893 3.68400 3.51570
# Velocity P-wave (km/s) = 5.11316 5.78404 5.45891
#
# Compressibility (1/GPa) = 0.03569789
#
# Stress axis : x y z
#
# Youngs Moduli (GPa) = 89.60671 35.81830 61.36338
#
# Poissons Ratio (x) = -0.04579 0.11528
# Poissons Ratio (y) = -0.11456 0.56690
# Poissons Ratio (z) = 0.16833 0.33090
#
# Static dielectric constant tensor:
#      x y z
#    x 1.992920 0.000000 0.016050 
#    y 0.000000 1.991320 0.000000 
#    z 0.016050 0.000000 1.984360 
# 
# From -- ./inp_files/10287.got.cif
#   From: 2010.05.17/outbox.cif.g08.bks.cpg/sg4_6_cif.got.tgz:10287.got - 2010.06.03 18:43:04.
