data_PCOD9117945
_publ_section_title
;
Structure prediction by ZEFSAII (Michael W. Deem and Ramdas Pophale) SiO2 
 PCOD9117945
Probable space group: P 21
;
_chemical_formula_sum "Si O2"
_cell_formula_units_Z 12
_cell_length_a 5.126534
_cell_length_b 10.276636
_cell_length_c 9.199504
_cell_angle_alpha 90.000000
_cell_angle_beta 89.983310
_cell_angle_gamma 90.000000
_cell_volume 484.662268
_symmetry_space_group_name_H-M "P 21"
_symmetry_group_IT_number 4
_symmetry_cell_setting 'monoclinic'
loop_
_space_group_symop_operation_xyz
x,y,z
-x,1/2+y,-z
loop_
_atom_site_type_symbol
_atom_site_label
_atom_site_fract_x
_atom_site_fract_y
_atom_site_fract_z
Si Si1 0.750542 0.108200 0.296152
Si Si2 0.248703 0.320969 0.795978
Si Si3 0.093746 0.153196 0.029631
Si Si4 0.905145 0.276191 0.529638
Si Si5 0.427551 0.346890 0.360447
Si Si6 0.428596 0.582251 0.139493
O O1 0.835903 0.133268 0.463595
O O2 0.529575 0.217351 0.276841
O O3 0.674740 0.964548 0.250039
O O4 0.991182 0.145462 0.191808
O O5 0.469147 0.211546 0.776522
O O6 0.163487 0.296019 0.963486
O O7 0.007775 0.284038 0.691771
O O8 0.845295 0.105100 0.936782
O O9 0.343698 0.068288 0.982748
O O10 0.655004 0.360902 0.482760
O O11 0.153416 0.324450 0.436660
O O12 0.425892 0.464472 0.249834
#
# Coordination Sequence:
#
# PCOD9117945 Si02
#       6
#     2   2   2   2   2   2
#     4  10  26  44  70 101 136 175 227 277 333 398
#     4  10  26  44  70 101 136 175 227 277 333 398
#     4  10  25  41  69  98 135 175 221 274 334 394
#     4  10  25  41  69  98 135 175 221 274 334 394
#     4  10  24  41  69  95 137 174 223 267 340 389
#     4  10  24  41  69  95 137 174 223 267 340 389
#
# _framework density 24.759509000000001
#
# number of rings (size 3 to 8) (size 9 to 14) (size 15 to 20)
#    2.000    0.000    0.000    1.000    9.333    4.000 
#    0.000    0.000    0.000    0.000    0.000    0.000 
#    0.000    0.000    0.000    0.000    0.000    0.000 
#
# Total GULP energy -67079.708266 kJ/mol
# GULP energy per Si atom -5589.975689 kJ/mol
# Density = 2.470316 g / cm^3
# Si number density = 24.759509 Si / 1000 Ang^3
#
#
#
# Elastic Constant Matrix: (Units=GPa)
#
#
# Indices 1 2 3 4 5 6 
#
# 1 139.0903 25.4000 8.5207 0.0000 -6.2421 0.0000
# 2 25.4000 123.3895 18.6100 0.0000 -0.1138 0.0000
# 3 8.5207 18.6100 72.8653 0.0000 0.8490 0.0000
# 4 0.0000 0.0000 0.0000 30.7006 0.0000 1.7823
# 5 -6.2421 -0.1138 0.8490 0.0000 25.4080 0.0000
# 6 0.0000 0.0000 0.0000 1.7823 0.0000 7.5938
#
#
#
# Elastic Compliance Matrix: (Units=1/GPa)
#
#
# Indices 1 2 3 4 5 6 
#
# 1 0.007576 -0.001478 -0.000530 0.000000 0.001872 0.000000
# 2 -0.001478 0.008718 -0.002051 0.000000 -0.000256 0.000000
# 3 -0.000530 -0.002051 0.014317 0.000000 -0.000618 0.000000
# 4 0.000000 0.000000 0.000000 0.033023 0.000000 -0.007750
# 5 0.001872 -0.000256 -0.000618 0.000000 0.039837 0.000000
# 6 0.000000 0.000000 0.000000 -0.007750 0.000000 0.133506
#
#
# Mechanical properties :
#
#
# Convention : Reuss Voigt Hill
#
# Bulk Modulus (GPa) = 44.45848 48.93404 46.69626
# Shear Modulus (GPa) = 19.79483 31.59479 25.69481
#
# Velocity S-wave (km/s) = 2.83058 3.57608 3.22495
# Velocity P-wave (km/s) = 5.35519 6.07106 5.72433
#
# Compressibility (1/GPa) = 0.02249290
#
# Stress axis : x y z
#
# Youngs Moduli (GPa) = 131.99655 114.70929 69.84736
#
# Poissons Ratio (x) = 0.16952 0.03704
# Poissons Ratio (y) = 0.19507 0.14324
# Poissons Ratio (z) = 0.07000 0.23524
#
# Static dielectric constant tensor:
#      x y z
#    x 1.924050 0.000000 0.008620 
#    y 0.000000 2.008810 0.000000 
#    z 0.008620 0.000000 2.034510 
# 
# From -- ./inp_files/2488.got.cif
#   From: 2010.05.17/outbox.cif.g08.bks.cpg/sg4_2_cif.got.tgz:2488.got - 2010.06.03 18:43:04.
