data_PCOD9117463
_publ_section_title
;
Structure prediction by ZEFSAII (Michael W. Deem and Ramdas Pophale) SiO2 
 PCOD9117463
Probable space group: P 21
;
_chemical_formula_sum "Si O2"
_cell_formula_units_Z 12
_cell_length_a 5.617302
_cell_length_b 11.335543
_cell_length_c 7.405762
_cell_angle_alpha 90.000000
_cell_angle_beta 95.577231
_cell_angle_gamma 90.000000
_cell_volume 469.330810
_symmetry_space_group_name_H-M "P 21"
_symmetry_group_IT_number 4
_symmetry_cell_setting 'monoclinic'
loop_
_space_group_symop_operation_xyz
x,y,z
-x,1/2+y,-z
loop_
_atom_site_type_symbol
_atom_site_label
_atom_site_fract_x
_atom_site_fract_y
_atom_site_fract_z
Si Si1 0.628637 0.193670 0.916710
Si Si2 0.316464 0.383487 0.325474
Si Si3 0.510797 0.962374 0.038118
Si Si4 0.066897 0.432204 0.648624
Si Si5 0.725608 0.242965 0.535535
Si Si6 0.980908 0.654089 0.778553
O O1 0.598052 0.183898 0.697747
O O2 0.445710 0.102958 0.008461
O O3 0.624325 0.335310 0.961952
O O4 0.883089 0.156938 0.022358
O O5 0.361109 0.449626 0.145990
O O6 0.138024 0.450288 0.446384
O O7 0.557308 0.347818 0.448291
O O8 0.197200 0.259612 0.265079
O O9 0.701497 0.946477 0.211316
O O10 0.881745 0.525515 0.719313
O O11 0.958802 0.302416 0.642593
O O12 0.816201 0.174535 0.365409
#
# Coordination Sequence:
#
# PCOD9117463 Si02
#       6
#     2   2   2   2   2   2
#     4  11  23  42  65  96 132 173 218 265 323 387
#     4  11  22  41  65  92 129 167 221 264 325 382
#     4  11  23  42  65  96 132 173 218 265 323 387
#     4  10  23  41  63  93 129 169 217 269 323 383
#     4  11  22  41  65  92 129 167 221 264 325 382
#     4  10  23  41  63  93 129 169 217 269 323 383
#
# _framework density 25.568318999999999
#
# number of rings (size 3 to 8) (size 9 to 14) (size 15 to 20)
#    0.000    1.333    3.333    2.000    0.000    4.000 
#    0.000    1.667    0.000    0.000    0.000    0.000 
#    0.000    0.000    0.000    0.000    0.000    0.000 
#
# Total GULP energy -66987.734014 kJ/mol
# GULP energy per Si atom -5582.311168 kJ/mol
# Density = 2.551012 g / cm^3
# Si number density = 25.568319 Si / 1000 Ang^3
#
#
#
# Elastic Constant Matrix: (Units=GPa)
#
#
# Indices 1 2 3 4 5 6 
#
# 1 21.3500 4.8439 4.9392 0.0000 7.0983 0.0000
# 2 4.8439 103.8756 20.7812 0.0000 12.9530 0.0000
# 3 4.9392 20.7812 133.6035 0.0000 -2.5534 0.0000
# 4 0.0000 0.0000 0.0000 54.7968 0.0000 -4.5259
# 5 7.0983 12.9530 -2.5534 0.0000 32.8214 0.0000
# 6 0.0000 0.0000 0.0000 -4.5259 0.0000 38.2945
#
#
#
# Elastic Compliance Matrix: (Units=1/GPa)
#
#
# Indices 1 2 3 4 5 6 
#
# 1 0.051086 -0.000615 -0.002002 0.000000 -0.010961 0.000000
# 2 -0.000615 0.010511 -0.001691 0.000000 -0.004147 0.000000
# 3 -0.002002 -0.001691 0.007855 0.000000 0.001712 0.000000
# 4 0.000000 0.000000 0.000000 0.018429 0.000000 0.002178
# 5 -0.010961 -0.004147 0.001712 0.000000 0.034608 0.000000
# 6 0.000000 0.000000 0.000000 0.002178 0.000000 0.026371
#
#
# Mechanical properties :
#
#
# Convention : Reuss Voigt Hill
#
# Bulk Modulus (GPa) = 16.43819 35.55084 25.99451
# Shear Modulus (GPa) = 28.12864 40.40020 34.26442
#
# Velocity S-wave (km/s) = 3.32043 3.97934 3.66473
# Velocity P-wave (km/s) = 4.59820 5.92014 5.30054
#
# Compressibility (1/GPa) = 0.06083395
#
# Stress axis : x y z
#
# Youngs Moduli (GPa) = 19.57502 95.13788 127.31276
#
# Poissons Ratio (x) = 0.05848 0.25494
# Poissons Ratio (y) = 0.01203 0.21534
# Poissons Ratio (z) = 0.03920 0.16092
#
# Static dielectric constant tensor:
#      x y z
#    x 2.076620 0.000000 -0.087690 
#    y 0.000000 2.235990 0.000000 
#    z -0.087690 0.000000 1.935160 
# 
# From -- ./inp_files/1216.got.cif
#   From: 2010.05.17/outbox.cif.g08.bks.cpg/sg4_1_cif.got.tgz:1216.got - 2010.06.03 18:43:04.
