data_PCOD9117560
_publ_section_title
;
Structure prediction by ZEFSAII (Michael W. Deem and Ramdas Pophale) SiO2 
 PCOD9117560
Probable space group: P 21
;
_chemical_formula_sum "Si O2"
_cell_formula_units_Z 16
_cell_length_a 11.985894
_cell_length_b 5.064005
_cell_length_c 20.507188
_cell_angle_alpha 90.000000
_cell_angle_beta 149.514413
_cell_angle_gamma 90.000000
_cell_volume 631.471893
_symmetry_space_group_name_H-M "P 21"
_symmetry_group_IT_number 4
_symmetry_cell_setting 'monoclinic'
loop_
_space_group_symop_operation_xyz
x,y,z
-x,1/2+y,-z
loop_
_atom_site_type_symbol
_atom_site_label
_atom_site_fract_x
_atom_site_fract_y
_atom_site_fract_z
Si Si1 0.809324 0.844100 0.105251
Si Si2 0.605723 0.327470 0.940706
Si Si3 0.883692 0.747941 0.293965
Si Si4 0.311861 0.893412 0.347967
Si Si5 0.136308 0.748879 0.059971
Si Si6 0.964142 0.864537 0.526646
Si Si7 0.497224 0.041952 0.321575
Si Si8 0.606842 0.414555 0.453028
O O1 0.844256 0.739087 0.196282
O O2 0.054817 0.921618 0.204986
O O3 0.711468 0.604213 0.014707
O O4 0.656511 0.102630 0.020912
O O5 0.347333 0.366474 0.797659
O O6 0.730410 0.221528 0.939797
O O7 0.904568 0.471315 0.343800
O O8 0.120282 0.889362 0.421627
O O9 0.417923 0.641893 0.367095
O O10 0.350744 0.907791 0.443163
O O11 0.458898 0.110761 0.381754
O O12 0.292344 0.914664 0.186423
O O13 0.941226 0.965278 0.953411
O O14 0.712969 0.875700 0.423147
O O15 0.975723 0.095937 0.478149
O O16 0.553666 0.344386 0.343395
#
# Coordination Sequence:
#
# PCOD9117560 Si02
#       8
#     2   2   2   2   2   2   2   2
#     4  11  27  45  77 105 144 187 236 297 359 422
#     4  12  25  50  71 106 144 191 239 298 353 424
#     4  10  25  48  73 110 141 190 238 292 359 434
#     4  11  22  42  69 106 143 183 237 297 362 427
#     4  12  28  47  70 102 138 190 243 289 348 417
#     4  11  27  47  70 102 140 186 232 287 351 416
#     4  11  25  43  69  99 137 188 229 294 352 420
#     4  10  23  42  69 106 143 185 232 302 362 426
#
# _framework density 25.337626
#
# number of rings (size 3 to 8) (size 9 to 14) (size 15 to 20)
#    0.000    1.000    1.250    3.750    8.750    4.000 
#    2.250    0.000    0.000    0.000    0.000    0.000 
#    0.000    0.000    0.000    0.000    0.000    0.000 
#
# Total GULP energy -89264.018238 kJ/mol
# GULP energy per Si atom -5579.001140 kJ/mol
# Density = 2.527996 g / cm^3
# Si number density = 25.337626 Si / 1000 Ang^3
#
#
#
# Elastic Constant Matrix: (Units=GPa)
#
#
# Indices 1 2 3 4 5 6 
#
# 1 111.2171 -3.8208 30.6331 0.0000 14.2305 0.0000
# 2 -3.8208 109.9822 35.3147 0.0000 6.8308 0.0000
# 3 30.6331 35.3147 157.3731 0.0000 21.2146 0.0000
# 4 0.0000 0.0000 0.0000 31.6899 0.0000 -0.2527
# 5 14.2305 6.8308 21.2146 0.0000 46.6333 0.0000
# 6 0.0000 0.0000 0.0000 -0.2527 0.0000 14.2000
#
#
#
# Elastic Compliance Matrix: (Units=1/GPa)
#
#
# Indices 1 2 3 4 5 6 
#
# 1 0.009833 0.001077 -0.001843 0.000000 -0.002320 0.000000
# 2 0.001077 0.009926 -0.002340 0.000000 -0.000718 0.000000
# 3 -0.001843 -0.002340 0.007581 0.000000 -0.002544 0.000000
# 4 0.000000 0.000000 0.000000 0.031560 0.000000 0.000562
# 5 -0.002320 -0.000718 -0.002544 0.000000 0.023414 0.000000
# 6 0.000000 0.000000 0.000000 0.000562 0.000000 0.070433
#
#
# Mechanical properties :
#
#
# Convention : Reuss Voigt Hill
#
# Bulk Modulus (GPa) = 47.33020 55.86962 51.59991
# Shear Modulus (GPa) = 30.12023 39.60101 34.86062
#
# Velocity S-wave (km/s) = 3.45157 3.95768 3.71326
# Velocity P-wave (km/s) = 5.88259 6.55609 6.22845
#
# Compressibility (1/GPa) = 0.02112816
#
# Stress axis : x y z
#
# Youngs Moduli (GPa) = 101.69920 100.74685 131.90631
#
# Poissons Ratio (x) = -0.10855 0.24311
# Poissons Ratio (y) = -0.10958 0.30870
# Poissons Ratio (z) = 0.18744 0.23578
#
# Static dielectric constant tensor:
#      x y z
#    x 2.138380 0.000000 -0.029430 
#    y 0.000000 2.014630 0.000000 
#    z -0.029430 0.000000 1.992910 
# 
# From -- ./inp_files/11747.got.cif
#   From: 2010.05.17/outbox.cif.g08.bks.cpg/sg4_6_cif.got.tgz:11747.got - 2010.06.03 18:43:04.
