data_PCOD9117505
_publ_section_title
;
Structure prediction by ZEFSAII (Michael W. Deem and Ramdas Pophale) SiO2 
 PCOD9117505
Probable space group: P 21
;
_chemical_formula_sum "Si O2"
_cell_formula_units_Z 14
_cell_length_a 7.717145
_cell_length_b 9.306210
_cell_length_c 10.138700
_cell_angle_alpha 90.000000
_cell_angle_beta 46.084140
_cell_angle_gamma 90.000000
_cell_volume 524.518554
_symmetry_space_group_name_H-M "P 21"
_symmetry_group_IT_number 4
_symmetry_cell_setting 'monoclinic'
loop_
_space_group_symop_operation_xyz
x,y,z
-x,1/2+y,-z
loop_
_atom_site_type_symbol
_atom_site_label
_atom_site_fract_x
_atom_site_fract_y
_atom_site_fract_z
Si Si1 0.301237 0.065990 0.814154
Si Si2 0.791816 0.458579 0.789377
Si Si3 0.711080 0.847968 0.563834
Si Si4 0.116137 0.418048 0.226056
Si Si5 0.130090 0.364006 0.907040
Si Si6 0.535676 0.179486 0.927315
Si Si7 0.620313 0.514661 0.584642
O O1 0.137384 0.199336 0.851401
O O2 0.497138 0.162454 0.792348
O O3 0.492797 0.956553 0.651114
O O4 0.112814 0.957004 0.984722
O O5 0.614426 0.333726 0.934673
O O6 0.717747 0.479486 0.677958
O O7 0.060381 0.401525 0.640595
O O8 0.710675 0.609342 0.891228
O O9 0.795630 0.855746 0.675644
O O10 0.630554 0.687457 0.568569
O O11 0.252506 0.570660 0.148768
O O12 0.830338 0.444692 0.386138
O O13 0.151869 0.358502 0.057282
O O14 0.353289 0.451081 0.727865
#
# Coordination Sequence:
#
# PCOD9117505 Si02
#       7
#     2   2   2   2   2   2   2
#     4  11  26  45  67 101 140 185 235 280 351 412
#     4  11  23  39  70 106 139 175 229 290 350 409
#     4  10  24  43  70 107 139 175 234 294 353 411
#     4  10  23  41  73 100 139 179 232 287 350 412
#     4  12  25  48  68  98 145 191 232 285 348 418
#     4  11  21  43  67 105 134 177 230 285 350 410
#     4  11  22  41  71 101 138 178 228 291 342 414
#
# _framework density 26.691143
#
# number of rings (size 3 to 8) (size 9 to 14) (size 15 to 20)
#    0.000    1.143    4.286    0.857    6.000    1.143 
#    2.571    0.000    0.000    0.000    0.000    0.000 
#    0.000    0.000    0.000    0.000    0.000    0.000 
#
# Total GULP energy -78243.177574 kJ/mol
# GULP energy per Si atom -5588.798398 kJ/mol
# Density = 2.663039 g / cm^3
# Si number density = 26.691143 Si / 1000 Ang^3
#
#
#
# Elastic Constant Matrix: (Units=GPa)
#
#
# Indices 1 2 3 4 5 6 
#
# 1 116.1110 21.0422 16.8423 0.0000 -1.7855 0.0000
# 2 21.0422 143.2747 75.1110 0.0000 -12.1920 0.0000
# 3 16.8423 75.1110 186.6898 0.0000 -26.3076 0.0000
# 4 0.0000 0.0000 0.0000 19.9052 0.0000 -4.8823
# 5 -1.7855 -12.1920 -26.3076 0.0000 41.0190 0.0000
# 6 0.0000 0.0000 0.0000 -4.8823 0.0000 31.3905
#
#
#
# Elastic Compliance Matrix: (Units=1/GPa)
#
#
# Indices 1 2 3 4 5 6 
#
# 1 0.008867 -0.001122 -0.000375 0.000000 -0.000188 0.000000
# 2 -0.001122 0.008993 -0.003460 0.000000 0.000405 0.000000
# 3 -0.000375 -0.003460 0.007294 0.000000 0.003634 0.000000
# 4 0.000000 0.000000 0.000000 0.052231 0.000000 0.008124
# 5 -0.000188 0.000405 0.003634 0.000000 0.026822 0.000000
# 6 0.000000 0.000000 0.000000 0.008124 0.000000 0.033120
#
#
# Mechanical properties :
#
#
# Convention : Reuss Voigt Hill
#
# Bulk Modulus (GPa) = 65.61221 74.67406 70.14314
# Shear Modulus (GPa) = 32.82563 40.66827 36.74695
#
# Velocity S-wave (km/s) = 3.51070 3.90765 3.71448
# Velocity P-wave (km/s) = 6.40849 6.95683 6.68828
#
# Compressibility (1/GPa) = 0.01524106
#
# Stress axis : x y z
#
# Youngs Moduli (GPa) = 112.77463 111.20344 137.09347
#
# Poissons Ratio (x) = 0.12473 0.05144
# Poissons Ratio (y) = 0.12649 0.47430
# Poissons Ratio (z) = 0.04231 0.38473
#
# Static dielectric constant tensor:
#      x y z
#    x 2.282730 0.000000 0.171060 
#    y 0.000000 2.054510 0.000000 
#    z 0.171060 0.000000 2.231760 
# 
# From -- ./inp_files/10998.got.cif
#   From: 2010.05.17/outbox.cif.g08.bks.cpg/sg4_6_cif.got.tgz:10998.got - 2010.06.03 18:43:04.
