data_PCOD9117712
_publ_section_title
;
Structure prediction by ZEFSAII (Michael W. Deem and Ramdas Pophale) SiO2 
 PCOD9117712
Probable space group: P 21
;
_chemical_formula_sum "Si O2"
_cell_formula_units_Z 16
_cell_length_a 14.305115
_cell_length_b 9.270687
_cell_length_c 11.043487
_cell_angle_alpha 90.000000
_cell_angle_beta 149.726990
_cell_angle_gamma 90.000000
_cell_volume 738.319194
_symmetry_space_group_name_H-M "P 21"
_symmetry_group_IT_number 4
_symmetry_cell_setting 'monoclinic'
loop_
_space_group_symop_operation_xyz
x,y,z
-x,1/2+y,-z
loop_
_atom_site_type_symbol
_atom_site_label
_atom_site_fract_x
_atom_site_fract_y
_atom_site_fract_z
Si Si1 0.300827 0.213310 0.266497
Si Si2 0.394299 0.684691 0.004303
Si Si3 0.349584 0.882495 0.379791
Si Si4 0.983542 0.375335 0.810541
Si Si5 0.765176 0.797733 0.530334
Si Si6 0.836958 0.160740 0.014326
Si Si7 0.063501 0.810937 0.514607
Si Si8 0.183801 0.504697 0.602101
O O1 0.454956 0.309130 0.371766
O O2 0.281240 0.276078 0.380998
O O3 0.360773 0.046641 0.344877
O O4 0.102984 0.235792 0.981172
O O5 0.289034 0.636762 0.009063
O O6 0.368739 0.559882 0.876221
O O7 0.264575 0.813452 0.805283
O O8 0.599798 0.727658 0.268123
O O9 0.208146 0.883048 0.333071
O O10 0.261980 0.777487 0.180601
O O11 0.112308 0.510628 0.992670
O O12 0.947548 0.385948 0.627609
O O13 0.783069 0.959158 0.498294
O O14 0.962389 0.724030 0.728038
O O15 0.907489 0.874211 0.426542
O O16 0.047125 0.640337 0.467716
#
# Coordination Sequence:
#
# PCOD9117712 Si02
#       8
#     2   2   2   2   2   2   2   2
#     4  12  28  43  73 102 143 185 236 293 350 426
#     4  10  24  45  68 103 138 182 233 294 346 422
#     4  12  26  46  67 108 139 191 231 291 355 422
#     4  12  24  45  71 103 141 189 235 288 356 420
#     4  12  23  45  72 102 137 187 230 292 356 411
#     4  12  23  44  77  93 146 186 233 295 352 418
#     4  10  23  44  70 103 141 185 233 295 349 427
#     4  10  23  44  72 104 137 185 235 290 358 418
#
# _framework density 21.670843999999999
#
# number of rings (size 3 to 8) (size 9 to 14) (size 15 to 20)
#    0.750    0.000    6.250    0.750    1.750    3.000 
#    2.250    0.000    0.000    0.000    0.000    0.000 
#    0.000    0.000    0.000    0.000    0.000    0.000 
#
# Total GULP energy -89366.229770 kJ/mol
# GULP energy per Si atom -5585.389361 kJ/mol
# Density = 2.162152 g / cm^3
# Si number density = 21.670844 Si / 1000 Ang^3
#
#
#
# Elastic Constant Matrix: (Units=GPa)
#
#
# Indices 1 2 3 4 5 6 
#
# 1 58.9076 26.6076 3.4805 0.0000 1.7741 0.0000
# 2 26.6076 53.4673 -10.9108 0.0000 4.3091 0.0000
# 3 3.4805 -10.9108 79.5705 0.0000 9.1906 0.0000
# 4 0.0000 0.0000 0.0000 29.1895 0.0000 -6.9272
# 5 1.7741 4.3091 9.1906 0.0000 38.8672 0.0000
# 6 0.0000 0.0000 0.0000 -6.9272 0.0000 27.7940
#
#
#
# Elastic Compliance Matrix: (Units=1/GPa)
#
#
# Indices 1 2 3 4 5 6 
#
# 1 0.022433 -0.011790 -0.002704 0.000000 0.000923 0.000000
# 2 -0.011790 0.025746 0.004435 0.000000 -0.003365 0.000000
# 3 -0.002704 0.004435 0.013711 0.000000 -0.003610 0.000000
# 4 0.000000 0.000000 0.000000 0.036413 0.000000 0.009075
# 5 0.000923 -0.003365 -0.003610 0.000000 0.026913 0.000000
# 6 0.000000 0.000000 0.000000 0.009075 0.000000 0.038241
#
#
# Mechanical properties :
#
#
# Convention : Reuss Voigt Hill
#
# Bulk Modulus (GPa) = 23.94006 25.58889 24.76447
# Shear Modulus (GPa) = 25.31648 30.68802 28.00225
#
# Velocity S-wave (km/s) = 3.42164 3.76719 3.59857
# Velocity P-wave (km/s) = 5.16539 5.54580 5.35897
#
# Compressibility (1/GPa) = 0.04177099
#
# Stress axis : x y z
#
# Youngs Moduli (GPa) = 44.57710 38.84051 72.93496
#
# Poissons Ratio (x) = 0.45792 0.19725
# Poissons Ratio (y) = 0.52556 -0.32344
# Poissons Ratio (z) = 0.12056 -0.17225
#
# Static dielectric constant tensor:
#      x y z
#    x 1.755880 0.000000 -0.010460 
#    y 0.000000 1.845430 0.000000 
#    z -0.010460 0.000000 1.813380 
# 
# From -- ./inp_files/12670.got.cif
#   From: 2010.05.17/outbox.cif.g08.bks.cpg/sg4_7_cif.got.tgz:12670.got - 2010.06.03 18:43:04.
