data_PCOD9117193
_publ_section_title
;
Structure prediction by ZEFSAII (Michael W. Deem and Ramdas Pophale) SiO2 
 PCOD9117193
Probable space group: P 21
;
_chemical_formula_sum "Si O2"
_cell_formula_units_Z 16
_cell_length_a 13.542912
_cell_length_b 5.858741
_cell_length_c 9.448523
_cell_angle_alpha 90.000000
_cell_angle_beta 112.311489
_cell_angle_gamma 90.000000
_cell_volume 693.561121
_symmetry_space_group_name_H-M "P 21"
_symmetry_group_IT_number 4
_symmetry_cell_setting 'monoclinic'
loop_
_space_group_symop_operation_xyz
x,y,z
-x,1/2+y,-z
loop_
_atom_site_type_symbol
_atom_site_label
_atom_site_fract_x
_atom_site_fract_y
_atom_site_fract_z
Si Si1 0.617419 0.134600 0.194181
Si Si2 0.498748 0.791466 0.342140
Si Si3 0.413406 0.403220 0.092239
Si Si4 0.839754 0.936621 0.698328
Si Si5 0.996665 0.610545 0.656164
Si Si6 0.176663 0.783387 0.553320
Si Si7 0.956521 0.941056 0.018889
Si Si8 0.346820 0.142624 0.325883
O O1 0.512809 0.264626 0.081814
O O2 0.709923 0.296236 0.306168
O O3 0.570933 0.972763 0.293640
O O4 0.654892 0.997336 0.075514
O O5 0.472426 0.586876 0.223516
O O6 0.560652 0.733536 0.519120
O O7 0.382362 0.884984 0.323112
O O8 0.352217 0.247777 0.171947
O O9 0.952967 0.847330 0.698731
O O10 0.760248 0.721959 0.657852
O O11 0.803878 0.140635 0.579300
O O12 0.853035 0.003196 0.869345
O O13 0.895424 0.502365 0.520421
O O14 0.096604 0.640241 0.609124
O O15 0.033468 0.455750 0.807699
O O16 0.974933 0.670884 0.990266
#
# Coordination Sequence:
#
# PCOD9117193 Si02
#       8
#     2   2   2   2   2   2   2   2
#     4  11  25  42  71  96 137 183 223 288 351 418
#     4  11  22  42  63  95 137 172 216 286 338 419
#     4  11  24  45  65 100 137 170 231 283 345 429
#     4  11  24  43  67  99 135 183 230 295 351 429
#     4  11  25  44  66 100 141 177 245 288 354 427
#     4  12  24  43  69  99 135 189 233 289 354 430
#     4  10  22  44  70  97 141 187 230 303 358 412
#     4  11  24  39  67  98 131 177 228 276 353 414
#
# _framework density 23.069345999999999
#
# number of rings (size 3 to 8) (size 9 to 14) (size 15 to 20)
#    0.000    1.000    6.250    0.000    3.500    1.000 
#    0.000    1.250    0.000    0.000    0.000    0.000 
#    0.000    0.000    0.000    0.000    0.000    0.000 
#
# Total GULP energy -89236.433860 kJ/mol
# GULP energy per Si atom -5577.277116 kJ/mol
# Density = 2.301684 g / cm^3
# Si number density = 23.069346 Si / 1000 Ang^3
#
#
#
# Elastic Constant Matrix: (Units=GPa)
#
#
# Indices 1 2 3 4 5 6 
#
# 1 65.6193 -2.7610 3.3530 0.0000 -8.5670 0.0000
# 2 -2.7610 29.0349 -3.8700 0.0000 -10.0941 0.0000
# 3 3.3530 -3.8700 88.3903 0.0000 3.3555 0.0000
# 4 0.0000 0.0000 0.0000 27.5342 0.0000 4.5178
# 5 -8.5670 -10.0941 3.3555 0.0000 23.8893 0.0000
# 6 0.0000 0.0000 0.0000 4.5178 0.0000 22.4290
#
#
#
# Elastic Compliance Matrix: (Units=1/GPa)
#
#
# Indices 1 2 3 4 5 6 
#
# 1 0.016467 0.004169 -0.000737 0.000000 0.007770 0.000000
# 2 0.004169 0.041539 0.000943 0.000000 0.018914 0.000000
# 3 -0.000737 0.000943 0.011439 0.000000 -0.001473 0.000000
# 4 0.000000 0.000000 0.000000 0.037560 0.000000 -0.007566
# 5 0.007770 0.018914 -0.001473 0.000000 0.052845 0.000000
# 6 0.000000 0.000000 0.000000 -0.007566 0.000000 0.046109
#
#
# Mechanical properties :
#
#
# Convention : Reuss Voigt Hill
#
# Bulk Modulus (GPa) = 12.78878 19.60984 16.19931
# Shear Modulus (GPa) = 22.39396 27.19200 24.79298
#
# Velocity S-wave (km/s) = 3.11902 3.43695 3.28184
# Velocity P-wave (km/s) = 4.30427 4.92636 4.62579
#
# Compressibility (1/GPa) = 0.07819355
#
# Stress axis : x y z
#
# Youngs Moduli (GPa) = 60.72763 24.07373 87.42335
#
# Poissons Ratio (x) = -0.10036 0.06444
# Poissons Ratio (y) = -0.25318 -0.08240
# Poissons Ratio (z) = 0.04476 -0.02269
#
# Static dielectric constant tensor:
#      x y z
#    x 1.869740 0.000000 -0.009720 
#    y 0.000000 1.919020 0.000000 
#    z -0.009720 0.000000 1.855310 
# 
# From -- ./inp_files/8933.got.cif
#   From: 2010.05.17/outbox.cif.g08.bks.cpg/sg4_5_cif.got.tgz:8933.got - 2010.06.03 18:43:04.
