data_PCOD9117737
_publ_section_title
;
Structure prediction by ZEFSAII (Michael W. Deem and Ramdas Pophale) SiO2 
 PCOD9117737
Probable space group: P 21
;
_chemical_formula_sum "Si O2"
_cell_formula_units_Z 12
_cell_length_a 9.933240
_cell_length_b 10.135191
_cell_length_c 9.490807
_cell_angle_alpha 90.000000
_cell_angle_beta 150.636017
_cell_angle_gamma 90.000000
_cell_volume 468.530104
_symmetry_space_group_name_H-M "P 21"
_symmetry_group_IT_number 4
_symmetry_cell_setting 'monoclinic'
loop_
_space_group_symop_operation_xyz
x,y,z
-x,1/2+y,-z
loop_
_atom_site_type_symbol
_atom_site_label
_atom_site_fract_x
_atom_site_fract_y
_atom_site_fract_z
Si Si1 0.006476 0.197840 0.626722
Si Si2 0.250155 0.952109 0.745352
Si Si3 0.118831 0.465086 0.339582
Si Si4 0.316999 0.388814 0.080545
Si Si5 0.475220 0.780784 0.438313
Si Si6 0.975736 0.600606 0.922850
O O1 0.901650 0.333640 0.472242
O O2 0.166216 0.106354 0.660970
O O3 0.188571 0.247735 0.922902
O O4 0.783639 0.095119 0.484384
O O5 0.538959 0.937973 0.932014
O O6 0.142474 0.921309 0.805172
O O7 0.365326 0.367362 0.532587
O O8 0.005999 0.514324 0.089438
O O9 0.499434 0.357523 0.387678
O O10 0.099289 0.502715 0.919018
O O11 0.175693 0.727801 0.124731
O O12 0.669355 0.651321 0.623337
#
# Coordination Sequence:
#
# PCOD9117737 Si02
#       6
#     2   2   2   2   2   2
#     4  10  23  45  65 102 140 183 239 292 359 413
#     4  10  24  44  70  96 143 188 235 301 351 430
#     4   9  23  44  67 102 140 185 236 300 352 427
#     4  11  25  41  74  98 144 183 242 294 361 423
#     4  11  24  46  72 106 140 187 237 295 360 427
#     4  11  25  44  74 104 143 184 239 294 361 426
#
# _framework density 25.612017999999999
#
# number of rings (size 3 to 8) (size 9 to 14) (size 15 to 20)
#    1.000    0.667    1.667    1.000    4.667    6.667 
#    6.000    0.000    0.000    0.000    0.000    0.000 
#    0.000    0.000    0.000    0.000    0.000    0.000 
#
# Total GULP energy -67032.817464 kJ/mol
# GULP energy per Si atom -5586.068122 kJ/mol
# Density = 2.555372 g / cm^3
# Si number density = 25.612018 Si / 1000 Ang^3
#
#
#
# Elastic Constant Matrix: (Units=GPa)
#
#
# Indices 1 2 3 4 5 6 
#
# 1 176.0895 39.2865 17.2673 0.0000 12.6105 0.0000
# 2 39.2865 127.3895 29.1022 0.0000 -3.7952 0.0000
# 3 17.2673 29.1022 35.1470 0.0000 6.4682 0.0000
# 4 0.0000 0.0000 0.0000 31.2200 0.0000 7.3095
# 5 12.6105 -3.7952 6.4682 0.0000 20.1227 0.0000
# 6 0.0000 0.0000 0.0000 7.3095 0.0000 67.5535
#
#
#
# Elastic Compliance Matrix: (Units=1/GPa)
#
#
# Indices 1 2 3 4 5 6 
#
# 1 0.006490 -0.001940 -0.000815 0.000000 -0.004171 0.000000
# 2 -0.001940 0.010694 -0.009031 0.000000 0.006135 0.000000
# 3 -0.000815 -0.009031 0.038848 0.000000 -0.013680 0.000000
# 4 0.000000 0.000000 0.000000 0.032863 0.000000 -0.003556
# 5 -0.004171 0.006135 -0.013680 0.000000 0.057863 0.000000
# 6 0.000000 0.000000 0.000000 -0.003556 0.000000 0.015188
#
#
# Mechanical properties :
#
#
# Convention : Reuss Voigt Hill
#
# Bulk Modulus (GPa) = 30.80639 56.65979 43.73309
# Shear Modulus (GPa) = 25.46631 40.64392 33.05512
#
# Velocity S-wave (km/s) = 3.15669 3.98792 3.59640
# Velocity P-wave (km/s) = 5.03393 6.58598 5.86155
#
# Compressibility (1/GPa) = 0.03246080
#
# Stress axis : x y z
#
# Youngs Moduli (GPa) = 154.07575 93.50988 25.74164
#
# Poissons Ratio (x) = 0.18138 0.02098
# Poissons Ratio (y) = 0.29886 0.23247
# Poissons Ratio (z) = 0.12555 0.84449
#
# Static dielectric constant tensor:
#      x y z
#    x 2.123340 0.000000 0.040680 
#    y 0.000000 2.040100 0.000000 
#    z 0.040680 0.000000 2.085820 
# 
# From -- ./inp_files/10383.got.cif
#   From: 2010.05.17/outbox.cif.g08.bks.cpg/sg4_6_cif.got.tgz:10383.got - 2010.06.03 18:43:04.
