data_PCOD9117761
_publ_section_title
;
Structure prediction by ZEFSAII (Michael W. Deem and Ramdas Pophale) SiO2 
 PCOD9117761
Probable space group: P 21
;
_chemical_formula_sum "Si O2"
_cell_formula_units_Z 16
_cell_length_a 5.163019
_cell_length_b 14.096101
_cell_length_c 9.492263
_cell_angle_alpha 90.000000
_cell_angle_beta 120.305001
_cell_angle_gamma 90.000000
_cell_volume 596.430909
_symmetry_space_group_name_H-M "P 21"
_symmetry_group_IT_number 4
_symmetry_cell_setting 'monoclinic'
loop_
_space_group_symop_operation_xyz
x,y,z
-x,1/2+y,-z
loop_
_atom_site_type_symbol
_atom_site_label
_atom_site_fract_x
_atom_site_fract_y
_atom_site_fract_z
Si Si1 0.242940 0.475430 0.299119
Si Si2 0.095332 0.635531 0.757541
Si Si3 0.337087 0.463827 0.646991
Si Si4 0.569974 0.289671 0.315787
Si Si5 0.056707 0.276745 0.978408
Si Si6 0.338590 0.272233 0.782548
Si Si7 0.487867 0.169867 0.549861
Si Si8 0.997482 0.481563 0.942734
O O1 0.214036 0.448368 0.455593
O O2 0.502637 0.401959 0.316149
O O3 0.331812 0.584315 0.335663
O O4 0.979314 0.478043 0.109110
O O5 0.250309 0.564269 0.688012
O O6 0.215095 0.740135 0.741855
O O7 0.137001 0.578510 0.917771
O O8 0.753678 0.624530 0.618795
O O9 0.220572 0.375793 0.705968
O O10 0.693490 0.460971 0.774320
O O11 0.637406 0.248137 0.489694
O O12 0.244522 0.251526 0.167820
O O13 0.170936 0.225742 0.868981
O O14 0.175152 0.383121 0.974284
O O15 0.702311 0.274937 0.905818
O O16 0.315207 0.215486 0.631803
#
# Coordination Sequence:
#
# PCOD9117761 Si02
#       8
#     2   2   2   2   2   2   2   2
#     4  11  24  49  68 104 144 188 253 310 371 454
#     4  12  24  43  70 103 148 196 247 304 384 437
#     4  11  22  47  75 101 150 191 246 317 371 445
#     4  11  26  46  70 105 145 199 247 316 374 446
#     4  10  25  46  76 107 148 192 251 308 370 447
#     4  11  25  46  76 111 147 197 246 309 377 444
#     4  12  27  42  70 105 147 198 244 310 378 443
#     4  10  23  45  71 104 145 193 246 304 377 440
#
# _framework density 26.826243000000002
#
# number of rings (size 3 to 8) (size 9 to 14) (size 15 to 20)
#    0.000    1.000    5.000    0.000    5.250    2.000 
#    2.250    0.000    0.000    0.000    0.000    0.000 
#    0.000    0.000    0.000    0.000    0.000    0.000 
#
# Total GULP energy -89319.632292 kJ/mol
# GULP energy per Si atom -5582.477018 kJ/mol
# Density = 2.676519 g / cm^3
# Si number density = 26.826243 Si / 1000 Ang^3
#
#
#
# Elastic Constant Matrix: (Units=GPa)
#
#
# Indices 1 2 3 4 5 6 
#
# 1 80.2806 10.5529 35.2747 0.0000 -9.5862 0.0000
# 2 10.5529 93.7854 22.2012 0.0000 -3.8883 0.0000
# 3 35.2747 22.2012 174.5731 0.0000 -29.2246 0.0000
# 4 0.0000 0.0000 0.0000 36.2672 0.0000 1.6332
# 5 -9.5862 -3.8883 -29.2246 0.0000 40.8023 0.0000
# 6 0.0000 0.0000 0.0000 1.6332 0.0000 28.8451
#
#
#
# Elastic Compliance Matrix: (Units=1/GPa)
#
#
# Indices 1 2 3 4 5 6 
#
# 1 0.013817 -0.000919 -0.002439 0.000000 0.001412 0.000000
# 2 -0.000919 0.011055 -0.001227 0.000000 -0.000041 0.000000
# 3 -0.002439 -0.001227 0.007115 0.000000 0.004406 0.000000
# 4 0.000000 0.000000 0.000000 0.027644 0.000000 -0.001565
# 5 0.001412 -0.000041 0.004406 0.000000 0.027992 0.000000
# 6 0.000000 0.000000 0.000000 -0.001565 0.000000 0.034757
#
#
# Mechanical properties :
#
#
# Convention : Reuss Voigt Hill
#
# Bulk Modulus (GPa) = 43.82650 53.85519 48.84084
# Shear Modulus (GPa) = 35.93140 39.89030 37.91085
#
# Velocity S-wave (km/s) = 3.66377 3.86033 3.76333
# Velocity P-wave (km/s) = 5.85408 6.32366 6.09340
#
# Compressibility (1/GPa) = 0.02281725
#
# Stress axis : x y z
#
# Youngs Moduli (GPa) = 72.37329 90.45835 140.55446
#
# Poissons Ratio (x) = 0.08312 0.34277
# Poissons Ratio (y) = 0.06650 0.17248
# Poissons Ratio (z) = 0.17650 0.11100
#
# Static dielectric constant tensor:
#      x y z
#    x 2.178670 0.000000 -0.031120 
#    y 0.000000 2.162550 0.000000 
#    z -0.031120 0.000000 2.143440 
# 
# From -- ./inp_files/4737.got.cif
#   From: 2010.05.17/outbox.cif.g08.bks.cpg/sg4_3_cif.got.tgz:4737.got - 2010.06.03 18:43:04.
