data_PCOD9117012
_publ_section_title
;
Structure prediction by ZEFSAII (Michael W. Deem and Ramdas Pophale) SiO2 
 PCOD9117012
Probable space group: P 21
;
_chemical_formula_sum "Si O2"
_cell_formula_units_Z 16
_cell_length_a 5.570432
_cell_length_b 13.706087
_cell_length_c 9.271652
_cell_angle_alpha 90.000000
_cell_angle_beta 109.344228
_cell_angle_gamma 90.000000
_cell_volume 667.916772
_symmetry_space_group_name_H-M "P 21"
_symmetry_group_IT_number 4
_symmetry_cell_setting 'monoclinic'
loop_
_space_group_symop_operation_xyz
x,y,z
-x,1/2+y,-z
loop_
_atom_site_type_symbol
_atom_site_label
_atom_site_fract_x
_atom_site_fract_y
_atom_site_fract_z
Si Si1 0.095453 0.281610 0.677362
Si Si2 0.440409 0.675769 0.080927
Si Si3 0.036166 0.932036 0.124332
Si Si4 0.730036 0.853981 0.564577
Si Si5 0.255297 0.828666 0.830843
Si Si6 0.563730 0.038128 0.186668
Si Si7 0.636535 0.199266 0.416768
Si Si8 0.649859 0.976050 0.810185
O O1 0.326378 0.223214 0.790312
O O2 0.958190 0.333581 0.783047
O O3 0.187744 0.366084 0.583928
O O4 0.903708 0.215100 0.548344
O O5 0.324910 0.592061 0.161815
O O6 0.278272 0.764916 0.980156
O O7 0.521954 0.614342 0.955480
O O8 0.832246 0.998947 0.174563
O O9 0.894944 0.930308 0.941461
O O10 0.321698 0.969120 0.162823
O O11 0.568628 0.754001 0.525995
O O12 0.612398 0.941566 0.636880
O O13 0.979139 0.833537 0.707690
O O14 0.392231 0.765279 0.732828
O O15 0.411039 0.929918 0.851789
O O16 0.603660 0.092748 0.346631
#
# Coordination Sequence:
#
# PCOD9117012 Si02
#       8
#     2   2   2   2   2   2   2   2
#     4  11  24  47  69 108 147 193 249 312 379 450
#     4  10  22  45  73 108 139 189 258 317 361 449
#     4  11  25  45  75 105 145 191 253 311 367 441
#     4  10  23  43  70  96 147 196 235 299 385 448
#     4   9  19  43  70  95 140 186 241 304 371 433
#     4  10  25  47  72 106 142 196 251 306 374 440
#     4   9  22  44  65  98 139 195 231 295 376 446
#     4  10  22  42  70 108 137 192 250 304 379 443
#
# _framework density 23.955079999999999
#
# number of rings (size 3 to 8) (size 9 to 14) (size 15 to 20)
#    0.000    2.000    1.250    0.000   12.250    0.000 
#   13.500    0.000    0.000    0.000    0.000    0.000 
#    0.000    0.000    0.000    0.000    0.000    0.000 
#
# Total GULP energy -89310.509185 kJ/mol
# GULP energy per Si atom -5581.906824 kJ/mol
# Density = 2.390056 g / cm^3
# Si number density = 23.955080 Si / 1000 Ang^3
#
#
#
# Elastic Constant Matrix: (Units=GPa)
#
#
# Indices 1 2 3 4 5 6 
#
# 1 68.2563 12.0333 17.3995 0.0000 -0.1544 0.0000
# 2 12.0333 65.5718 45.0759 0.0000 -2.3152 0.0000
# 3 17.3995 45.0759 104.3148 0.0000 -6.2939 0.0000
# 4 0.0000 0.0000 0.0000 31.4983 0.0000 10.0679
# 5 -0.1544 -2.3152 -6.2939 0.0000 46.0850 0.0000
# 6 0.0000 0.0000 0.0000 10.0679 0.0000 17.3836
#
#
#
# Elastic Compliance Matrix: (Units=1/GPa)
#
#
# Indices 1 2 3 4 5 6 
#
# 1 0.015409 -0.001507 -0.001937 0.000000 -0.000289 0.000000
# 2 -0.001507 0.021844 -0.009198 0.000000 -0.000164 0.000000
# 3 -0.001937 -0.009198 0.013971 0.000000 0.001439 0.000000
# 4 0.000000 0.000000 0.000000 0.038960 0.000000 -0.022564
# 5 -0.000289 -0.000164 0.001439 0.000000 0.021886 0.000000
# 6 0.000000 0.000000 0.000000 -0.022564 0.000000 0.070594
#
#
# Mechanical properties :
#
#
# Convention : Reuss Voigt Hill
#
# Bulk Modulus (GPa) = 38.54755 43.01781 40.78268
# Shear Modulus (GPa) = 23.08478 29.90233 26.49356
#
# Velocity S-wave (km/s) = 3.10767 3.53691 3.32922
# Velocity P-wave (km/s) = 5.38548 5.88866 5.64268
#
# Compressibility (1/GPa) = 0.02594198
#
# Stress axis : x y z
#
# Youngs Moduli (GPa) = 64.89583 45.77949 71.57875
#
# Poissons Ratio (x) = 0.06898 0.13862
# Poissons Ratio (y) = 0.09778 0.65835
# Poissons Ratio (z) = 0.12567 0.42106
#
# Static dielectric constant tensor:
#      x y z
#    x 1.967250 0.000000 -0.092530 
#    y 0.000000 1.977970 0.000000 
#    z -0.092530 0.000000 1.906290 
# 
# From -- ./inp_files/4843.got.cif
#   From: 2010.05.17/outbox.cif.g08.bks.cpg/sg4_3_cif.got.tgz:4843.got - 2010.06.03 18:43:04.
