data_PCOD9117148
_publ_section_title
;
Structure prediction by ZEFSAII (Michael W. Deem and Ramdas Pophale) SiO2 
 PCOD9117148
Probable space group: P 21
;
_chemical_formula_sum "Si O2"
_cell_formula_units_Z 14
_cell_length_a 7.843220
_cell_length_b 8.498451
_cell_length_c 7.898578
_cell_angle_alpha 90.000000
_cell_angle_beta 85.077757
_cell_angle_gamma 90.000000
_cell_volume 524.539830
_symmetry_space_group_name_H-M "P 21"
_symmetry_group_IT_number 4
_symmetry_cell_setting 'monoclinic'
loop_
_space_group_symop_operation_xyz
x,y,z
-x,1/2+y,-z
loop_
_atom_site_type_symbol
_atom_site_label
_atom_site_fract_x
_atom_site_fract_y
_atom_site_fract_z
Si Si1 0.972517 0.412690 0.602872
Si Si2 0.530988 0.745856 0.321491
Si Si3 0.607247 0.908941 0.959228
Si Si4 0.889830 0.592889 0.291044
Si Si5 0.643586 0.031706 0.466000
Si Si6 0.692380 0.225803 0.137350
Si Si7 0.090728 0.165773 0.106443
O O1 0.979515 0.232146 0.660611
O O2 0.170468 0.463100 0.579414
O O3 0.914106 0.446885 0.416520
O O4 0.891056 0.529059 0.752070
O O5 0.567813 0.825720 0.141922
O O6 0.702169 0.654441 0.354228
O O7 0.511056 0.892191 0.448738
O O8 0.382114 0.621087 0.357660
O O9 0.654221 0.086726 0.003631
O O10 0.425274 0.877860 0.885019
O O11 0.766920 0.803156 0.877930
O O12 0.896617 0.593523 0.085412
O O13 0.622147 0.154053 0.316898
O O14 0.897689 0.235247 0.128019
#
# Coordination Sequence:
#
# PCOD9117148 Si02
#       7
#     2   2   2   2   2   2   2
#     4  10  23  41  64  93 127 167 213 265 324 385
#     4   9  20  39  58  86 123 158 201 255 310 376
#     4  10  23  41  64  93 127 167 213 265 324 385
#     4  10  23  41  64  93 127 167 213 265 324 385
#     4   9  20  39  58  86 123 158 201 255 310 376
#     4  10  23  41  64  93 127 167 213 265 324 385
#     4  10  22  44  66  92 134 172 216 268 324 388
#
# _framework density 26.690061
#
# number of rings (size 3 to 8) (size 9 to 14) (size 15 to 20)
#    0.000    2.286    0.000    2.571    4.000    6.857 
#    0.000    8.571    0.000    0.000    0.000    0.000 
#    0.000    0.000    0.000    0.000    0.000    0.000 
#
# Total GULP energy -78355.449548 kJ/mol
# GULP energy per Si atom -5596.817825 kJ/mol
# Density = 2.662931 g / cm^3
# Si number density = 26.690061 Si / 1000 Ang^3
#
#
#
# Elastic Constant Matrix: (Units=GPa)
#
#
# Indices 1 2 3 4 5 6 
#
# 1 96.1274 56.6717 18.9388 0.0000 -5.0359 0.0000
# 2 56.6717 95.2806 46.2201 0.0000 -14.1029 0.0000
# 3 18.9388 46.2201 132.3824 0.0000 -2.2409 0.0000
# 4 0.0000 0.0000 0.0000 33.3008 0.0000 18.7912
# 5 -5.0359 -14.1029 -2.2409 0.0000 34.8810 0.0000
# 6 0.0000 0.0000 0.0000 18.7912 0.0000 26.0916
#
#
#
# Elastic Compliance Matrix: (Units=1/GPa)
#
#
# Indices 1 2 3 4 5 6 
#
# 1 0.016305 -0.010625 0.001346 0.000000 -0.001856 0.000000
# 2 -0.010625 0.020428 -0.005504 0.000000 0.006372 0.000000
# 3 0.001346 -0.005504 0.009259 0.000000 -0.001436 0.000000
# 4 0.000000 0.000000 0.000000 0.050588 0.000000 -0.036434
# 5 -0.001856 0.006372 -0.001436 0.000000 0.030885 0.000000
# 6 0.000000 0.000000 0.000000 -0.036434 0.000000 0.064566
#
#
# Mechanical properties :
#
#
# Convention : Reuss Voigt Hill
#
# Bulk Modulus (GPa) = 60.88675 63.05020 61.96847
# Shear Modulus (GPa) = 22.01925 32.31868 27.16897
#
# Velocity S-wave (km/s) = 2.87539 3.48356 3.19398
# Velocity P-wave (km/s) = 5.82116 6.31305 6.07209
#
# Compressibility (1/GPa) = 0.01642393
#
# Stress axis : x y z
#
# Youngs Moduli (GPa) = 61.33239 48.95147 108.00460
#
# Poissons Ratio (x) = 0.52012 -0.14534
# Poissons Ratio (y) = 0.65167 0.59451
# Poissons Ratio (z) = -0.08254 0.26945
#
# Static dielectric constant tensor:
#      x y z
#    x 2.067950 0.000000 0.030240 
#    y 0.000000 2.087350 0.000000 
#    z 0.030240 0.000000 2.098750 
# 
# From -- ./inp_files/5548.got.cif
#   From: 2010.05.17/outbox.cif.g08.bks.cpg/sg4_3_cif.got.tgz:5548.got - 2010.06.03 18:43:04.
