data_PCOD9117172
_publ_section_title
;
Structure prediction by ZEFSAII (Michael W. Deem and Ramdas Pophale) SiO2 
 PCOD9117172
Probable space group: P 21
;
_chemical_formula_sum "Si O2"
_cell_formula_units_Z 14
_cell_length_a 16.193921
_cell_length_b 5.683526
_cell_length_c 12.301537
_cell_angle_alpha 90.000000
_cell_angle_beta 143.189205
_cell_angle_gamma 90.000000
_cell_volume 678.394834
_symmetry_space_group_name_H-M "P 21"
_symmetry_group_IT_number 4
_symmetry_cell_setting 'monoclinic'
loop_
_space_group_symop_operation_xyz
x,y,z
-x,1/2+y,-z
loop_
_atom_site_type_symbol
_atom_site_label
_atom_site_fract_x
_atom_site_fract_y
_atom_site_fract_z
Si Si1 0.822180 0.741370 0.213910
Si Si2 0.922156 0.903388 0.551521
Si Si3 0.362067 0.605918 0.708876
Si Si4 0.379710 0.862657 0.958841
Si Si5 0.509119 0.305068 0.367256
Si Si6 0.158941 0.648412 0.895731
Si Si7 0.361093 0.804926 0.265564
O O1 0.871508 0.870846 0.374744
O O2 0.679393 0.626974 0.099631
O O3 0.947240 0.569511 0.321983
O O4 0.809364 0.875703 0.087056
O O5 0.000387 0.685631 0.691725
O O6 0.791259 0.010405 0.473923
O O7 0.366619 0.747816 0.827416
O O8 0.416652 0.767639 0.669307
O O9 0.466211 0.385410 0.835062
O O10 0.270676 0.742029 0.924473
O O11 0.437606 0.564108 0.302220
O O12 0.615064 0.298840 0.580491
O O13 0.419389 0.060617 0.287826
O O14 0.206942 0.767474 0.057080
#
# Coordination Sequence:
#
# PCOD9117172 Si02
#       7
#     2   2   2   2   2   2   2
#     4  11  20  40  55  86 120 175 206 246 302 398
#     4  11  22  35  57  85 130 160 208 244 326 370
#     4  12  23  39  58  98 131 160 202 272 327 375
#     4  11  24  35  59  89 126 158 209 255 322 373
#     4  10  23  42  70  93 129 160 217 274 323 364
#     4  11  22  39  63  85 121 171 212 254 297 400
#     4  10  22  44  68  96 117 172 222 267 309 382
#
# _framework density 20.636949000000001
#
# number of rings (size 3 to 8) (size 9 to 14) (size 15 to 20)
#    0.000    1.143    4.286    2.571    4.000    1.143 
#    0.000    0.000    3.143    0.000    0.000    0.000 
#    0.000    0.000    0.000    0.000    0.000    0.000 
#
# Total GULP energy -77999.242726 kJ/mol
# GULP energy per Si atom -5571.374480 kJ/mol
# Density = 2.058998 g / cm^3
# Si number density = 20.636949 Si / 1000 Ang^3
#
#
#
# Elastic Constant Matrix: (Units=GPa)
#
#
# Indices 1 2 3 4 5 6 
#
# 1 57.5195 9.7549 23.1173 0.0000 2.4583 0.0000
# 2 9.7549 61.7999 8.4723 0.0000 -0.2214 0.0000
# 3 23.1173 8.4723 77.5063 0.0000 -10.0113 0.0000
# 4 0.0000 0.0000 0.0000 38.1937 0.0000 0.5766
# 5 2.4583 -0.2214 -10.0113 0.0000 29.6506 0.0000
# 6 0.0000 0.0000 0.0000 0.5766 0.0000 11.9774
#
#
#
# Elastic Compliance Matrix: (Units=1/GPa)
#
#
# Indices 1 2 3 4 5 6 
#
# 1 0.020509 -0.002380 -0.006356 0.000000 -0.003864 0.000000
# 2 -0.002380 0.016711 -0.001124 0.000000 -0.000058 0.000000
# 3 -0.006356 -0.001124 0.015671 0.000000 0.005810 0.000000
# 4 0.000000 0.000000 0.000000 0.026201 0.000000 -0.001261
# 5 -0.003864 -0.000058 0.005810 0.000000 0.036008 0.000000
# 6 0.000000 0.000000 0.000000 -0.001261 0.000000 0.083551
#
#
# Mechanical properties :
#
#
# Convention : Reuss Voigt Hill
#
# Bulk Modulus (GPa) = 30.14708 31.05719 30.60214
# Shear Modulus (GPa) = 21.79334 26.32976 24.06155
#
# Velocity S-wave (km/s) = 3.25319 3.57579 3.41830
# Velocity P-wave (km/s) = 5.36200 5.66836 5.51731
#
# Compressibility (1/GPa) = 0.03317070
#
# Stress axis : x y z
#
# Youngs Moduli (GPa) = 48.75989 59.84147 63.81092
#
# Poissons Ratio (x) = 0.14241 0.40558
# Poissons Ratio (y) = 0.11603 0.07174
# Poissons Ratio (z) = 0.30992 0.06728
#
# Static dielectric constant tensor:
#      x y z
#    x 1.695930 0.000000 -0.021040 
#    y 0.000000 1.989190 0.000000 
#    z -0.021040 0.000000 1.934010 
# 
# From -- ./inp_files/7187.got.cif
#   From: 2010.05.17/outbox.cif.g08.bks.cpg/sg4_4_cif.got.tgz:7187.got - 2010.06.03 18:43:04.
