data_PCOD9117587
_publ_section_title
;
Structure prediction by ZEFSAII (Michael W. Deem and Ramdas Pophale) SiO2 
 PCOD9117587
Probable space group: P 21
;
_chemical_formula_sum "Si O2"
_cell_formula_units_Z 16
_cell_length_a 8.286826
_cell_length_b 12.008709
_cell_length_c 8.428172
_cell_angle_alpha 90.000000
_cell_angle_beta 127.739163
_cell_angle_gamma 90.000000
_cell_volume 663.265690
_symmetry_space_group_name_H-M "P 21"
_symmetry_group_IT_number 4
_symmetry_cell_setting 'monoclinic'
loop_
_space_group_symop_operation_xyz
x,y,z
-x,1/2+y,-z
loop_
_atom_site_type_symbol
_atom_site_label
_atom_site_fract_x
_atom_site_fract_y
_atom_site_fract_z
Si Si1 0.601669 0.054650 0.998180
Si Si2 0.216035 0.944117 0.939841
Si Si3 0.961482 0.650383 0.287909
Si Si4 0.619486 0.186321 0.319024
Si Si5 0.841806 0.820905 0.682060
Si Si6 0.440659 0.967945 0.375728
Si Si7 0.745358 0.835050 0.975062
Si Si8 0.283928 0.096312 0.561926
O O1 0.417144 0.981561 0.965278
O O2 0.496580 0.113201 0.785257
O O3 0.758805 0.962189 0.035783
O O4 0.672326 0.137275 0.177190
O O5 0.075748 0.056274 0.867587
O O6 0.301921 0.907237 0.161679
O O7 0.064538 0.860402 0.759665
O O8 0.885830 0.589521 0.402996
O O9 0.184199 0.696574 0.453156
O O10 0.816141 0.752424 0.155566
O O11 0.488689 0.088598 0.325489
O O12 0.481803 0.294260 0.210462
O O13 0.866089 0.816133 0.886036
O O14 0.776395 0.704201 0.572848
O O15 0.657136 0.906668 0.532215
O O16 0.322830 0.994153 0.467255
#
# Coordination Sequence:
#
# PCOD9117587 Si02
#       8
#     2   2   2   2   2   2   2   2
#     4  10  24  45  71  94 141 178 222 285 339 408
#     4  10  23  43  64  97 131 178 223 278 333 399
#     4  11  24  43  68  95 135 176 225 282 331 404
#     4  11  23  45  69  94 136 181 214 287 340 394
#     4  12  25  41  70 100 135 183 224 278 339 404
#     4  11  22  45  69  94 140 175 222 279 343 397
#     4  12  24  45  67 103 133 178 230 272 344 407
#     4  11  23  45  66 103 135 175 230 277 333 409
#
# _framework density 24.123062000000001
#
# number of rings (size 3 to 8) (size 9 to 14) (size 15 to 20)
#    0.000    1.000    7.500    0.000    5.250    2.000 
#    2.250    0.000    0.000    0.000    0.000    0.000 
#    0.000    0.000    0.000    0.000    0.000    0.000 
#
# Total GULP energy -89477.516247 kJ/mol
# GULP energy per Si atom -5592.344765 kJ/mol
# Density = 2.406816 g / cm^3
# Si number density = 24.123062 Si / 1000 Ang^3
#
#
#
# Elastic Constant Matrix: (Units=GPa)
#
#
# Indices 1 2 3 4 5 6 
#
# 1 40.6647 11.5390 34.2672 0.0000 -2.8056 0.0000
# 2 11.5390 50.0532 4.9977 0.0000 3.0424 0.0000
# 3 34.2672 4.9977 99.8029 0.0000 17.6105 0.0000
# 4 0.0000 0.0000 0.0000 26.3896 0.0000 -4.6623
# 5 -2.8056 3.0424 17.6105 0.0000 34.9959 0.0000
# 6 0.0000 0.0000 0.0000 -4.6623 0.0000 29.7881
#
#
#
# Elastic Compliance Matrix: (Units=1/GPa)
#
#
# Indices 1 2 3 4 5 6 
#
# 1 0.041230 -0.008654 -0.015846 0.000000 0.012032 0.000000
# 2 -0.008654 0.021955 0.002558 0.000000 -0.003890 0.000000
# 3 -0.015846 0.002558 0.017116 0.000000 -0.010106 0.000000
# 4 0.000000 0.000000 0.000000 0.038971 0.000000 0.006100
# 5 0.012032 -0.003890 -0.010106 0.000000 0.034963 0.000000
# 6 0.000000 0.000000 0.000000 0.006100 0.000000 0.034525
#
#
# Mechanical properties :
#
#
# Convention : Reuss Voigt Hill
#
# Bulk Modulus (GPa) = 27.45974 32.45874 29.95924
# Shear Modulus (GPa) = 20.42628 27.54918 23.98773
#
# Velocity S-wave (km/s) = 2.91306 3.38305 3.15682
# Velocity P-wave (km/s) = 4.76681 5.36141 5.07283
#
# Compressibility (1/GPa) = 0.03641695
#
# Stress axis : x y z
#
# Youngs Moduli (GPa) = 24.25398 45.54803 58.42652
#
# Poissons Ratio (x) = 0.39418 0.92583
# Poissons Ratio (y) = 0.20990 -0.14948
# Poissons Ratio (z) = 0.38433 -0.11653
#
# Static dielectric constant tensor:
#      x y z
#    x 1.990120 0.000000 -0.019760 
#    y 0.000000 1.916710 0.000000 
#    z -0.019760 0.000000 1.911420 
# 
# From -- ./inp_files/6463.got.cif
#   From: 2010.05.17/outbox.cif.g08.bks.cpg/sg4_4_cif.got.tgz:6463.got - 2010.06.03 18:43:04.
