data_PCOD9117909
_publ_section_title
;
Structure prediction by ZEFSAII (Michael W. Deem and Ramdas Pophale) SiO2 
 PCOD9117909
Probable space group: P 21
;
_chemical_formula_sum "Si O2"
_cell_formula_units_Z 12
_cell_length_a 14.748845
_cell_length_b 7.729829
_cell_length_c 5.154256
_cell_angle_alpha 90.000000
_cell_angle_beta 129.486072
_cell_angle_gamma 90.000000
_cell_volume 453.510080
_symmetry_space_group_name_H-M "P 21"
_symmetry_group_IT_number 4
_symmetry_cell_setting 'monoclinic'
loop_
_space_group_symop_operation_xyz
x,y,z
-x,1/2+y,-z
loop_
_atom_site_type_symbol
_atom_site_label
_atom_site_fract_x
_atom_site_fract_y
_atom_site_fract_z
Si Si1 0.787344 0.451470 0.321654
Si Si2 0.579535 0.526067 0.322196
Si Si3 0.096641 0.105765 0.976839
Si Si4 0.713943 0.829170 0.833593
Si Si5 0.818852 0.080154 0.425718
Si Si6 0.617045 0.137677 0.410480
O O1 0.665377 0.517919 0.222640
O O2 0.848791 0.548469 0.198445
O O3 0.777910 0.255428 0.204086
O O4 0.869605 0.481973 0.723532
O O5 0.637252 0.657043 0.631414
O O6 0.581785 0.329209 0.423547
O O7 0.458828 0.591710 0.982450
O O8 0.957825 0.099012 0.697743
O O9 0.169608 0.286538 0.135784
O O10 0.615340 0.975720 0.595614
O O11 0.772118 0.907327 0.200869
O O12 0.752834 0.120711 0.573135
#
# Coordination Sequence:
#
# PCOD9117909 Si02
#       6
#     2   2   2   2   2   2
#     4  10  26  48  72 112 154 202 254 324 379 457
#     4  10  23  50  76 108 156 198 262 322 384 466
#     4  11  26  47  79 110 160 200 261 316 386 460
#     4  11  26  45  75 109 147 210 247 319 382 454
#     4  11  27  43  75 113 151 206 257 315 391 461
#     4  11  24  49  75 112 152 202 259 318 392 460
#
# _framework density 26.460274999999999
#
# number of rings (size 3 to 8) (size 9 to 14) (size 15 to 20)
#    0.000    1.333    1.667    1.000   16.333    0.000 
#    9.000    0.000    0.000    0.000    0.000    0.000 
#    0.000    0.000    0.000    0.000    0.000    0.000 
#
# Total GULP energy -67037.384151 kJ/mol
# GULP energy per Si atom -5586.448679 kJ/mol
# Density = 2.640005 g / cm^3
# Si number density = 26.460275 Si / 1000 Ang^3
#
#
#
# Elastic Constant Matrix: (Units=GPa)
#
#
# Indices 1 2 3 4 5 6 
#
# 1 126.0000 43.6354 51.5481 0.0000 3.6529 0.0000
# 2 43.6354 218.0439 77.2829 0.0000 -0.9231 0.0000
# 3 51.5481 77.2829 104.9622 0.0000 -8.9740 0.0000
# 4 0.0000 0.0000 0.0000 38.2976 0.0000 -3.2033
# 5 3.6529 -0.9231 -8.9740 0.0000 39.6675 0.0000
# 6 0.0000 0.0000 0.0000 -3.2033 0.0000 31.1769
#
#
#
# Elastic Compliance Matrix: (Units=1/GPa)
#
#
# Indices 1 2 3 4 5 6 
#
# 1 0.010112 -0.000284 -0.004933 0.000000 -0.002054 0.000000
# 2 -0.000284 0.006246 -0.004532 0.000000 -0.000854 0.000000
# 3 -0.004933 -0.004532 0.015619 0.000000 0.003882 0.000000
# 4 0.000000 0.000000 0.000000 0.026338 0.000000 0.002706
# 5 -0.002054 -0.000854 0.003882 0.000000 0.026257 0.000000
# 6 0.000000 0.000000 0.000000 0.002706 0.000000 0.032353
#
#
# Mechanical properties :
#
#
# Convention : Reuss Voigt Hill
#
# Bulk Modulus (GPa) = 80.13544 88.21544 84.17544
# Shear Modulus (GPa) = 35.56620 40.26439 37.91529
#
# Velocity S-wave (km/s) = 3.67022 3.90512 3.78949
# Velocity P-wave (km/s) = 6.95066 7.33106 7.14339
#
# Compressibility (1/GPa) = 0.01247887
#
# Stress axis : x y z
#
# Youngs Moduli (GPa) = 98.88760 160.10562 64.02534
#
# Poissons Ratio (x) = 0.04548 0.31582
# Poissons Ratio (y) = 0.02809 0.29018
# Poissons Ratio (z) = 0.48779 0.72565
#
# Static dielectric constant tensor:
#      x y z
#    x 2.203950 0.000000 -0.074170 
#    y 0.000000 2.547560 0.000000 
#    z -0.074170 0.000000 2.097130 
# 
# From -- ./inp_files/3515.got.cif
#   From: 2010.05.17/outbox.cif.g08.bks.cpg/sg4_2_cif.got.tgz:3515.got - 2010.06.03 18:43:04.
