data_PCOD9117228
_publ_section_title
;
Structure prediction by ZEFSAII (Michael W. Deem and Ramdas Pophale) SiO2 
 PCOD9117228
Probable space group: P 21
;
_chemical_formula_sum "Si O2"
_cell_formula_units_Z 16
_cell_length_a 8.214654
_cell_length_b 4.834220
_cell_length_c 20.882284
_cell_angle_alpha 90.000000
_cell_angle_beta 130.864218
_cell_angle_gamma 90.000000
_cell_volume 627.142290
_symmetry_space_group_name_H-M "P 21"
_symmetry_group_IT_number 4
_symmetry_cell_setting 'monoclinic'
loop_
_space_group_symop_operation_xyz
x,y,z
-x,1/2+y,-z
loop_
_atom_site_type_symbol
_atom_site_label
_atom_site_fract_x
_atom_site_fract_y
_atom_site_fract_z
Si Si1 0.134430 0.677610 0.266881
Si Si2 0.125139 0.366970 0.056683
Si Si3 0.549709 0.055378 0.178988
Si Si4 0.400630 0.303510 0.942100
Si Si5 0.068248 0.905920 0.670094
Si Si6 0.114408 0.233559 0.505322
Si Si7 0.995421 0.195065 0.162130
Si Si8 0.556045 0.733037 0.308655
O O1 0.955056 0.483675 0.187408
O O2 0.354957 0.579271 0.289390
O O3 0.079646 0.608598 0.325634
O O4 0.125765 0.997264 0.244794
O O5 0.369482 0.270403 0.106879
O O6 0.099015 0.291067 0.123443
O O7 0.051857 0.679403 0.025758
O O8 0.572479 0.833523 0.127700
O O9 0.784252 0.189403 0.252189
O O10 0.483766 0.929109 0.231174
O O11 0.191828 0.483994 0.905574
O O12 0.420171 0.006019 0.979291
O O13 0.913731 0.771608 0.577236
O O14 0.257376 0.062761 0.679756
O O15 0.321506 0.346586 0.596833
O O16 0.923222 0.413147 0.488497
#
# Coordination Sequence:
#
# PCOD9117228 Si02
#       8
#     2   2   2   2   2   2   2   2
#     4  12  26  45  73 108 146 188 248 300 364 454
#     4  12  26  43  66 102 139 186 247 310 369 438
#     4  12  24  45  76  98 145 203 250 298 391 446
#     4  12  26  43  66 102 139 186 247 310 369 438
#     4  11  25  46  77 110 146 199 245 308 373 458
#     4  10  22  44  74 110 148 186 242 310 364 444
#     4  12  24  46  65 100 141 181 240 308 359 436
#     4  11  25  46  77 110 146 199 245 308 373 458
#
# _framework density 25.512550999999998
#
# number of rings (size 3 to 8) (size 9 to 14) (size 15 to 20)
#    0.000    0.500    3.750    4.500    3.500    0.000 
#    0.000    6.250    0.000    0.000    0.000    0.000 
#    0.000    0.000    0.000    0.000    0.000    0.000 
#
# Total GULP energy -89447.693325 kJ/mol
# GULP energy per Si atom -5590.480833 kJ/mol
# Density = 2.545448 g / cm^3
# Si number density = 25.512551 Si / 1000 Ang^3
#
#
#
# Elastic Constant Matrix: (Units=GPa)
#
#
# Indices 1 2 3 4 5 6 
#
# 1 134.5486 13.8234 30.2301 0.0000 -21.8155 0.0000
# 2 13.8234 106.5035 21.4358 0.0000 -14.8595 0.0000
# 3 30.2301 21.4358 147.4621 0.0000 -17.6074 0.0000
# 4 0.0000 0.0000 0.0000 33.6226 0.0000 -2.7900
# 5 -21.8155 -14.8595 -17.6074 0.0000 14.9145 0.0000
# 6 0.0000 0.0000 0.0000 -2.7900 0.0000 29.2812
#
#
#
# Elastic Compliance Matrix: (Units=1/GPa)
#
#
# Indices 1 2 3 4 5 6 
#
# 1 0.009826 0.000864 -0.000374 0.000000 0.014791 0.000000
# 2 0.000864 0.010995 -0.000368 0.000000 0.011783 0.000000
# 3 -0.000374 -0.000368 0.007919 0.000000 0.008435 0.000000
# 4 0.000000 0.000000 0.000000 0.029979 0.000000 0.002856
# 5 0.014791 0.011783 0.008435 0.000000 0.110382 0.000000
# 6 0.000000 0.000000 0.000000 0.002856 0.000000 0.034424
#
#
# Mechanical properties :
#
#
# Convention : Reuss Voigt Hill
#
# Bulk Modulus (GPa) = 34.50318 57.72143 46.11230
# Shear Modulus (GPa) = 23.48049 37.09864 30.28957
#
# Velocity S-wave (km/s) = 3.03702 3.81745 3.44938
# Velocity P-wave (km/s) = 5.08442 6.48879 5.82905
#
# Compressibility (1/GPa) = 0.02898284
#
# Stress axis : x y z
#
# Youngs Moduli (GPa) = 101.77327 90.94692 126.28314
#
# Poissons Ratio (x) = -0.07854 0.04719
# Poissons Ratio (y) = -0.08789 0.04653
# Poissons Ratio (z) = 0.03803 0.03351
#
# Static dielectric constant tensor:
#      x y z
#    x 2.083660 0.000000 0.070580 
#    y 0.000000 2.033000 0.000000 
#    z 0.070580 0.000000 2.154300 
# 
# From -- ./inp_files/13473.got.cif
#   From: 2010.05.17/outbox.cif.g08.bks.cpg/sg4_7_cif.got.tgz:13473.got - 2010.06.03 18:43:04.
