data_PCOD9117828
_publ_section_title
;
Structure prediction by ZEFSAII (Michael W. Deem and Ramdas Pophale) SiO2 
 PCOD9117828
Probable space group: P 21
;
_chemical_formula_sum "Si O2"
_cell_formula_units_Z 16
_cell_length_a 7.425522
_cell_length_b 6.915301
_cell_length_c 15.139958
_cell_angle_alpha 90.000000
_cell_angle_beta 67.180959
_cell_angle_gamma 90.000000
_cell_volume 716.586307
_symmetry_space_group_name_H-M "P 21"
_symmetry_group_IT_number 4
_symmetry_cell_setting 'monoclinic'
loop_
_space_group_symop_operation_xyz
x,y,z
-x,1/2+y,-z
loop_
_atom_site_type_symbol
_atom_site_label
_atom_site_fract_x
_atom_site_fract_y
_atom_site_fract_z
Si Si1 0.853501 0.417370 0.096213
Si Si2 0.358708 0.091582 0.565844
Si Si3 0.273777 0.563747 0.980937
Si Si4 0.903445 0.289551 0.282174
Si Si5 0.400041 0.276918 0.817438
Si Si6 0.232786 0.584130 0.193492
Si Si7 0.998817 0.876264 0.338781
Si Si8 0.612764 0.371384 0.615686
O O1 0.728074 0.282363 0.055217
O O2 0.873204 0.292635 0.182147
O O3 0.776895 0.628168 0.140456
O O4 0.058770 0.467599 0.011322
O O5 0.549745 0.173742 0.578168
O O6 0.188763 0.253570 0.596730
O O7 0.264500 0.915316 0.639067
O O8 0.397132 0.028433 0.459051
O O9 0.409571 0.424268 0.897380
O O10 0.301988 0.560653 0.080159
O O11 0.108115 0.405466 0.251405
O O12 0.932864 0.086964 0.322982
O O13 0.579797 0.128197 0.784788
O O14 0.440872 0.396142 0.721166
O O15 0.091620 0.767863 0.235657
O O16 0.175141 0.875210 0.377450
#
# Coordination Sequence:
#
# PCOD9117828 Si02
#       8
#     2   2   2   2   2   2   2   2
#     4  11  23  39  69  96 136 180 237 284 356 416
#     4  11  26  46  72 106 143 185 241 296 364 447
#     4  11  24  38  66  97 132 187 226 289 345 424
#     4  10  23  46  73  97 135 188 232 297 361 426
#     4  11  24  46  63 100 144 177 236 299 349 433
#     4   9  24  44  65 100 139 180 238 289 361 425
#     4  10  25  48  75 101 146 186 238 305 361 434
#     4  11  27  49  71 107 145 185 238 303 365 427
#
# _framework density 22.328087
#
# number of rings (size 3 to 8) (size 9 to 14) (size 15 to 20)
#    0.000    1.500    2.500    0.000    8.750    2.000 
#    6.750    0.000    0.000    0.000    0.000    0.000 
#    0.000    0.000    0.000    0.000    0.000    0.000 
#
# Total GULP energy -89403.680097 kJ/mol
# GULP energy per Si atom -5587.730006 kJ/mol
# Density = 2.227727 g / cm^3
# Si number density = 22.328087 Si / 1000 Ang^3
#
#
#
# Elastic Constant Matrix: (Units=GPa)
#
#
# Indices 1 2 3 4 5 6 
#
# 1 59.9088 35.8850 19.0914 0.0000 4.1138 0.0000
# 2 35.8850 113.1585 64.6331 0.0000 6.8599 0.0000
# 3 19.0914 64.6331 117.7559 0.0000 8.7047 0.0000
# 4 0.0000 0.0000 0.0000 29.9998 0.0000 12.9866
# 5 4.1138 6.8599 8.7047 0.0000 18.3431 0.0000
# 6 0.0000 0.0000 0.0000 12.9866 0.0000 26.9640
#
#
#
# Elastic Compliance Matrix: (Units=1/GPa)
#
#
# Indices 1 2 3 4 5 6 
#
# 1 0.020716 -0.006711 0.000501 0.000000 -0.002373 0.000000
# 2 -0.006711 0.015088 -0.007138 0.000000 -0.000750 0.000000
# 3 0.000501 -0.007138 0.012581 0.000000 -0.003413 0.000000
# 4 0.000000 0.000000 0.000000 0.042114 0.000000 -0.020283
# 5 -0.002373 -0.000750 -0.003413 0.000000 0.056949 0.000000
# 6 0.000000 0.000000 0.000000 -0.020283 0.000000 0.046856
#
#
# Mechanical properties :
#
#
# Convention : Reuss Voigt Hill
#
# Bulk Modulus (GPa) = 46.10987 58.89357 52.50172
# Shear Modulus (GPa) = 21.90780 26.47563 24.19172
#
# Velocity S-wave (km/s) = 3.13577 3.44721 3.29518
# Velocity P-wave (km/s) = 5.81435 6.50216 6.16785
#
# Compressibility (1/GPa) = 0.02168733
#
# Stress axis : x y z
#
# Youngs Moduli (GPa) = 48.27287 66.27839 79.48468
#
# Poissons Ratio (x) = 0.44482 -0.03979
# Poissons Ratio (y) = 0.32398 0.56734
# Poissons Ratio (z) = -0.02417 0.47308
#
# Static dielectric constant tensor:
#      x y z
#    x 1.840440 0.000000 -0.009410 
#    y 0.000000 1.830530 0.000000 
#    z -0.009410 0.000000 1.854410 
# 
# From -- ./inp_files/9803.got.cif
#   From: 2010.05.17/outbox.cif.g08.bks.cpg/sg4_5_cif.got.tgz:9803.got - 2010.06.03 18:43:04.
