data_PCOD9117986
_publ_section_title
;
Structure prediction by ZEFSAII (Michael W. Deem and Ramdas Pophale) SiO2 
 PCOD9117986
Probable space group: P 21
;
_chemical_formula_sum "Si O2"
_cell_formula_units_Z 10
_cell_length_a 11.522208
_cell_length_b 5.174231
_cell_length_c 7.839953
_cell_angle_alpha 90.000000
_cell_angle_beta 128.050809
_cell_angle_gamma 90.000000
_cell_volume 368.066219
_symmetry_space_group_name_H-M "P 21"
_symmetry_group_IT_number 4
_symmetry_cell_setting 'monoclinic'
loop_
_space_group_symop_operation_xyz
x,y,z
-x,1/2+y,-z
loop_
_atom_site_type_symbol
_atom_site_label
_atom_site_fract_x
_atom_site_fract_y
_atom_site_fract_z
Si Si1 0.659848 0.128780 0.999558
Si Si2 0.078290 0.287659 0.287028
Si Si3 0.600398 0.285826 0.589943
Si Si4 0.685510 0.509504 0.319960
Si Si5 0.118723 0.283539 0.923455
O O1 0.719218 0.305863 0.203381
O O2 0.690360 0.267615 0.845514
O O3 0.728290 0.844150 0.034025
O O4 0.483040 0.104494 0.855399
O O5 0.979064 0.540330 0.216614
O O6 0.205674 0.245141 0.540839
O O7 0.140115 0.285813 0.148239
O O8 0.516508 0.015921 0.494124
O O9 0.689307 0.350254 0.501867
O O10 0.023471 0.535937 0.791689
#
# Coordination Sequence:
#
# PCOD9117986 Si02
#       5
#     2   2   2   2   2
#     4  11  26  47  83 127 172 210 289 346 422 492
#     4  10  25  49  82 117 163 226 277 335 419 508
#     4  10  24  42  74 116 168 218 260 340 426 478
#     4  11  26  47  83 127 172 210 289 346 422 492
#     4  10  25  49  82 117 163 226 277 335 419 508
#
# _framework density 27.169021000000001
#
# number of rings (size 3 to 8) (size 9 to 14) (size 15 to 20)
#    0.000    1.600    0.000    1.200   19.600    3.200 
#    0.000    4.000    0.000    0.000    0.000    0.000 
#    0.000    0.000    0.000    0.000    0.000    0.000 
#
# Total GULP energy -56201.114760 kJ/mol
# GULP energy per Si atom -5620.111476 kJ/mol
# Density = 2.710718 g / cm^3
# Si number density = 27.169021 Si / 1000 Ang^3
#
#
#
# Elastic Constant Matrix: (Units=GPa)
#
#
# Indices 1 2 3 4 5 6 
#
# 1 97.9245 54.1511 86.8932 0.0000 -1.5954 0.0000
# 2 54.1511 204.5979 101.9822 0.0000 8.1706 0.0000
# 3 86.8932 101.9822 166.1361 0.0000 -4.1586 0.0000
# 4 0.0000 0.0000 0.0000 45.7726 0.0000 -1.2957
# 5 -1.5954 8.1706 -4.1586 0.0000 61.0230 0.0000
# 6 0.0000 0.0000 0.0000 -1.2957 0.0000 50.2060
#
#
#
# Elastic Compliance Matrix: (Units=1/GPa)
#
#
# Indices 1 2 3 4 5 6 
#
# 1 0.019059 -0.000097 -0.009913 0.000000 -0.000164 0.000000
# 2 -0.000097 0.007138 -0.004362 0.000000 -0.001256 0.000000
# 3 -0.009913 -0.004362 0.013914 0.000000 0.001273 0.000000
# 4 0.000000 0.000000 0.000000 0.021863 0.000000 0.000564
# 5 -0.000164 -0.001256 0.001273 0.000000 0.016638 0.000000
# 6 0.000000 0.000000 0.000000 0.000564 0.000000 0.019933
#
#
# Mechanical properties :
#
#
# Convention : Reuss Voigt Hill
#
# Bulk Modulus (GPa) = 87.97989 106.07905 97.02947
# Shear Modulus (GPa) = 38.14541 46.44245 42.29393
#
# Velocity S-wave (km/s) = 3.75107 4.13896 3.94978
# Velocity P-wave (km/s) = 7.15635 7.87212 7.52275
#
# Compressibility (1/GPa) = 0.01136623
#
# Stress axis : x y z
#
# Youngs Moduli (GPa) = 52.46821 140.09922 71.87133
#
# Poissons Ratio (x) = 0.01353 0.71248
# Poissons Ratio (y) = 0.00507 0.31353
# Poissons Ratio (z) = 0.52013 0.61117
#
# Static dielectric constant tensor:
#      x y z
#    x 2.157890 0.000000 0.015420 
#    y 0.000000 2.141710 0.000000 
#    z 0.015420 0.000000 2.093020 
# 
# From -- ./inp_files/7253.got.cif
#   From: 2010.05.17/outbox.cif.g08.bks.cpg/sg4_4_cif.got.tgz:7253.got - 2010.06.03 18:43:04.
