data_PCOD9117655
_publ_section_title
;
Structure prediction by ZEFSAII (Michael W. Deem and Ramdas Pophale) SiO2 
 PCOD9117655
Probable space group: P 21
;
_chemical_formula_sum "Si O2"
_cell_formula_units_Z 14
_cell_length_a 9.430178
_cell_length_b 4.978384
_cell_length_c 14.233952
_cell_angle_alpha 90.000000
_cell_angle_beta 52.381283
_cell_angle_gamma 90.000000
_cell_volume 529.308009
_symmetry_space_group_name_H-M "P 21"
_symmetry_group_IT_number 4
_symmetry_cell_setting 'monoclinic'
loop_
_space_group_symop_operation_xyz
x,y,z
-x,1/2+y,-z
loop_
_atom_site_type_symbol
_atom_site_label
_atom_site_fract_x
_atom_site_fract_y
_atom_site_fract_z
Si Si1 0.948551 0.535920 0.581568
Si Si2 0.431880 0.882875 0.186209
Si Si3 0.911203 0.564626 0.895458
Si Si4 0.298123 0.546187 0.089608
Si Si5 0.271777 0.344107 0.566974
Si Si6 0.769765 0.731560 0.154554
Si Si7 0.366364 0.842136 0.650516
O O1 0.745804 0.518687 0.700773
O O2 0.078045 0.427070 0.611228
O O3 0.984742 0.324838 0.481777
O O4 0.371431 0.597478 0.164673
O O5 0.577390 0.858556 0.209602
O O6 0.543470 0.996944 0.050824
O O7 0.789524 0.322776 0.908414
O O8 0.855103 0.817246 0.853436
O O9 0.856734 0.675591 0.019239
O O10 0.097740 0.415718 0.839261
O O11 0.340026 0.553015 0.617066
O O12 0.420094 0.378309 0.425351
O O13 0.291069 0.049793 0.602207
O O14 0.735668 0.446290 0.217434
#
# Coordination Sequence:
#
# PCOD9117655 Si02
#       7
#     2   2   2   2   2   2   2
#     4  12  28  49  76 109 150 195 250 310 376 454
#     4  11  26  49  80 111 156 203 256 313 386 451
#     4  11  26  46  72 111 157 190 263 308 383 446
#     4  11  26  49  74 112 156 204 252 319 380 466
#     4  10  23  46  68 108 135 187 245 296 361 439
#     4  11  24  46  73 110 144 203 239 320 363 451
#     4  10  23  43  73  97 144 184 241 300 363 429
#
# _framework density 26.449625000000001
#
# number of rings (size 3 to 8) (size 9 to 14) (size 15 to 20)
#    0.000    1.143    0.000    5.143    2.000   12.571 
#    5.143    0.000    0.000    0.000    0.000    0.000 
#    0.000    0.000    0.000    0.000    0.000    0.000 
#
# Total GULP energy -78473.688641 kJ/mol
# GULP energy per Si atom -5605.263474 kJ/mol
# Density = 2.638942 g / cm^3
# Si number density = 26.449625 Si / 1000 Ang^3
#
#
#
# Elastic Constant Matrix: (Units=GPa)
#
#
# Indices 1 2 3 4 5 6 
#
# 1 167.5922 24.3810 20.9461 0.0000 -20.7306 0.0000
# 2 24.3810 100.0128 21.1876 0.0000 -10.2363 0.0000
# 3 20.9461 21.1876 80.1569 0.0000 -19.4799 0.0000
# 4 0.0000 0.0000 0.0000 44.7940 0.0000 4.4822
# 5 -20.7306 -10.2363 -19.4799 0.0000 35.2292 0.0000
# 6 0.0000 0.0000 0.0000 4.4822 0.0000 40.2715
#
#
#
# Elastic Compliance Matrix: (Units=1/GPa)
#
#
# Indices 1 2 3 4 5 6 
#
# 1 0.006610 -0.001147 -0.000647 0.000000 0.003199 0.000000
# 2 -0.001147 0.010887 -0.002280 0.000000 0.001228 0.000000
# 3 -0.000647 -0.002280 0.015011 0.000000 0.007257 0.000000
# 4 0.000000 0.000000 0.000000 0.022576 0.000000 -0.002513
# 5 0.003199 0.001228 0.007257 0.000000 0.034638 0.000000
# 6 0.000000 0.000000 0.000000 -0.002513 0.000000 0.025111
#
#
# Mechanical properties :
#
#
# Convention : Reuss Voigt Hill
#
# Bulk Modulus (GPa) = 41.04880 53.42126 47.23503
# Shear Modulus (GPa) = 38.13897 42.80877 40.47387
#
# Velocity S-wave (km/s) = 3.80142 4.02743 3.91605
# Velocity P-wave (km/s) = 5.90093 6.47056 6.19230
#
# Compressibility (1/GPa) = 0.02436125
#
# Stress axis : x y z
#
# Youngs Moduli (GPa) = 151.28008 91.85324 66.61893
#
# Poissons Ratio (x) = 0.10536 0.04309
# Poissons Ratio (y) = 0.17352 0.15186
# Poissons Ratio (z) = 0.09784 0.20939
#
# Static dielectric constant tensor:
#      x y z
#    x 2.069380 0.000000 -0.043150 
#    y 0.000000 2.080630 0.000000 
#    z -0.043150 0.000000 2.141610 
# 
# From -- ./inp_files/15305.got.cif
#   From: 2010.05.17/outbox.cif.g08.bks.cpg/sg4_8_cif.got.tgz:15305.got - 2010.06.03 18:43:04.
