data_PCOD9117902
_publ_section_title
;
Structure prediction by ZEFSAII (Michael W. Deem and Ramdas Pophale) SiO2 
 PCOD9117902
Probable space group: P 21
;
_chemical_formula_sum "Si O2"
_cell_formula_units_Z 14
_cell_length_a 9.250889
_cell_length_b 9.532526
_cell_length_c 7.249605
_cell_angle_alpha 90.000000
_cell_angle_beta 128.410483
_cell_angle_gamma 90.000000
_cell_volume 500.943843
_symmetry_space_group_name_H-M "P 21"
_symmetry_group_IT_number 4
_symmetry_cell_setting 'monoclinic'
loop_
_space_group_symop_operation_xyz
x,y,z
-x,1/2+y,-z
loop_
_atom_site_type_symbol
_atom_site_label
_atom_site_fract_x
_atom_site_fract_y
_atom_site_fract_z
Si Si1 0.458362 0.522260 0.016087
Si Si2 0.720227 0.243325 0.844071
Si Si3 0.276903 0.314158 0.116805
Si Si4 0.874973 0.690474 0.691592
Si Si5 0.875166 0.477259 0.385383
Si Si6 0.913048 0.213669 0.627333
Si Si7 0.365340 0.426413 0.569262
O O1 0.369975 0.532604 0.743960
O O2 0.374968 0.632985 0.092729
O O3 0.418843 0.369665 0.078934
O O4 0.675309 0.529856 0.167303
O O5 0.752967 0.211641 0.653097
O O6 0.705540 0.928549 0.700554
O O7 0.931511 0.253775 0.084327
O O8 0.266266 0.179127 0.245520
O O9 0.088632 0.293267 0.857430
O O10 0.907220 0.547988 0.611441
O O11 0.015351 0.557568 0.362512
O O12 0.869672 0.311853 0.418226
O O13 0.423456 0.871169 0.271254
O O14 0.234262 0.296173 0.528537
#
# Coordination Sequence:
#
# PCOD9117902 Si02
#       7
#     2   2   2   2   2   2   2
#     4  12  24  47  82 115 166 216 282 352 431 507
#     4  11  24  51  74 113 163 225 270 345 435 492
#     4   9  22  48  75 112 158 214 268 356 412 503
#     4   9  22  46  74 111 162 207 276 343 417 502
#     4  12  26  49  82 125 167 229 286 360 423 515
#     4  11  27  52  83 121 177 227 288 355 431 510
#     4  10  23  49  76 115 159 208 284 341 417 515
#
# _framework density 27.947241999999999
#
# number of rings (size 3 to 8) (size 9 to 14) (size 15 to 20)
#    0.857    0.571    1.429    2.571    2.000    1.143 
#   18.000    0.000    3.143    0.000    0.000    0.000 
#    0.000    0.000    0.000    0.000    0.000    0.000 
#
# Total GULP energy -78220.289269 kJ/mol
# GULP energy per Si atom -5587.163519 kJ/mol
# Density = 2.788363 g / cm^3
# Si number density = 27.947242 Si / 1000 Ang^3
#
#
#
# Elastic Constant Matrix: (Units=GPa)
#
#
# Indices 1 2 3 4 5 6 
#
# 1 167.4062 38.6879 36.7757 0.0000 -14.0291 0.0000
# 2 38.6879 113.5436 25.0643 0.0000 -9.7583 0.0000
# 3 36.7757 25.0643 117.5068 0.0000 -9.2841 0.0000
# 4 0.0000 0.0000 0.0000 15.4544 0.0000 -1.6648
# 5 -14.0291 -9.7583 -9.2841 0.0000 62.0142 0.0000
# 6 0.0000 0.0000 0.0000 -1.6648 0.0000 39.9881
#
#
#
# Elastic Compliance Matrix: (Units=1/GPa)
#
#
# Indices 1 2 3 4 5 6 
#
# 1 0.006859 -0.001883 -0.001665 0.000000 0.001006 0.000000
# 2 -0.001883 0.009844 -0.001439 0.000000 0.000908 0.000000
# 3 -0.001665 -0.001439 0.009402 0.000000 0.000804 0.000000
# 4 0.000000 0.000000 0.000000 0.064998 0.000000 0.002706
# 5 0.001006 0.000908 0.000804 0.000000 0.016616 0.000000
# 6 0.000000 0.000000 0.000000 0.002706 0.000000 0.025120
#
#
# Mechanical properties :
#
#
# Convention : Reuss Voigt Hill
#
# Bulk Modulus (GPa) = 61.99379 66.61249 64.30314
# Shear Modulus (GPa) = 33.74034 43.35327 38.54680
#
# Velocity S-wave (km/s) = 3.47837 3.94287 3.71788
# Velocity P-wave (km/s) = 6.19376 6.67945 6.44119
#
# Compressibility (1/GPa) = 0.01613065
#
# Stress axis : x y z
#
# Youngs Moduli (GPa) = 145.79781 101.58080 106.36224
#
# Poissons Ratio (x) = 0.19127 0.17714
# Poissons Ratio (y) = 0.27452 0.15304
# Poissons Ratio (z) = 0.24282 0.14616
#
# Static dielectric constant tensor:
#      x y z
#    x 2.163190 0.000000 -0.034050 
#    y 0.000000 2.305000 0.000000 
#    z -0.034050 0.000000 2.144580 
# 
# From -- ./inp_files/8454.got.cif
#   From: 2010.05.17/outbox.cif.g08.bks.cpg/sg4_5_cif.got.tgz:8454.got - 2010.06.03 18:43:04.
