data_PCOD9117386
_publ_section_title
;
Structure prediction by ZEFSAII (Michael W. Deem and Ramdas Pophale) SiO2 
 PCOD9117386
Probable space group: P 21
;
_chemical_formula_sum "Si O2"
_cell_formula_units_Z 16
_cell_length_a 17.753309
_cell_length_b 7.206838
_cell_length_c 13.375670
_cell_angle_alpha 90.000000
_cell_angle_beta 21.125268
_cell_angle_gamma 90.000000
_cell_volume 616.785704
_symmetry_space_group_name_H-M "P 21"
_symmetry_group_IT_number 4
_symmetry_cell_setting 'monoclinic'
loop_
_space_group_symop_operation_xyz
x,y,z
-x,1/2+y,-z
loop_
_atom_site_type_symbol
_atom_site_label
_atom_site_fract_x
_atom_site_fract_y
_atom_site_fract_z
Si Si1 0.693842 0.904190 0.526655
Si Si2 0.711552 0.939901 0.868545
Si Si3 0.580356 0.676424 0.862867
Si Si4 0.924521 0.983554 0.967254
Si Si5 0.445040 0.661934 0.452530
Si Si6 0.405367 0.040996 0.429391
Si Si7 0.908458 0.592815 0.926109
Si Si8 0.052230 0.893529 0.602378
O O1 0.633141 0.823232 0.709578
O O2 0.587132 0.763353 0.579223
O O3 0.615047 0.103827 0.586992
O O4 0.945712 0.927920 0.216499
O O5 0.458084 0.885266 0.445498
O O6 0.657240 0.112107 0.862251
O O7 0.648811 0.761425 0.882600
O O8 0.936220 0.917417 0.640869
O O9 0.445200 0.480534 0.846377
O O10 0.744960 0.091797 0.245360
O O11 0.901455 0.762209 0.013232
O O12 0.924045 0.009907 0.847409
O O13 0.160889 0.019373 0.707045
O O14 0.668105 0.570220 0.197363
O O15 0.276467 0.991472 0.325094
O O16 0.022518 0.690386 0.689005
#
# Coordination Sequence:
#
# PCOD9117386 Si02
#       8
#     2   2   2   2   2   2   2   2
#     4  11  25  45  72 110 149 196 248 316 377 441
#     4  11  24  46  74 101 147 194 243 310 378 447
#     4  11  27  43  73 110 141 198 251 308 374 465
#     4  10  23  46  71 103 149 191 244 304 371 436
#     4  12  25  46  77 106 145 209 247 309 379 457
#     4  11  23  49  73 103 154 192 249 314 365 446
#     4  10  23  46  71 104 154 192 247 318 370 446
#     4  10  22  49  67 103 149 194 237 325 362 448
#
# _framework density 25.940939
#
# number of rings (size 3 to 8) (size 9 to 14) (size 15 to 20)
#    0.750    0.500    5.000    0.000    3.500    5.000 
#   11.250    0.000    0.000    0.000    0.000    0.000 
#    0.000    0.000    0.000    0.000    0.000    0.000 
#
# Total GULP energy -89422.230476 kJ/mol
# GULP energy per Si atom -5588.889405 kJ/mol
# Density = 2.588190 g / cm^3
# Si number density = 25.940939 Si / 1000 Ang^3
#
#
#
# Elastic Constant Matrix: (Units=GPa)
#
#
# Indices 1 2 3 4 5 6 
#
# 1 102.3442 31.1017 8.0218 0.0000 -16.1147 0.0000
# 2 31.1017 91.5438 20.8716 0.0000 -9.3088 0.0000
# 3 8.0218 20.8716 89.6565 0.0000 -8.4407 0.0000
# 4 0.0000 0.0000 0.0000 44.5848 0.0000 3.5449
# 5 -16.1147 -9.3088 -8.4407 0.0000 41.0283 0.0000
# 6 0.0000 0.0000 0.0000 3.5449 0.0000 46.1744
#
#
#
# Elastic Compliance Matrix: (Units=1/GPa)
#
#
# Indices 1 2 3 4 5 6 
#
# 1 0.011418 -0.003536 0.000151 0.000000 0.003714 0.000000
# 2 -0.003536 0.012812 -0.002573 0.000000 0.000989 0.000000
# 3 0.000151 -0.002573 0.011921 0.000000 0.001928 0.000000
# 4 0.000000 0.000000 0.000000 0.022567 0.000000 -0.001733
# 5 0.003714 0.000989 0.001928 0.000000 0.026453 0.000000
# 6 0.000000 0.000000 0.000000 -0.001733 0.000000 0.021790
#
#
# Mechanical properties :
#
#
# Convention : Reuss Voigt Hill
#
# Bulk Modulus (GPa) = 41.26251 44.83719 43.04985
# Shear Modulus (GPa) = 39.38364 41.26078 40.32221
#
# Velocity S-wave (km/s) = 3.90064 3.99252 3.94685
# Velocity P-wave (km/s) = 6.01893 6.21091 6.11568
#
# Compressibility (1/GPa) = 0.02423507
#
# Stress axis : x y z
#
# Youngs Moduli (GPa) = 87.57746 78.04963 83.88777
#
# Poissons Ratio (x) = 0.27600 -0.01268
# Poissons Ratio (y) = 0.30969 0.21586
# Poissons Ratio (z) = -0.01324 0.20084
#
# Static dielectric constant tensor:
#      x y z
#    x 2.056310 0.000000 0.064400 
#    y 0.000000 2.132930 0.000000 
#    z 0.064400 0.000000 2.031900 
# 
# From -- ./inp_files/12916.got.cif
#   From: 2010.05.17/outbox.cif.g08.bks.cpg/sg4_7_cif.got.tgz:12916.got - 2010.06.03 18:43:04.
