data_PCOD9117252
_publ_section_title
;
Structure prediction by ZEFSAII (Michael W. Deem and Ramdas Pophale) SiO2 
 PCOD9117252
Probable space group: P 21
;
_chemical_formula_sum "Si O2"
_cell_formula_units_Z 14
_cell_length_a 5.142270
_cell_length_b 16.458955
_cell_length_c 8.750493
_cell_angle_alpha 90.000000
_cell_angle_beta 60.456422
_cell_angle_gamma 90.000000
_cell_volume 644.316691
_symmetry_space_group_name_H-M "P 21"
_symmetry_group_IT_number 4
_symmetry_cell_setting 'monoclinic'
loop_
_space_group_symop_operation_xyz
x,y,z
-x,1/2+y,-z
loop_
_atom_site_type_symbol
_atom_site_label
_atom_site_fract_x
_atom_site_fract_y
_atom_site_fract_z
Si Si1 0.405658 0.578410 0.706218
Si Si2 0.964339 0.474188 0.645689
Si Si3 0.305040 0.150205 0.646887
Si Si4 0.678636 0.750744 0.084769
Si Si5 0.782626 0.356409 0.969357
Si Si6 0.668302 0.113864 0.933209
Si Si7 0.461507 0.484004 0.259475
O O1 0.133926 0.547606 0.681916
O O2 0.581736 0.645819 0.557702
O O3 0.647643 0.506564 0.672747
O O4 0.287149 0.608107 0.901359
O O5 0.187557 0.452362 0.441972
O O6 0.933000 0.407546 0.787662
O O7 0.433391 0.222943 0.713080
O O8 0.393420 0.061338 0.692958
O O9 0.948534 0.154922 0.767313
O O10 0.489755 0.813050 0.038740
O O11 0.629709 0.665491 0.012075
O O12 0.996883 0.790152 0.023036
O O13 0.681861 0.415020 0.136399
O O14 0.648397 0.025302 0.865657
#
# Coordination Sequence:
#
# PCOD9117252 Si02
#       7
#     2   2   2   2   2   2   2
#     4  11  23  38  72  97 120 160 221 270 315 371
#     4  11  23  41  64 102 121 163 214 271 321 374
#     4  10  22  45  66  97 128 168 223 266 315 380
#     4  11  26  43  65  90 139 176 208 262 327 392
#     4  12  24  44  64  95 135 172 210 265 333 378
#     4  11  21  44  68  95 126 171 217 268 316 375
#     4  10  23  39  73  94 125 168 219 272 311 380
#
# _framework density 21.728442999999999
#
# number of rings (size 3 to 8) (size 9 to 14) (size 15 to 20)
#    0.000    1.143    4.286    1.714    4.000    0.000 
#    2.571    2.857    0.000    0.000    0.000    0.000 
#    0.000    0.000    0.000    0.000    0.000    0.000 
#
# Total GULP energy -78155.600509 kJ/mol
# GULP energy per Si atom -5582.542893 kJ/mol
# Density = 2.167899 g / cm^3
# Si number density = 21.728443 Si / 1000 Ang^3
#
#
#
# Elastic Constant Matrix: (Units=GPa)
#
#
# Indices 1 2 3 4 5 6 
#
# 1 72.9876 -1.9884 -8.3207 0.0000 -3.4757 0.0000
# 2 -1.9884 25.6691 6.2145 0.0000 -13.5553 0.0000
# 3 -8.3207 6.2145 88.3664 0.0000 4.5948 0.0000
# 4 0.0000 0.0000 0.0000 17.2134 0.0000 0.6565
# 5 -3.4757 -13.5553 4.5948 0.0000 23.6252 0.0000
# 6 0.0000 0.0000 0.0000 0.6565 0.0000 37.3734
#
#
#
# Elastic Compliance Matrix: (Units=1/GPa)
#
#
# Indices 1 2 3 4 5 6 
#
# 1 0.014045 0.002652 0.000959 0.000000 0.003401 0.000000
# 2 0.002652 0.059338 -0.005772 0.000000 0.035559 0.000000
# 3 0.000959 -0.005772 0.012100 0.000000 -0.005524 0.000000
# 4 0.000000 0.000000 0.000000 0.058133 0.000000 -0.001021
# 5 0.003401 0.035559 -0.005524 0.000000 0.064305 0.000000
# 6 0.000000 0.000000 0.000000 -0.001021 0.000000 0.026775
#
#
# Mechanical properties :
#
#
# Convention : Reuss Voigt Hill
#
# Bulk Modulus (GPa) = 12.32134 19.87043 16.09589
# Shear Modulus (GPa) = 18.79190 28.38357 23.58774
#
# Velocity S-wave (km/s) = 2.94403 3.61818 3.29837
# Velocity P-wave (km/s) = 4.15203 5.15943 4.68290
#
# Compressibility (1/GPa) = 0.08115998
#
# Stress axis : x y z
#
# Youngs Moduli (GPa) = 71.20220 16.85252 82.64444
#
# Poissons Ratio (x) = -0.04469 -0.07926
# Poissons Ratio (y) = -0.18881 0.47705
# Poissons Ratio (z) = -0.06829 0.09728
#
# Static dielectric constant tensor:
#      x y z
#    x 1.829480 0.000000 -0.006900 
#    y 0.000000 1.815940 0.000000 
#    z -0.006900 0.000000 1.801010 
# 
# From -- ./inp_files/1781.got.cif
#   From: 2010.05.17/outbox.cif.g08.bks.cpg/sg4_1_cif.got.tgz:1781.got - 2010.06.03 18:43:04.
