data_PCOD9117424
_publ_section_title
;
Structure prediction by ZEFSAII (Michael W. Deem and Ramdas Pophale) SiO2 
 PCOD9117424
Probable space group: P 21
;
_chemical_formula_sum "Si O2"
_cell_formula_units_Z 14
_cell_length_a 9.062580
_cell_length_b 5.189091
_cell_length_c 21.408441
_cell_angle_alpha 90.000000
_cell_angle_beta 137.256608
_cell_angle_gamma 90.000000
_cell_volume 683.307681
_symmetry_space_group_name_H-M "P 21"
_symmetry_group_IT_number 4
_symmetry_cell_setting 'monoclinic'
loop_
_space_group_symop_operation_xyz
x,y,z
-x,1/2+y,-z
loop_
_atom_site_type_symbol
_atom_site_label
_atom_site_fract_x
_atom_site_fract_y
_atom_site_fract_z
Si Si1 0.778087 0.868360 0.207008
Si Si2 0.519496 0.809175 0.466135
Si Si3 0.424555 0.132015 0.330962
Si Si4 0.799735 0.504815 0.464825
Si Si5 0.412688 0.941914 0.004154
Si Si6 0.029586 0.870431 0.802188
Si Si7 0.737104 0.856073 0.341941
O O1 0.898406 0.620593 0.214858
O O2 0.779157 0.863441 0.281984
O O3 0.885107 0.123832 0.210568
O O4 0.526614 0.875064 0.104822
O O5 0.441758 0.547004 0.475144
O O6 0.728807 0.724139 0.491705
O O7 0.361737 0.917652 0.363214
O O8 0.634391 0.273042 0.425942
O O9 0.223639 0.324141 0.262919
O O10 0.519702 0.997871 0.298573
O O11 0.737777 0.575915 0.374460
O O12 0.050352 0.463947 0.556013
O O13 0.163952 0.887945 0.909098
O O14 0.537573 0.739728 0.996862
#
# Coordination Sequence:
#
# PCOD9117424 Si02
#       7
#     2   2   2   2   2   2   2
#     4  10  23  40  70  95 120 163 217 255 309 392
#     4  11  24  40  61  88 121 158 211 268 312 361
#     4  11  25  42  60  90 131 169 208 263 323 369
#     4  11  24  42  61  83 127 178 208 258 312 369
#     4   8  16  38  63  93 123 152 195 260 322 369
#     4  10  23  39  67  97 125 157 205 272 322 362
#     4  11  25  41  62  88 129 175 218 250 314 376
#
# _framework density 20.488572000000001
#
# number of rings (size 3 to 8) (size 9 to 14) (size 15 to 20)
#    0.000    1.714    2.857    0.000    8.000    1.143 
#    0.000    0.000    3.143    0.000    0.000    0.000 
#    0.000    0.000    0.000    0.000    0.000    0.000 
#
# Total GULP energy -78040.401209 kJ/mol
# GULP energy per Si atom -5574.314372 kJ/mol
# Density = 2.044194 g / cm^3
# Si number density = 20.488572 Si / 1000 Ang^3
#
#
#
# Elastic Constant Matrix: (Units=GPa)
#
#
# Indices 1 2 3 4 5 6 
#
# 1 63.0382 25.7875 59.7968 0.0000 0.9959 0.0000
# 2 25.7875 112.8364 21.2991 0.0000 0.7691 0.0000
# 3 59.7968 21.2991 87.0888 0.0000 -1.6132 0.0000
# 4 0.0000 0.0000 0.0000 24.5814 0.0000 1.6830
# 5 0.9959 0.7691 -1.6132 0.0000 23.4250 0.0000
# 6 0.0000 0.0000 0.0000 1.6830 0.0000 30.1414
#
#
#
# Elastic Compliance Matrix: (Units=1/GPa)
#
#
# Indices 1 2 3 4 5 6 
#
# 1 0.048415 -0.004977 -0.032102 0.000000 -0.004106 0.000000
# 2 -0.004977 0.009808 0.001018 0.000000 -0.000040 0.000000
# 3 -0.032102 0.001018 0.033342 0.000000 0.003628 0.000000
# 4 0.000000 0.000000 0.000000 0.040837 0.000000 -0.002280
# 5 -0.004106 -0.000040 0.003628 0.000000 0.043115 0.000000
# 6 0.000000 0.000000 0.000000 -0.002280 0.000000 0.033304
#
#
# Mechanical properties :
#
#
# Convention : Reuss Voigt Hill
#
# Bulk Modulus (GPa) = 51.43001 52.97000 52.20001
# Shear Modulus (GPa) = 17.39583 26.03490 21.71536
#
# Velocity S-wave (km/s) = 2.91701 3.56856 3.25911
# Velocity P-wave (km/s) = 6.04165 6.54897 6.30042
#
# Compressibility (1/GPa) = 0.01944390
#
# Stress axis : x y z
#
# Youngs Moduli (GPa) = 20.65465 101.95759 29.99195
#
# Poissons Ratio (x) = 0.50747 0.96279
# Poissons Ratio (y) = 0.10280 -0.03053
# Poissons Ratio (z) = 0.66305 -0.10379
#
# Static dielectric constant tensor:
#      x y z
#    x 1.769580 0.000000 0.025050 
#    y 0.000000 1.863670 0.000000 
#    z 0.025050 0.000000 1.772170 
# 
# From -- ./inp_files/9040.got.cif
#   From: 2010.05.17/outbox.cif.g08.bks.cpg/sg4_5_cif.got.tgz:9040.got - 2010.06.03 18:43:04.
