data_PCOD9117486
_publ_section_title
;
Structure prediction by ZEFSAII (Michael W. Deem and Ramdas Pophale) SiO2 
 PCOD9117486
Probable space group: P 21
;
_chemical_formula_sum "Si O2"
_cell_formula_units_Z 16
_cell_length_a 13.457128
_cell_length_b 8.992472
_cell_length_c 5.502035
_cell_angle_alpha 90.000000
_cell_angle_beta 70.747194
_cell_angle_gamma 90.000000
_cell_volume 628.579691
_symmetry_space_group_name_H-M "P 21"
_symmetry_group_IT_number 4
_symmetry_cell_setting 'monoclinic'
loop_
_space_group_symop_operation_xyz
x,y,z
-x,1/2+y,-z
loop_
_atom_site_type_symbol
_atom_site_label
_atom_site_fract_x
_atom_site_fract_y
_atom_site_fract_z
Si Si1 0.533871 0.267510 0.299615
Si Si2 0.783864 0.892452 0.641785
Si Si3 0.558689 0.978530 0.985022
Si Si4 0.652827 0.379041 0.606369
Si Si5 0.048044 0.846309 0.024368
Si Si6 0.147906 0.723532 0.433316
Si Si7 0.126939 0.175283 0.071788
Si Si8 0.681375 0.679313 0.370642
O O1 0.639925 0.297525 0.358266
O O2 0.442648 0.197114 0.540616
O O3 0.549859 0.148927 0.071219
O O4 0.486109 0.421544 0.236654
O O5 0.728429 0.826871 0.449596
O O6 0.842855 0.046417 0.550511
O O7 0.680141 0.925624 0.897903
O O8 0.861719 0.768091 0.689412
O O9 0.467761 0.903879 0.221703
O O10 0.734295 0.286763 0.694859
O O11 0.699484 0.543038 0.539725
O O12 0.104495 0.798358 0.720384
O O13 0.066624 0.019954 0.076164
O O14 0.087839 0.761936 0.233298
O O15 0.929956 0.792497 0.061838
O O16 0.248715 0.140396 0.914329
#
# Coordination Sequence:
#
# PCOD9117486 Si02
#       8
#     2   2   2   2   2   2   2   2
#     4  10  23  41  69 106 150 201 250 315 373 470
#     4  11  26  44  76 110 158 197 264 319 399 462
#     4  10  23  41  68 108 149 199 252 307 381 457
#     4  11  23  43  73 101 157 201 261 308 391 464
#     4  12  31  52  84 112 155 202 268 325 408 455
#     4  12  29  51  79 119 153 209 257 334 387 480
#     4  12  27  50  80 109 154 201 264 332 395 478
#     4  10  24  44  69 107 146 202 254 316 390 460
#
# _framework density 25.454211999999998
#
# number of rings (size 3 to 8) (size 9 to 14) (size 15 to 20)
#    0.000    1.000    1.250    3.000    8.750    9.000 
#    0.000    0.000    0.000    0.000    0.000    0.000 
#    0.000    0.000    0.000    0.000    0.000    0.000 
#
# Total GULP energy -89388.878768 kJ/mol
# GULP energy per Si atom -5586.804923 kJ/mol
# Density = 2.539628 g / cm^3
# Si number density = 25.454212 Si / 1000 Ang^3
#
#
#
# Elastic Constant Matrix: (Units=GPa)
#
#
# Indices 1 2 3 4 5 6 
#
# 1 75.0217 2.1734 32.6656 0.0000 -0.1049 0.0000
# 2 2.1734 102.4002 14.3551 0.0000 -11.7099 0.0000
# 3 32.6656 14.3551 81.5927 0.0000 -19.2247 0.0000
# 4 0.0000 0.0000 0.0000 31.2162 0.0000 12.9131
# 5 -0.1049 -11.7099 -19.2247 0.0000 46.9871 0.0000
# 6 0.0000 0.0000 0.0000 12.9131 0.0000 47.8511
#
#
#
# Elastic Compliance Matrix: (Units=1/GPa)
#
#
# Indices 1 2 3 4 5 6 
#
# 1 0.016517 0.000350 -0.007354 0.000000 -0.002885 0.000000
# 2 0.000350 0.010186 -0.001476 0.000000 0.001935 0.000000
# 3 -0.007354 -0.001476 0.017009 0.000000 0.006575 0.000000
# 4 0.000000 0.000000 0.000000 0.036060 0.000000 -0.009731
# 5 -0.002885 0.001935 0.006575 0.000000 0.024448 0.000000
# 6 0.000000 0.000000 0.000000 -0.009731 0.000000 0.023524
#
#
# Mechanical properties :
#
#
# Convention : Reuss Voigt Hill
#
# Bulk Modulus (GPa) = 37.37922 39.71139 38.54531
# Shear Modulus (GPa) = 32.54714 39.19891 35.87302
#
# Velocity S-wave (km/s) = 3.57971 3.92851 3.75816
# Velocity P-wave (km/s) = 5.63937 6.01769 5.83160
#
# Compressibility (1/GPa) = 0.02675283
#
# Stress axis : x y z
#
# Youngs Moduli (GPa) = 60.54239 98.16950 58.79204
#
# Poissons Ratio (x) = -0.03441 0.43236
# Poissons Ratio (y) = -0.02122 0.08681
# Poissons Ratio (z) = 0.44523 0.14495
#
# Static dielectric constant tensor:
#      x y z
#    x 1.957210 0.000000 -0.081690 
#    y 0.000000 1.980390 0.000000 
#    z -0.081690 0.000000 2.224040 
# 
# From -- ./inp_files/3699.got.cif
#   From: 2010.05.17/outbox.cif.g08.bks.cpg/sg4_2_cif.got.tgz:3699.got - 2010.06.03 18:43:04.
