data_PCOD9117557
_publ_section_title
;
Structure prediction by ZEFSAII (Michael W. Deem and Ramdas Pophale) SiO2 
 PCOD9117557
Probable space group: P 21
;
_chemical_formula_sum "Si O2"
_cell_formula_units_Z 12
_cell_length_a 8.925939
_cell_length_b 4.791935
_cell_length_c 22.349516
_cell_angle_alpha 90.000000
_cell_angle_beta 151.786678
_cell_angle_gamma 90.000000
_cell_volume 451.928467
_symmetry_space_group_name_H-M "P 21"
_symmetry_group_IT_number 4
_symmetry_cell_setting 'monoclinic'
loop_
_space_group_symop_operation_xyz
x,y,z
-x,1/2+y,-z
loop_
_atom_site_type_symbol
_atom_site_label
_atom_site_fract_x
_atom_site_fract_y
_atom_site_fract_z
Si Si1 0.853509 0.638010 0.468637
Si Si2 0.326122 0.059029 0.930355
Si Si3 0.962375 0.369046 0.708858
Si Si4 0.221492 0.916145 0.223566
Si Si5 0.916496 0.390485 0.326964
Si Si6 0.181330 0.300283 0.093700
O O1 0.542306 0.746604 0.326508
O O2 0.875795 0.306352 0.473050
O O3 0.916581 0.754546 0.556437
O O4 0.241373 0.180961 0.836135
O O5 0.069511 0.198075 0.883010
O O6 0.644733 0.229952 0.057602
O O7 0.064528 0.650521 0.715324
O O8 0.880088 0.154532 0.626168
O O9 0.929912 0.542888 0.988445
O O10 0.235113 0.952996 0.301256
O O11 0.186931 0.156348 0.161973
O O12 0.538265 0.417267 0.207105
#
# Coordination Sequence:
#
# PCOD9117557 Si02
#       6
#     2   2   2   2   2   2
#     4  12  27  49  76 104 152 195 250 307 369 452
#     4  10  23  42  69 101 144 190 241 300 374 440
#     4  10  26  43  73 104 144 185 247 302 373 434
#     4  10  28  49  73 110 143 206 246 299 385 442
#     4  12  25  48  71 111 144 192 249 310 371 430
#     4  12  29  45  74 112 155 194 255 312 374 456
#
# _framework density 26.552876000000001
#
# number of rings (size 3 to 8) (size 9 to 14) (size 15 to 20)
#    1.000    0.000    1.667    3.000    9.333    5.333 
#    0.000    0.000    0.000    0.000    0.000    0.000 
#    0.000    0.000    0.000    0.000    0.000    0.000 
#
# Total GULP energy -67008.091463 kJ/mol
# GULP energy per Si atom -5584.007622 kJ/mol
# Density = 2.649244 g / cm^3
# Si number density = 26.552876 Si / 1000 Ang^3
#
#
#
# Elastic Constant Matrix: (Units=GPa)
#
#
# Indices 1 2 3 4 5 6 
#
# 1 149.1736 48.3476 38.1971 0.0000 -30.8653 0.0000
# 2 48.3476 146.2134 20.2970 0.0000 -13.1121 0.0000
# 3 38.1971 20.2970 71.3061 0.0000 -10.2507 0.0000
# 4 0.0000 0.0000 0.0000 28.6755 0.0000 -18.5238
# 5 -30.8653 -13.1121 -10.2507 0.0000 38.4694 0.0000
# 6 0.0000 0.0000 0.0000 -18.5238 0.0000 43.9506
#
#
#
# Elastic Compliance Matrix: (Units=1/GPa)
#
#
# Indices 1 2 3 4 5 6 
#
# 1 0.009564 -0.002118 -0.003661 0.000000 0.005976 0.000000
# 2 -0.002118 0.007735 -0.000969 0.000000 0.000679 0.000000
# 3 -0.003661 -0.000969 0.016420 0.000000 0.001107 0.000000
# 4 0.000000 0.000000 0.000000 0.047920 0.000000 0.020197
# 5 0.005976 0.000679 0.001107 0.000000 0.031316 0.000000
# 6 0.000000 0.000000 0.000000 0.020197 0.000000 0.031265
#
#
# Mechanical properties :
#
#
# Convention : Reuss Voigt Hill
#
# Bulk Modulus (GPa) = 49.45193 64.48625 56.96909
# Shear Modulus (GPa) = 30.40272 39.54254 34.97263
#
# Velocity S-wave (km/s) = 3.38744 3.86320 3.63312
# Velocity P-wave (km/s) = 5.82787 6.65115 6.25307
#
# Compressibility (1/GPa) = 0.02022166
#
# Stress axis : x y z
#
# Youngs Moduli (GPa) = 104.55722 129.27881 60.89969
#
# Poissons Ratio (x) = 0.27386 0.22297
# Poissons Ratio (y) = 0.22149 0.05904
# Poissons Ratio (z) = 0.38281 0.12533
#
# Static dielectric constant tensor:
#      x y z
#    x 2.215720 0.000000 0.002440 
#    y 0.000000 2.007820 0.000000 
#    z 0.002440 0.000000 2.186400 
# 
# From -- ./inp_files/16356.got.cif
#   From: 2010.05.17/outbox.cif.g08.bks.cpg/sg4_9_cif.got.tgz:16356.got - 2010.06.03 18:43:04.
