data_PCOD9117990
_publ_section_title
;
Structure prediction by ZEFSAII (Michael W. Deem and Ramdas Pophale) SiO2 
 PCOD9117990
Probable space group: P 21
;
_chemical_formula_sum "Si O2"
_cell_formula_units_Z 16
_cell_length_a 7.400675
_cell_length_b 9.497000
_cell_length_c 15.084270
_cell_angle_alpha 90.000000
_cell_angle_beta 43.245718
_cell_angle_gamma 90.000000
_cell_volume 726.363706
_symmetry_space_group_name_H-M "P 21"
_symmetry_group_IT_number 4
_symmetry_cell_setting 'monoclinic'
loop_
_space_group_symop_operation_xyz
x,y,z
-x,1/2+y,-z
loop_
_atom_site_type_symbol
_atom_site_label
_atom_site_fract_x
_atom_site_fract_y
_atom_site_fract_z
Si Si1 0.254084 0.215780 0.897366
Si Si2 0.418745 0.846595 0.077868
Si Si3 0.065605 0.170817 0.677853
Si Si4 0.041714 0.070845 0.234718
Si Si5 0.126275 0.853813 0.633621
Si Si6 0.593789 0.188000 0.613433
Si Si7 0.838519 0.436417 0.987343
Si Si8 0.298934 0.410850 0.501073
O O1 0.335994 0.277854 0.963156
O O2 0.494221 0.239275 0.743722
O O3 0.002988 0.302306 0.956512
O O4 0.211058 0.049220 0.919249
O O5 0.418337 0.885624 0.974880
O O6 0.176681 0.739069 0.182503
O O7 0.316411 0.991606 0.160041
O O8 0.326553 0.179605 0.647435
O O9 0.129794 0.268259 0.569240
O O10 0.013595 0.010161 0.672126
O O11 0.039370 0.233080 0.258913
O O12 0.809418 0.999594 0.375222
O O13 0.005473 0.023230 0.145868
O O14 0.210915 0.792736 0.507559
O O15 0.400241 0.866915 0.590666
O O16 0.709450 0.028864 0.571981
#
# Coordination Sequence:
#
# PCOD9117990 Si02
#       8
#     2   2   2   2   2   2   2   2
#     4  12  23  42  66  87 119 163 201 267 309 356
#     4   9  21  42  58  84 122 157 198 252 308 359
#     4   9  15  32  58  88 123 156 196 245 296 364
#     4   8  17  38  53  83 120 156 199 244 294 360
#     4   9  15  27  59  91 116 164 197 234 304 360
#     4   9  17  32  54  86 123 155 200 243 296 366
#     4  10  24  43  61  88 116 160 210 253 305 369
#     4   8  14  26  55  83 119 157 189 236 296 354
#
# _framework density 22.027529999999999
#
# number of rings (size 3 to 8) (size 9 to 14) (size 15 to 20)
#    0.750    2.000    1.250    1.500    0.000    3.000 
#    2.250    3.750    0.000    0.000    0.000    0.000 
#    0.000    0.000    0.000    0.000    0.000    0.000 
#
# Total GULP energy -89203.178240 kJ/mol
# GULP energy per Si atom -5575.198640 kJ/mol
# Density = 2.197739 g / cm^3
# Si number density = 22.027530 Si / 1000 Ang^3
#
#
#
# Elastic Constant Matrix: (Units=GPa)
#
#
# Indices 1 2 3 4 5 6 
#
# 1 50.0122 20.0540 10.1887 0.0000 7.4559 0.0000
# 2 20.0540 151.4455 17.4107 0.0000 8.0658 0.0000
# 3 10.1887 17.4107 42.5975 0.0000 5.9022 0.0000
# 4 0.0000 0.0000 0.0000 10.4695 0.0000 -4.5404
# 5 7.4559 8.0658 5.9022 0.0000 11.5521 0.0000
# 6 0.0000 0.0000 0.0000 -4.5404 0.0000 17.8529
#
#
#
# Elastic Compliance Matrix: (Units=1/GPa)
#
#
# Indices 1 2 3 4 5 6 
#
# 1 0.023240 -0.002089 -0.003044 0.000000 -0.011985 0.000000
# 2 -0.002089 0.007262 -0.002102 0.000000 -0.002649 0.000000
# 3 -0.003044 -0.002102 0.026460 0.000000 -0.010087 0.000000
# 4 0.000000 0.000000 0.000000 0.107356 0.000000 0.027303
# 5 -0.011985 -0.002649 -0.010087 0.000000 0.101302 0.000000
# 6 0.000000 0.000000 0.000000 0.027303 0.000000 0.062957
#
#
# Mechanical properties :
#
#
# Convention : Reuss Voigt Hill
#
# Bulk Modulus (GPa) = 23.53345 37.70688 30.62017
# Shear Modulus (GPa) = 13.99731 21.06836 17.53284
#
# Velocity S-wave (km/s) = 2.52354 3.09602 2.82432
# Velocity P-wave (km/s) = 4.38154 5.47135 4.95649
#
# Compressibility (1/GPa) = 0.04249270
#
# Stress axis : x y z
#
# Youngs Moduli (GPa) = 43.02973 137.69670 37.79253
#
# Poissons Ratio (x) = 0.28766 0.11504
# Poissons Ratio (y) = 0.08989 0.07943
# Poissons Ratio (z) = 0.13099 0.28939
#
# Static dielectric constant tensor:
#      x y z
#    x 1.835920 0.000000 0.036440 
#    y 0.000000 1.830220 0.000000 
#    z 0.036440 0.000000 1.824020 
# 
# From -- ./inp_files/14880.got.cif
#   From: 2010.05.17/outbox.cif.g08.bks.cpg/sg4_8_cif.got.tgz:14880.got - 2010.06.03 18:43:04.
