data_PCOD9117795
_publ_section_title
;
Structure prediction by ZEFSAII (Michael W. Deem and Ramdas Pophale) SiO2 
 PCOD9117795
Probable space group: P 21
;
_chemical_formula_sum "Si O2"
_cell_formula_units_Z 14
_cell_length_a 15.150161
_cell_length_b 8.570158
_cell_length_c 7.268597
_cell_angle_alpha 90.000000
_cell_angle_beta 135.385663
_cell_angle_gamma 90.000000
_cell_volume 662.824616
_symmetry_space_group_name_H-M "P 21"
_symmetry_group_IT_number 4
_symmetry_cell_setting 'monoclinic'
loop_
_space_group_symop_operation_xyz
x,y,z
-x,1/2+y,-z
loop_
_atom_site_type_symbol
_atom_site_label
_atom_site_fract_x
_atom_site_fract_y
_atom_site_fract_z
Si Si1 0.951741 0.089580 0.016589
Si Si2 0.103946 0.931965 0.562862
Si Si3 0.311398 0.519823 0.197608
Si Si4 0.075485 0.386427 0.357677
Si Si5 0.649973 0.227754 0.097964
Si Si6 0.268301 0.235960 0.875894
Si Si7 0.514640 0.033096 0.198155
O O1 0.020376 0.252402 0.146048
O O2 0.812953 0.092856 0.896574
O O3 0.033055 0.975015 0.269407
O O4 0.939983 0.038549 0.788411
O O5 0.210536 0.802075 0.689016
O O6 0.004623 0.888332 0.573362
O O7 0.174153 0.088190 0.741693
O O8 0.417169 0.503918 0.508023
O O9 0.357957 0.632201 0.103733
O O10 0.273407 0.352934 0.055019
O O11 0.214856 0.337888 0.626527
O O12 0.612708 0.109078 0.202817
O O13 0.553689 0.373435 0.962987
O O14 0.404139 0.160891 0.052385
#
# Coordination Sequence:
#
# PCOD9117795 Si02
#       7
#     2   2   2   2   2   2   2
#     4  11  26  38  70 102 132 181 219 274 340 408
#     4  10  23  46  66  99 143 173 223 279 344 401
#     4  12  24  42  69 100 133 177 230 275 338 397
#     4  11  24  44  66 102 139 173 224 279 339 405
#     4  11  25  45  70  96 139 180 225 286 335 401
#     4  10  24  46  68  98 137 183 222 281 335 405
#     4  11  26  45  69  99 133 183 231 278 337 401
#
# _framework density 21.121724
#
# number of rings (size 3 to 8) (size 9 to 14) (size 15 to 20)
#    0.000    1.143    2.857    1.714    8.000    0.000 
#    0.000    2.857    0.000    0.000    0.000    0.000 
#    0.000    0.000    0.000    0.000    0.000    0.000 
#
# Total GULP energy -78307.639601 kJ/mol
# GULP energy per Si atom -5593.402829 kJ/mol
# Density = 2.107365 g / cm^3
# Si number density = 21.121724 Si / 1000 Ang^3
#
#
#
# Elastic Constant Matrix: (Units=GPa)
#
#
# Indices 1 2 3 4 5 6 
#
# 1 58.7357 41.8910 35.9640 0.0000 -3.9529 0.0000
# 2 41.8910 75.0260 52.4095 0.0000 6.3138 0.0000
# 3 35.9640 52.4095 115.9552 0.0000 11.2292 0.0000
# 4 0.0000 0.0000 0.0000 42.5159 0.0000 1.5902
# 5 -3.9529 6.3138 11.2292 0.0000 21.3795 0.0000
# 6 0.0000 0.0000 0.0000 1.5902 0.0000 31.6876
#
#
#
# Elastic Compliance Matrix: (Units=1/GPa)
#
#
# Indices 1 2 3 4 5 6 
#
# 1 0.031667 -0.016117 -0.003756 0.000000 0.012588 0.000000
# 2 -0.016117 0.027710 -0.006790 0.000000 -0.007597 0.000000
# 3 -0.003756 -0.006790 0.013413 0.000000 -0.005734 0.000000
# 4 0.000000 0.000000 0.000000 0.023565 0.000000 -0.001183
# 5 0.012588 -0.007597 -0.005734 0.000000 0.054356 0.000000
# 6 0.000000 0.000000 0.000000 -0.001183 0.000000 0.031617
#
#
# Mechanical properties :
#
#
# Convention : Reuss Voigt Hill
#
# Bulk Modulus (GPa) = 51.37575 56.69399 54.03487
# Shear Modulus (GPa) = 20.64887 27.08008 23.86448
#
# Velocity S-wave (km/s) = 3.13007 3.58452 3.36498
# Velocity P-wave (km/s) = 6.11879 6.63563 6.38244
#
# Compressibility (1/GPa) = 0.01946444
#
# Stress axis : x y z
#
# Youngs Moduli (GPa) = 31.57832 36.08778 74.55292
#
# Poissons Ratio (x) = 0.58163 0.28003
# Poissons Ratio (y) = 0.50895 0.50622
# Poissons Ratio (z) = 0.11861 0.24504
#
# Static dielectric constant tensor:
#      x y z
#    x 1.735530 0.000000 0.011900 
#    y 0.000000 1.774660 0.000000 
#    z 0.011900 0.000000 1.722430 
# 
# From -- ./inp_files/2365.got.cif
#   From: 2010.05.17/outbox.cif.g08.bks.cpg/sg4_2_cif.got.tgz:2365.got - 2010.06.03 18:43:04.
