data_PCOD9117643
_publ_section_title
;
Structure prediction by ZEFSAII (Michael W. Deem and Ramdas Pophale) SiO2 
 PCOD9117643
Probable space group: P 21
;
_chemical_formula_sum "Si O2"
_cell_formula_units_Z 16
_cell_length_a 7.852731
_cell_length_b 11.645166
_cell_length_c 8.685983
_cell_angle_alpha 90.000000
_cell_angle_beta 128.538737
_cell_angle_gamma 90.000000
_cell_volume 621.292385
_symmetry_space_group_name_H-M "P 21"
_symmetry_group_IT_number 4
_symmetry_cell_setting 'monoclinic'
loop_
_space_group_symop_operation_xyz
x,y,z
-x,1/2+y,-z
loop_
_atom_site_type_symbol
_atom_site_label
_atom_site_fract_x
_atom_site_fract_y
_atom_site_fract_z
Si Si1 0.847377 0.252610 0.889399
Si Si2 0.401022 0.350203 0.727343
Si Si3 0.990477 0.946708 0.191443
Si Si4 0.796912 0.469950 0.370504
Si Si5 0.413172 0.314106 0.084216
Si Si6 0.394238 0.551382 0.315861
Si Si7 0.086748 0.381015 0.297766
Si Si8 0.614647 0.579956 0.753269
O O1 0.601106 0.295149 0.752532
O O2 0.947498 0.312876 0.798276
O O3 0.814952 0.119224 0.860414
O O4 0.963856 0.299759 0.108694
O O5 0.408776 0.296161 0.899449
O O6 0.184597 0.326677 0.507853
O O7 0.470888 0.486091 0.767157
O O8 0.032025 0.976485 0.392014
O O9 0.741154 0.929737 0.997818
O O10 0.168890 0.014949 0.190025
O O11 0.601661 0.551219 0.319391
O O12 0.920831 0.476034 0.276612
O O13 0.654575 0.352055 0.274640
O O14 0.345277 0.198206 0.133813
O O15 0.298184 0.431901 0.330814
O O16 0.481209 0.607840 0.523768
#
# Coordination Sequence:
#
# PCOD9117643 Si02
#       8
#     2   2   2   2   2   2   2   2
#     4  11  23  45  70 105 143 189 240 301 366 435
#     4  10  23  45  70 104 149 185 241 310 354 436
#     4  10  23  43  72 102 146 189 244 302 367 430
#     4  11  23  45  74 107 143 191 243 305 360 436
#     4  12  22  42  74 108 142 192 244 303 367 430
#     4  10  24  47  74 107 149 193 243 302 370 438
#     4  11  23  48  76 105 148 194 241 307 363 436
#     4   9  23  45  72 104 146 197 242 300 373 439
#
# _framework density 25.752770000000002
#
# number of rings (size 3 to 8) (size 9 to 14) (size 15 to 20)
#    0.000    1.500    2.500    2.250    0.000    5.000 
#    2.250    6.250    0.000    1.500    0.000    0.000 
#    0.000    0.000    0.000    0.000    0.000    0.000 
#
# Total GULP energy -89327.047115 kJ/mol
# GULP energy per Si atom -5582.940445 kJ/mol
# Density = 2.569416 g / cm^3
# Si number density = 25.752770 Si / 1000 Ang^3
#
#
#
# Elastic Constant Matrix: (Units=GPa)
#
#
# Indices 1 2 3 4 5 6 
#
# 1 96.0280 0.4492 34.4656 0.0000 -3.8642 0.0000
# 2 0.4492 76.1151 45.0754 0.0000 -1.2129 0.0000
# 3 34.4656 45.0754 136.4187 0.0000 11.3780 0.0000
# 4 0.0000 0.0000 0.0000 42.8772 0.0000 -2.4061
# 5 -3.8642 -1.2129 11.3780 0.0000 39.6254 0.0000
# 6 0.0000 0.0000 0.0000 -2.4061 0.0000 27.7307
#
#
#
# Elastic Compliance Matrix: (Units=1/GPa)
#
#
# Indices 1 2 3 4 5 6 
#
# 1 0.011927 0.002324 -0.003979 0.000000 0.002377 0.000000
# 2 0.002324 0.016959 -0.006407 0.000000 0.002585 0.000000
# 3 -0.003979 -0.006407 0.010759 0.000000 -0.003673 0.000000
# 4 0.000000 0.000000 0.000000 0.023437 0.000000 0.002034
# 5 0.002377 0.002585 -0.003673 0.000000 0.026602 0.000000
# 6 0.000000 0.000000 0.000000 0.002034 0.000000 0.036238
#
#
# Mechanical properties :
#
#
# Convention : Reuss Voigt Hill
#
# Bulk Modulus (GPa) = 42.51450 52.06025 47.28737
# Shear Modulus (GPa) = 33.35885 37.28476 35.32181
#
# Velocity S-wave (km/s) = 3.60300 3.80912 3.70749
# Velocity P-wave (km/s) = 5.81837 6.29326 6.06047
#
# Compressibility (1/GPa) = 0.02352139
#
# Stress axis : x y z
#
# Youngs Moduli (GPa) = 83.84586 58.96434 92.94573
#
# Poissons Ratio (x) = -0.13704 0.36987
# Poissons Ratio (y) = -0.19486 0.59546
# Poissons Ratio (z) = 0.33365 0.37776
#
# Static dielectric constant tensor:
#      x y z
#    x 2.072810 0.000000 -0.001790 
#    y 0.000000 2.197590 0.000000 
#    z -0.001790 0.000000 2.081260 
# 
# From -- ./inp_files/6483.got.cif
#   From: 2010.05.17/outbox.cif.g08.bks.cpg/sg4_4_cif.got.tgz:6483.got - 2010.06.03 18:43:04.
