data_PCOD9117591
_publ_section_title
;
Structure prediction by ZEFSAII (Michael W. Deem and Ramdas Pophale) SiO2 
 PCOD9117591
Probable space group: P 21
;
_chemical_formula_sum "Si O2"
_cell_formula_units_Z 14
_cell_length_a 13.606428
_cell_length_b 8.376210
_cell_length_c 13.597698
_cell_angle_alpha 90.000000
_cell_angle_beta 159.153424
_cell_angle_gamma 90.000000
_cell_volume 551.498724
_symmetry_space_group_name_H-M "P 21"
_symmetry_group_IT_number 4
_symmetry_cell_setting 'monoclinic'
loop_
_space_group_symop_operation_xyz
x,y,z
-x,1/2+y,-z
loop_
_atom_site_type_symbol
_atom_site_label
_atom_site_fract_x
_atom_site_fract_y
_atom_site_fract_z
Si Si1 0.815903 0.610550 0.513879
Si Si2 0.469711 0.287894 0.913807
Si Si3 0.458641 0.570324 0.757343
Si Si4 0.920180 0.313993 0.497838
Si Si5 0.131272 0.285013 0.127759
Si Si6 0.987048 0.923521 0.776754
Si Si7 0.701329 0.457289 0.616470
O O1 0.563275 0.666120 0.207856
O O2 0.978570 0.485532 0.599427
O O3 0.984328 0.767009 0.704471
O O4 0.718325 0.528065 0.522969
O O5 0.398575 0.456205 0.794981
O O6 0.218837 0.241597 0.753023
O O7 0.744727 0.311522 0.233267
O O8 0.292386 0.728991 0.626379
O O9 0.311640 0.496876 0.523875
O O10 0.780976 0.549620 0.037818
O O11 0.985921 0.356638 0.089139
O O12 0.401790 0.388175 0.358366
O O13 0.216746 0.106058 0.236296
O O14 0.919195 0.315448 0.841130
#
# Coordination Sequence:
#
# PCOD9117591 Si02
#       7
#     2   2   2   2   2   2   2
#     4  10  25  44  67  98 136 178 229 283 345 410
#     4  11  23  41  62  90 133 176 218 275 345 406
#     4  11  22  39  64  93 126 176 225 277 341 406
#     4  12  24  39  64  96 128 168 227 284 330 399
#     4  11  24  44  69 101 136 182 232 284 349 415
#     4  10  23  43  65  90 133 179 220 275 348 417
#     4  11  25  44  71 102 140 183 229 288 350 419
#
# _framework density 25.385373000000001
#
# number of rings (size 3 to 8) (size 9 to 14) (size 15 to 20)
#    0.000    1.143    0.000    6.000    0.000   13.714 
#    0.000    0.000    0.000    0.000    0.000    0.000 
#    0.000    0.000    0.000    0.000    0.000    0.000 
#
# Total GULP energy -78417.476158 kJ/mol
# GULP energy per Si atom -5601.248297 kJ/mol
# Density = 2.532759 g / cm^3
# Si number density = 25.385373 Si / 1000 Ang^3
#
#
#
# Elastic Constant Matrix: (Units=GPa)
#
#
# Indices 1 2 3 4 5 6 
#
# 1 97.1840 45.8524 48.8295 0.0000 -3.2882 0.0000
# 2 45.8524 52.3900 17.1686 0.0000 -18.3547 0.0000
# 3 48.8295 17.1686 118.2517 0.0000 12.6901 0.0000
# 4 0.0000 0.0000 0.0000 29.9875 0.0000 -10.5865
# 5 -3.2882 -18.3547 12.6901 0.0000 34.8679 0.0000
# 6 0.0000 0.0000 0.0000 -10.5865 0.0000 46.6030
#
#
#
# Elastic Compliance Matrix: (Units=1/GPa)
#
#
# Indices 1 2 3 4 5 6 
#
# 1 0.022280 -0.019858 -0.005641 0.000000 -0.006299 0.000000
# 2 -0.019858 0.044209 -0.000536 0.000000 0.021594 0.000000
# 3 -0.005641 -0.000536 0.011396 0.000000 -0.004962 0.000000
# 4 0.000000 0.000000 0.000000 0.036255 0.000000 0.008236
# 5 -0.006299 0.021594 -0.004962 0.000000 0.041259 0.000000
# 6 0.000000 0.000000 0.000000 0.008236 0.000000 0.023329
#
#
# Mechanical properties :
#
#
# Convention : Reuss Voigt Hill
#
# Bulk Modulus (GPa) = 38.73721 54.61407 46.67564
# Shear Modulus (GPa) = 20.88533 32.69002 26.78767
#
# Velocity S-wave (km/s) = 2.87144 3.59242 3.25197
# Velocity P-wave (km/s) = 5.12702 6.22639 5.70326
#
# Compressibility (1/GPa) = 0.02581497
#
# Stress axis : x y z
#
# Youngs Moduli (GPa) = 44.88289 22.61990 87.74932
#
# Poissons Ratio (x) = 0.44919 0.49499
# Poissons Ratio (y) = 0.89130 0.04702
# Poissons Ratio (z) = 0.25318 0.01212
#
# Static dielectric constant tensor:
#      x y z
#    x 1.992790 0.000000 -0.007570 
#    y 0.000000 2.033210 0.000000 
#    z -0.007570 0.000000 1.918220 
# 
# From -- ./inp_files/14158.got.cif
#   From: 2010.05.17/outbox.cif.g08.bks.cpg/sg4_8_cif.got.tgz:14158.got - 2010.06.03 18:43:04.
