data_PCOD9117224
_publ_section_title
;
Structure prediction by ZEFSAII (Michael W. Deem and Ramdas Pophale) SiO2 
 PCOD9117224
Probable space group: P 21
;
_chemical_formula_sum "Si O2"
_cell_formula_units_Z 16
_cell_length_a 11.706022
_cell_length_b 11.230653
_cell_length_c 8.936241
_cell_angle_alpha 90.000000
_cell_angle_beta 37.825790
_cell_angle_gamma 90.000000
_cell_volume 720.469727
_symmetry_space_group_name_H-M "P 21"
_symmetry_group_IT_number 4
_symmetry_cell_setting 'monoclinic'
loop_
_space_group_symop_operation_xyz
x,y,z
-x,1/2+y,-z
loop_
_atom_site_type_symbol
_atom_site_label
_atom_site_fract_x
_atom_site_fract_y
_atom_site_fract_z
Si Si1 0.865817 0.745050 0.399216
Si Si2 0.784791 0.419514 0.661591
Si Si3 0.112244 0.581936 0.349503
Si Si4 0.840577 0.197253 0.406157
Si Si5 0.812232 0.412951 0.984547
Si Si6 0.483024 0.115932 0.204062
Si Si7 0.186491 0.172795 0.870932
Si Si8 0.584372 0.210189 0.399555
O O1 0.648232 0.735438 0.670903
O O2 0.875778 0.665280 0.237909
O O3 0.989436 0.686669 0.401519
O O4 0.974724 0.863693 0.239716
O O5 0.759325 0.299246 0.596430
O O6 0.653215 0.516031 0.718992
O O7 0.999696 0.463474 0.423539
O O8 0.746647 0.414187 0.878795
O O9 0.108128 0.594405 0.531545
O O10 0.322455 0.601702 0.081042
O O11 0.701896 0.164242 0.417323
O O12 0.028403 0.237363 0.129575
O O13 0.791172 0.541441 0.082406
O O14 0.694218 0.315870 0.201814
O O15 0.540238 0.111755 0.318970
O O16 0.380041 0.243574 0.670330
#
# Coordination Sequence:
#
# PCOD9117224 Si02
#       8
#     2   2   2   2   2   2   2   2
#     4  10  22  44  73  97 143 184 222 302 345 419
#     4  11  26  43  74 100 142 197 233 295 350 429
#     4  11  22  44  70 102 142 186 230 293 353 418
#     4  12  24  46  67 106 143 181 240 292 355 417
#     4  12  23  50  69 103 142 186 245 283 365 421
#     4  10  23  46  66 105 140 186 233 286 355 416
#     4  11  26  46  70 102 141 186 234 299 349 433
#     4  11  26  45  71 103 143 184 231 304 342 429
#
# _framework density 22.207735
#
# number of rings (size 3 to 8) (size 9 to 14) (size 15 to 20)
#    0.000    1.000    5.000    0.000    7.000    1.000 
#   11.250    1.250    0.000    0.000    0.000    0.000 
#    0.000    0.000    0.000    0.000    0.000    0.000 
#
# Total GULP energy -89333.148188 kJ/mol
# GULP energy per Si atom -5583.321762 kJ/mol
# Density = 2.215719 g / cm^3
# Si number density = 22.207735 Si / 1000 Ang^3
#
#
#
# Elastic Constant Matrix: (Units=GPa)
#
#
# Indices 1 2 3 4 5 6 
#
# 1 145.1078 46.4441 75.1274 0.0000 14.7728 0.0000
# 2 46.4441 57.0265 8.7963 0.0000 2.6517 0.0000
# 3 75.1274 8.7963 110.4355 0.0000 -12.3753 0.0000
# 4 0.0000 0.0000 0.0000 24.4963 0.0000 3.1559
# 5 14.7728 2.6517 -12.3753 0.0000 44.6976 0.0000
# 6 0.0000 0.0000 0.0000 3.1559 0.0000 22.2760
#
#
#
# Elastic Compliance Matrix: (Units=1/GPa)
#
#
# Indices 1 2 3 4 5 6 
#
# 1 0.018147 -0.012476 -0.012323 0.000000 -0.008669 0.000000
# 2 -0.012476 0.026427 0.006882 0.000000 0.004461 0.000000
# 3 -0.012323 0.006882 0.017855 0.000000 0.008608 0.000000
# 4 0.000000 0.000000 0.000000 0.041581 0.000000 -0.005891
# 5 -0.008669 0.004461 0.008608 0.000000 0.027356 0.000000
# 6 0.000000 0.000000 0.000000 -0.005891 0.000000 0.045726
#
#
# Mechanical properties :
#
#
# Convention : Reuss Voigt Hill
#
# Bulk Modulus (GPa) = 37.60025 63.70062 50.65043
# Shear Modulus (GPa) = 22.54370 30.44077 26.49223
#
# Velocity S-wave (km/s) = 3.18956 3.70635 3.45763
# Velocity P-wave (km/s) = 5.52561 6.86020 6.22875
#
# Compressibility (1/GPa) = 0.02659557
#
# Stress axis : x y z
#
# Youngs Moduli (GPa) = 55.10536 37.83970 56.00799
#
# Poissons Ratio (x) = 0.47207 0.69018
# Poissons Ratio (y) = 0.68747 -0.38544
# Poissons Ratio (z) = 0.67906 -0.26041
#
# Static dielectric constant tensor:
#      x y z
#    x 1.824790 0.000000 -0.015070 
#    y 0.000000 1.840280 0.000000 
#    z -0.015070 0.000000 1.873520 
# 
# From -- ./inp_files/8152.got.cif
#   From: 2010.05.17/outbox.cif.g08.bks.cpg/sg4_5_cif.got.tgz:8152.got - 2010.06.03 18:43:04.
