data_PCOD9117299
_publ_section_title
;
Structure prediction by ZEFSAII (Michael W. Deem and Ramdas Pophale) SiO2 
 PCOD9117299
Probable space group: P 21
;
_chemical_formula_sum "Si O2"
_cell_formula_units_Z 16
_cell_length_a 8.222504
_cell_length_b 10.951410
_cell_length_c 11.277040
_cell_angle_alpha 90.000000
_cell_angle_beta 137.591052
_cell_angle_gamma 90.000000
_cell_volume 684.854346
_symmetry_space_group_name_H-M "P 21"
_symmetry_group_IT_number 4
_symmetry_cell_setting 'monoclinic'
loop_
_space_group_symop_operation_xyz
x,y,z
-x,1/2+y,-z
loop_
_atom_site_type_symbol
_atom_site_label
_atom_site_fract_x
_atom_site_fract_y
_atom_site_fract_z
Si Si1 0.604817 0.271040 0.446376
Si Si2 0.940559 0.496738 0.560095
Si Si3 0.792209 0.782059 0.950910
Si Si4 0.340719 0.812016 0.256909
Si Si5 0.762142 0.004018 0.504594
Si Si6 0.332883 0.178336 0.735319
Si Si7 0.642067 0.905871 0.099117
Si Si8 0.194085 0.036659 0.890590
O O1 0.747238 0.396680 0.497668
O O2 0.616946 0.248966 0.592827
O O3 0.721171 0.147426 0.456112
O O4 0.343937 0.280417 0.246424
O O5 0.820201 0.623326 0.455306
O O6 0.067113 0.453676 0.506535
O O7 0.157518 0.509576 0.771215
O O8 0.635284 0.859239 0.961459
O O9 0.810555 0.646235 0.018006
O O10 0.058653 0.838260 0.091344
O O11 0.425012 0.720899 0.198728
O O12 0.515173 0.929723 0.363978
O O13 0.925558 0.996409 0.710666
O O14 0.244199 0.293470 0.764538
O O15 0.324532 0.080644 0.837129
O O16 0.388670 0.934194 0.025436
#
# Coordination Sequence:
#
# PCOD9117299 Si02
#       8
#     2   2   2   2   2   2   2   2
#     4  12  26  47  72 107 143 198 237 303 376 423
#     4  11  21  44  75  98 143 184 249 301 349 425
#     4  11  24  45  70 100 145 181 241 298 358 441
#     4  12  26  46  67 101 155 185 234 303 372 449
#     4  11  24  45  73 101 140 194 243 299 362 430
#     4  10  24  43  69 107 137 192 241 298 364 437
#     4  11  21  45  71 107 138 186 252 303 356 429
#     4  10  22  45  73 101 139 184 249 307 347 428
#
# _framework density 23.362632000000001
#
# number of rings (size 3 to 8) (size 9 to 14) (size 15 to 20)
#    0.000    1.000    3.750    3.750    1.750    1.000 
#   11.250    0.000    0.000    0.000    0.000    0.000 
#    0.000    0.000    0.000    0.000    0.000    0.000 
#
# Total GULP energy -89322.113103 kJ/mol
# GULP energy per Si atom -5582.632069 kJ/mol
# Density = 2.330946 g / cm^3
# Si number density = 23.362632 Si / 1000 Ang^3
#
#
#
# Elastic Constant Matrix: (Units=GPa)
#
#
# Indices 1 2 3 4 5 6 
#
# 1 72.4179 11.2885 8.8869 0.0000 9.4304 0.0000
# 2 11.2885 46.9598 11.0411 0.0000 16.7975 0.0000
# 3 8.8869 11.0411 130.5970 0.0000 24.4672 0.0000
# 4 0.0000 0.0000 0.0000 35.3143 0.0000 10.1101
# 5 9.4304 16.7975 24.4672 0.0000 41.8700 0.0000
# 6 0.0000 0.0000 0.0000 10.1101 0.0000 34.2476
#
#
#
# Elastic Compliance Matrix: (Units=1/GPa)
#
#
# Indices 1 2 3 4 5 6 
#
# 1 0.014533 -0.002700 -0.000393 0.000000 -0.001960 0.000000
# 2 -0.002700 0.025372 -0.000189 0.000000 -0.009460 0.000000
# 3 -0.000393 -0.000189 0.008612 0.000000 -0.004868 0.000000
# 4 0.000000 0.000000 0.000000 0.030931 0.000000 -0.009131
# 5 -0.001960 -0.009460 -0.004868 0.000000 0.030965 0.000000
# 6 0.000000 0.000000 0.000000 -0.009131 0.000000 0.031895
#
#
# Mechanical properties :
#
#
# Convention : Reuss Voigt Hill
#
# Bulk Modulus (GPa) = 23.83636 34.71196 29.27416
# Shear Modulus (GPa) = 30.70178 36.87027 33.78602
#
# Velocity S-wave (km/s) = 3.62904 3.97693 3.80696
# Velocity P-wave (km/s) = 5.27113 5.99818 5.64637
#
# Compressibility (1/GPa) = 0.04195271
#
# Stress axis : x y z
#
# Youngs Moduli (GPa) = 68.80822 39.41321 116.11813
#
# Poissons Ratio (x) = 0.10641 0.04569
# Poissons Ratio (y) = 0.18577 0.02194
# Poissons Ratio (z) = 0.02707 0.00745
#
# Static dielectric constant tensor:
#      x y z
#    x 1.882750 0.000000 0.002850 
#    y 0.000000 1.974320 0.000000 
#    z 0.002850 0.000000 2.014680 
# 
# From -- ./inp_files/8251.got.cif
#   From: 2010.05.17/outbox.cif.g08.bks.cpg/sg4_5_cif.got.tgz:8251.got - 2010.06.03 18:43:04.
