data_PCOD9117775
_publ_section_title
;
Structure prediction by ZEFSAII (Michael W. Deem and Ramdas Pophale) SiO2 
 PCOD9117775
Probable space group: P 21
;
_chemical_formula_sum "Si O2"
_cell_formula_units_Z 14
_cell_length_a 9.163332
_cell_length_b 5.335132
_cell_length_c 14.486289
_cell_angle_alpha 90.000000
_cell_angle_beta 49.947382
_cell_angle_gamma 90.000000
_cell_volume 542.094157
_symmetry_space_group_name_H-M "P 21"
_symmetry_group_IT_number 4
_symmetry_cell_setting 'monoclinic'
loop_
_space_group_symop_operation_xyz
x,y,z
-x,1/2+y,-z
loop_
_atom_site_type_symbol
_atom_site_label
_atom_site_fract_x
_atom_site_fract_y
_atom_site_fract_z
Si Si1 0.284441 0.897390 0.390139
Si Si2 0.373516 0.171031 0.537074
Si Si3 0.713739 0.663728 0.976497
Si Si4 0.976469 0.690776 0.634155
Si Si5 0.341998 0.493184 0.838559
Si Si6 0.920621 0.943545 0.222518
Si Si7 0.623837 0.891555 0.815703
O O1 0.495276 0.816300 0.275332
O O2 0.156902 0.703422 0.496143
O O3 0.305426 0.116400 0.459799
O O4 0.167400 0.986852 0.348899
O O5 0.502814 0.422523 0.489048
O O6 0.195921 0.218727 0.680038
O O7 0.682544 0.752424 0.885837
O O8 0.863933 0.434079 0.906977
O O9 0.772718 0.864474 0.030722
O O10 0.499454 0.617214 0.097722
O O11 0.832551 0.928286 0.687768
O O12 0.055469 0.634908 0.702624
O O13 0.203458 0.550607 0.810649
O O14 0.472217 0.723429 0.820622
#
# Coordination Sequence:
#
# PCOD9117775 Si02
#       7
#     2   2   2   2   2   2   2
#     4  11  24  45  77 110 153 203 257 316 399 462
#     4  12  26  50  79 117 159 203 257 327 396 470
#     4  11  24  46  72 102 144 198 258 311 392 457
#     4  10  24  44  70 111 147 196 260 316 384 466
#     4  11  25  44  69 107 148 193 255 315 390 461
#     4  11  26  46  69 112 148 201 257 320 393 464
#     4  10  23  45  72  99 141 196 250 321 372 462
#
# _framework density 25.825769999999999
#
# number of rings (size 3 to 8) (size 9 to 14) (size 15 to 20)
#    0.000    1.143    2.857    1.714    4.000    3.429 
#    2.571    0.000    0.000    0.000    0.000    0.000 
#    0.000    0.000    0.000    0.000    0.000    0.000 
#
# Total GULP energy -78184.786042 kJ/mol
# GULP energy per Si atom -5584.627574 kJ/mol
# Density = 2.576699 g / cm^3
# Si number density = 25.825770 Si / 1000 Ang^3
#
#
#
# Elastic Constant Matrix: (Units=GPa)
#
#
# Indices 1 2 3 4 5 6 
#
# 1 175.7980 34.3168 68.0809 0.0000 25.1353 0.0000
# 2 34.3168 81.9520 35.4597 0.0000 0.3458 0.0000
# 3 68.0809 35.4597 83.9337 0.0000 21.1574 0.0000
# 4 0.0000 0.0000 0.0000 32.9023 0.0000 2.8610
# 5 25.1353 0.3458 21.1574 0.0000 39.0598 0.0000
# 6 0.0000 0.0000 0.0000 2.8610 0.0000 18.5098
#
#
#
# Elastic Compliance Matrix: (Units=1/GPa)
#
#
# Indices 1 2 3 4 5 6 
#
# 1 0.008489 -0.000994 -0.005896 0.000000 -0.002260 0.000000
# 2 -0.000994 0.015553 -0.006822 0.000000 0.004197 0.000000
# 3 -0.005896 -0.006822 0.021549 0.000000 -0.007818 0.000000
# 4 0.000000 0.000000 0.000000 0.030807 0.000000 -0.004762
# 5 -0.002260 0.004197 -0.007818 0.000000 0.031254 0.000000
# 6 0.000000 0.000000 0.000000 -0.004762 0.000000 0.054762
#
#
# Mechanical properties :
#
#
# Convention : Reuss Voigt Hill
#
# Bulk Modulus (GPa) = 55.04622 68.59984 61.82303
# Shear Modulus (GPa) = 25.52406 31.68280 28.60343
#
# Velocity S-wave (km/s) = 3.14716 3.50636 3.33160
# Velocity P-wave (km/s) = 5.87936 6.55842 6.22816
#
# Compressibility (1/GPa) = 0.01816655
#
# Stress axis : x y z
#
# Youngs Moduli (GPa) = 117.80205 64.29724 46.40496
#
# Poissons Ratio (x) = 0.06391 0.27359
# Poissons Ratio (y) = 0.11710 0.31659
# Poissons Ratio (z) = 0.69454 0.43866
#
# Static dielectric constant tensor:
#      x y z
#    x 2.039080 0.000000 0.019640 
#    y 0.000000 2.172810 0.000000 
#    z 0.019640 0.000000 2.188930 
# 
# From -- ./inp_files/10746.got.cif
#   From: 2010.05.17/outbox.cif.g08.bks.cpg/sg4_6_cif.got.tgz:10746.got - 2010.06.03 18:43:04.
