data_PCOD9117040
_publ_section_title
;
Structure prediction by ZEFSAII (Michael W. Deem and Ramdas Pophale) SiO2 
 PCOD9117040
Probable space group: P 21
;
_chemical_formula_sum "Si O2"
_cell_formula_units_Z 14
_cell_length_a 16.894771
_cell_length_b 4.950359
_cell_length_c 15.412596
_cell_angle_alpha 90.000000
_cell_angle_beta 153.985047
_cell_angle_gamma 90.000000
_cell_volume 565.378213
_symmetry_space_group_name_H-M "P 21"
_symmetry_group_IT_number 4
_symmetry_cell_setting 'monoclinic'
loop_
_space_group_symop_operation_xyz
x,y,z
-x,1/2+y,-z
loop_
_atom_site_type_symbol
_atom_site_label
_atom_site_fract_x
_atom_site_fract_y
_atom_site_fract_z
Si Si1 0.480418 0.802500 0.370525
Si Si2 0.700899 0.097141 0.136070
Si Si3 0.479658 0.594958 0.869496
Si Si4 0.996386 0.206059 0.825805
Si Si5 0.275938 0.304540 0.230886
Si Si6 0.340086 0.939942 0.582245
Si Si7 0.019083 0.678692 0.730283
O O1 0.325365 0.613047 0.259133
O O2 0.658753 0.767310 0.606457
O O3 0.528130 0.658421 0.328519
O O4 0.407493 0.105494 0.304576
O O5 0.546868 0.290252 0.943163
O O6 0.644362 0.788738 0.062576
O O7 0.681940 0.138925 0.220330
O O8 0.877900 0.183278 0.258681
O O9 0.426817 0.709707 0.725168
O O10 0.094697 0.435069 0.864346
O O11 0.787411 0.291992 0.614929
O O12 0.025205 0.936069 0.799135
O O13 0.080225 0.220340 0.003775
O O14 0.189177 0.100819 0.488729
#
# Coordination Sequence:
#
# PCOD9117040 Si02
#       7
#     2   2   2   2   2   2   2
#     4  10  23  40  67  90 126 158 216 259 300 368
#     4  10  22  43  62  93 120 171 205 254 315 364
#     4  10  23  40  67  90 126 158 216 259 300 368
#     4  10  23  40  59  93 124 164 203 250 317 375
#     4  10  22  43  62  93 120 171 205 254 315 364
#     4  10  26  40  62 100 122 164 206 262 308 366
#     4  10  23  40  59  93 124 164 203 250 317 375
#
# _framework density 24.762187000000001
#
# number of rings (size 3 to 8) (size 9 to 14) (size 15 to 20)
#    0.857    1.143    0.000    1.714   10.000    0.000 
#    5.143    0.000    0.000    0.000    0.000    0.000 
#    0.000    0.000    0.000    0.000    0.000    0.000 
#
# Total GULP energy -78285.992499 kJ/mol
# GULP energy per Si atom -5591.856607 kJ/mol
# Density = 2.470583 g / cm^3
# Si number density = 24.762187 Si / 1000 Ang^3
#
#
#
# Elastic Constant Matrix: (Units=GPa)
#
#
# Indices 1 2 3 4 5 6 
#
# 1 61.8307 14.0488 4.1283 0.0000 -2.1465 0.0000
# 2 14.0488 111.6926 -16.7031 0.0000 4.4245 0.0000
# 3 4.1283 -16.7031 38.0912 0.0000 -6.0686 0.0000
# 4 0.0000 0.0000 0.0000 18.3811 0.0000 -7.0434
# 5 -2.1465 4.4245 -6.0686 0.0000 20.0565 0.0000
# 6 0.0000 0.0000 0.0000 -7.0434 0.0000 28.7074
#
#
#
# Elastic Compliance Matrix: (Units=1/GPa)
#
#
# Indices 1 2 3 4 5 6 
#
# 1 0.017003 -0.002610 -0.002738 0.000000 0.001567 0.000000
# 2 -0.002610 0.009997 0.004487 0.000000 -0.001127 0.000000
# 3 -0.002738 0.004487 0.029747 0.000000 0.007718 0.000000
# 4 0.000000 0.000000 0.000000 0.060049 0.000000 0.014733
# 5 0.001567 -0.001127 0.007718 0.000000 0.052611 0.000000
# 6 0.000000 0.000000 0.000000 0.014733 0.000000 0.038449
#
#
# Mechanical properties :
#
#
# Convention : Reuss Voigt Hill
#
# Bulk Modulus (GPa) = 18.17334 23.84028 21.00681
# Shear Modulus (GPa) = 21.93754 27.43837 24.68795
#
# Velocity S-wave (km/s) = 2.97969 3.33239 3.16096
# Velocity P-wave (km/s) = 4.38099 4.94520 4.67162
#
# Compressibility (1/GPa) = 0.05502565
#
# Stress axis : x y z
#
# Youngs Moduli (GPa) = 58.81152 100.02865 33.61714
#
# Poissons Ratio (x) = 0.26110 0.09203
# Poissons Ratio (y) = 0.15351 -0.15084
# Poissons Ratio (z) = 0.16101 -0.44884
#
# Static dielectric constant tensor:
#      x y z
#    x 1.980320 0.000000 -0.015830 
#    y 0.000000 1.943060 0.000000 
#    z -0.015830 0.000000 1.990690 
# 
# From -- ./inp_files/14275.got.cif
#   From: 2010.05.17/outbox.cif.g08.bks.cpg/sg4_8_cif.got.tgz:14275.got - 2010.06.03 18:43:04.
