data_PCOD9117744
_publ_section_title
;
Structure prediction by ZEFSAII (Michael W. Deem and Ramdas Pophale) SiO2 
 PCOD9117744
Probable space group: P 21
;
_chemical_formula_sum "Si O2"
_cell_formula_units_Z 16
_cell_length_a 11.813183
_cell_length_b 5.325340
_cell_length_c 9.368066
_cell_angle_alpha 90.000000
_cell_angle_beta 80.528572
_cell_angle_gamma 90.000000
_cell_volume 581.303709
_symmetry_space_group_name_H-M "P 21"
_symmetry_group_IT_number 4
_symmetry_cell_setting 'monoclinic'
loop_
_space_group_symop_operation_xyz
x,y,z
-x,1/2+y,-z
loop_
_atom_site_type_symbol
_atom_site_label
_atom_site_fract_x
_atom_site_fract_y
_atom_site_fract_z
Si Si1 0.396462 0.837210 0.874248
Si Si2 0.583949 0.625771 0.400409
Si Si3 0.868126 0.364196 0.427153
Si Si4 0.652727 0.665748 0.876105
Si Si5 0.115664 0.198086 0.310162
Si Si6 0.009108 0.374395 0.903210
Si Si7 0.340755 0.801412 0.371781
Si Si8 0.753563 0.014175 0.227118
O O1 0.528766 0.794404 0.885539
O O2 0.308874 0.607733 0.904392
O O3 0.393798 0.892212 0.707732
O O4 0.343002 0.073670 0.963754
O O5 0.448794 0.647420 0.403517
O O6 0.629278 0.555466 0.544907
O O7 0.655828 0.860090 0.329670
O O8 0.862604 0.605702 0.531865
O O9 0.783397 0.202881 0.553866
O O10 0.813081 0.251868 0.294772
O O11 0.001643 0.358676 0.357238
O O12 0.766432 0.790654 0.787229
O O13 0.647819 0.396522 0.791214
O O14 0.072776 0.973224 0.209242
O O15 0.137014 0.335300 0.815619
O O16 0.020629 0.616012 0.008535
#
# Coordination Sequence:
#
# PCOD9117744 Si02
#       8
#     2   2   2   2   2   2   2   2
#     4  12  25  46  71 107 153 199 251 314 393 467
#     4  12  24  43  74 105 149 188 254 317 385 460
#     4  10  23  45  67 106 144 191 247 308 380 448
#     4  11  25  43  68 105 149 194 244 309 382 466
#     4  10  25  44  74 108 156 198 256 320 388 466
#     4  11  27  48  78 113 153 208 265 316 388 469
#     4  11  22  42  68 106 141 189 248 301 380 452
#     4  11  25  45  76 106 147 199 251 325 382 466
#
# _framework density 27.524338
#
# number of rings (size 3 to 8) (size 9 to 14) (size 15 to 20)
#    0.000    1.000    2.500    3.000    3.500    7.000 
#    0.000    1.250    0.000    0.000    0.000    0.000 
#    0.000    0.000    0.000    0.000    0.000    0.000 
#
# Total GULP energy -89311.155171 kJ/mol
# GULP energy per Si atom -5581.947198 kJ/mol
# Density = 2.746169 g / cm^3
# Si number density = 27.524338 Si / 1000 Ang^3
#
#
#
# Elastic Constant Matrix: (Units=GPa)
#
#
# Indices 1 2 3 4 5 6 
#
# 1 125.1158 -1.5603 15.1709 0.0000 -35.5234 0.0000
# 2 -1.5603 81.9674 22.5544 0.0000 -3.1496 0.0000
# 3 15.1709 22.5544 50.5337 0.0000 -23.0004 0.0000
# 4 0.0000 0.0000 0.0000 43.4423 0.0000 -5.1840
# 5 -35.5234 -3.1496 -23.0004 0.0000 43.3534 0.0000
# 6 0.0000 0.0000 0.0000 -5.1840 0.0000 27.2142
#
#
#
# Elastic Compliance Matrix: (Units=1/GPa)
#
#
# Indices 1 2 3 4 5 6 
#
# 1 0.010461 0.000318 0.000830 0.000000 0.009035 0.000000
# 2 0.000318 0.014222 -0.007718 0.000000 -0.002801 0.000000
# 3 0.000830 -0.007718 0.030373 0.000000 0.016233 0.000000
# 4 0.000000 0.000000 0.000000 0.023554 0.000000 0.004487
# 5 0.009035 -0.002801 0.016233 0.000000 0.038878 0.000000
# 6 0.000000 0.000000 0.000000 0.004487 0.000000 0.037600
#
#
# Mechanical properties :
#
#
# Convention : Reuss Voigt Hill
#
# Bulk Modulus (GPa) = 23.85729 36.66077 30.25903
# Shear Modulus (GPa) = 27.44221 37.56547 32.50384
#
# Velocity S-wave (km/s) = 3.16098 3.69834 3.44017
# Velocity P-wave (km/s) = 4.69137 5.62008 5.17659
#
# Compressibility (1/GPa) = 0.04191591
#
# Stress axis : x y z
#
# Youngs Moduli (GPa) = 95.59078 70.31317 32.92426
#
# Poissons Ratio (x) = -0.02236 -0.02732
# Poissons Ratio (y) = -0.03040 0.25411
# Poissons Ratio (z) = -0.07933 0.54267
#
# Static dielectric constant tensor:
#      x y z
#    x 2.163140 0.000000 -0.025370 
#    y 0.000000 2.382110 0.000000 
#    z -0.025370 0.000000 2.117430 
# 
# From -- ./inp_files/7360.got.cif
#   From: 2010.05.17/outbox.cif.g08.bks.cpg/sg4_4_cif.got.tgz:7360.got - 2010.06.03 18:43:04.
