data_PCOD9117100
_publ_section_title
;
Structure prediction by ZEFSAII (Michael W. Deem and Ramdas Pophale) SiO2 
 PCOD9117100
Probable space group: P 21
;
_chemical_formula_sum "Si O2"
_cell_formula_units_Z 16
_cell_length_a 11.873061
_cell_length_b 7.874166
_cell_length_c 8.971083
_cell_angle_alpha 90.000000
_cell_angle_beta 53.760878
_cell_angle_gamma 90.000000
_cell_volume 676.467796
_symmetry_space_group_name_H-M "P 21"
_symmetry_group_IT_number 4
_symmetry_cell_setting 'monoclinic'
loop_
_space_group_symop_operation_xyz
x,y,z
-x,1/2+y,-z
loop_
_atom_site_type_symbol
_atom_site_label
_atom_site_fract_x
_atom_site_fract_y
_atom_site_fract_z
Si Si1 0.147259 0.954810 0.456659
Si Si2 0.458140 0.959913 0.337624
Si Si3 0.600180 0.245659 0.028239
Si Si4 0.791138 0.287390 0.135744
Si Si5 0.571700 0.120771 0.534574
Si Si6 0.667409 0.968390 0.752989
Si Si7 0.906526 0.739238 0.702492
Si Si8 0.984312 0.988296 0.865918
O O1 0.304147 0.957152 0.389973
O O2 0.066000 0.776823 0.527142
O O3 0.058064 0.052879 0.655517
O O4 0.131682 0.049909 0.312691
O O5 0.507876 0.766046 0.310207
O O6 0.546324 0.088676 0.170637
O O7 0.471726 0.031252 0.494912
O O8 0.701324 0.342751 0.062903
O O9 0.469976 0.362940 0.087886
O O10 0.669161 0.149548 0.835542
O O11 0.690811 0.217797 0.345867
O O12 0.894812 0.428278 0.118105
O O13 0.882113 0.126209 0.011488
O O14 0.643533 0.995754 0.595975
O O15 0.801454 0.858516 0.690702
O O16 0.904570 0.817330 0.869997
#
# Coordination Sequence:
#
# PCOD9117100 Si02
#       8
#     2   2   2   2   2   2   2   2
#     4  10  22  43  69  95 139 171 228 269 334 402
#     4  11  22  42  68  95 132 176 219 277 338 400
#     4  11  24  46  66  97 136 172 223 284 331 409
#     4  11  23  47  65  97 135 172 222 271 332 395
#     4  11  24  41  70  96 133 174 226 280 334 401
#     4  12  24  43  68  98 131 180 220 281 344 391
#     4  10  23  42  67 101 134 173 224 274 333 400
#     4  10  24  44  65  95 136 178 218 272 332 396
#
# _framework density 23.652273999999998
#
# number of rings (size 3 to 8) (size 9 to 14) (size 15 to 20)
#    0.750    0.500    3.750    2.250    3.500    1.000 
#    6.750    0.000    0.000    0.000    0.000    0.000 
#    0.000    0.000    0.000    0.000    0.000    0.000 
#
# Total GULP energy -89454.356315 kJ/mol
# GULP energy per Si atom -5590.897270 kJ/mol
# Density = 2.359844 g / cm^3
# Si number density = 23.652274 Si / 1000 Ang^3
#
#
#
# Elastic Constant Matrix: (Units=GPa)
#
#
# Indices 1 2 3 4 5 6 
#
# 1 128.9081 1.0374 11.0938 0.0000 2.6087 0.0000
# 2 1.0374 14.1282 8.2853 0.0000 -0.3064 0.0000
# 3 11.0938 8.2853 71.0851 0.0000 1.0272 0.0000
# 4 0.0000 0.0000 0.0000 43.6414 0.0000 3.8052
# 5 2.6087 -0.3064 1.0272 0.0000 22.6540 0.0000
# 6 0.0000 0.0000 0.0000 3.8052 0.0000 45.6445
#
#
#
# Elastic Compliance Matrix: (Units=1/GPa)
#
#
# Indices 1 2 3 4 5 6 
#
# 1 0.007880 0.000126 -0.001232 0.000000 -0.000850 0.000000
# 2 0.000126 0.076022 -0.008901 0.000000 0.001417 0.000000
# 3 -0.001232 -0.008901 0.015307 0.000000 -0.000673 0.000000
# 4 0.000000 0.000000 0.000000 0.023082 0.000000 -0.001924
# 5 -0.000850 0.001417 -0.000673 0.000000 0.044290 0.000000
# 6 0.000000 0.000000 0.000000 -0.001924 0.000000 0.022069
#
#
# Mechanical properties :
#
#
# Convention : Reuss Voigt Hill
#
# Bulk Modulus (GPa) = 12.62725 28.32825 20.47775
# Shear Modulus (GPa) = 21.27103 35.30164 28.28633
#
# Velocity S-wave (km/s) = 3.00212 3.86751 3.46197
# Velocity P-wave (km/s) = 4.16741 5.65213 4.96557
#
# Compressibility (1/GPa) = 0.07919383
#
# Stress axis : x y z
#
# Youngs Moduli (GPa) = 126.90866 13.15415 65.32928
#
# Poissons Ratio (x) = -0.00165 0.08049
# Poissons Ratio (y) = -0.01593 0.58148
# Poissons Ratio (z) = 0.15636 0.11708
#
# Static dielectric constant tensor:
#      x y z
#    x 1.864250 0.000000 0.010490 
#    y 0.000000 1.876030 0.000000 
#    z 0.010490 0.000000 1.911950 
# 
# From -- ./inp_files/8021.got.cif
#   From: 2010.05.17/outbox.cif.g08.bks.cpg/sg4_5_cif.got.tgz:8021.got - 2010.06.03 18:43:04.
