data_PCOD9117050
_publ_section_title
;
Structure prediction by ZEFSAII (Michael W. Deem and Ramdas Pophale) SiO2 
 PCOD9117050
Probable space group: P 21
;
_chemical_formula_sum "Si O2"
_cell_formula_units_Z 14
_cell_length_a 5.098997
_cell_length_b 9.141632
_cell_length_c 11.783317
_cell_angle_alpha 90.000000
_cell_angle_beta 78.691294
_cell_angle_gamma 90.000000
_cell_volume 538.593666
_symmetry_space_group_name_H-M "P 21"
_symmetry_group_IT_number 4
_symmetry_cell_setting 'monoclinic'
loop_
_space_group_symop_operation_xyz
x,y,z
-x,1/2+y,-z
loop_
_atom_site_type_symbol
_atom_site_label
_atom_site_fract_x
_atom_site_fract_y
_atom_site_fract_z
Si Si1 0.755130 0.130680 0.004205
Si Si2 0.901721 0.710465 0.492900
Si Si3 0.664086 0.363159 0.686879
Si Si4 0.950326 0.414317 0.897398
Si Si5 0.354938 0.598419 0.574976
Si Si6 0.526371 0.413725 0.111183
Si Si7 0.393219 0.060842 0.670352
O O1 0.974980 0.248899 0.941795
O O2 0.717976 0.017051 0.903300
O O3 0.528958 0.246117 0.068634
O O4 0.807971 0.023669 0.105435
O O5 0.098108 0.832453 0.424611
O O6 0.057387 0.658855 0.593161
O O7 0.589171 0.721049 0.551836
O O8 0.863187 0.600798 0.385992
O O9 0.811582 0.406732 0.788756
O O10 0.458833 0.479288 0.652682
O O11 0.493911 0.214196 0.716851
O O12 0.745442 0.479797 0.006894
O O13 0.387790 0.531379 0.445531
O O14 0.614522 0.440423 0.232034
#
# Coordination Sequence:
#
# PCOD9117050 Si02
#       7
#     2   2   2   2   2   2   2
#     4  10  24  39  67  96 144 177 245 286 366 422
#     4   9  22  40  64  98 130 185 230 296 355 428
#     4  11  21  42  68  98 140 191 239 292 371 432
#     4  10  25  40  69 105 137 189 233 308 351 449
#     4   9  22  39  63  99 127 177 237 286 351 430
#     4  10  22  43  65 102 135 189 235 296 359 443
#     4   9  20  39  66  94 135 190 229 298 359 432
#
# _framework density 25.99362
#
# number of rings (size 3 to 8) (size 9 to 14) (size 15 to 20)
#    1.714    0.571    1.429    0.000    6.000    1.143 
#    2.571    1.429    0.000    0.000    0.000    0.000 
#    0.000    0.000    0.000    0.000    0.000    0.000 
#
# Total GULP energy -78029.572626 kJ/mol
# GULP energy per Si atom -5573.540902 kJ/mol
# Density = 2.593446 g / cm^3
# Si number density = 25.993620 Si / 1000 Ang^3
#
#
#
# Elastic Constant Matrix: (Units=GPa)
#
#
# Indices 1 2 3 4 5 6 
#
# 1 108.9754 43.6327 30.0322 0.0000 38.7513 0.0000
# 2 43.6327 132.6403 43.3866 0.0000 33.1696 0.0000
# 3 30.0322 43.3866 110.0637 0.0000 30.6690 0.0000
# 4 0.0000 0.0000 0.0000 32.4198 0.0000 20.2305
# 5 38.7513 33.1696 30.6690 0.0000 50.3566 0.0000
# 6 0.0000 0.0000 0.0000 20.2305 0.0000 28.0852
#
#
#
# Elastic Compliance Matrix: (Units=1/GPa)
#
#
# Indices 1 2 3 4 5 6 
#
# 1 0.013138 -0.002063 -0.000401 0.000000 -0.008507 0.000000
# 2 -0.002063 0.009856 -0.002355 0.000000 -0.003470 0.000000
# 3 -0.000401 -0.002355 0.011568 0.000000 -0.005185 0.000000
# 4 0.000000 0.000000 0.000000 0.056031 0.000000 -0.040360
# 5 -0.008507 -0.003470 -0.005185 0.000000 0.031848 0.000000
# 6 0.000000 0.000000 0.000000 -0.040360 0.000000 0.064678
#
#
# Mechanical properties :
#
#
# Convention : Reuss Voigt Hill
#
# Bulk Modulus (GPa) = 40.12350 65.08695 52.60522
# Shear Modulus (GPa) = 24.38220 37.81420 31.09820
#
# Velocity S-wave (km/s) = 3.06601 3.81826 3.46262
# Velocity P-wave (km/s) = 5.29182 6.67328 6.02229
#
# Compressibility (1/GPa) = 0.02492305
#
# Stress axis : x y z
#
# Youngs Moduli (GPa) = 76.11477 101.46027 86.44173
#
# Poissons Ratio (x) = 0.20934 0.03467
# Poissons Ratio (y) = 0.15705 0.20360
# Poissons Ratio (z) = 0.03053 0.23898
#
# Static dielectric constant tensor:
#      x y z
#    x 2.585780 0.000000 -0.020430 
#    y 0.000000 2.153060 0.000000 
#    z -0.020430 0.000000 2.046260 
# 
# From -- ./inp_files/10294.got.cif
#   From: 2010.05.17/outbox.cif.g08.bks.cpg/sg4_6_cif.got.tgz:10294.got - 2010.06.03 18:43:04.
