data_PCOD9117115
_publ_section_title
;
Structure prediction by ZEFSAII (Michael W. Deem and Ramdas Pophale) SiO2 
 PCOD9117115
Probable space group: P 21
;
_chemical_formula_sum "Si O2"
_cell_formula_units_Z 12
_cell_length_a 13.445342
_cell_length_b 5.200059
_cell_length_c 15.186522
_cell_angle_alpha 90.000000
_cell_angle_beta 149.306255
_cell_angle_gamma 90.000000
_cell_volume 541.989463
_symmetry_space_group_name_H-M "P 21"
_symmetry_group_IT_number 4
_symmetry_cell_setting 'monoclinic'
loop_
_space_group_symop_operation_xyz
x,y,z
-x,1/2+y,-z
loop_
_atom_site_type_symbol
_atom_site_label
_atom_site_fract_x
_atom_site_fract_y
_atom_site_fract_z
Si Si1 0.684954 0.079030 0.735847
Si Si2 0.966149 0.568626 0.257410
Si Si3 0.079489 0.854970 0.599914
Si Si4 0.010370 0.768750 0.893808
Si Si5 0.615976 0.685589 0.097327
Si Si6 0.269028 0.880327 0.411103
O O1 0.672026 0.237741 0.634814
O O2 0.828685 0.845612 0.818010
O O3 0.464676 0.014208 0.592686
O O4 0.806875 0.208538 0.906325
O O5 0.961379 0.342796 0.326464
O O6 0.791602 0.740458 0.162745
O O7 0.930660 0.487247 0.130456
O O8 0.178428 0.693990 0.414980
O O9 0.281374 0.017489 0.746961
O O10 0.933626 0.073485 0.450518
O O11 0.912764 0.554894 0.757382
O O12 0.481306 0.456845 0.954677
#
# Coordination Sequence:
#
# PCOD9117115 Si02
#       6
#     2   2   2   2   2   2
#     4  11  22  40  67  94 132 192 215 274 350 401
#     4   9  26  40  67  94 138 174 229 294 334 411
#     4  10  22  43  71  96 135 180 224 281 360 411
#     4  11  22  41  66  96 140 173 232 279 338 414
#     4  10  22  43  71  96 135 180 224 281 360 411
#     4  11  22  41  66  96 140 173 232 279 338 414
#
# _framework density 22.140651999999999
#
# number of rings (size 3 to 8) (size 9 to 14) (size 15 to 20)
#    1.000    0.667    3.333    1.000    4.667    0.000 
#    3.000    3.333    0.000    0.000    0.000    0.000 
#    0.000    0.000    0.000    0.000    0.000    0.000 
#
# Total GULP energy -66830.215641 kJ/mol
# GULP energy per Si atom -5569.184637 kJ/mol
# Density = 2.209026 g / cm^3
# Si number density = 22.140652 Si / 1000 Ang^3
#
#
#
# Elastic Constant Matrix: (Units=GPa)
#
#
# Indices 1 2 3 4 5 6 
#
# 1 78.5517 18.8859 10.4420 0.0000 9.6653 0.0000
# 2 18.8859 70.0268 21.4999 0.0000 7.6221 0.0000
# 3 10.4420 21.4999 80.7574 0.0000 22.7841 0.0000
# 4 0.0000 0.0000 0.0000 45.7948 0.0000 -5.0420
# 5 9.6653 7.6221 22.7841 0.0000 19.4701 0.0000
# 6 0.0000 0.0000 0.0000 -5.0420 0.0000 66.8994
#
#
#
# Elastic Compliance Matrix: (Units=1/GPa)
#
#
# Indices 1 2 3 4 5 6 
#
# 1 0.014268 -0.003406 0.001021 0.000000 -0.006945 0.000000
# 2 -0.003406 0.016409 -0.003871 0.000000 -0.000204 0.000000
# 3 0.001021 -0.003871 0.019403 0.000000 -0.021697 0.000000
# 4 0.000000 0.000000 0.000000 0.022019 0.000000 0.001660
# 5 -0.006945 -0.000204 -0.021697 0.000000 0.080277 0.000000
# 6 0.000000 0.000000 0.000000 0.001660 0.000000 0.015073
#
#
# Mechanical properties :
#
#
# Convention : Reuss Voigt Hill
#
# Bulk Modulus (GPa) = 26.61767 36.77685 31.69726
# Shear Modulus (GPa) = 25.97629 38.33339 32.15484
#
# Velocity S-wave (km/s) = 3.42897 4.16547 3.81504
# Velocity P-wave (km/s) = 5.26548 6.30726 5.80977
#
# Compressibility (1/GPa) = 0.03756904
#
# Stress axis : x y z
#
# Youngs Moduli (GPa) = 70.08683 60.94091 51.53969
#
# Poissons Ratio (x) = 0.20754 -0.05263
# Poissons Ratio (y) = 0.23869 0.19950
# Poissons Ratio (z) = -0.07156 0.23589
#
# Static dielectric constant tensor:
#      x y z
#    x 1.765610 0.000000 0.011660 
#    y 0.000000 1.952880 0.000000 
#    z 0.011660 0.000000 1.691880 
# 
# From -- ./inp_files/3356.got.cif
#   From: 2010.05.17/outbox.cif.g08.bks.cpg/sg4_2_cif.got.tgz:3356.got - 2010.06.03 18:43:04.
