data_PCOD9117813
_publ_section_title
;
Structure prediction by ZEFSAII (Michael W. Deem and Ramdas Pophale) SiO2 
 PCOD9117813
Probable space group: P 21
;
_chemical_formula_sum "Si O2"
_cell_formula_units_Z 14
_cell_length_a 10.741726
_cell_length_b 9.619390
_cell_length_c 8.182506
_cell_angle_alpha 90.000000
_cell_angle_beta 42.583814
_cell_angle_gamma 90.000000
_cell_volume 572.115313
_symmetry_space_group_name_H-M "P 21"
_symmetry_group_IT_number 4
_symmetry_cell_setting 'monoclinic'
loop_
_space_group_symop_operation_xyz
x,y,z
-x,1/2+y,-z
loop_
_atom_site_type_symbol
_atom_site_label
_atom_site_fract_x
_atom_site_fract_y
_atom_site_fract_z
Si Si1 0.208078 0.748260 0.558590
Si Si2 0.182890 0.613656 0.057616
Si Si3 0.426217 0.528550 0.557181
Si Si4 0.355391 0.857960 0.083827
Si Si5 0.812828 0.556993 0.306890
Si Si6 0.718167 0.826240 0.567673
Si Si7 0.011224 0.028697 0.414430
O O1 0.332931 0.660883 0.560721
O O2 0.325917 0.779907 0.282380
O O3 0.039756 0.655830 0.654370
O O4 0.152278 0.897508 0.679819
O O5 0.277980 0.757329 0.016093
O O6 0.083843 0.557266 0.317824
O O7 0.015796 0.621380 0.086702
O O8 0.343603 0.523306 0.819784
O O9 0.645575 0.545880 0.341428
O O10 0.351812 0.396122 0.531824
O O11 0.225070 0.992081 0.214090
O O12 0.568067 0.876668 0.842580
O O13 0.732643 0.663156 0.521221
O O14 0.909528 0.893129 0.438117
#
# Coordination Sequence:
#
# PCOD9117813 Si02
#       7
#     2   2   2   2   2   2   2
#     4  10  25  44  70 103 139 181 242 283 354 423
#     4  11  24  42  73 102 143 179 232 297 351 421
#     4  11  26  46  65 103 145 185 237 283 358 433
#     4  11  22  46  73 101 142 179 244 299 344 419
#     4  12  23  43  69 102 141 186 229 288 356 416
#     4  11  25  43  75 101 140 189 234 294 354 418
#     4  10  23  46  69 106 134 185 238 292 349 420
#
# _framework density 24.470590999999999
#
# number of rings (size 3 to 8) (size 9 to 14) (size 15 to 20)
#    0.000    1.143    4.286    0.857    2.000    4.571 
#    0.000    2.857    0.000    0.000    0.000    0.000 
#    0.000    0.000    0.000    0.000    0.000    0.000 
#
# Total GULP energy -78324.481821 kJ/mol
# GULP energy per Si atom -5594.605844 kJ/mol
# Density = 2.441489 g / cm^3
# Si number density = 24.470591 Si / 1000 Ang^3
#
#
#
# Elastic Constant Matrix: (Units=GPa)
#
#
# Indices 1 2 3 4 5 6 
#
# 1 88.0443 30.9364 3.6999 0.0000 -11.6945 0.0000
# 2 30.9364 103.9594 -3.5938 0.0000 2.2599 0.0000
# 3 3.6999 -3.5938 53.9410 0.0000 -8.4773 0.0000
# 4 0.0000 0.0000 0.0000 21.6557 0.0000 5.2024
# 5 -11.6945 2.2599 -8.4773 0.0000 36.2811 0.0000
# 6 0.0000 0.0000 0.0000 5.2024 0.0000 27.4643
#
#
#
# Elastic Compliance Matrix: (Units=1/GPa)
#
#
# Indices 1 2 3 4 5 6 
#
# 1 0.013414 -0.004106 -0.000492 0.000000 0.004465 0.000000
# 2 -0.004106 0.010906 0.000720 0.000000 -0.001835 0.000000
# 3 -0.000492 0.000720 0.019297 0.000000 0.004305 0.000000
# 4 0.000000 0.000000 0.000000 0.048379 0.000000 -0.009164
# 5 0.004465 -0.001835 0.004305 0.000000 0.030122 0.000000
# 6 0.000000 0.000000 0.000000 -0.009164 0.000000 0.038147
#
#
# Mechanical properties :
#
#
# Convention : Reuss Voigt Hill
#
# Bulk Modulus (GPa) = 27.88533 34.22552 31.05543
# Shear Modulus (GPa) = 27.78173 31.40703 29.59438
#
# Velocity S-wave (km/s) = 3.37309 3.58643 3.48139
# Velocity P-wave (km/s) = 5.15660 5.58271 5.37388
#
# Compressibility (1/GPa) = 0.03586115
#
# Stress axis : x y z
#
# Youngs Moduli (GPa) = 74.54724 91.69476 51.82120
#
# Poissons Ratio (x) = 0.37649 0.02550
# Poissons Ratio (y) = 0.30608 -0.03731
# Poissons Ratio (z) = 0.03668 -0.06601
#
# Static dielectric constant tensor:
#      x y z
#    x 1.976620 0.000000 0.031100 
#    y 0.000000 1.904580 0.000000 
#    z 0.031100 0.000000 1.940180 
# 
# From -- ./inp_files/7916.got.cif
#   From: 2010.05.17/outbox.cif.g08.bks.cpg/sg4_4_cif.got.tgz:7916.got - 2010.06.03 18:43:04.
