data_PCOD9117611
_publ_section_title
;
Structure prediction by ZEFSAII (Michael W. Deem and Ramdas Pophale) SiO2 
 PCOD9117611
Probable space group: P 21
;
_chemical_formula_sum "Si O2"
_cell_formula_units_Z 10
_cell_length_a 5.732159
_cell_length_b 4.755756
_cell_length_c 19.416751
_cell_angle_alpha 90.000000
_cell_angle_beta 49.230636
_cell_angle_gamma 90.000000
_cell_volume 400.873855
_symmetry_space_group_name_H-M "P 21"
_symmetry_group_IT_number 4
_symmetry_cell_setting 'monoclinic'
loop_
_space_group_symop_operation_xyz
x,y,z
-x,1/2+y,-z
loop_
_atom_site_type_symbol
_atom_site_label
_atom_site_fract_x
_atom_site_fract_y
_atom_site_fract_z
Si Si1 0.495717 0.504740 0.756712
Si Si2 0.694153 0.982479 0.637266
Si Si3 0.618702 0.676603 0.517267
Si Si4 0.546943 0.359672 0.900291
Si Si5 0.876328 0.852156 0.897736
O O1 0.741838 0.742123 0.686276
O O2 0.537422 0.343292 0.820739
O O3 0.196627 0.704030 0.820814
O O4 0.510527 0.254559 0.698561
O O5 0.531470 0.823621 0.605519
O O6 0.025750 0.087563 0.548383
O O7 0.427459 0.403426 0.534048
O O8 0.627582 0.680875 0.901112
O O9 0.811178 0.168613 0.885378
O O10 0.231273 0.305155 0.002692
#
# Coordination Sequence:
#
# PCOD9117611 Si02
#       5
#     2   2   2   2   2
#     4  12  25  43  72 104 142 178 226 297 341 390
#     4  12  27  47  72 110 136 172 242 283 339 436
#     4  12  26  50  78  98 138 188 220 282 362 418
#     4  10  23  43  67  99 140 188 235 275 334 408
#     4  10  23  43  67  99 140 188 235 275 334 408
#
# _framework density 24.945499000000002
#
# number of rings (size 3 to 8) (size 9 to 14) (size 15 to 20)
#    0.000    0.800    0.000    7.200    0.000   12.800 
#    0.000    4.000    0.000    0.000    0.000    0.000 
#    0.000    0.000    0.000    0.000    0.000    0.000 
#
# Total GULP energy -55982.787712 kJ/mol
# GULP energy per Si atom -5598.278771 kJ/mol
# Density = 2.488872 g / cm^3
# Si number density = 24.945499 Si / 1000 Ang^3
#
#
#
# Elastic Constant Matrix: (Units=GPa)
#
#
# Indices 1 2 3 4 5 6 
#
# 1 42.2416 17.5867 20.0444 0.0000 12.5301 0.0000
# 2 17.5867 145.9739 41.3667 0.0000 9.4529 0.0000
# 3 20.0444 41.3667 105.7587 0.0000 16.1552 0.0000
# 4 0.0000 0.0000 0.0000 55.2575 0.0000 7.8659
# 5 12.5301 9.4529 16.1552 0.0000 37.7352 0.0000
# 6 0.0000 0.0000 0.0000 7.8659 0.0000 49.8176
#
#
#
# Elastic Compliance Matrix: (Units=1/GPa)
#
#
# Indices 1 2 3 4 5 6 
#
# 1 0.028338 -0.001948 -0.003473 0.000000 -0.007435 0.000000
# 2 -0.001948 0.007855 -0.002676 0.000000 -0.000175 0.000000
# 3 -0.003473 -0.002676 0.011643 0.000000 -0.003161 0.000000
# 4 0.000000 0.000000 0.000000 0.018513 0.000000 -0.002923
# 5 -0.007435 -0.000175 -0.003161 0.000000 0.030366 0.000000
# 6 0.000000 0.000000 0.000000 -0.002923 0.000000 0.020535
#
#
# Mechanical properties :
#
#
# Convention : Reuss Voigt Hill
#
# Bulk Modulus (GPa) = 31.60494 50.21885 40.91189
# Shear Modulus (GPa) = 34.72377 42.89382 38.80879
#
# Velocity S-wave (km/s) = 3.73498 4.15119 3.94857
# Velocity P-wave (km/s) = 5.59439 6.56899 6.10118
#
# Compressibility (1/GPa) = 0.03164063
#
# Stress axis : x y z
#
# Youngs Moduli (GPa) = 35.28834 127.30623 85.88502
#
# Poissons Ratio (x) = 0.24805 0.29828
# Poissons Ratio (y) = 0.06876 0.22987
# Poissons Ratio (z) = 0.12256 0.34073
#
# Static dielectric constant tensor:
#      x y z
#    x 1.954020 0.000000 0.009250 
#    y 0.000000 1.909230 0.000000 
#    z 0.009250 0.000000 2.030160 
# 
# From -- ./inp_files/14636.got.cif
#   From: 2010.05.17/outbox.cif.g08.bks.cpg/sg4_8_cif.got.tgz:14636.got - 2010.06.03 18:43:04.
