data_PCOD9117665
_publ_section_title
;
Structure prediction by ZEFSAII (Michael W. Deem and Ramdas Pophale) SiO2 
 PCOD9117665
Probable space group: P 21
;
_chemical_formula_sum "Si O2"
_cell_formula_units_Z 14
_cell_length_a 10.057278
_cell_length_b 8.954860
_cell_length_c 7.535859
_cell_angle_alpha 90.000000
_cell_angle_beta 53.714757
_cell_angle_gamma 90.000000
_cell_volume 547.079650
_symmetry_space_group_name_H-M "P 21"
_symmetry_group_IT_number 4
_symmetry_cell_setting 'monoclinic'
loop_
_space_group_symop_operation_xyz
x,y,z
-x,1/2+y,-z
loop_
_atom_site_type_symbol
_atom_site_label
_atom_site_fract_x
_atom_site_fract_y
_atom_site_fract_z
Si Si1 0.675602 0.947920 0.399792
Si Si2 0.945793 0.794267 0.423930
Si Si3 0.419716 0.967459 0.081141
Si Si4 0.066371 0.605550 0.040143
Si Si5 0.293564 0.276751 0.119560
Si Si6 0.824474 0.426599 0.011634
Si Si7 0.546229 0.258288 0.640363
O O1 0.780291 0.839488 0.444336
O O2 0.506101 0.870976 0.472093
O O3 0.794537 0.991142 0.137370
O O4 0.632858 0.107058 0.520044
O O5 0.892567 0.785643 0.669273
O O6 0.066926 0.923381 0.258274
O O7 0.023386 0.643324 0.278917
O O8 0.350699 0.925064 0.943451
O O9 0.361946 0.850763 0.277606
O O10 0.372868 0.135970 0.164565
O O11 0.614307 0.933179 0.920410
O O12 0.900170 0.552461 0.075423
O O13 0.130364 0.769721 0.932035
O O14 0.364935 0.230326 0.872211
#
# Coordination Sequence:
#
# PCOD9117665 Si02
#       7
#     2   2   2   2   2   2   2
#     4  11  23  47  66 106 137 187 243 292 346 427
#     4   9  22  44  68  96 139 178 228 288 350 422
#     4  10  24  41  67 101 137 181 229 292 347 417
#     4   9  22  41  71  96 137 181 228 287 353 413
#     4  10  23  44  63 106 132 181 233 281 359 410
#     4   9  21  44  66  99 136 179 229 289 344 421
#     4  10  27  41  73 100 142 189 234 297 351 410
#
# _framework density 25.590420999999999
#
# number of rings (size 3 to 8) (size 9 to 14) (size 15 to 20)
#    1.714    0.571    0.000    0.857    6.000    2.286 
#    7.714    0.000    0.000    0.000    0.000    0.000 
#    0.000    0.000    0.000    0.000    0.000    0.000 
#
# Total GULP energy -78001.614868 kJ/mol
# GULP energy per Si atom -5571.543919 kJ/mol
# Density = 2.553218 g / cm^3
# Si number density = 25.590421 Si / 1000 Ang^3
#
#
#
# Elastic Constant Matrix: (Units=GPa)
#
#
# Indices 1 2 3 4 5 6 
#
# 1 69.2103 23.8890 -21.1201 0.0000 11.2129 0.0000
# 2 23.8890 108.3530 -0.2159 0.0000 6.0037 0.0000
# 3 -21.1201 -0.2159 119.2208 0.0000 1.3159 0.0000
# 4 0.0000 0.0000 0.0000 43.3395 0.0000 1.7865
# 5 11.2129 6.0037 1.3159 0.0000 12.1764 0.0000
# 6 0.0000 0.0000 0.0000 1.7865 0.0000 40.2023
#
#
#
# Elastic Compliance Matrix: (Units=1/GPa)
#
#
# Indices 1 2 3 4 5 6 
#
# 1 0.019397 -0.003350 0.003613 0.000000 -0.016601 0.000000
# 2 -0.003350 0.010067 -0.000555 0.000000 -0.001819 0.000000
# 3 0.003613 -0.000555 0.009071 0.000000 -0.004034 0.000000
# 4 0.000000 0.000000 0.000000 0.023116 0.000000 -0.001027
# 5 -0.016601 -0.001819 -0.004034 0.000000 0.098746 0.000000
# 6 0.000000 0.000000 0.000000 -0.001027 0.000000 0.024920
#
#
# Mechanical properties :
#
#
# Convention : Reuss Voigt Hill
#
# Bulk Modulus (GPa) = 26.34808 33.54334 29.94571
# Shear Modulus (GPa) = 25.18238 38.75906 31.97072
#
# Velocity S-wave (km/s) = 3.14037 3.89600 3.53841
# Velocity P-wave (km/s) = 4.84434 5.77708 5.33115
#
# Compressibility (1/GPa) = 0.03795343
#
# Stress axis : x y z
#
# Youngs Moduli (GPa) = 51.55417 99.33177 110.23610
#
# Poissons Ratio (x) = 0.33271 -0.39833
# Poissons Ratio (y) = 0.17268 0.06119
# Poissons Ratio (z) = -0.18629 0.05513
#
# Static dielectric constant tensor:
#      x y z
#    x 2.009970 0.000000 0.003070 
#    y 0.000000 2.025870 0.000000 
#    z 0.003070 0.000000 2.188730 
# 
# From -- ./inp_files/8328.got.cif
#   From: 2010.05.17/outbox.cif.g08.bks.cpg/sg4_5_cif.got.tgz:8328.got - 2010.06.03 18:43:04.
