data_PCOD9117114
_publ_section_title
;
Structure prediction by ZEFSAII (Michael W. Deem and Ramdas Pophale) SiO2 
 PCOD9117114
Probable space group: P 21
;
_chemical_formula_sum "Si O2"
_cell_formula_units_Z 14
_cell_length_a 5.284465
_cell_length_b 10.549531
_cell_length_c 12.142747
_cell_angle_alpha 90.000000
_cell_angle_beta 49.923701
_cell_angle_gamma 90.000000
_cell_volume 517.987349
_symmetry_space_group_name_H-M "P 21"
_symmetry_group_IT_number 4
_symmetry_cell_setting 'monoclinic'
loop_
_space_group_symop_operation_xyz
x,y,z
-x,1/2+y,-z
loop_
_atom_site_type_symbol
_atom_site_label
_atom_site_fract_x
_atom_site_fract_y
_atom_site_fract_z
Si Si1 0.471881 0.302760 0.403514
Si Si2 0.994621 0.092723 0.266295
Si Si3 0.598321 0.882088 0.332016
Si Si4 0.110338 0.937581 0.874047
Si Si5 0.974451 0.591961 0.499905
Si Si6 0.485186 0.782714 0.955453
Si Si7 0.483760 0.667041 0.187638
O O1 0.744013 0.198506 0.295772
O O2 0.417069 0.308986 0.548639
O O3 0.628162 0.422769 0.300754
O O4 0.139893 0.238942 0.451814
O O5 0.878072 0.061182 0.422797
O O6 0.337740 0.164622 0.158673
O O7 0.939168 0.960472 0.221670
O O8 0.542208 0.789165 0.247374
O O9 0.319346 0.990422 0.422006
O O10 0.243751 0.846019 0.934300
O O11 0.759147 0.887857 0.923648
O O12 0.188951 0.078185 0.899184
O O13 0.185952 0.591829 0.330468
O O14 0.375324 0.714038 0.098531
#
# Coordination Sequence:
#
# PCOD9117114 Si02
#       7
#     2   2   2   2   2   2   2
#     4  10  22  43  71 106 146 195 250 313 389 452
#     4  10  22  45  72  98 147 200 251 315 385 452
#     4  11  26  42  73 113 147 194 262 326 382 463
#     4  11  27  51  78 106 157 201 257 316 385 466
#     4  11  24  45  73 110 148 193 258 323 391 453
#     4  11  28  52  76 108 153 208 259 315 387 459
#     4  12  29  46  79 115 148 205 257 320 391 459
#
# _framework density 27.027685000000002
#
# number of rings (size 3 to 8) (size 9 to 14) (size 15 to 20)
#    0.000    1.143    2.857    0.857   12.000    3.429 
#    0.000    0.000    0.000    0.000    0.000    0.000 
#    0.000    0.000    0.000    0.000    0.000    0.000 
#
# Total GULP energy -78359.436252 kJ/mol
# GULP energy per Si atom -5597.102589 kJ/mol
# Density = 2.696617 g / cm^3
# Si number density = 27.027685 Si / 1000 Ang^3
#
#
#
# Elastic Constant Matrix: (Units=GPa)
#
#
# Indices 1 2 3 4 5 6 
#
# 1 94.7083 18.0878 22.9069 0.0000 21.2627 0.0000
# 2 18.0878 72.0293 14.8415 0.0000 -1.0227 0.0000
# 3 22.9069 14.8415 146.2452 0.0000 26.6336 0.0000
# 4 0.0000 0.0000 0.0000 40.3902 0.0000 7.3642
# 5 21.2627 -1.0227 26.6336 0.0000 40.9241 0.0000
# 6 0.0000 0.0000 0.0000 7.3642 0.0000 42.2074
#
#
#
# Elastic Compliance Matrix: (Units=1/GPa)
#
#
# Indices 1 2 3 4 5 6 
#
# 1 0.012716 -0.003178 -0.000512 0.000000 -0.006353 0.000000
# 2 -0.003178 0.015052 -0.001587 0.000000 0.003060 0.000000
# 3 -0.000512 -0.001587 0.007984 0.000000 -0.004970 0.000000
# 4 0.000000 0.000000 0.000000 0.025572 0.000000 -0.004462
# 5 -0.006353 0.003060 -0.004970 0.000000 0.031047 0.000000
# 6 0.000000 0.000000 0.000000 -0.004462 0.000000 0.024471
#
#
# Mechanical properties :
#
#
# Convention : Reuss Voigt Hill
#
# Bulk Modulus (GPa) = 39.68663 47.18391 43.43527
# Shear Modulus (GPa) = 36.82025 41.84745 39.33385
#
# Velocity S-wave (km/s) = 3.69496 3.93914 3.81900
# Velocity P-wave (km/s) = 5.73753 6.17937 5.96254
#
# Compressibility (1/GPa) = 0.02519740
#
# Stress axis : x y z
#
# Youngs Moduli (GPa) = 78.64248 66.43769 125.24757
#
# Poissons Ratio (x) = 0.21113 0.06416
# Poissons Ratio (y) = 0.24991 0.19877
# Poissons Ratio (z) = 0.04029 0.10544
#
# Static dielectric constant tensor:
#      x y z
#    x 2.141880 0.000000 -0.101870 
#    y 0.000000 2.249460 0.000000 
#    z -0.101870 0.000000 2.123190 
# 
# From -- ./inp_files/10488.got.cif
#   From: 2010.05.17/outbox.cif.g08.bks.cpg/sg4_6_cif.got.tgz:10488.got - 2010.06.03 18:43:04.
