data_PCOD9117144
_publ_section_title
;
Structure prediction by ZEFSAII (Michael W. Deem and Ramdas Pophale) SiO2 
 PCOD9117144
Probable space group: P 21
;
_chemical_formula_sum "Si O2"
_cell_formula_units_Z 14
_cell_length_a 15.597218
_cell_length_b 8.878496
_cell_length_c 5.180880
_cell_angle_alpha 90.000000
_cell_angle_beta 128.654287
_cell_angle_gamma 90.000000
_cell_volume 560.275500
_symmetry_space_group_name_H-M "P 21"
_symmetry_group_IT_number 4
_symmetry_cell_setting 'monoclinic'
loop_
_space_group_symop_operation_xyz
x,y,z
-x,1/2+y,-z
loop_
_atom_site_type_symbol
_atom_site_label
_atom_site_fract_x
_atom_site_fract_y
_atom_site_fract_z
Si Si1 0.355844 0.778400 0.841574
Si Si2 0.013150 0.897958 0.930186
Si Si3 0.667237 0.052746 0.825797
Si Si4 0.269862 0.273326 0.784209
Si Si5 0.866445 0.700237 0.974045
Si Si6 0.529184 0.572390 0.877040
Si Si7 0.850199 0.131833 0.787689
O O1 0.448095 0.666906 0.903366
O O2 0.234183 0.744417 0.511192
O O3 0.349072 0.727076 0.126806
O O4 0.399778 0.941520 0.863006
O O5 0.969225 0.815547 0.113797
O O6 0.060587 0.740971 0.902746
O O7 0.908478 0.011400 0.708387
O O8 0.102044 0.027102 0.033236
O O9 0.555295 0.000220 0.484193
O O10 0.772744 0.046238 0.842473
O O11 0.694091 0.945793 0.114486
O O12 0.224699 0.238582 0.415720
O O13 0.179207 0.225986 0.825832
O O14 0.378764 0.181411 0.060798
#
# Coordination Sequence:
#
# PCOD9117144 Si02
#       7
#     2   2   2   2   2   2   2
#     4  11  24  44  68 101 139 183 235 295 350 436
#     4  10  22  47  69 100 141 186 235 297 357 415
#     4  11  24  42  68 100 141 184 235 291 353 427
#     4  12  26  46  71 106 144 186 236 291 353 429
#     4  11  26  45  73 104 143 185 240 291 355 421
#     4  11  26  42  71 101 141 188 231 289 362 423
#     4  10  22  44  66 102 135 182 238 294 354 421
#
# _framework density 24.987708999999999
#
# number of rings (size 3 to 8) (size 9 to 14) (size 15 to 20)
#    0.000    1.143    1.429    3.429    8.000    2.286 
#   10.286    0.000    0.000    0.000    0.000    0.000 
#    0.000    0.000    0.000    0.000    0.000    0.000 
#
# Total GULP energy -78082.228999 kJ/mol
# GULP energy per Si atom -5577.302071 kJ/mol
# Density = 2.493084 g / cm^3
# Si number density = 24.987709 Si / 1000 Ang^3
#
#
#
# Elastic Constant Matrix: (Units=GPa)
#
#
# Indices 1 2 3 4 5 6 
#
# 1 86.0856 24.0776 10.9210 0.0000 20.6958 0.0000
# 2 24.0776 117.9724 20.2757 0.0000 20.8647 0.0000
# 3 10.9210 20.2757 63.4612 0.0000 12.0536 0.0000
# 4 0.0000 0.0000 0.0000 34.1489 0.0000 12.9855
# 5 20.6958 20.8647 12.0536 0.0000 31.5769 0.0000
# 6 0.0000 0.0000 0.0000 12.9855 0.0000 33.5862
#
#
#
# Elastic Compliance Matrix: (Units=1/GPa)
#
#
# Indices 1 2 3 4 5 6 
#
# 1 0.014000 -0.001346 -0.000437 0.000000 -0.008120 0.000000
# 2 -0.001346 0.009971 -0.002016 0.000000 -0.004936 0.000000
# 3 -0.000437 -0.002016 0.017434 0.000000 -0.005036 0.000000
# 4 0.000000 0.000000 0.000000 0.034331 0.000000 -0.013273
# 5 -0.008120 -0.004936 -0.005036 0.000000 0.042175 0.000000
# 6 0.000000 0.000000 0.000000 -0.013273 0.000000 0.034906
#
#
# Mechanical properties :
#
#
# Convention : Reuss Voigt Hill
#
# Bulk Modulus (GPa) = 29.58089 42.00753 35.79421
# Shear Modulus (GPa) = 29.12322 34.01205 31.56763
#
# Velocity S-wave (km/s) = 3.41765 3.69338 3.55819
# Velocity P-wave (km/s) = 5.23809 5.91911 5.58898
#
# Compressibility (1/GPa) = 0.03380561
#
# Stress axis : x y z
#
# Youngs Moduli (GPa) = 71.42676 100.29160 57.36041
#
# Poissons Ratio (x) = 0.13502 0.02506
# Poissons Ratio (y) = 0.09616 0.11566
# Poissons Ratio (z) = 0.03121 0.20223
#
# Static dielectric constant tensor:
#      x y z
#    x 1.978950 0.000000 -0.005210 
#    y 0.000000 2.003730 0.000000 
#    z -0.005210 0.000000 2.036860 
# 
# From -- ./inp_files/2377.got.cif
#   From: 2010.05.17/outbox.cif.g08.bks.cpg/sg4_2_cif.got.tgz:2377.got - 2010.06.03 18:43:04.
