data_PCOD9117755
_publ_section_title
;
Structure prediction by ZEFSAII (Michael W. Deem and Ramdas Pophale) SiO2 
 PCOD9117755
Probable space group: P 21
;
_chemical_formula_sum "Si O2"
_cell_formula_units_Z 14
_cell_length_a 6.544277
_cell_length_b 8.274368
_cell_length_c 10.766168
_cell_angle_alpha 90.000000
_cell_angle_beta 89.464912
_cell_angle_gamma 90.000000
_cell_volume 582.959949
_symmetry_space_group_name_H-M "P 21"
_symmetry_group_IT_number 4
_symmetry_cell_setting 'monoclinic'
loop_
_space_group_symop_operation_xyz
x,y,z
-x,1/2+y,-z
loop_
_atom_site_type_symbol
_atom_site_label
_atom_site_fract_x
_atom_site_fract_y
_atom_site_fract_z
Si Si1 0.979238 0.938070 0.656127
Si Si2 0.244746 0.569080 0.563669
Si Si3 0.919755 0.581244 0.743497
Si Si4 0.062443 0.240801 0.998620
Si Si5 0.247815 0.558044 0.117066
Si Si6 0.658927 0.606187 0.217428
Si Si7 0.390391 0.844538 0.391275
O O1 0.894992 0.757460 0.677614
O O2 0.934725 0.990631 0.517547
O O3 0.837562 0.054205 0.742114
O O4 0.203298 0.977968 0.708212
O O5 0.156399 0.552861 0.703042
O O6 0.283329 0.742892 0.501720
O O7 0.453599 0.472780 0.550414
O O8 0.894392 0.617878 0.888251
O O9 0.767916 0.445284 0.693181
O O10 0.128875 0.411610 0.052395
O O11 0.191901 0.201418 0.875895
O O12 0.828091 0.215086 0.956794
O O13 0.486237 0.530047 0.129693
O O14 0.536351 0.726219 0.309275
#
# Coordination Sequence:
#
# PCOD9117755 Si02
#       7
#     2   2   2   2   2   2   2
#     4  10  24  47  69 103 143 194 240 306 372 439
#     4  12  27  45  75 104 153 188 256 305 378 447
#     4  11  27  45  73 105 150 193 249 307 380 443
#     4  10  26  43  74 104 144 187 243 299 375 441
#     4  10  23  45  70 100 146 187 241 299 369 434
#     4  11  26  44  77 103 149 189 254 305 372 441
#     4  12  29  45  76 113 145 200 255 309 382 447
#
# _framework density 24.015371999999999
#
# number of rings (size 3 to 8) (size 9 to 14) (size 15 to 20)
#    0.000    1.143    1.429    1.714   14.000    4.571 
#    0.000    0.000    0.000    0.000    0.000    0.000 
#    0.000    0.000    0.000    0.000    0.000    0.000 
#
# Total GULP energy -78279.901961 kJ/mol
# GULP energy per Si atom -5591.421569 kJ/mol
# Density = 2.396071 g / cm^3
# Si number density = 24.015372 Si / 1000 Ang^3
#
#
#
# Elastic Constant Matrix: (Units=GPa)
#
#
# Indices 1 2 3 4 5 6 
#
# 1 91.3636 33.5439 17.9123 0.0000 6.9253 0.0000
# 2 33.5439 107.4287 38.6783 0.0000 11.3522 0.0000
# 3 17.9123 38.6783 77.0871 0.0000 -16.7848 0.0000
# 4 0.0000 0.0000 0.0000 46.2214 0.0000 7.8949
# 5 6.9253 11.3522 -16.7848 0.0000 40.2320 0.0000
# 6 0.0000 0.0000 0.0000 7.8949 0.0000 44.6789
#
#
#
# Elastic Compliance Matrix: (Units=1/GPa)
#
#
# Indices 1 2 3 4 5 6 
#
# 1 0.012583 -0.003043 -0.001849 0.000000 -0.002079 0.000000
# 2 -0.003043 0.013667 -0.007563 0.000000 -0.006488 0.000000
# 3 -0.001849 -0.007563 0.019502 0.000000 0.010589 0.000000
# 4 0.000000 0.000000 0.000000 0.022308 0.000000 -0.003942
# 5 -0.002079 -0.006488 0.010589 0.000000 0.031462 0.000000
# 6 0.000000 0.000000 0.000000 -0.003942 0.000000 0.023078
#
#
# Mechanical properties :
#
#
# Convention : Reuss Voigt Hill
#
# Bulk Modulus (GPa) = 47.98264 50.68314 49.33289
# Shear Modulus (GPa) = 32.37083 38.60946 35.49014
#
# Velocity S-wave (km/s) = 3.67539 4.01396 3.84840
# Velocity P-wave (km/s) = 6.16722 6.52938 6.35088
#
# Compressibility (1/GPa) = 0.02084087
#
# Stress axis : x y z
#
# Youngs Moduli (GPa) = 79.47364 73.16701 51.27567
#
# Poissons Ratio (x) = 0.22267 0.09483
# Poissons Ratio (y) = 0.24187 0.38780
# Poissons Ratio (z) = 0.14698 0.55337
#
# Static dielectric constant tensor:
#      x y z
#    x 1.914550 0.000000 -0.010600 
#    y 0.000000 1.979570 0.000000 
#    z -0.010600 0.000000 1.912540 
# 
# From -- ./inp_files/2465.got.cif
#   From: 2010.05.17/outbox.cif.g08.bks.cpg/sg4_2_cif.got.tgz:2465.got - 2010.06.03 18:43:04.
