data_PCOD9117074
_publ_section_title
;
Structure prediction by ZEFSAII (Michael W. Deem and Ramdas Pophale) SiO2 
 PCOD9117074
Probable space group: P 21
;
_chemical_formula_sum "Si O2"
_cell_formula_units_Z 16
_cell_length_a 20.928479
_cell_length_b 5.231238
_cell_length_c 12.598428
_cell_angle_alpha 90.000000
_cell_angle_beta 147.577337
_cell_angle_gamma 90.000000
_cell_volume 739.526088
_symmetry_space_group_name_H-M "P 21"
_symmetry_group_IT_number 4
_symmetry_cell_setting 'monoclinic'
loop_
_space_group_symop_operation_xyz
x,y,z
-x,1/2+y,-z
loop_
_atom_site_type_symbol
_atom_site_label
_atom_site_fract_x
_atom_site_fract_y
_atom_site_fract_z
Si Si1 0.064218 0.445650 0.128443
Si Si2 0.109830 0.356144 0.416706
Si Si3 0.961549 0.576099 0.504961
Si Si4 0.265288 0.770384 0.747043
Si Si5 0.478080 0.767687 0.210305
Si Si6 0.433177 0.579579 0.377316
Si Si7 0.302784 0.983702 0.581005
Si Si8 0.307837 0.598897 0.405210
O O1 0.063317 0.520376 0.252485
O O2 0.198907 0.407745 0.273189
O O3 0.006186 0.682096 0.984972
O O4 0.008085 0.204121 0.338406
O O5 0.183197 0.523609 0.605371
O O6 0.200305 0.168347 0.481712
O O7 0.827981 0.482583 0.342792
O O8 0.025175 0.313098 0.558156
O O9 0.323445 0.809198 0.712861
O O10 0.367423 0.788490 0.977106
O O11 0.428214 0.628076 0.245428
O O12 0.575925 0.618056 0.279905
O O13 0.562062 0.000958 0.370936
O O14 0.466071 0.284687 0.444667
O O15 0.325272 0.649000 0.305213
O O16 0.271226 0.828831 0.431025
#
# Coordination Sequence:
#
# PCOD9117074 Si02
#       8
#     2   2   2   2   2   2   2   2
#     4  12  27  44  74 107 137 187 251 303 361 427
#     4  11  24  46  72 103 146 186 240 307 365 429
#     4  11  24  48  76  97 144 196 235 292 367 425
#     4  11  25  41  72 115 144 189 244 293 368 445
#     4  11  24  41  71 106 144 191 239 294 366 449
#     4  10  22  43  67  94 133 190 231 282 350 421
#     4  11  21  38  71 100 146 187 229 291 378 414
#     4  11  23  45  69 100 144 190 233 310 361 424
#
# _framework density 21.635477999999999
#
# number of rings (size 3 to 8) (size 9 to 14) (size 15 to 20)
#    0.000    1.000    5.000    0.750    5.250    1.000 
#    2.250    1.250    8.250    0.000    0.000    0.000 
#    0.000    0.000    0.000    0.000    0.000    0.000 
#
# Total GULP energy -89139.008513 kJ/mol
# GULP energy per Si atom -5571.188032 kJ/mol
# Density = 2.158623 g / cm^3
# Si number density = 21.635478 Si / 1000 Ang^3
#
#
#
# Elastic Constant Matrix: (Units=GPa)
#
#
# Indices 1 2 3 4 5 6 
#
# 1 154.6748 35.2642 11.2348 0.0000 9.2766 0.0000
# 2 35.2642 87.5605 16.1921 0.0000 3.0561 0.0000
# 3 11.2348 16.1921 53.1614 0.0000 4.3471 0.0000
# 4 0.0000 0.0000 0.0000 18.6416 0.0000 -4.0638
# 5 9.2766 3.0561 4.3471 0.0000 -10.3059 0.0000
# 6 0.0000 0.0000 0.0000 -4.0638 0.0000 51.5670
#
#
#
# Elastic Compliance Matrix: (Units=1/GPa)
#
#
# Indices 1 2 3 4 5 6 
#
# 1 0.006870 -0.002751 -0.001018 0.000000 0.004939 0.000000
# 2 -0.002751 0.013163 -0.003426 0.000000 -0.000018 0.000000
# 3 -0.001018 -0.003426 0.019553 0.000000 0.006315 0.000000
# 4 0.000000 0.000000 0.000000 0.054581 0.000000 0.004301
# 5 0.004939 -0.000018 0.006315 0.000000 -0.089928 0.000000
# 6 0.000000 0.000000 0.000000 0.004301 0.000000 0.019731
#
#
# Mechanical properties :
#
#
# Convention : Reuss Voigt Hill
#
# Bulk Modulus (GPa) = 39.68953 46.75322 43.22137
# Shear Modulus (GPa) = 106.93081 27.49425 67.21253
#
# Velocity S-wave (km/s) = 7.03783 3.56869 5.57972
# Velocity P-wave (km/s) = 9.18836 6.21588 7.84420
#
# Compressibility (1/GPa) = 0.02519556
#
# Stress axis : x y z
#
# Youngs Moduli (GPa) = 145.55806 75.97129 51.14329
#
# Poissons Ratio (x) = 0.20900 0.05206
# Poissons Ratio (y) = 0.40043 0.17523
# Poissons Ratio (z) = 0.14815 0.26030
#
# Static dielectric constant tensor:
#      x y z
#    x 1.809490 0.000000 -0.034880 
#    y 0.000000 1.944350 0.000000 
#    z -0.034880 0.000000 1.846300 
# 
# From -- ./inp_files/11501.got.cif
#   From: 2010.05.17/outbox.cif.g08.bks.cpg/sg4_6_cif.got.tgz:11501.got - 2010.06.03 18:43:04.
