data_PCOD9117540
_publ_section_title
;
Structure prediction by ZEFSAII (Michael W. Deem and Ramdas Pophale) SiO2 
 PCOD9117540
Probable space group: P 21
;
_chemical_formula_sum "Si O2"
_cell_formula_units_Z 16
_cell_length_a 8.383568
_cell_length_b 10.105861
_cell_length_c 9.318486
_cell_angle_alpha 90.000000
_cell_angle_beta 69.846304
_cell_angle_gamma 90.000000
_cell_volume 741.152522
_symmetry_space_group_name_H-M "P 21"
_symmetry_group_IT_number 4
_symmetry_cell_setting 'monoclinic'
loop_
_space_group_symop_operation_xyz
x,y,z
-x,1/2+y,-z
loop_
_atom_site_type_symbol
_atom_site_label
_atom_site_fract_x
_atom_site_fract_y
_atom_site_fract_z
Si Si1 0.460706 0.757670 0.204380
Si Si2 0.685149 0.923674 0.483401
Si Si3 0.829058 0.745388 0.667491
Si Si4 0.022517 0.483865 0.185436
Si Si5 0.725015 0.989295 0.157118
Si Si6 0.860986 0.153706 0.599009
Si Si7 0.620880 0.488983 0.270949
Si Si8 0.529752 0.231718 0.125844
O O1 0.278112 0.769501 0.339445
O O2 0.570152 0.638677 0.242468
O O3 0.575318 0.887781 0.159671
O O4 0.419745 0.716616 0.054441
O O5 0.743392 0.791331 0.543274
O O6 0.482240 0.944759 0.553310
O O7 0.767104 0.944835 0.304703
O O8 0.749876 0.033391 0.574099
O O9 0.903872 0.861452 0.744731
O O10 0.667227 0.688068 0.800319
O O11 0.991946 0.668078 0.562792
O O12 0.062684 0.611447 0.271696
O O13 0.821582 0.474476 0.224476
O O14 0.123792 0.485675 0.004195
O O15 0.646796 0.135952 0.183324
O O16 0.552496 0.382219 0.174379
#
# Coordination Sequence:
#
# PCOD9117540 Si02
#       8
#     2   2   2   2   2   2   2   2
#     4  11  23  44  67  96 132 176 213 266 333 387
#     4   9  24  42  60  97 132 168 214 271 326 386
#     4  10  23  42  67  91 135 171 220 264 328 386
#     4  11  24  43  63 100 131 169 217 280 318 380
#     4  12  25  39  71  97 132 166 227 270 319 387
#     4  10  23  42  67  91 135 171 220 264 328 386
#     4  10  25  42  68  92 135 173 216 267 325 387
#     4  11  23  44  67  96 132 176 213 266 333 387
#
# _framework density 21.587999
#
# number of rings (size 3 to 8) (size 9 to 14) (size 15 to 20)
#    0.000    1.500    2.500    1.500    7.000    6.000 
#    0.000    0.000    0.000    0.000    0.000    0.000 
#    0.000    0.000    0.000    0.000    0.000    0.000 
#
# Total GULP energy -89293.333274 kJ/mol
# GULP energy per Si atom -5580.833330 kJ/mol
# Density = 2.153886 g / cm^3
# Si number density = 21.587999 Si / 1000 Ang^3
#
#
#
# Elastic Constant Matrix: (Units=GPa)
#
#
# Indices 1 2 3 4 5 6 
#
# 1 93.6522 1.1742 32.0732 0.0000 -30.1957 0.0000
# 2 1.1742 32.3011 -10.1914 0.0000 -8.8948 0.0000
# 3 32.0732 -10.1914 72.4649 0.0000 -10.3697 0.0000
# 4 0.0000 0.0000 0.0000 21.9907 0.0000 -5.8802
# 5 -30.1957 -8.8948 -10.3697 0.0000 41.3694 0.0000
# 6 0.0000 0.0000 0.0000 -5.8802 0.0000 14.9146
#
#
#
# Elastic Compliance Matrix: (Units=1/GPa)
#
#
# Indices 1 2 3 4 5 6 
#
# 1 0.015877 0.000542 -0.005472 0.000000 0.010333 0.000000
# 2 0.000542 0.035504 0.006122 0.000000 0.009564 0.000000
# 3 -0.005472 0.006122 0.017321 0.000000 0.001664 0.000000
# 4 0.000000 0.000000 0.000000 0.050833 0.000000 0.020041
# 5 0.010333 0.009564 0.001664 0.000000 0.034188 0.000000
# 6 0.000000 0.000000 0.000000 0.020041 0.000000 0.074950
#
#
# Mechanical properties :
#
#
# Convention : Reuss Voigt Hill
#
# Bulk Modulus (GPa) = 14.06765 27.17003 20.61884
# Shear Modulus (GPa) = 20.00124 27.34575 23.67349
#
# Velocity S-wave (km/s) = 3.04714 3.56295 3.31509
# Velocity P-wave (km/s) = 4.34864 5.43500 4.92188
#
# Compressibility (1/GPa) = 0.07108507
#
# Stress axis : x y z
#
# Youngs Moduli (GPa) = 62.98483 28.16571 57.73377
#
# Poissons Ratio (x) = -0.01526 0.31593
# Poissons Ratio (y) = -0.03413 -0.35345
# Poissons Ratio (z) = 0.34467 -0.17243
#
# Static dielectric constant tensor:
#      x y z
#    x 1.801230 0.000000 -0.013700 
#    y 0.000000 1.793720 0.000000 
#    z -0.013700 0.000000 1.787640 
# 
# From -- ./inp_files/5506.got.cif
#   From: 2010.05.17/outbox.cif.g08.bks.cpg/sg4_3_cif.got.tgz:5506.got - 2010.06.03 18:43:04.
