data_PCOD9117400
_publ_section_title
;
Structure prediction by ZEFSAII (Michael W. Deem and Ramdas Pophale) SiO2 
 PCOD9117400
Probable space group: P 21
;
_chemical_formula_sum "Si O2"
_cell_formula_units_Z 16
_cell_length_a 8.368847
_cell_length_b 8.453373
_cell_length_c 18.181091
_cell_angle_alpha 90.000000
_cell_angle_beta 141.781080
_cell_angle_gamma 90.000000
_cell_volume 795.743608
_symmetry_space_group_name_H-M "P 21"
_symmetry_group_IT_number 4
_symmetry_cell_setting 'monoclinic'
loop_
_space_group_symop_operation_xyz
x,y,z
-x,1/2+y,-z
loop_
_atom_site_type_symbol
_atom_site_label
_atom_site_fract_x
_atom_site_fract_y
_atom_site_fract_z
Si Si1 0.984869 0.760850 0.414659
Si Si2 0.798354 0.685674 0.840297
Si Si3 0.568815 0.499258 0.451239
Si Si4 0.270856 0.522795 0.605416
Si Si5 0.198160 0.326830 0.431358
Si Si6 0.089771 0.504961 0.185748
Si Si7 0.797014 0.984589 0.936596
Si Si8 0.216579 0.029538 0.779326
O O1 0.773225 0.896201 0.346777
O O2 0.930238 0.662808 0.321850
O O3 0.246867 0.860193 0.508388
O O4 0.030864 0.640532 0.499607
O O5 0.526944 0.619932 0.713996
O O6 0.907051 0.812612 0.820447
O O7 0.771385 0.801419 0.901941
O O8 0.990389 0.542407 0.928380
O O9 0.383164 0.418868 0.442786
O O10 0.731252 0.643880 0.541737
O O11 0.368263 0.557755 0.317437
O O12 0.265944 0.410995 0.532409
O O13 0.909747 0.368690 0.299946
O O14 0.870422 0.546670 0.166634
O O15 0.102270 0.558558 0.105213
O O16 0.517236 0.036376 0.866317
#
# Coordination Sequence:
#
# PCOD9117400 Si02
#       8
#     2   2   2   2   2   2   2   2
#     4  11  23  35  64  98 137 167 219 258 332 404
#     4  10  24  43  67  90 128 174 217 274 325 387
#     4  11  20  38  59  98 134 177 205 265 330 393
#     4  11  23  38  61 100 127 177 210 265 332 392
#     4  10  23  34  66  95 138 165 216 259 327 405
#     4   9  22  41  67  87 136 164 212 274 322 378
#     4  10  24  44  66  89 126 172 224 272 322 378
#     4  10  23  43  64  99 128 174 217 273 322 391
#
# _framework density 20.106978999999999
#
# number of rings (size 3 to 8) (size 9 to 14) (size 15 to 20)
#    0.750    1.000    1.250    3.000   14.000    0.000 
#    2.250    0.000    0.000    0.000    0.000    0.000 
#    0.000    0.000    0.000    0.000    0.000    0.000 
#
# Total GULP energy -89090.555115 kJ/mol
# GULP energy per Si atom -5568.159695 kJ/mol
# Density = 2.006121 g / cm^3
# Si number density = 20.106979 Si / 1000 Ang^3
#
#
#
# Elastic Constant Matrix: (Units=GPa)
#
#
# Indices 1 2 3 4 5 6 
#
# 1 86.8921 21.7105 33.2943 0.0000 2.5716 0.0000
# 2 21.7105 68.8868 15.1315 0.0000 2.7319 0.0000
# 3 33.2943 15.1315 54.3236 0.0000 4.7110 0.0000
# 4 0.0000 0.0000 0.0000 28.9472 0.0000 -0.7073
# 5 2.5716 2.7319 4.7110 0.0000 11.1192 0.0000
# 6 0.0000 0.0000 0.0000 -0.7073 0.0000 21.2057
#
#
#
# Elastic Compliance Matrix: (Units=1/GPa)
#
#
# Indices 1 2 3 4 5 6 
#
# 1 0.015610 -0.003021 -0.008800 0.000000 0.000860 0.000000
# 2 -0.003021 0.016092 -0.002438 0.000000 -0.002222 0.000000
# 3 -0.008800 -0.002438 0.025178 0.000000 -0.008033 0.000000
# 4 0.000000 0.000000 0.000000 0.034574 0.000000 0.001153
# 5 0.000860 -0.002222 -0.008033 0.000000 0.093685 0.000000
# 6 0.000000 0.000000 0.000000 0.001153 0.000000 0.047196
#
#
# Mechanical properties :
#
#
# Convention : Reuss Voigt Hill
#
# Bulk Modulus (GPa) = 35.25966 38.93056 37.09511
# Shear Modulus (GPa) = 18.49754 21.58550 20.04152
#
# Velocity S-wave (km/s) = 3.03637 3.28004 3.16055
# Velocity P-wave (km/s) = 5.46505 5.80935 5.63983
#
# Compressibility (1/GPa) = 0.02836102
#
# Stress axis : x y z
#
# Youngs Moduli (GPa) = 64.06239 62.14154 39.71788
#
# Poissons Ratio (x) = 0.18771 0.34953
# Poissons Ratio (y) = 0.19351 0.09685
# Poissons Ratio (z) = 0.56377 0.15152
#
# Static dielectric constant tensor:
#      x y z
#    x 1.787930 0.000000 -0.008480 
#    y 0.000000 1.743520 0.000000 
#    z -0.008480 0.000000 1.714330 
# 
# From -- ./inp_files/13680.got.cif
#   From: 2010.05.17/outbox.cif.g08.bks.cpg/sg4_7_cif.got.tgz:13680.got - 2010.06.03 18:43:04.
