data_PCOD9117491
_publ_section_title
;
Structure prediction by ZEFSAII (Michael W. Deem and Ramdas Pophale) SiO2 
 PCOD9117491
Probable space group: P 21
;
_chemical_formula_sum "Si O2"
_cell_formula_units_Z 16
_cell_length_a 10.603355
_cell_length_b 4.902850
_cell_length_c 28.514616
_cell_angle_alpha 90.000000
_cell_angle_beta 156.406520
_cell_angle_gamma 90.000000
_cell_volume 593.314664
_symmetry_space_group_name_H-M "P 21"
_symmetry_group_IT_number 4
_symmetry_cell_setting 'monoclinic'
loop_
_space_group_symop_operation_xyz
x,y,z
-x,1/2+y,-z
loop_
_atom_site_type_symbol
_atom_site_label
_atom_site_fract_x
_atom_site_fract_y
_atom_site_fract_z
Si Si1 0.355722 0.030910 0.658524
Si Si2 0.589066 0.188728 0.001897
Si Si3 0.786652 0.626350 0.749007
Si Si4 0.581814 0.096597 0.556750
Si Si5 0.404501 0.350708 0.125746
Si Si6 0.848836 0.977497 0.218589
Si Si7 0.718686 0.357384 0.856222
Si Si8 0.782905 0.747035 0.480222
O O1 0.526011 0.269962 0.744881
O O2 0.131536 0.088920 0.537543
O O3 0.627961 0.867085 0.724354
O O4 0.100525 0.889963 0.605731
O O5 0.423870 0.292318 0.898792
O O6 0.623396 0.466943 0.043754
O O7 0.928988 0.044950 0.118941
O O8 0.499600 0.437248 0.634684
O O9 0.974244 0.639783 0.763357
O O10 0.391259 0.306594 0.458513
O O11 0.376893 0.066870 0.534076
O O12 0.901196 0.263244 0.675271
O O13 0.690400 0.200929 0.197763
O O14 0.333005 0.169583 0.147677
O O15 0.418943 0.659183 0.149341
O O16 0.093856 0.310755 0.987400
#
# Coordination Sequence:
#
# PCOD9117491 Si02
#       8
#     2   2   2   2   2   2   2   2
#     4  12  25  45  73 103 145 196 239 302 356 431
#     4  10  23  41  69 104 141 183 227 292 367 425
#     4  10  24  45  68 105 142 182 237 294 363 421
#     4  11  29  48  74 104 143 188 241 298 361 429
#     4  10  23  47  68 110 134 194 233 301 349 440
#     4  10  24  45  72 102 146 182 242 297 361 429
#     4  10  25  44  75  98 149 181 247 286 364 419
#     4  11  27  45  73 104 144 192 244 298 359 434
#
# _framework density 26.967140000000001
#
# number of rings (size 3 to 8) (size 9 to 14) (size 15 to 20)
#    0.000    1.500    1.250    0.750   14.000    3.000 
#    2.250    0.000    0.000    0.000    0.000    0.000 
#    0.000    0.000    0.000    0.000    0.000    0.000 
#
# Total GULP energy -89585.764568 kJ/mol
# GULP energy per Si atom -5599.110286 kJ/mol
# Density = 2.690576 g / cm^3
# Si number density = 26.967140 Si / 1000 Ang^3
#
#
#
# Elastic Constant Matrix: (Units=GPa)
#
#
# Indices 1 2 3 4 5 6 
#
# 1 87.1959 12.6812 26.1863 -0.0002 1.3526 -0.0002
# 2 12.6812 90.2872 11.8002 -0.0005 -2.5856 -0.0001
# 3 26.1863 11.8002 137.3945 -0.0032 8.4530 -0.0014
# 4 -0.0002 -0.0005 -0.0032 51.6551 0.0005 -7.7731
# 5 1.3526 -2.5856 8.4530 0.0005 50.3032 0.0007
# 6 -0.0002 -0.0001 -0.0014 -7.7731 0.0007 40.4893
#
#
#
# Elastic Compliance Matrix: (Units=1/GPa)
#
#
# Indices 1 2 3 4 5 6 
#
# 1 0.012348 -0.001444 -0.002227 0.000000 -0.000032 0.000000
# 2 -0.001444 0.011398 -0.000750 0.000000 0.000751 0.000000
# 3 -0.002227 -0.000750 0.007847 0.000001 -0.001297 0.000000
# 4 0.000000 0.000000 0.000001 0.019935 0.000000 0.003827
# 5 -0.000032 0.000751 -0.001297 0.000000 0.020137 0.000000
# 6 0.000000 0.000000 0.000000 0.003827 0.000000 0.025433
#
#
# Mechanical properties :
#
#
# Convention : Reuss Voigt Hill
#
# Bulk Modulus (GPa) = 43.95562 46.24590 45.10076
# Shear Modulus (GPa) = 44.04361 46.10351 45.07356
#
# Velocity S-wave (km/s) = 4.04571 4.13924 4.09274
# Velocity P-wave (km/s) = 6.17728 6.32697 6.25258
#
# Compressibility (1/GPa) = 0.02275022
#
# Stress axis : x y z
#
# Youngs Moduli (GPa) = 80.98559 87.73388 127.43636
#
# Poissons Ratio (x) = 0.12670 0.28385
# Poissons Ratio (y) = 0.11695 0.09556
# Poissons Ratio (z) = 0.18039 0.06579
#
# Static dielectric constant tensor:
#      x y z
#    x 2.188550 0.000000 -0.013510 
#    y 0.000000 2.174680 0.000000 
#    z -0.013510 0.000000 2.077010 
# 
# From -- ./inp_files/16069.got.cif
#   From: 2010.05.17/outbox.cif.g08.bks.cpg/sg4_9_cif.got.tgz:16069.got - 2010.06.03 18:43:04.
