data_PCOD9117794
_publ_section_title
;
Structure prediction by ZEFSAII (Michael W. Deem and Ramdas Pophale) SiO2 
 PCOD9117794
Probable space group: P 21
;
_chemical_formula_sum "Si O2"
_cell_formula_units_Z 14
_cell_length_a 19.329769
_cell_length_b 4.900396
_cell_length_c 24.922382
_cell_angle_alpha 90.000000
_cell_angle_beta 12.406968
_cell_angle_gamma 90.000000
_cell_volume 507.213777
_symmetry_space_group_name_H-M "P 21"
_symmetry_group_IT_number 4
_symmetry_cell_setting 'monoclinic'
loop_
_space_group_symop_operation_xyz
x,y,z
-x,1/2+y,-z
loop_
_atom_site_type_symbol
_atom_site_label
_atom_site_fract_x
_atom_site_fract_y
_atom_site_fract_z
Si Si1 0.560479 0.492450 0.596411
Si Si2 0.120263 0.962824 0.440045
Si Si3 0.764251 0.121768 0.353927
Si Si4 0.045885 0.913790 0.885117
Si Si5 0.693017 0.171082 0.858689
Si Si6 0.767702 0.990692 0.501220
Si Si7 0.324581 0.760437 0.926311
O O1 0.712838 0.404617 0.424822
O O2 0.746825 0.299932 0.498133
O O3 0.587139 0.803297 0.594102
O O4 0.189276 0.403773 0.886199
O O5 0.478619 0.068712 0.181929
O O6 0.939184 0.158622 0.534725
O O7 0.930694 0.015151 0.638758
O O8 0.403453 0.011192 0.626244
O O9 0.881727 0.140797 0.203198
O O10 0.056054 0.948680 0.157378
O O11 0.849148 0.084316 0.988991
O O12 0.886732 0.351680 0.754508
O O13 0.485348 0.918485 0.037817
O O14 0.581776 0.946020 0.698346
#
# Coordination Sequence:
#
# PCOD9117794 Si02
#       7
#     2   2   2   2   2   2   2
#     4  11  26  43  71 102 140 183 237 287 344 418
#     4  11  26  45  70 104 141 183 238 298 350 418
#     4  12  25  43  75 102 138 196 234 286 358 423
#     4  11  25  46  68 103 147 184 236 293 351 425
#     4  11  23  42  69  98 139 186 228 292 363 413
#     4  10  23  46  66  97 141 186 229 293 352 417
#     4  10  24  45  71  94 144 190 230 291 364 412
#
# _framework density 27.601773000000001
#
# number of rings (size 3 to 8) (size 9 to 14) (size 15 to 20)
#    0.000    1.143    2.857    1.714    4.000    9.143 
#    0.000    0.000    0.000    0.000    0.000    0.000 
#    0.000    0.000    0.000    0.000    0.000    0.000 
#
# Total GULP energy -78475.755704 kJ/mol
# GULP energy per Si atom -5605.411122 kJ/mol
# Density = 2.753895 g / cm^3
# Si number density = 27.601773 Si / 1000 Ang^3
#
#
#
# Elastic Constant Matrix: (Units=GPa)
#
#
# Indices 1 2 3 4 5 6 
#
# 1 76.4179 16.0112 19.0089 0.0000 -8.4445 0.0000
# 2 16.0112 87.3766 21.3052 0.0000 -6.9491 0.0000
# 3 19.0089 21.3052 108.6283 0.0000 0.4810 0.0000
# 4 0.0000 0.0000 0.0000 36.3407 0.0000 -6.4405
# 5 -8.4445 -6.9491 0.4810 0.0000 46.6278 0.0000
# 6 0.0000 0.0000 0.0000 -6.4405 0.0000 54.1894
#
#
#
# Elastic Compliance Matrix: (Units=1/GPa)
#
#
# Indices 1 2 3 4 5 6 
#
# 1 0.014274 -0.001911 -0.002133 0.000000 0.002322 0.000000
# 2 -0.001911 0.012431 -0.002110 0.000000 0.001528 0.000000
# 3 -0.002133 -0.002110 0.009997 0.000000 -0.000804 0.000000
# 4 0.000000 0.000000 0.000000 0.028109 0.000000 0.003341
# 5 0.002322 0.001528 -0.000804 0.000000 0.022103 0.000000
# 6 0.000000 0.000000 0.000000 0.003341 0.000000 0.018851
#
#
# Mechanical properties :
#
#
# Convention : Reuss Voigt Hill
#
# Bulk Modulus (GPa) = 40.99688 42.78595 41.89142
# Shear Modulus (GPa) = 39.61839 41.83808 40.72824
#
# Velocity S-wave (km/s) = 3.79272 3.89752 3.84548
# Velocity P-wave (km/s) = 5.83651 5.98239 5.90990
#
# Compressibility (1/GPa) = 0.02439210
#
# Stress axis : x y z
#
# Youngs Moduli (GPa) = 70.05969 80.44411 100.03498
#
# Poissons Ratio (x) = 0.15370 0.21340
# Poissons Ratio (y) = 0.13386 0.21112
# Poissons Ratio (z) = 0.14946 0.16978
#
# Static dielectric constant tensor:
#      x y z
#    x 2.169220 0.000000 -0.022770 
#    y 0.000000 2.165840 0.000000 
#    z -0.022770 0.000000 2.162590 
# 
# From -- ./inp_files/9797.got.cif
#   From: 2010.05.17/outbox.cif.g08.bks.cpg/sg4_5_cif.got.tgz:9797.got - 2010.06.03 18:43:04.
