data_PCOD9117421
_publ_section_title
;
Structure prediction by ZEFSAII (Michael W. Deem and Ramdas Pophale) SiO2 
 PCOD9117421
Probable space group: P 21
;
_chemical_formula_sum "Si O2"
_cell_formula_units_Z 16
_cell_length_a 5.784040
_cell_length_b 8.187981
_cell_length_c 15.205305
_cell_angle_alpha 90.000000
_cell_angle_beta 66.996969
_cell_angle_gamma 90.000000
_cell_volume 662.856592
_symmetry_space_group_name_H-M "P 21"
_symmetry_group_IT_number 4
_symmetry_cell_setting 'monoclinic'
loop_
_space_group_symop_operation_xyz
x,y,z
-x,1/2+y,-z
loop_
_atom_site_type_symbol
_atom_site_label
_atom_site_fract_x
_atom_site_fract_y
_atom_site_fract_z
Si Si1 0.032255 0.527510 0.471141
Si Si2 0.823319 0.314020 0.168568
Si Si3 0.048130 0.219168 0.676139
Si Si4 0.381098 0.277123 0.342471
Si Si5 0.508520 0.616176 0.502174
Si Si6 0.232956 0.534945 0.127664
Si Si7 0.536695 0.198700 0.061062
Si Si8 0.138348 0.063086 0.233087
O O1 0.063327 0.689361 0.405094
O O2 0.133286 0.375746 0.401432
O O3 0.234705 0.547991 0.518982
O O4 0.730464 0.510775 0.518165
O O5 0.571488 0.374742 0.252933
O O6 0.766875 0.199350 0.094666
O O7 0.989501 0.464329 0.113590
O O8 0.952972 0.203465 0.224617
O O9 0.003430 0.397318 0.722650
O O10 0.338962 0.174005 0.608486
O O11 0.892641 0.099794 0.764125
O O12 0.513911 0.248012 0.416524
O O13 0.293683 0.126048 0.294993
O O14 0.407615 0.373702 0.099487
O O15 0.376295 0.669686 0.050258
O O16 0.343333 0.060817 0.123970
#
# Coordination Sequence:
#
# PCOD9117421 Si02
#       8
#     2   2   2   2   2   2   2   2
#     4  10  24  44  64  99 132 184 234 287 342 408
#     4  10  23  40  66  96 131 175 227 273 357 407
#     4  10  23  39  64  95 138 176 232 282 345 410
#     4  11  24  42  70  92 140 179 232 283 347 409
#     4  10  26  39  69 100 137 180 235 284 345 403
#     4  11  22  43  65  95 134 173 225 286 346 420
#     4  10  23  41  66  96 126 177 216 286 344 420
#     4  10  23  42  62  99 130 176 221 283 342 419
#
# _framework density 24.137951000000001
#
# number of rings (size 3 to 8) (size 9 to 14) (size 15 to 20)
#    0.750    1.000    0.000    3.750    5.250    6.000 
#    0.000    1.250    0.000    0.000    0.000    0.000 
#    0.000    0.000    0.000    0.000    0.000    0.000 
#
# Total GULP energy -89177.849839 kJ/mol
# GULP energy per Si atom -5573.615615 kJ/mol
# Density = 2.408301 g / cm^3
# Si number density = 24.137951 Si / 1000 Ang^3
#
#
#
# Elastic Constant Matrix: (Units=GPa)
#
#
# Indices 1 2 3 4 5 6 
#
# 1 100.1180 9.1458 24.3271 0.0000 -4.9414 0.0000
# 2 9.1458 65.5450 24.5142 0.0000 -10.2889 0.0000
# 3 24.3271 24.5142 119.3498 0.0000 -14.5335 0.0000
# 4 0.0000 0.0000 0.0000 33.6268 0.0000 -3.5133
# 5 -4.9414 -10.2889 -14.5335 0.0000 26.0782 0.0000
# 6 0.0000 0.0000 0.0000 -3.5133 0.0000 23.8730
#
#
#
# Elastic Compliance Matrix: (Units=1/GPa)
#
#
# Indices 1 2 3 4 5 6 
#
# 1 0.010551 -0.000643 -0.001937 0.000000 0.000666 0.000000
# 2 -0.000643 0.017187 -0.002777 0.000000 0.005112 0.000000
# 3 -0.001937 -0.002777 0.009833 0.000000 0.004017 0.000000
# 4 0.000000 0.000000 0.000000 0.030203 0.000000 0.004445
# 5 0.000666 0.005112 0.004017 0.000000 0.042728 0.000000
# 6 0.000000 0.000000 0.000000 0.004445 0.000000 0.042542
#
#
# Mechanical properties :
#
#
# Convention : Reuss Voigt Hill
#
# Bulk Modulus (GPa) = 37.23446 44.55408 40.89427
# Shear Modulus (GPa) = 28.95013 31.85065 30.40039
#
# Velocity S-wave (km/s) = 3.46694 3.63647 3.55271
# Velocity P-wave (km/s) = 5.61118 6.01083 5.81444
#
# Compressibility (1/GPa) = 0.02685684
#
# Stress axis : x y z
#
# Youngs Moduli (GPa) = 94.78166 58.18233 101.69658
#
# Poissons Ratio (x) = 0.03742 0.19702
# Poissons Ratio (y) = 0.06095 0.28238
# Poissons Ratio (z) = 0.18363 0.16155
#
# Static dielectric constant tensor:
#      x y z
#    x 2.009860 0.000000 -0.014400 
#    y 0.000000 2.012130 0.000000 
#    z -0.014400 0.000000 1.928450 
# 
# From -- ./inp_files/13329.got.cif
#   From: 2010.05.17/outbox.cif.g08.bks.cpg/sg4_7_cif.got.tgz:13329.got - 2010.06.03 18:43:04.
