data_PCOD9117474
_publ_section_title
;
Structure prediction by ZEFSAII (Michael W. Deem and Ramdas Pophale) SiO2 
 PCOD9117474
Probable space group: P 21
;
_chemical_formula_sum "Si O2"
_cell_formula_units_Z 12
_cell_length_a 7.373086
_cell_length_b 6.370726
_cell_length_c 16.780532
_cell_angle_alpha 90.000000
_cell_angle_beta 40.476761
_cell_angle_gamma 90.000000
_cell_volume 511.660675
_symmetry_space_group_name_H-M "P 21"
_symmetry_group_IT_number 4
_symmetry_cell_setting 'monoclinic'
loop_
_space_group_symop_operation_xyz
x,y,z
-x,1/2+y,-z
loop_
_atom_site_type_symbol
_atom_site_label
_atom_site_fract_x
_atom_site_fract_y
_atom_site_fract_z
Si Si1 0.314905 0.805110 0.959512
Si Si2 0.592755 0.287527 0.665818
Si Si3 0.831139 0.658067 0.878767
Si Si4 0.322491 0.932376 0.651682
Si Si5 0.737976 0.734581 0.081213
Si Si6 0.817499 0.627609 0.466811
O O1 0.056270 0.697441 0.002572
O O2 0.179461 0.923234 0.082432
O O3 0.590579 0.688518 0.894482
O O4 0.400869 0.003133 0.875755
O O5 0.429566 0.367971 0.798744
O O6 0.672798 0.464219 0.575650
O O7 0.395929 0.113806 0.690027
O O8 0.882268 0.187431 0.599116
O O9 0.121671 0.750474 0.752322
O O10 0.748335 0.794356 0.985093
O O11 0.617630 0.830193 0.528884
O O12 0.175370 0.028249 0.623184
#
# Coordination Sequence:
#
# PCOD9117474 Si02
#       6
#     2   2   2   2   2   2
#     4  10  23  41  66 102 137 168 228 266 355 401
#     4  12  25  46  73  98 143 178 238 284 339 410
#     4  10  25  43  67 102 133 176 220 283 342 402
#     4  12  25  48  71 100 144 179 233 286 338 412
#     4  10  24  43  68 100 131 183 217 285 338 404
#     4  12  26  47  69 106 132 190 230 284 342 401
#
# _framework density 23.453042
#
# number of rings (size 3 to 8) (size 9 to 14) (size 15 to 20)
#    1.000    0.000    3.333    3.000    4.667    0.000 
#    6.000    0.000    0.000    0.000    0.000    0.000 
#    0.000    0.000    0.000    0.000    0.000    0.000 
#
# Total GULP energy -67102.553010 kJ/mol
# GULP energy per Si atom -5591.879417 kJ/mol
# Density = 2.339966 g / cm^3
# Si number density = 23.453042 Si / 1000 Ang^3
#
#
#
# Elastic Constant Matrix: (Units=GPa)
#
#
# Indices 1 2 3 4 5 6 
#
# 1 151.0184 23.2787 21.2883 0.0000 -5.9651 0.0000
# 2 23.2787 31.3725 0.0011 0.0000 -8.3238 0.0000
# 3 21.2883 0.0011 81.6155 0.0000 0.4813 0.0000
# 4 0.0000 0.0000 0.0000 33.6656 0.0000 -0.6244
# 5 -5.9651 -8.3238 0.4813 0.0000 36.9516 0.0000
# 6 0.0000 0.0000 0.0000 -0.6244 0.0000 43.1923
#
#
#
# Elastic Compliance Matrix: (Units=1/GPa)
#
#
# Indices 1 2 3 4 5 6 
#
# 1 0.007801 -0.005793 -0.002035 0.000000 -0.000019 0.000000
# 2 -0.005793 0.038204 0.001465 0.000000 0.007652 0.000000
# 3 -0.002035 0.001465 0.012784 0.000000 -0.000165 0.000000
# 4 0.000000 0.000000 0.000000 0.029712 0.000000 0.000430
# 5 -0.000019 0.007652 -0.000165 0.000000 0.028785 0.000000
# 6 0.000000 0.000000 0.000000 0.000430 0.000000 0.023158
#
#
# Mechanical properties :
#
#
# Convention : Reuss Voigt Hill
#
# Bulk Modulus (GPa) = 21.70894 39.23807 30.47350
# Shear Modulus (GPa) = 29.66948 37.39114 33.53031
#
# Velocity S-wave (km/s) = 3.56063 3.99720 3.78521
# Velocity P-wave (km/s) = 5.11669 6.17011 5.66793
#
# Compressibility (1/GPa) = 0.04606398
#
# Stress axis : x y z
#
# Youngs Moduli (GPa) = 128.19287 26.17548 78.22151
#
# Poissons Ratio (x) = 0.15164 0.15914
# Poissons Ratio (y) = 0.74265 -0.11463
# Poissons Ratio (z) = 0.26081 -0.03836
#
# Static dielectric constant tensor:
#      x y z
#    x 1.823650 0.000000 0.025730 
#    y 0.000000 1.958450 0.000000 
#    z 0.025730 0.000000 1.850720 
# 
# From -- ./inp_files/2511.got.cif
#   From: 2010.05.17/outbox.cif.g08.bks.cpg/sg4_2_cif.got.tgz:2511.got - 2010.06.03 18:43:04.
