data_PCOD9117818
_publ_section_title
;
Structure prediction by ZEFSAII (Michael W. Deem and Ramdas Pophale) SiO2 
 PCOD9117818
Probable space group: P 21
;
_chemical_formula_sum "Si O2"
_cell_formula_units_Z 14
_cell_length_a 8.913205
_cell_length_b 13.537699
_cell_length_c 9.631876
_cell_angle_alpha 90.000000
_cell_angle_beta 150.066954
_cell_angle_gamma 90.000000
_cell_volume 579.935145
_symmetry_space_group_name_H-M "P 21"
_symmetry_group_IT_number 4
_symmetry_cell_setting 'monoclinic'
loop_
_space_group_symop_operation_xyz
x,y,z
-x,1/2+y,-z
loop_
_atom_site_type_symbol
_atom_site_label
_atom_site_fract_x
_atom_site_fract_y
_atom_site_fract_z
Si Si1 0.220653 0.623500 0.468217
Si Si2 0.951632 0.561016 0.512935
Si Si3 0.739234 0.337383 0.819949
Si Si4 0.242334 0.254594 0.007818
Si Si5 0.638306 0.960160 0.956458
Si Si6 0.116085 0.220067 0.311855
Si Si7 0.985591 0.041769 0.993030
O O1 0.531486 0.680498 0.735081
O O2 0.178754 0.555146 0.567222
O O3 0.943296 0.700278 0.259858
O O4 0.147250 0.577688 0.259835
O O5 0.931004 0.664355 0.580015
O O6 0.064166 0.481702 0.716660
O O7 0.624291 0.529202 0.200398
O O8 0.424971 0.281699 0.545322
O O9 0.765475 0.455999 0.830498
O O10 0.983798 0.297842 0.902982
O O11 0.859901 0.297870 0.064115
O O12 0.430410 0.345565 0.100707
O O13 0.710671 0.992802 0.857369
O O14 0.087126 0.130412 0.176366
#
# Coordination Sequence:
#
# PCOD9117818 Si02
#       7
#     2   2   2   2   2   2   2
#     4  12  25  44  68 104 139 173 223 291 346 390
#     4  11  24  44  69  97 139 182 219 276 348 410
#     4  11  24  42  72 105 131 178 239 280 341 401
#     4  11  24  41  71  99 134 178 228 281 337 412
#     4  10  23  46  70  95 132 185 231 266 341 421
#     4  11  23  44  69  97 141 181 226 279 341 416
#     4  10  25  45  75 101 138 179 232 297 336 394
#
# _framework density 24.140630000000002
#
# number of rings (size 3 to 8) (size 9 to 14) (size 15 to 20)
#    0.000    1.143    1.429    4.286    2.000    8.000 
#    7.714    0.000    0.000    0.000    0.000    0.000 
#    0.000    0.000    0.000    0.000    0.000    0.000 
#
# Total GULP energy -78314.463551 kJ/mol
# GULP energy per Si atom -5593.890254 kJ/mol
# Density = 2.408569 g / cm^3
# Si number density = 24.140630 Si / 1000 Ang^3
#
#
#
# Elastic Constant Matrix: (Units=GPa)
#
#
# Indices 1 2 3 4 5 6 
#
# 1 61.7558 -4.8929 10.8274 0.0000 -12.5278 0.0000
# 2 -4.8929 54.1319 10.8441 0.0000 -1.7297 0.0000
# 3 10.8274 10.8441 107.1178 0.0000 1.1503 0.0000
# 4 0.0000 0.0000 0.0000 32.5739 0.0000 10.8197
# 5 -12.5278 -1.7297 1.1503 0.0000 28.5426 0.0000
# 6 0.0000 0.0000 0.0000 10.8197 0.0000 12.9305
#
#
#
# Elastic Compliance Matrix: (Units=1/GPa)
#
#
# Indices 1 2 3 4 5 6 
#
# 1 0.018456 0.002374 -0.002195 0.000000 0.008333 0.000000
# 2 0.002374 0.019204 -0.002209 0.000000 0.002295 0.000000
# 3 -0.002195 -0.002209 0.009797 0.000000 -0.001492 0.000000
# 4 0.000000 0.000000 0.000000 0.042516 0.000000 -0.035576
# 5 0.008333 0.002295 -0.001492 0.000000 0.038892 0.000000
# 6 0.000000 0.000000 0.000000 -0.035576 0.000000 0.107105
#
#
# Mechanical properties :
#
#
# Convention : Reuss Voigt Hill
#
# Bulk Modulus (GPa) = 23.04281 28.50696 25.77488
# Shear Modulus (GPa) = 19.64668 28.55787 24.10228
#
# Velocity S-wave (km/s) = 2.85589 3.44318 3.16319
# Velocity P-wave (km/s) = 4.52115 5.25753 4.90318
#
# Compressibility (1/GPa) = 0.04339749
#
# Stress axis : x y z
#
# Youngs Moduli (GPa) = 54.18203 52.07304 102.07145
#
# Poissons Ratio (x) = -0.12364 0.22409
# Poissons Ratio (y) = -0.12865 0.22545
# Poissons Ratio (z) = 0.11895 0.11502
#
# Static dielectric constant tensor:
#      x y z
#    x 1.940450 0.000000 0.001320 
#    y 0.000000 1.991290 0.000000 
#    z 0.001320 0.000000 1.882620 
# 
# From -- ./inp_files/6698.got.cif
#   From: 2010.05.17/outbox.cif.g08.bks.cpg/sg4_4_cif.got.tgz:6698.got - 2010.06.03 18:43:04.
