data_PCOD9117675
_publ_section_title
;
Structure prediction by ZEFSAII (Michael W. Deem and Ramdas Pophale) SiO2 
 PCOD9117675
Probable space group: P 21
;
_chemical_formula_sum "Si O2"
_cell_formula_units_Z 16
_cell_length_a 18.313731
_cell_length_b 6.906708
_cell_length_c 7.508269
_cell_angle_alpha 90.000000
_cell_angle_beta 135.842330
_cell_angle_gamma 90.000000
_cell_volume 661.596506
_symmetry_space_group_name_H-M "P 21"
_symmetry_group_IT_number 4
_symmetry_cell_setting 'monoclinic'
loop_
_space_group_symop_operation_xyz
x,y,z
-x,1/2+y,-z
loop_
_atom_site_type_symbol
_atom_site_label
_atom_site_fract_x
_atom_site_fract_y
_atom_site_fract_z
Si Si1 0.166775 0.920340 0.482062
Si Si2 0.491466 0.509922 0.717039
Si Si3 0.334693 0.748384 0.000787
Si Si4 0.036112 0.534350 0.321150
Si Si5 0.609427 0.864334 0.098558
Si Si6 0.731615 0.984830 0.850623
Si Si7 0.868308 0.715564 0.263444
Si Si8 0.169231 0.297653 0.315215
O O1 0.104030 0.720624 0.380070
O O2 0.130498 0.056824 0.581159
O O3 0.162105 0.062925 0.304557
O O4 0.283381 0.858528 0.743907
O O5 0.577414 0.384027 0.764483
O O6 0.455717 0.400655 0.835069
O O7 0.385483 0.521037 0.420111
O O8 0.548670 0.702494 0.881943
O O9 0.248645 0.674161 0.992873
O O10 0.385223 0.556276 0.009653
O O11 0.076314 0.408790 0.562120
O O12 0.061720 0.382017 0.209180
O O13 0.928544 0.625928 0.201276
O O14 0.729819 0.826647 0.375024
O O15 0.801729 0.930944 0.802601
O O16 0.753907 0.793480 0.007842
#
# Coordination Sequence:
#
# PCOD9117675 Si02
#       8
#     2   2   2   2   2   2   2   2
#     4  11  21  41  72  95 127 185 234 282 343 422
#     4  11  25  41  67  99 135 188 225 288 345 423
#     4  12  23  41  70  97 137 181 236 282 347 413
#     4  11  21  42  73  97 126 182 236 282 345 434
#     4  11  21  43  67  94 131 179 239 271 337 429
#     4  11  27  46  61 103 151 170 229 303 349 405
#     4  11  23  44  69 100 135 175 238 292 349 419
#     4  10  23  44  65  97 140 176 227 286 349 419
#
# _framework density 24.183926
#
# number of rings (size 3 to 8) (size 9 to 14) (size 15 to 20)
#    0.000    1.000    6.250    0.750    1.750    0.000 
#    4.500    0.000    0.000    0.000    0.000    0.000 
#    0.000    0.000    0.000    0.000    0.000    0.000 
#
# Total GULP energy -89360.126933 kJ/mol
# GULP energy per Si atom -5585.007933 kJ/mol
# Density = 2.412888 g / cm^3
# Si number density = 24.183926 Si / 1000 Ang^3
#
#
#
# Elastic Constant Matrix: (Units=GPa)
#
#
# Indices 1 2 3 4 5 6 
#
# 1 91.6108 27.0137 16.4936 0.0000 -8.0074 0.0000
# 2 27.0137 134.1190 38.8745 0.0000 4.3601 0.0000
# 3 16.4936 38.8745 70.2589 0.0000 -3.4015 0.0000
# 4 0.0000 0.0000 0.0000 24.7252 0.0000 7.5516
# 5 -8.0074 4.3601 -3.4015 0.0000 34.1318 0.0000
# 6 0.0000 0.0000 0.0000 7.5516 0.0000 36.8967
#
#
#
# Elastic Compliance Matrix: (Units=1/GPa)
#
#
# Indices 1 2 3 4 5 6 
#
# 1 0.012063 -0.002079 -0.001539 0.000000 0.002942 0.000000
# 2 -0.002079 0.009330 -0.004779 0.000000 -0.002156 0.000000
# 3 -0.001539 -0.004779 0.017334 0.000000 0.001977 0.000000
# 4 0.000000 0.000000 0.000000 0.043141 0.000000 -0.008830
# 5 0.002942 -0.002156 0.001977 0.000000 0.030461 0.000000
# 6 0.000000 0.000000 0.000000 -0.008830 0.000000 0.028910
#
#
# Mechanical properties :
#
#
# Convention : Reuss Voigt Hill
#
# Bulk Modulus (GPa) = 45.59222 51.19469 48.39345
# Shear Modulus (GPa) = 30.23997 33.39120 31.81559
#
# Velocity S-wave (km/s) = 3.53996 3.71983 3.63101
# Velocity P-wave (km/s) = 5.96671 6.29797 6.13457
#
# Compressibility (1/GPa) = 0.02193357
#
# Stress axis : x y z
#
# Youngs Moduli (GPa) = 82.89729 107.18076 57.68985
#
# Poissons Ratio (x) = 0.22286 0.08878
# Poissons Ratio (y) = 0.17237 0.27568
# Poissons Ratio (z) = 0.12757 0.51217
#
# Static dielectric constant tensor:
#      x y z
#    x 1.964400 0.000000 -0.025000 
#    y 0.000000 1.908930 0.000000 
#    z -0.025000 0.000000 1.991280 
# 
# From -- ./inp_files/8810.got.cif
#   From: 2010.05.17/outbox.cif.g08.bks.cpg/sg4_5_cif.got.tgz:8810.got - 2010.06.03 18:43:04.
