data_PCOD9117233
_publ_section_title
;
Structure prediction by ZEFSAII (Michael W. Deem and Ramdas Pophale) SiO2 
 PCOD9117233
Probable space group: P 21
;
_chemical_formula_sum "Si O2"
_cell_formula_units_Z 12
_cell_length_a 7.182543
_cell_length_b 5.887654
_cell_length_c 15.582594
_cell_angle_alpha 90.000000
_cell_angle_beta 127.101163
_cell_angle_gamma 90.000000
_cell_volume 525.569310
_symmetry_space_group_name_H-M "P 21"
_symmetry_group_IT_number 4
_symmetry_cell_setting 'monoclinic'
loop_
_space_group_symop_operation_xyz
x,y,z
-x,1/2+y,-z
loop_
_atom_site_type_symbol
_atom_site_label
_atom_site_fract_x
_atom_site_fract_y
_atom_site_fract_z
Si Si1 0.871168 0.552480 0.973610
Si Si2 0.821454 0.605258 0.335544
Si Si3 0.298392 0.238172 0.366525
Si Si4 0.782900 0.446483 0.508612
Si Si5 0.639905 0.379330 0.746302
Si Si6 0.060284 0.034273 0.820493
O O1 0.792833 0.530978 0.051206
O O2 0.691519 0.525455 0.845987
O O3 0.020180 0.310426 0.005572
O O4 0.842597 0.446295 0.424935
O O5 0.799817 0.543817 0.229462
O O6 0.583376 0.732549 0.293032
O O7 0.055638 0.756457 0.403875
O O8 0.505120 0.413021 0.438369
O O9 0.178125 0.167596 0.421512
O O10 0.417634 0.027202 0.352534
O O11 0.106968 0.320462 0.245041
O O12 0.869694 0.234350 0.784316
#
# Coordination Sequence:
#
# PCOD9117233 Si02
#       6
#     2   2   2   2   2   2
#     4  10  22  44  76 102 136 184 230 286 360 420
#     4  12  24  42  64 102 134 176 230 284 336 410
#     4  12  22  44  66  94 132 188 222 276 344 410
#     4  12  24  40  64  98 136 180 228 276 336 408
#     4  11  23  45  68  99 133 177 227 283 348 407
#     4  11  23  45  68  99 133 177 227 283 348 407
#
# _framework density 22.832384999999999
#
# number of rings (size 3 to 8) (size 9 to 14) (size 15 to 20)
#    0.000    0.667    5.000    4.000    0.000    0.000 
#    0.000   10.000    0.000    0.000    0.000    0.000 
#    0.000    0.000    0.000    0.000    0.000    0.000 
#
# Total GULP energy -66896.654141 kJ/mol
# GULP energy per Si atom -5574.721178 kJ/mol
# Density = 2.278042 g / cm^3
# Si number density = 22.832385 Si / 1000 Ang^3
#
#
#
# Elastic Constant Matrix: (Units=GPa)
#
#
# Indices 1 2 3 4 5 6 
#
# 1 151.3087 5.6978 -44.4096 0.0000 -15.0150 0.0000
# 2 5.6978 36.8767 6.8962 0.0000 -15.8363 0.0000
# 3 -44.4096 6.8962 199.1703 0.0000 -75.1888 0.0000
# 4 0.0000 0.0000 0.0000 32.5730 0.0000 -14.2584
# 5 -15.0150 -15.8363 -75.1888 0.0000 56.9714 0.0000
# 6 0.0000 0.0000 0.0000 -14.2584 0.0000 37.5900
#
#
#
# Elastic Compliance Matrix: (Units=1/GPa)
#
#
# Indices 1 2 3 4 5 6 
#
# 1 0.009593 0.002350 0.006494 0.000000 0.011752 0.000000
# 2 0.002350 0.033349 0.006184 0.000000 0.018050 0.000000
# 3 0.006494 0.006184 0.015046 0.000000 0.023288 0.000000
# 4 0.000000 0.000000 0.000000 0.036813 0.000000 0.013964
# 5 0.011752 0.018050 0.023288 0.000000 0.056402 0.000000
# 6 0.000000 0.000000 0.000000 0.013964 0.000000 0.031899
#
#
# Mechanical properties :
#
#
# Convention : Reuss Voigt Hill
#
# Bulk Modulus (GPa) = 11.35795 35.96939 23.66367
# Shear Modulus (GPa) = 27.41318 53.37165 40.39242
#
# Velocity S-wave (km/s) = 3.46877 4.84006 4.21061
# Velocity P-wave (km/s) = 4.58567 6.85731 5.83314
#
# Compressibility (1/GPa) = 0.08804405
#
# Stress axis : x y z
#
# Youngs Moduli (GPa) = 104.24520 29.98553 66.46264
#
# Poissons Ratio (x) = -0.07047 -0.43162
# Poissons Ratio (y) = -0.24500 -0.41097
# Poissons Ratio (z) = -0.67698 -0.18542
#
# Static dielectric constant tensor:
#      x y z
#    x 1.822850 0.000000 -0.015700 
#    y 0.000000 1.768150 0.000000 
#    z -0.015700 0.000000 1.844780 
# 
# From -- ./inp_files/3289.got.cif
#   From: 2010.05.17/outbox.cif.g08.bks.cpg/sg4_2_cif.got.tgz:3289.got - 2010.06.03 18:43:04.
