data_PCOD9117998
_publ_section_title
;
Structure prediction by ZEFSAII (Michael W. Deem and Ramdas Pophale) SiO2 
 PCOD9117998
Probable space group: P 21
;
_chemical_formula_sum "Si O2"
_cell_formula_units_Z 14
_cell_length_a 11.159706
_cell_length_b 9.202892
_cell_length_c 8.133492
_cell_angle_alpha 90.000000
_cell_angle_beta 138.178474
_cell_angle_gamma 90.000000
_cell_volume 557.003410
_symmetry_space_group_name_H-M "P 21"
_symmetry_group_IT_number 4
_symmetry_cell_setting 'monoclinic'
loop_
_space_group_symop_operation_xyz
x,y,z
-x,1/2+y,-z
loop_
_atom_site_type_symbol
_atom_site_label
_atom_site_fract_x
_atom_site_fract_y
_atom_site_fract_z
Si Si1 0.929971 0.413390 0.037170
Si Si2 0.052928 0.203845 0.437100
Si Si3 0.403392 0.047875 0.893845
Si Si4 0.634589 0.199159 0.616041
Si Si5 0.723989 0.225653 0.327065
Si Si6 0.724558 0.671478 0.909539
Si Si7 0.171211 0.464363 0.982923
O O1 0.742505 0.332543 0.805718
O O2 0.892179 0.583808 0.011947
O O3 0.018326 0.344022 0.288635
O O4 0.058524 0.391769 0.014883
O O5 0.927562 0.223308 0.469827
O O6 0.258882 0.157590 0.665387
O O7 0.959628 0.067347 0.250729
O O8 0.361154 0.886439 0.787175
O O9 0.604189 0.112879 0.095972
O O10 0.353047 0.059246 0.035373
O O11 0.704678 0.187284 0.499217
O O12 0.421315 0.207186 0.378741
O O13 0.681560 0.062583 0.777192
O O14 0.751000 0.824710 0.027580
#
# Coordination Sequence:
#
# PCOD9117998 Si02
#       7
#     2   2   2   2   2   2   2
#     4  11  23  45  66 100 132 181 234 276 350 409
#     4  11  26  45  72  99 143 183 226 292 348 420
#     4  11  27  44  72 107 138 190 229 295 349 418
#     4  10  24  43  66  98 133 180 225 291 339 409
#     4  11  26  47  71 105 141 182 243 282 355 420
#     4  11  23  43  68  98 138 177 232 285 343 415
#     4  11  25  43  67 101 133 183 229 283 350 411
#
# _framework density 25.134495999999999
#
# number of rings (size 3 to 8) (size 9 to 14) (size 15 to 20)
#    0.000    1.143    1.429    3.429   10.000    2.286 
#   10.286    0.000    0.000    0.000    0.000    0.000 
#    0.000    0.000    0.000    0.000    0.000    0.000 
#
# Total GULP energy -78416.704668 kJ/mol
# GULP energy per Si atom -5601.193191 kJ/mol
# Density = 2.507729 g / cm^3
# Si number density = 25.134496 Si / 1000 Ang^3
#
#
#
# Elastic Constant Matrix: (Units=GPa)
#
#
# Indices 1 2 3 4 5 6 
#
# 1 52.7081 -2.6589 -11.7206 0.0000 -9.4930 0.0000
# 2 -2.6589 108.4603 20.5558 0.0000 0.4854 0.0000
# 3 -11.7206 20.5558 116.5304 0.0000 8.3146 0.0000
# 4 0.0000 0.0000 0.0000 17.9481 0.0000 0.9598
# 5 -9.4930 0.4854 8.3146 0.0000 31.9758 0.0000
# 6 0.0000 0.0000 0.0000 0.9598 0.0000 30.2979
#
#
#
# Elastic Compliance Matrix: (Units=1/GPa)
#
#
# Indices 1 2 3 4 5 6 
#
# 1 0.020352 0.000167 0.001617 0.000000 0.005619 0.000000
# 2 0.000167 0.009543 -0.001691 0.000000 0.000345 0.000000
# 3 0.001617 -0.001691 0.009177 0.000000 -0.001881 0.000000
# 4 0.000000 0.000000 0.000000 0.055811 0.000000 -0.001768
# 5 0.005619 0.000345 -0.001881 0.000000 0.033426 0.000000
# 6 0.000000 0.000000 0.000000 -0.001768 0.000000 0.033062
#
#
# Mechanical properties :
#
#
# Convention : Reuss Voigt Hill
#
# Bulk Modulus (GPa) = 25.47275 32.22795 28.85035
# Shear Modulus (GPa) = 28.69109 34.14587 31.41848
#
# Velocity S-wave (km/s) = 3.38228 3.68982 3.53939
# Velocity P-wave (km/s) = 5.04080 5.56804 5.31096
#
# Compressibility (1/GPa) = 0.03925764
#
# Stress axis : x y z
#
# Youngs Moduli (GPa) = 49.13427 104.78849 108.97357
#
# Poissons Ratio (x) = -0.01754 -0.17616
# Poissons Ratio (y) = -0.00823 0.18429
# Poissons Ratio (z) = -0.07943 0.17721
#
# Static dielectric constant tensor:
#      x y z
#    x 2.002400 0.000000 0.013450 
#    y 0.000000 1.958840 0.000000 
#    z 0.013450 0.000000 1.985860 
# 
# From -- ./inp_files/5551.got.cif
#   From: 2010.05.17/outbox.cif.g08.bks.cpg/sg4_3_cif.got.tgz:5551.got - 2010.06.03 18:43:04.
