data_PCOD9117378
_publ_section_title
;
Structure prediction by ZEFSAII (Michael W. Deem and Ramdas Pophale) SiO2 
 PCOD9117378
Probable space group: P 21
;
_chemical_formula_sum "Si O2"
_cell_formula_units_Z 16
_cell_length_a 9.317343
_cell_length_b 10.799655
_cell_length_c 7.702626
_cell_angle_alpha 90.000000
_cell_angle_beta 48.237395
_cell_angle_gamma 90.000000
_cell_volume 578.132933
_symmetry_space_group_name_H-M "P 21"
_symmetry_group_IT_number 4
_symmetry_cell_setting 'monoclinic'
loop_
_space_group_symop_operation_xyz
x,y,z
-x,1/2+y,-z
loop_
_atom_site_type_symbol
_atom_site_label
_atom_site_fract_x
_atom_site_fract_y
_atom_site_fract_z
Si Si1 0.731934 0.879920 0.127892
Si Si2 0.186688 0.801433 0.062610
Si Si3 0.207390 0.686747 0.655808
Si Si4 0.744308 0.846680 0.489079
Si Si5 0.364858 0.139299 0.634848
Si Si6 0.551960 0.791717 0.965802
Si Si7 0.886921 0.453505 0.364023
Si Si8 0.156991 0.062536 0.217691
O O1 0.555948 0.873160 0.138607
O O2 0.769444 0.733695 0.144801
O O3 0.905689 0.950057 0.898326
O O4 0.702218 0.924299 0.347704
O O5 0.190970 0.734077 0.871806
O O6 0.345465 0.748431 0.065254
O O7 0.238802 0.949088 0.034611
O O8 0.966772 0.805152 0.308143
O O9 0.426914 0.644962 0.448601
O O10 0.166736 0.810949 0.580877
O O11 0.044022 0.596813 0.712552
O O12 0.618846 0.723130 0.552168
O O13 0.663113 0.881696 0.739001
O O14 0.258942 0.019915 0.651098
O O15 0.694630 0.675194 0.877240
O O16 0.887129 0.514294 0.552321
#
# Coordination Sequence:
#
# PCOD9117378 Si02
#       8
#     2   2   2   2   2   2   2   2
#     4  10  23  46  75 112 160 199 269 326 382 488
#     4  12  26  48  81 112 160 216 261 334 412 462
#     4  12  26  53  81 118 161 211 276 337 396 507
#     4  10  22  48  74 111 157 200 265 329 384 483
#     4  10  25  50  79 114 158 212 265 327 412 475
#     4  12  24  51  75 118 163 199 278 327 385 503
#     4  12  24  50  82 110 164 218 256 339 414 463
#     4  12  28  48  81 119 159 213 272 333 413 479
#
# _framework density 27.675294999999998
#
# number of rings (size 3 to 8) (size 9 to 14) (size 15 to 20)
#    0.750    0.000    5.000    0.750    3.500    1.000 
#    4.500    2.500    0.000    0.000    0.000    0.000 
#    0.000    0.000    0.000    0.000    0.000    0.000 
#
# Total GULP energy -89508.052838 kJ/mol
# GULP energy per Si atom -5594.253302 kJ/mol
# Density = 2.761230 g / cm^3
# Si number density = 27.675295 Si / 1000 Ang^3
#
#
#
# Elastic Constant Matrix: (Units=GPa)
#
#
# Indices 1 2 3 4 5 6 
#
# 1 184.6905 58.9857 36.8847 0.0000 -0.0363 0.0000
# 2 58.9857 82.4381 37.8584 0.0000 5.5507 0.0000
# 3 36.8847 37.8584 87.7469 0.0000 14.9719 0.0000
# 4 0.0000 0.0000 0.0000 39.5971 0.0000 -2.4085
# 5 -0.0363 5.5507 14.9719 0.0000 61.3736 0.0000
# 6 0.0000 0.0000 0.0000 -2.4085 0.0000 43.7733
#
#
#
# Elastic Compliance Matrix: (Units=1/GPa)
#
#
# Indices 1 2 3 4 5 6 
#
# 1 0.007114 -0.004626 -0.001113 0.000000 0.000694 0.000000
# 2 -0.004626 0.018139 -0.005844 0.000000 -0.000218 0.000000
# 3 -0.001113 -0.005844 0.014917 0.000000 -0.003111 0.000000
# 4 0.000000 0.000000 0.000000 0.025339 0.000000 0.001394
# 5 0.000694 -0.000218 -0.003111 0.000000 0.017073 0.000000
# 6 0.000000 0.000000 0.000000 0.001394 0.000000 0.022922
#
#
# Mechanical properties :
#
#
# Convention : Reuss Voigt Hill
#
# Bulk Modulus (GPa) = 58.81312 69.14813 63.98063
# Shear Modulus (GPa) = 37.21960 43.69192 40.45576
#
# Velocity S-wave (km/s) = 3.67122 3.97764 3.82750
# Velocity P-wave (km/s) = 6.26640 6.79229 6.53464
#
# Compressibility (1/GPa) = 0.01700301
#
# Stress axis : x y z
#
# Youngs Moduli (GPa) = 140.56153 55.13026 67.03912
#
# Poissons Ratio (x) = 0.25503 0.07462
# Poissons Ratio (y) = 0.65023 0.39180
# Poissons Ratio (z) = 0.15646 0.32220
#
# Static dielectric constant tensor:
#      x y z
#    x 2.159240 0.000000 0.071830 
#    y 0.000000 2.237320 0.000000 
#    z 0.071830 0.000000 2.220440 
# 
# From -- ./inp_files/6394.got.cif
#   From: 2010.05.17/outbox.cif.g08.bks.cpg/sg4_4_cif.got.tgz:6394.got - 2010.06.03 18:43:04.
