data_PCOD9117530
_publ_section_title
;
Structure prediction by ZEFSAII (Michael W. Deem and Ramdas Pophale) SiO2 
 PCOD9117530
Probable space group: P 21
;
_chemical_formula_sum "Si O2"
_cell_formula_units_Z 12
_cell_length_a 7.360978
_cell_length_b 12.899780
_cell_length_c 6.473204
_cell_angle_alpha 90.000000
_cell_angle_beta 51.077703
_cell_angle_gamma 90.000000
_cell_volume 478.207074
_symmetry_space_group_name_H-M "P 21"
_symmetry_group_IT_number 4
_symmetry_cell_setting 'monoclinic'
loop_
_space_group_symop_operation_xyz
x,y,z
-x,1/2+y,-z
loop_
_atom_site_type_symbol
_atom_site_label
_atom_site_fract_x
_atom_site_fract_y
_atom_site_fract_z
Si Si1 0.959660 0.583870 0.322312
Si Si2 0.340063 0.846690 0.015888
Si Si3 0.565843 0.003430 0.141803
Si Si4 0.045269 0.371955 0.043662
Si Si5 0.576425 0.691043 0.539488
Si Si6 0.159484 0.707560 0.524215
O O1 0.943018 0.462686 0.266535
O O2 0.845542 0.685942 0.283501
O O3 0.022995 0.613746 0.514996
O O4 0.234392 0.588387 0.035854
O O5 0.470399 0.948530 0.007674
O O6 0.258484 0.782205 0.273632
O O7 0.118428 0.875511 0.036681
O O8 0.510345 0.779372 0.746604
O O9 0.375057 0.076614 0.386281
O O10 0.689175 0.911308 0.184177
O O11 0.016498 0.271976 0.206543
O O12 0.382771 0.678797 0.505100
#
# Coordination Sequence:
#
# PCOD9117530 Si02
#       6
#     2   2   2   2   2   2
#     4  10  23  42  65  97 130 169 218 260 325 382
#     4  11  22  43  68  95 133 172 217 266 326 382
#     4  10  23  43  66  96 130 171 215 265 324 380
#     4   9  23  40  63  98 129 170 218 262 320 380
#     4  11  24  43  66  96 134 172 215 269 319 386
#     4  11  23  43  68  96 132 172 219 264 324 386
#
# _framework density 25.093733
#
# number of rings (size 3 to 8) (size 9 to 14) (size 15 to 20)
#    1.000    0.667    1.667    2.000    2.333    4.000 
#    3.000    0.000    0.000    0.000    0.000    0.000 
#    0.000    0.000    0.000    0.000    0.000    0.000 
#
# Total GULP energy -66966.053331 kJ/mol
# GULP energy per Si atom -5580.504444 kJ/mol
# Density = 2.503662 g / cm^3
# Si number density = 25.093733 Si / 1000 Ang^3
#
#
#
# Elastic Constant Matrix: (Units=GPa)
#
#
# Indices 1 2 3 4 5 6 
#
# 1 158.8545 49.6897 39.1054 0.0000 24.9913 0.0000
# 2 49.6897 59.0762 38.9061 0.0000 13.9808 0.0000
# 3 39.1054 38.9061 84.8343 0.0000 12.6007 0.0000
# 4 0.0000 0.0000 0.0000 15.4735 0.0000 -15.4440
# 5 24.9913 13.9808 12.6007 0.0000 41.5656 0.0000
# 6 0.0000 0.0000 0.0000 -15.4440 0.0000 55.6281
#
#
#
# Elastic Compliance Matrix: (Units=1/GPa)
#
#
# Indices 1 2 3 4 5 6 
#
# 1 0.008927 -0.006275 -0.000789 0.000000 -0.003017 0.000000
# 2 -0.006275 0.029702 -0.010268 0.000000 -0.003105 0.000000
# 3 -0.000789 -0.010268 0.017045 0.000000 -0.001239 0.000000
# 4 0.000000 0.000000 0.000000 0.089399 0.000000 0.024820
# 5 -0.003017 -0.003105 -0.001239 0.000000 0.027293 0.000000
# 6 0.000000 0.000000 0.000000 0.024820 0.000000 0.024867
#
#
# Mechanical properties :
#
#
# Convention : Reuss Voigt Hill
#
# Bulk Modulus (GPa) = 47.59722 62.01860 54.80791
# Shear Modulus (GPa) = 20.92932 34.20438 27.56685
#
# Velocity S-wave (km/s) = 2.89112 3.69598 3.31804
# Velocity P-wave (km/s) = 5.49124 6.55607 6.04714
#
# Compressibility (1/GPa) = 0.02100963
#
# Stress axis : x y z
#
# Youngs Moduli (GPa) = 112.02303 33.66761 58.66974
#
# Poissons Ratio (x) = 0.21125 0.04629
# Poissons Ratio (y) = 0.70290 0.60243
# Poissons Ratio (z) = 0.08839 0.34571
#
# Static dielectric constant tensor:
#      x y z
#    x 2.040450 0.000000 -0.129450 
#    y 0.000000 2.107180 0.000000 
#    z -0.129450 0.000000 2.145040 
# 
# From -- ./inp_files/1884.got.cif
#   From: 2010.05.17/outbox.cif.g08.bks.cpg/sg4_1_cif.got.tgz:1884.got - 2010.06.03 18:43:04.
