data_PCOD9117780
_publ_section_title
;
Structure prediction by ZEFSAII (Michael W. Deem and Ramdas Pophale) SiO2 
 PCOD9117780
Probable space group: P 21
;
_chemical_formula_sum "Si O2"
_cell_formula_units_Z 14
_cell_length_a 17.814115
_cell_length_b 5.162572
_cell_length_c 6.687201
_cell_angle_alpha 90.000000
_cell_angle_beta 104.077702
_cell_angle_gamma 90.000000
_cell_volume 596.529050
_symmetry_space_group_name_H-M "P 21"
_symmetry_group_IT_number 4
_symmetry_cell_setting 'monoclinic'
loop_
_space_group_symop_operation_xyz
x,y,z
-x,1/2+y,-z
loop_
_atom_site_type_symbol
_atom_site_label
_atom_site_fract_x
_atom_site_fract_y
_atom_site_fract_z
Si Si1 0.237518 0.101480 0.896911
Si Si2 0.496335 0.340823 0.373761
Si Si3 0.918733 0.848413 0.362571
Si Si4 0.033122 0.513968 0.203826
Si Si5 0.324465 0.418141 0.280688
Si Si6 0.666735 0.417930 0.423886
Si Si7 0.122134 0.752130 0.956767
O O1 0.156411 0.186530 0.745255
O O2 0.287937 0.973296 0.753658
O O3 0.273608 0.329843 0.055158
O O4 0.203811 0.885070 0.025143
O O5 0.507663 0.538209 0.569588
O O6 0.412077 0.429479 0.247038
O O7 0.575809 0.384030 0.307822
O O8 0.995906 0.753261 0.301483
O O9 0.937285 0.827965 0.604190
O O10 0.893599 0.131204 0.270171
O O11 0.106535 0.532847 0.108397
O O12 0.955340 0.416285 0.046075
O O13 0.312888 0.668544 0.420202
O O14 0.323130 0.173441 0.432449
#
# Coordination Sequence:
#
# PCOD9117780 Si02
#       7
#     2   2   2   2   2   2   2
#     4  11  28  44  66 110 144 186 246 300 378 452
#     4   8  16  38  70 102 136 192 246 290 356 430
#     4  11  24  42  67  98 133 176 237 295 359 438
#     4  11  22  44  68  92 126 176 228 294 352 424
#     4  10  23  45  73 104 150 196 243 307 368 438
#     4  10  23  45  73 104 150 196 243 307 368 438
#     4  11  24  42  67  98 133 176 237 295 359 438
#
# _framework density 23.469101999999999
#
# number of rings (size 3 to 8) (size 9 to 14) (size 15 to 20)
#    0.000    1.714    2.857    0.000    4.000    2.286 
#    0.000    8.571    0.000    0.000    0.000    0.000 
#    0.000    0.000    0.000    0.000    0.000    0.000 
#
# Total GULP energy -78017.316565 kJ/mol
# GULP energy per Si atom -5572.665469 kJ/mol
# Density = 2.341569 g / cm^3
# Si number density = 23.469102 Si / 1000 Ang^3
#
#
#
# Elastic Constant Matrix: (Units=GPa)
#
#
# Indices 1 2 3 4 5 6 
#
# 1 152.3312 37.8065 61.9792 0.0000 -23.1189 0.0000
# 2 37.8065 117.1070 30.1796 0.0000 -3.0597 0.0000
# 3 61.9792 30.1796 90.9601 0.0000 -10.0782 0.0000
# 4 0.0000 0.0000 0.0000 25.3505 0.0000 0.1831
# 5 -23.1189 -3.0597 -10.0782 0.0000 28.1487 0.0000
# 6 0.0000 0.0000 0.0000 0.1831 0.0000 28.8325
#
#
#
# Elastic Compliance Matrix: (Units=1/GPa)
#
#
# Indices 1 2 3 4 5 6 
#
# 1 0.010257 -0.001668 -0.005750 0.000000 0.006184 0.000000
# 2 -0.001668 0.009609 -0.002174 0.000000 -0.001104 0.000000
# 3 -0.005750 -0.002174 0.015707 0.000000 0.000665 0.000000
# 4 0.000000 0.000000 0.000000 0.039449 0.000000 -0.000251
# 5 0.006184 -0.001104 0.000665 0.000000 0.040722 0.000000
# 6 0.000000 0.000000 0.000000 -0.000251 0.000000 0.034685
#
#
# Mechanical properties :
#
#
# Convention : Reuss Voigt Hill
#
# Bulk Modulus (GPa) = 61.01847 68.92543 64.97195
# Shear Modulus (GPa) = 28.55907 31.82854 30.19381
#
# Velocity S-wave (km/s) = 3.49216 3.68664 3.59072
# Velocity P-wave (km/s) = 6.50509 6.89595 6.70337
#
# Compressibility (1/GPa) = 0.01638848
#
# Stress axis : x y z
#
# Youngs Moduli (GPa) = 97.49725 104.06843 63.66595
#
# Poissons Ratio (x) = 0.17356 0.36610
# Poissons Ratio (y) = 0.16260 0.13841
# Poissons Ratio (z) = 0.56064 0.22625
#
# Static dielectric constant tensor:
#      x y z
#    x 2.022750 0.000000 -0.148530 
#    y 0.000000 2.098990 0.000000 
#    z -0.148530 0.000000 2.087340 
# 
# From -- ./inp_files/3919.got.cif
#   From: 2010.05.17/outbox.cif.g08.bks.cpg/sg4_2_cif.got.tgz:3919.got - 2010.06.03 18:43:04.
