data_PCOD9117398
_publ_section_title
;
Structure prediction by ZEFSAII (Michael W. Deem and Ramdas Pophale) SiO2 
 PCOD9117398
Probable space group: P 21
;
_chemical_formula_sum "Si O2"
_cell_formula_units_Z 14
_cell_length_a 6.988022
_cell_length_b 9.809736
_cell_length_c 9.081705
_cell_angle_alpha 90.000000
_cell_angle_beta 122.252047
_cell_angle_gamma 90.000000
_cell_volume 526.501729
_symmetry_space_group_name_H-M "P 21"
_symmetry_group_IT_number 4
_symmetry_cell_setting 'monoclinic'
loop_
_space_group_symop_operation_xyz
x,y,z
-x,1/2+y,-z
loop_
_atom_site_type_symbol
_atom_site_label
_atom_site_fract_x
_atom_site_fract_y
_atom_site_fract_z
Si Si1 0.942984 0.872360 0.489546
Si Si2 0.604986 0.049686 0.161026
Si Si3 0.155279 0.024213 0.852823
Si Si4 0.367795 0.931628 0.493232
Si Si5 0.659086 0.698615 0.715019
Si Si6 0.390909 0.170792 0.710627
Si Si7 0.135485 0.659822 0.017474
O O1 0.750031 0.965333 0.337639
O O2 0.823526 0.728845 0.466657
O O3 0.132706 0.863837 0.442281
O O4 0.042623 0.938672 0.676671
O O5 0.385340 0.965579 0.016451
O O6 0.758187 0.087840 0.083477
O O7 0.503518 0.178679 0.209360
O O8 0.272231 0.155762 0.820902
O O9 0.977343 0.064977 0.903839
O O10 0.356305 0.730545 0.180549
O O11 0.342262 0.046057 0.357094
O O12 0.437395 0.022098 0.663472
O O13 0.545235 0.809704 0.562445
O O14 0.911929 0.737990 0.868852
#
# Coordination Sequence:
#
# PCOD9117398 Si02
#       7
#     2   2   2   2   2   2   2
#     4  11  24  49  81 114 163 210 271 339 412 479
#     4  10  23  49  77 116 157 210 267 339 410 488
#     4   9  23  48  76 113 159 212 271 333 404 490
#     4  11  27  48  81 119 161 215 275 338 413 493
#     4  11  26  50  79 120 162 215 278 340 415 491
#     4  10  25  47  74 117 158 210 271 336 409 490
#     4  10  22  53  76 113 162 212 275 339 411 493
#
# _framework density 26.590603999999999
#
# number of rings (size 3 to 8) (size 9 to 14) (size 15 to 20)
#    0.000    1.714    1.429    0.000    8.000    0.000 
#   30.857    0.000    0.000    0.000    0.000    0.000 
#    0.000    0.000    0.000    0.000    0.000    0.000 
#
# Total GULP energy -78316.249074 kJ/mol
# GULP energy per Si atom -5594.017791 kJ/mol
# Density = 2.653008 g / cm^3
# Si number density = 26.590604 Si / 1000 Ang^3
#
#
#
# Elastic Constant Matrix: (Units=GPa)
#
#
# Indices 1 2 3 4 5 6 
#
# 1 181.4786 43.0276 19.9990 0.0000 4.6903 0.0000
# 2 43.0276 52.2507 24.0257 0.0000 18.0246 0.0000
# 3 19.9990 24.0257 101.3322 0.0000 21.2344 0.0000
# 4 0.0000 0.0000 0.0000 26.5427 0.0000 -2.0337
# 5 4.6903 18.0246 21.2344 0.0000 73.1309 0.0000
# 6 0.0000 0.0000 0.0000 -2.0337 0.0000 19.1432
#
#
#
# Elastic Compliance Matrix: (Units=1/GPa)
#
#
# Indices 1 2 3 4 5 6 
#
# 1 0.006923 -0.005996 -0.000172 0.000000 0.001084 0.000000
# 2 -0.005996 0.027870 -0.004329 0.000000 -0.005227 0.000000
# 3 -0.000172 -0.004329 0.011396 0.000000 -0.002231 0.000000
# 4 0.000000 0.000000 0.000000 0.037984 0.000000 0.004035
# 5 0.001084 -0.005227 -0.002231 0.000000 0.015541 0.000000
# 6 0.000000 0.000000 0.000000 0.004035 0.000000 0.052667
#
#
# Mechanical properties :
#
#
# Convention : Reuss Voigt Hill
#
# Bulk Modulus (GPa) = 39.68924 56.57403 48.13163
# Shear Modulus (GPa) = 27.50694 40.29729 33.90212
#
# Velocity S-wave (km/s) = 3.21979 3.89713 3.57454
# Velocity P-wave (km/s) = 5.36481 6.44766 5.93100
#
# Compressibility (1/GPa) = 0.02519575
#
# Stress axis : x y z
#
# Youngs Moduli (GPa) = 144.45149 35.88131 87.74709
#
# Poissons Ratio (x) = 0.21513 0.01508
# Poissons Ratio (y) = 0.86607 0.37987
# Poissons Ratio (z) = 0.02482 0.15534
#
# Static dielectric constant tensor:
#      x y z
#    x 2.053150 0.000000 -0.015280 
#    y 0.000000 2.143080 0.000000 
#    z -0.015280 0.000000 2.161560 
# 
# From -- ./inp_files/6303.got.cif
#   From: 2010.05.17/outbox.cif.g08.bks.cpg/sg4_4_cif.got.tgz:6303.got - 2010.06.03 18:43:04.
