data_PCOD9117062
_publ_section_title
;
Structure prediction by ZEFSAII (Michael W. Deem and Ramdas Pophale) SiO2 
 PCOD9117062
Probable space group: P 21
;
_chemical_formula_sum "Si O2"
_cell_formula_units_Z 16
_cell_length_a 5.052361
_cell_length_b 14.519907
_cell_length_c 8.933824
_cell_angle_alpha 90.000000
_cell_angle_beta 103.581343
_cell_angle_gamma 90.000000
_cell_volume 637.057494
_symmetry_space_group_name_H-M "P 21"
_symmetry_group_IT_number 4
_symmetry_cell_setting 'monoclinic'
loop_
_space_group_symop_operation_xyz
x,y,z
-x,1/2+y,-z
loop_
_atom_site_type_symbol
_atom_site_label
_atom_site_fract_x
_atom_site_fract_y
_atom_site_fract_z
Si Si1 0.728957 0.635210 0.194534
Si Si2 0.295899 0.944631 0.956880
Si Si3 0.889691 0.370607 0.776093
Si Si4 0.193198 0.460782 0.566063
Si Si5 0.932272 0.811419 0.698976
Si Si6 0.358404 0.079025 0.514711
Si Si7 0.224206 0.725844 0.463693
Si Si8 0.708902 0.789053 0.972339
O O1 0.784109 0.548172 0.097406
O O2 0.549910 0.584319 0.298873
O O3 0.980418 0.676057 0.331435
O O4 0.586854 0.712889 0.071139
O O5 0.582185 0.891781 0.964520
O O6 0.115898 0.877850 0.827705
O O7 0.248327 0.939191 0.128159
O O8 0.726667 0.318888 0.624818
O O9 0.140695 0.411900 0.716181
O O10 0.998157 0.295887 0.909068
O O11 0.182400 0.384189 0.435349
O O12 0.464034 0.514941 0.567705
O O13 0.940371 0.533715 0.525644
O O14 0.745319 0.765743 0.803182
O O15 0.104704 0.744392 0.613153
O O16 0.482325 0.178100 0.487126
#
# Coordination Sequence:
#
# PCOD9117062 Si02
#       8
#     2   2   2   2   2   2   2   2
#     4  11  23  43  68 100 142 191 238 297 357 437
#     4  11  21  42  66 100 139 189 232 293 367 429
#     4   9  23  43  65  98 134 187 235 288 363 424
#     4  11  24  42  71 100 136 183 239 293 353 427
#     4  10  22  43  66 102 135 183 239 295 364 423
#     4  12  22  42  67 102 135 176 238 288 359 413
#     4  10  22  43  68  98 138 182 237 305 353 423
#     4  10  23  42  71 100 145 189 238 295 364 428
#
# _framework density 25.115470999999999
#
# number of rings (size 3 to 8) (size 9 to 14) (size 15 to 20)
#    0.000    1.500    2.500    1.500    1.750    3.000 
#    6.750    0.000    0.000    0.000    0.000    0.000 
#    0.000    0.000    0.000    0.000    0.000    0.000 
#
# Total GULP energy -89119.699521 kJ/mol
# GULP energy per Si atom -5569.981220 kJ/mol
# Density = 2.505831 g / cm^3
# Si number density = 25.115471 Si / 1000 Ang^3
#
#
#
# Elastic Constant Matrix: (Units=GPa)
#
#
# Indices 1 2 3 4 5 6 
#
# 1 68.6405 19.5244 62.6544 0.0000 5.7703 0.0000
# 2 19.5244 86.5590 47.5144 0.0000 1.2929 0.0000
# 3 62.6544 47.5144 185.1194 0.0000 -39.8680 0.0000
# 4 0.0000 0.0000 0.0000 45.6113 0.0000 -4.3287
# 5 5.7703 1.2929 -39.8680 0.0000 24.7882 0.0000
# 6 0.0000 0.0000 0.0000 -4.3287 0.0000 26.6021
#
#
#
# Elastic Compliance Matrix: (Units=1/GPa)
#
#
# Indices 1 2 3 4 5 6 
#
# 1 0.043593 0.006760 -0.028688 0.000000 -0.056640 0.000000
# 2 0.006760 0.016162 -0.010644 0.000000 -0.019535 0.000000
# 3 -0.028688 -0.010644 0.029682 0.000000 0.054973 0.000000
# 4 0.000000 0.000000 0.000000 0.022268 0.000000 0.003623
# 5 -0.056640 -0.019535 0.054973 0.000000 0.142961 0.000000
# 6 0.000000 0.000000 0.000000 0.003623 0.000000 0.038181
#
#
# Mechanical properties :
#
#
# Convention : Reuss Voigt Hill
#
# Bulk Modulus (GPa) = 41.15918 66.63392 53.89655
# Shear Modulus (GPa) = 13.65790 33.44202 23.54996
#
# Velocity S-wave (km/s) = 2.33449 3.65297 3.06546
# Velocity P-wave (km/s) = 4.86724 6.66190 5.83399
#
# Compressibility (1/GPa) = 0.02429591
#
# Stress axis : x y z
#
# Youngs Moduli (GPa) = 22.93947 61.87245 33.68993
#
# Poissons Ratio (x) = -0.41828 0.96648
# Poissons Ratio (y) = -0.15508 0.35858
# Poissons Ratio (z) = 0.65808 0.65855
#
# Static dielectric constant tensor:
#      x y z
#    x 2.155260 0.000000 0.017040 
#    y 0.000000 2.159720 0.000000 
#    z 0.017040 0.000000 2.018160 
# 
# From -- ./inp_files/4763.got.cif
#   From: 2010.05.17/outbox.cif.g08.bks.cpg/sg4_3_cif.got.tgz:4763.got - 2010.06.03 18:43:04.
