data_PCOD9117473
_publ_section_title
;
Structure prediction by ZEFSAII (Michael W. Deem and Ramdas Pophale) SiO2 
 PCOD9117473
Probable space group: P 21
;
_chemical_formula_sum "Si O2"
_cell_formula_units_Z 14
_cell_length_a 11.543535
_cell_length_b 8.612077
_cell_length_c 8.274375
_cell_angle_alpha 90.000000
_cell_angle_beta 137.091880
_cell_angle_gamma 90.000000
_cell_volume 560.037641
_symmetry_space_group_name_H-M "P 21"
_symmetry_group_IT_number 4
_symmetry_cell_setting 'monoclinic'
loop_
_space_group_symop_operation_xyz
x,y,z
-x,1/2+y,-z
loop_
_atom_site_type_symbol
_atom_site_label
_atom_site_fract_x
_atom_site_fract_y
_atom_site_fract_z
Si Si1 0.908431 0.500000 0.489146
Si Si2 0.534676 0.382589 0.163655
Si Si3 0.157632 0.514234 0.214094
Si Si4 0.396093 0.284243 0.351650
Si Si5 0.420680 0.703957 0.131792
Si Si6 0.033993 0.294839 0.859228
Si Si7 0.050353 0.818502 0.761833
O O1 0.720099 0.462164 0.359062
O O2 0.908157 0.471796 0.299196
O O3 0.978437 0.664803 0.606233
O O4 0.021485 0.354055 0.665976
O O5 0.506939 0.283310 0.300110
O O6 0.406433 0.527405 0.052451
O O7 0.524989 0.297836 0.978117
O O8 0.097939 0.381440 0.276901
O O9 0.343386 0.464002 0.344412
O O10 0.029186 0.465547 0.939124
O O11 0.114435 0.680788 0.238294
O O12 0.460408 0.219830 0.588520
O O13 0.212258 0.223297 0.100527
O O14 0.238052 0.765288 0.008833
#
# Coordination Sequence:
#
# PCOD9117473 Si02
#       7
#     2   2   2   2   2   2   2
#     4  11  24  43  68  99 133 178 230 286 343 409
#     4  11  27  46  69 102 141 183 233 289 351 421
#     4  10  23  41  66 100 131 177 230 279 335 406
#     4  10  26  42  72 102 140 186 226 288 352 410
#     4  11  27  46  69 102 141 183 233 289 351 421
#     4  10  23  41  66 100 131 177 230 279 335 406
#     4  11  24  43  68  99 133 178 230 286 343 409
#
# _framework density 24.998318000000001
#
# number of rings (size 3 to 8) (size 9 to 14) (size 15 to 20)
#    0.857    0.571    0.000    3.429    6.000   10.286 
#    0.000    0.000    0.000    0.000    0.000    0.000 
#    0.000    0.000    0.000    0.000    0.000    0.000 
#
# Total GULP energy -78055.309272 kJ/mol
# GULP energy per Si atom -5575.379234 kJ/mol
# Density = 2.494142 g / cm^3
# Si number density = 24.998318 Si / 1000 Ang^3
#
#
#
# Elastic Constant Matrix: (Units=GPa)
#
#
# Indices 1 2 3 4 5 6 
#
# 1 133.2540 24.0665 38.5429 0.0000 -9.3909 0.0000
# 2 24.0665 87.4644 30.3674 0.0000 -22.4016 0.0000
# 3 38.5429 30.3674 75.0348 0.0000 -11.4937 0.0000
# 4 0.0000 0.0000 0.0000 18.5972 0.0000 -7.8885
# 5 -9.3909 -22.4016 -11.4937 0.0000 31.1449 0.0000
# 6 0.0000 0.0000 0.0000 -7.8885 0.0000 44.6754
#
#
#
# Elastic Compliance Matrix: (Units=1/GPa)
#
#
# Indices 1 2 3 4 5 6 
#
# 1 0.008896 -0.000878 -0.004134 0.000000 0.000525 0.000000
# 2 -0.000878 0.015602 -0.004436 0.000000 0.009320 0.000000
# 3 -0.004134 -0.004436 0.017559 0.000000 0.002043 0.000000
# 4 0.000000 0.000000 0.000000 0.058125 0.000000 0.010263
# 5 0.000525 0.009320 0.002043 0.000000 0.039724 0.000000
# 6 0.000000 0.000000 0.000000 0.010263 0.000000 0.024196
#
#
# Mechanical properties :
#
#
# Convention : Reuss Voigt Hill
#
# Bulk Modulus (GPa) = 43.17467 53.52300 48.34883
# Shear Modulus (GPa) = 26.21693 32.40192 29.30942
#
# Velocity S-wave (km/s) = 3.24195 3.60413 3.42783
# Velocity P-wave (km/s) = 5.59662 6.22710 5.92026
#
# Compressibility (1/GPa) = 0.02316173
#
# Stress axis : x y z
#
# Youngs Moduli (GPa) = 112.41415 64.09430 56.95238
#
# Poissons Ratio (x) = 0.05628 0.23542
# Poissons Ratio (y) = 0.09870 0.25262
# Poissons Ratio (z) = 0.46468 0.28430
#
# Static dielectric constant tensor:
#      x y z
#    x 2.134850 0.000000 -0.121260 
#    y 0.000000 1.979920 0.000000 
#    z -0.121260 0.000000 2.120610 
# 
# From -- ./inp_files/8045.got.cif
#   From: 2010.05.17/outbox.cif.g08.bks.cpg/sg4_5_cif.got.tgz:8045.got - 2010.06.03 18:43:04.
