data_PCOD9117376
_publ_section_title
;
Structure prediction by ZEFSAII (Michael W. Deem and Ramdas Pophale) SiO2 
 PCOD9117376
Probable space group: P 21
;
_chemical_formula_sum "Si O2"
_cell_formula_units_Z 16
_cell_length_a 5.981617
_cell_length_b 12.181704
_cell_length_c 9.451189
_cell_angle_alpha 90.000000
_cell_angle_beta 68.502999
_cell_angle_gamma 90.000000
_cell_volume 640.766721
_symmetry_space_group_name_H-M "P 21"
_symmetry_group_IT_number 4
_symmetry_cell_setting 'monoclinic'
loop_
_space_group_symop_operation_xyz
x,y,z
-x,1/2+y,-z
loop_
_atom_site_type_symbol
_atom_site_label
_atom_site_fract_x
_atom_site_fract_y
_atom_site_fract_z
Si Si1 0.831919 0.142220 0.231263
Si Si2 0.320952 0.715253 0.045450
Si Si3 0.145796 0.640598 0.369274
Si Si4 0.789509 0.818201 0.871558
Si Si5 0.581340 0.937046 0.655103
Si Si6 0.530946 0.341580 0.605770
Si Si7 0.647966 0.569589 0.502662
Si Si8 0.951830 0.905079 0.122484
O O1 0.601487 0.116795 0.380499
O O2 0.001139 0.242009 0.242535
O O3 0.972375 0.027981 0.175847
O O4 0.740267 0.175448 0.096948
O O5 0.220547 0.635143 0.187836
O O6 0.179878 0.829644 0.102750
O O7 0.603801 0.735535 0.990810
O O8 0.196690 0.519309 0.417582
O O9 0.307049 0.739659 0.389326
O O10 0.864945 0.652871 0.458525
O O11 0.627799 0.880464 0.793099
O O12 0.903556 0.895754 0.964937
O O13 0.545331 0.848656 0.541045
O O14 0.373234 0.024199 0.655653
O O15 0.672980 0.457257 0.587459
O O16 0.285973 0.352737 0.750632
#
# Coordination Sequence:
#
# PCOD9117376 Si02
#       8
#     2   2   2   2   2   2   2   2
#     4  10  24  50  75 107 158 204 257 327 393 464
#     4  11  26  42  78 112 146 208 259 324 382 477
#     4  12  24  49  81 110 157 211 255 327 406 447
#     4  11  24  48  79 113 152 205 261 324 394 456
#     4  10  26  48  74 116 150 198 261 327 378 477
#     4   9  23  51  74 112 156 198 258 317 388 469
#     4   9  25  50  74 117 151 203 261 321 386 472
#     4  10  22  48  73 109 152 203 264 317 383 470
#
# _framework density 24.970086999999999
#
# number of rings (size 3 to 8) (size 9 to 14) (size 15 to 20)
#    0.750    1.000    1.250    0.750    1.750    8.000 
#    6.750    0.000    0.000    0.000    0.000    0.000 
#    0.000    0.000    0.000    0.000    0.000    0.000 
#
# Total GULP energy -89432.747047 kJ/mol
# GULP energy per Si atom -5589.546690 kJ/mol
# Density = 2.491325 g / cm^3
# Si number density = 24.970087 Si / 1000 Ang^3
#
#
#
# Elastic Constant Matrix: (Units=GPa)
#
#
# Indices 1 2 3 4 5 6 
#
# 1 57.5864 29.5108 41.3608 0.0000 -3.1499 0.0000
# 2 29.5108 115.7137 36.3413 0.0000 -12.9551 0.0000
# 3 41.3608 36.3413 97.6125 0.0000 -2.2975 0.0000
# 4 0.0000 0.0000 0.0000 34.9535 0.0000 -2.2716
# 5 -3.1499 -12.9551 -2.2975 0.0000 49.8413 0.0000
# 6 0.0000 0.0000 0.0000 -2.2716 0.0000 40.0813
#
#
#
# Elastic Compliance Matrix: (Units=1/GPa)
#
#
# Indices 1 2 3 4 5 6 
#
# 1 0.026242 -0.003592 -0.009776 0.000000 0.000274 0.000000
# 2 -0.003592 0.010568 -0.002356 0.000000 0.002411 0.000000
# 3 -0.009776 -0.002356 0.015251 0.000000 -0.000527 0.000000
# 4 0.000000 0.000000 0.000000 0.028715 0.000000 0.001627
# 5 0.000274 0.002411 -0.000527 0.000000 0.020683 0.000000
# 6 0.000000 0.000000 0.000000 0.001627 0.000000 0.025042
#
#
# Mechanical properties :
#
#
# Convention : Reuss Voigt Hill
#
# Bulk Modulus (GPa) = 48.50849 53.92648 51.21749
# Shear Modulus (GPa) = 30.33615 35.88854 33.11234
#
# Velocity S-wave (km/s) = 3.48932 3.79524 3.64549
# Velocity P-wave (km/s) = 5.97517 6.39128 6.18672
#
# Compressibility (1/GPa) = 0.02061495
#
# Stress axis : x y z
#
# Youngs Moduli (GPa) = 38.10662 94.62662 65.56741
#
# Poissons Ratio (x) = 0.33987 0.64097
# Poissons Ratio (y) = 0.13687 0.15446
# Poissons Ratio (z) = 0.37252 0.22292
#
# Static dielectric constant tensor:
#      x y z
#    x 2.001990 0.000000 0.062900 
#    y 0.000000 1.982060 0.000000 
#    z 0.062900 0.000000 1.973670 
# 
# From -- ./inp_files/1338.got.cif
#   From: 2010.05.17/outbox.cif.g08.bks.cpg/sg4_1_cif.got.tgz:1338.got - 2010.06.03 18:43:04.
