data_PCOD9117559
_publ_section_title
;
Structure prediction by ZEFSAII (Michael W. Deem and Ramdas Pophale) SiO2 
 PCOD9117559
Probable space group: P 21
;
_chemical_formula_sum "Si O2"
_cell_formula_units_Z 14
_cell_length_a 17.511996
_cell_length_b 5.744938
_cell_length_c 9.751950
_cell_angle_alpha 90.000000
_cell_angle_beta 146.275553
_cell_angle_gamma 90.000000
_cell_volume 544.705066
_symmetry_space_group_name_H-M "P 21"
_symmetry_group_IT_number 4
_symmetry_cell_setting 'monoclinic'
loop_
_space_group_symop_operation_xyz
x,y,z
-x,1/2+y,-z
loop_
_atom_site_type_symbol
_atom_site_label
_atom_site_fract_x
_atom_site_fract_y
_atom_site_fract_z
Si Si1 0.337734 0.924100 0.258453
Si Si2 0.823978 0.065179 0.337548
Si Si3 0.360678 0.221743 0.780038
Si Si4 0.008384 0.655404 0.166425
Si Si5 0.187875 0.426711 0.982866
Si Si6 0.773856 0.407669 0.637723
Si Si7 0.416016 0.895687 0.089508
O O1 0.353390 0.910291 0.446242
O O2 0.258134 0.675935 0.117797
O O3 0.447138 0.907567 0.297487
O O4 0.272650 0.183317 0.132252
O O5 0.720279 0.941788 0.287488
O O6 0.848793 0.933261 0.232618
O O7 0.960413 0.066798 0.633429
O O8 0.739356 0.296779 0.165947
O O9 0.260091 0.043645 0.551881
O O10 0.422150 0.133022 0.014969
O O11 0.476956 0.252422 0.840279
O O12 0.151733 0.673641 0.300201
O O13 0.940519 0.902628 0.105936
O O14 0.896202 0.523084 0.910101
#
# Coordination Sequence:
#
# PCOD9117559 Si02
#       7
#     2   2   2   2   2   2   2
#     4  10  23  46  70  99 143 180 231 284 345 412
#     4  11  23  40  69 101 134 180 234 287 345 403
#     4  12  23  43  71  99 133 177 238 288 348 403
#     4  11  23  41  66 102 141 183 224 281 343 422
#     4  10  23  42  69 102 140 185 230 282 341 407
#     4  11  24  42  66 104 138 183 225 279 350 418
#     4  11  23  44  69  99 131 180 236 291 340 403
#
# _framework density 25.701982000000001
#
# number of rings (size 3 to 8) (size 9 to 14) (size 15 to 20)
#    0.000    1.143    4.286    1.714    0.000    8.000 
#    0.000    8.571    0.000    0.000    0.000    0.000 
#    0.000    0.000    0.000    0.000    0.000    0.000 
#
# Total GULP energy -78048.972131 kJ/mol
# GULP energy per Si atom -5574.926581 kJ/mol
# Density = 2.564348 g / cm^3
# Si number density = 25.701982 Si / 1000 Ang^3
#
#
#
# Elastic Constant Matrix: (Units=GPa)
#
#
# Indices 1 2 3 4 5 6 
#
# 1 146.3372 20.2621 13.9215 0.0000 -41.7478 0.0000
# 2 20.2621 75.7956 31.7423 0.0000 -13.1004 0.0000
# 3 13.9215 31.7423 82.8037 0.0000 -24.2890 0.0000
# 4 0.0000 0.0000 0.0000 35.1125 0.0000 -2.1595
# 5 -41.7478 -13.1004 -24.2890 0.0000 43.3437 0.0000
# 6 0.0000 0.0000 0.0000 -2.1595 0.0000 42.0314
#
#
#
# Elastic Compliance Matrix: (Units=1/GPa)
#
#
# Indices 1 2 3 4 5 6 
#
# 1 0.009716 -0.001688 0.001925 0.000000 0.009927 0.000000
# 2 -0.001688 0.016108 -0.005912 0.000000 -0.000070 0.000000
# 3 0.001925 -0.005912 0.016801 0.000000 0.009483 0.000000
# 4 0.000000 0.000000 0.000000 0.028570 0.000000 0.001468
# 5 0.009927 -0.000070 0.009483 0.000000 0.037926 0.000000
# 6 0.000000 0.000000 0.000000 0.001468 0.000000 0.023867
#
#
# Mechanical properties :
#
#
# Convention : Reuss Voigt Hill
#
# Bulk Modulus (GPa) = 31.97250 48.53204 40.25227
# Shear Modulus (GPa) = 32.30757 40.03156 36.16957
#
# Velocity S-wave (km/s) = 3.54928 3.95083 3.75543
# Velocity P-wave (km/s) = 5.40955 6.30363 5.87362
#
# Compressibility (1/GPa) = 0.03127688
#
# Stress axis : x y z
#
# Youngs Moduli (GPa) = 102.92133 62.07982 59.52088
#
# Poissons Ratio (x) = 0.10479 -0.11461
# Poissons Ratio (y) = 0.17373 0.35187
# Poissons Ratio (z) = -0.19817 0.36700
#
# Static dielectric constant tensor:
#      x y z
#    x 2.123090 0.000000 0.056180 
#    y 0.000000 2.111190 0.000000 
#    z 0.056180 0.000000 2.090600 
# 
# From -- ./inp_files/9340.got.cif
#   From: 2010.05.17/outbox.cif.g08.bks.cpg/sg4_5_cif.got.tgz:9340.got - 2010.06.03 18:43:04.
