data_PCOD9117745
_publ_section_title
;
Structure prediction by ZEFSAII (Michael W. Deem and Ramdas Pophale) SiO2 
 PCOD9117745
Probable space group: P 21
;
_chemical_formula_sum "Si O2"
_cell_formula_units_Z 10
_cell_length_a 9.304111
_cell_length_b 7.485536
_cell_length_c 7.752023
_cell_angle_alpha 90.000000
_cell_angle_beta 134.666916
_cell_angle_gamma 90.000000
_cell_volume 383.979424
_symmetry_space_group_name_H-M "P 21"
_symmetry_group_IT_number 4
_symmetry_cell_setting 'monoclinic'
loop_
_space_group_symop_operation_xyz
x,y,z
-x,1/2+y,-z
loop_
_atom_site_type_symbol
_atom_site_label
_atom_site_fract_x
_atom_site_fract_y
_atom_site_fract_z
Si Si1 0.962064 0.641940 0.979403
Si Si2 0.510716 0.726704 0.169638
Si Si3 0.290379 0.541287 0.501138
Si Si4 0.084240 0.855132 0.804057
Si Si5 0.619696 0.820378 0.904806
O O1 0.189444 0.620888 0.244749
O O2 0.972711 0.680073 0.785756
O O3 0.870930 0.457794 0.975825
O O4 0.462251 0.522401 0.169198
O O5 0.587716 0.854362 0.388371
O O6 0.662160 0.758089 0.137434
O O7 0.299731 0.807416 0.915386
O O8 0.443671 0.686157 0.697982
O O9 0.921584 0.986254 0.579904
O O10 0.182662 0.283400 0.044402
#
# Coordination Sequence:
#
# PCOD9117745 Si02
#       5
#     2   2   2   2   2
#     4  10  23  45  67  99 138 170 228 273 328 399
#     4  12  24  46  70  99 138 175 225 281 328 402
#     4  10  24  46  68 100 134 180 222 270 346 392
#     4  10  23  45  67  99 138 170 228 273 328 399
#     4  12  24  46  70  99 138 175 225 281 328 402
#
# _framework density 26.043061999999999
#
# number of rings (size 3 to 8) (size 9 to 14) (size 15 to 20)
#    1.200    0.000    4.000    1.200    0.000    6.400 
#    0.000    0.000    0.000    0.000    0.000    0.000 
#    0.000    0.000    0.000    0.000    0.000    0.000 
#
# Total GULP energy -55734.954432 kJ/mol
# GULP energy per Si atom -5573.495443 kJ/mol
# Density = 2.598379 g / cm^3
# Si number density = 26.043062 Si / 1000 Ang^3
#
#
#
# Elastic Constant Matrix: (Units=GPa)
#
#
# Indices 1 2 3 4 5 6 
#
# 1 116.7345 17.3530 24.8631 0.0000 16.1848 0.0000
# 2 17.3530 184.2587 61.3615 0.0000 9.7701 0.0000
# 3 24.8631 61.3615 106.9782 0.0000 19.0727 0.0000
# 4 0.0000 0.0000 0.0000 46.8966 0.0000 7.6680
# 5 16.1848 9.7701 19.0727 0.0000 29.9878 0.0000
# 6 0.0000 0.0000 0.0000 7.6680 0.0000 29.8313
#
#
#
# Elastic Compliance Matrix: (Units=1/GPa)
#
#
# Indices 1 2 3 4 5 6 
#
# 1 0.009463 -0.000229 -0.001320 0.000000 -0.004193 0.000000
# 2 -0.000229 0.006716 -0.003870 0.000000 0.000397 0.000000
# 3 -0.001320 -0.003870 0.012996 0.000000 -0.006292 0.000000
# 4 0.000000 0.000000 0.000000 0.022259 0.000000 -0.005722
# 5 -0.004193 0.000397 -0.006292 0.000000 0.039483 0.000000
# 6 0.000000 0.000000 0.000000 -0.005722 0.000000 0.034993
#
#
# Mechanical properties :
#
#
# Convention : Reuss Voigt Hill
#
# Bulk Modulus (GPa) = 54.53545 68.34739 61.44142
# Shear Modulus (GPa) = 34.99905 41.63607 38.31756
#
# Velocity S-wave (km/s) = 3.66989 4.00276 3.83993
# Velocity P-wave (km/s) = 6.24047 6.90389 6.58055
#
# Compressibility (1/GPa) = 0.01833670
#
# Stress axis : x y z
#
# Youngs Moduli (GPa) = 105.67397 148.88779 76.94584
#
# Poissons Ratio (x) = 0.03412 0.10160
# Poissons Ratio (y) = 0.02422 0.29778
# Poissons Ratio (z) = 0.13953 0.57619
#
# Static dielectric constant tensor:
#      x y z
#    x 2.098520 0.000000 -0.015760 
#    y 0.000000 2.139270 0.000000 
#    z -0.015760 0.000000 2.070290 
# 
# From -- ./inp_files/14400.got.cif
#   From: 2010.05.17/outbox.cif.g08.bks.cpg/sg4_8_cif.got.tgz:14400.got - 2010.06.03 18:43:04.
