data_PCOD9117683
_publ_section_title
;
Structure prediction by ZEFSAII (Michael W. Deem and Ramdas Pophale) SiO2 
 PCOD9117683
Probable space group: P 21
;
_chemical_formula_sum "Si O2"
_cell_formula_units_Z 16
_cell_length_a 9.353336
_cell_length_b 12.196647
_cell_length_c 12.268498
_cell_angle_alpha 90.000000
_cell_angle_beta 37.611596
_cell_angle_gamma 90.000000
_cell_volume 854.172670
_symmetry_space_group_name_H-M "P 21"
_symmetry_group_IT_number 4
_symmetry_cell_setting 'monoclinic'
loop_
_space_group_symop_operation_xyz
x,y,z
-x,1/2+y,-z
loop_
_atom_site_type_symbol
_atom_site_label
_atom_site_fract_x
_atom_site_fract_y
_atom_site_fract_z
Si Si1 0.007662 0.380010 0.407203
Si Si2 0.695127 0.936080 0.560210
Si Si3 0.043981 0.221300 0.081994
Si Si4 0.483554 0.217656 0.431986
Si Si5 0.276691 0.083392 0.754180
Si Si6 0.150958 0.455467 0.085500
Si Si7 0.618848 0.555547 0.706796
Si Si8 0.963364 0.638991 0.680921
O O1 0.188170 0.389892 0.399415
O O2 0.138878 0.427391 0.221016
O O3 0.932689 0.255395 0.423951
O O4 0.779985 0.452956 0.572165
O O5 0.649368 0.832860 0.508272
O O6 0.447799 0.999918 0.714562
O O7 0.869062 0.033224 0.417449
O O8 0.763045 0.233069 0.257105
O O9 0.151542 0.341454 0.020537
O O10 0.121287 0.160734 0.145930
O O11 0.131001 0.155110 0.926611
O O12 0.417994 0.160926 0.585527
O O13 0.415599 0.135248 0.375121
O O14 0.089851 0.016301 0.796482
O O15 0.372523 0.521482 0.908039
O O16 0.761975 0.614011 0.716250
#
# Coordination Sequence:
#
# PCOD9117683 Si02
#       8
#     2   2   2   2   2   2   2   2
#     4  10  23  44  67  93 131 173 220 268 324 383
#     4  11  24  43  68  97 131 174 217 269 322 386
#     4  11  25  41  62  97 134 167 219 264 321 388
#     4  12  23  44  65  96 136 172 213 269 322 391
#     4  12  25  40  67  96 130 174 217 264 326 386
#     4  11  24  41  65  99 126 174 217 266 324 385
#     4  11  23  42  68  93 133 173 213 272 323 385
#     4  10  23  45  66  95 131 171 218 270 322 386
#
# _framework density 18.731576
#
# number of rings (size 3 to 8) (size 9 to 14) (size 15 to 20)
#    0.000    1.000    6.250    0.000    3.500    2.000 
#    0.000    5.000    0.000    0.000    0.000    0.000 
#    0.000    0.000    0.000    0.000    0.000    0.000 
#
# Total GULP energy -89323.403466 kJ/mol
# GULP energy per Si atom -5582.712717 kJ/mol
# Density = 1.868894 g / cm^3
# Si number density = 18.731576 Si / 1000 Ang^3
#
#
#
# Elastic Constant Matrix: (Units=GPa)
#
#
# Indices 1 2 3 4 5 6 
#
# 1 53.3261 7.2414 8.8870 0.0000 3.8262 0.0000
# 2 7.2414 63.9616 17.3534 0.0000 -1.1174 0.0000
# 3 8.8870 17.3534 48.0412 0.0000 -4.6782 0.0000
# 4 0.0000 0.0000 0.0000 20.6798 0.0000 -1.3180
# 5 3.8262 -1.1174 -4.6782 0.0000 24.6502 0.0000
# 6 0.0000 0.0000 0.0000 -1.3180 0.0000 31.3011
#
#
#
# Elastic Compliance Matrix: (Units=1/GPa)
#
#
# Indices 1 2 3 4 5 6 
#
# 1 0.019800 -0.001346 -0.003547 0.000000 -0.003808 0.000000
# 2 -0.001346 0.017429 -0.006061 0.000000 -0.000151 0.000000
# 3 -0.003547 -0.006061 0.024134 0.000000 0.004856 0.000000
# 4 0.000000 0.000000 0.000000 0.048487 0.000000 0.002042
# 5 -0.003808 -0.000151 0.004856 0.000000 0.042073 0.000000
# 6 0.000000 0.000000 0.000000 0.002042 0.000000 0.032034
#
#
# Mechanical properties :
#
#
# Convention : Reuss Voigt Hill
#
# Bulk Modulus (GPa) = 25.34634 25.81030 25.57832
# Shear Modulus (GPa) = 22.82938 24.11602 23.47270
#
# Velocity S-wave (km/s) = 3.49487 3.59200 3.54377
# Velocity P-wave (km/s) = 5.46317 5.56886 5.51627
#
# Compressibility (1/GPa) = 0.03945343
#
# Stress axis : x y z
#
# Youngs Moduli (GPa) = 50.50594 57.37703 41.43524
#
# Poissons Ratio (x) = 0.07721 0.14699
# Poissons Ratio (y) = 0.06797 0.25115
# Poissons Ratio (z) = 0.17916 0.34778
#
# Static dielectric constant tensor:
#      x y z
#    x 1.640820 0.000000 -0.011220 
#    y 0.000000 1.673020 0.000000 
#    z -0.011220 0.000000 1.606470 
# 
# From -- ./inp_files/1353.got.cif
#   From: 2010.05.17/outbox.cif.g08.bks.cpg/sg4_1_cif.got.tgz:1353.got - 2010.06.03 18:43:04.
