data_PCOD9117149
_publ_section_title
;
Structure prediction by ZEFSAII (Michael W. Deem and Ramdas Pophale) SiO2 
 PCOD9117149
Probable space group: P 21
;
_chemical_formula_sum "Si O2"
_cell_formula_units_Z 16
_cell_length_a 7.989280
_cell_length_b 13.547358
_cell_length_c 6.956267
_cell_angle_alpha 90.000000
_cell_angle_beta 57.658014
_cell_angle_gamma 90.000000
_cell_volume 636.104401
_symmetry_space_group_name_H-M "P 21"
_symmetry_group_IT_number 4
_symmetry_cell_setting 'monoclinic'
loop_
_space_group_symop_operation_xyz
x,y,z
-x,1/2+y,-z
loop_
_atom_site_type_symbol
_atom_site_label
_atom_site_fract_x
_atom_site_fract_y
_atom_site_fract_z
Si Si1 0.056524 0.298740 0.941046
Si Si2 0.126065 0.195167 0.249487
Si Si3 0.460862 0.066071 0.915590
Si Si4 0.733647 0.397044 0.702919
Si Si5 0.938580 0.986044 0.282381
Si Si6 0.486447 0.949918 0.549821
Si Si7 0.297255 0.696283 0.033347
Si Si8 0.633918 0.751060 0.557582
O O1 0.984792 0.408146 0.926364
O O2 0.269309 0.272405 0.711060
O O3 0.905836 0.217999 0.950718
O O4 0.055664 0.286308 0.168634
O O5 0.173618 0.221111 0.437475
O O6 0.002235 0.098051 0.275903
O O7 0.340529 0.164522 0.036704
O O8 0.408868 0.037087 0.731386
O O9 0.679342 0.099069 0.847200
O O10 0.381744 0.979499 0.099707
O O11 0.963887 0.429264 0.593478
O O12 0.646723 0.413641 0.543484
O O13 0.693475 0.290208 0.822956
O O14 0.708680 0.985562 0.370491
O O15 0.534245 0.857343 0.659786
O O16 0.457180 0.685153 0.756191
#
# Coordination Sequence:
#
# PCOD9117149 Si02
#       8
#     2   2   2   2   2   2   2   2
#     4  10  23  44  66  97 132 181 217 271 347 389
#     4  10  23  45  65  96 140 167 226 288 320 403
#     4  10  23  40  65  98 126 173 220 275 334 397
#     4  10  22  46  63  93 138 168 218 288 325 398
#     4   9  23  43  65  98 133 168 229 273 321 414
#     4  11  23  42  70  96 129 184 219 266 360 394
#     4  10  22  44  66  96 136 167 227 280 323 411
#     4  10  23  42  66  96 130 172 224 277 330 402
#
# _framework density 25.153103999999999
#
# number of rings (size 3 to 8) (size 9 to 14) (size 15 to 20)
#    0.000    2.000    1.250    0.000   10.500    3.000 
#    6.750    0.000    0.000    0.000    0.000    0.000 
#    0.000    0.000    0.000    0.000    0.000    0.000 
#
# Total GULP energy -89119.936734 kJ/mol
# GULP energy per Si atom -5569.996046 kJ/mol
# Density = 2.509585 g / cm^3
# Si number density = 25.153104 Si / 1000 Ang^3
#
#
#
# Elastic Constant Matrix: (Units=GPa)
#
#
# Indices 1 2 3 4 5 6 
#
# 1 42.0439 15.3926 2.9460 0.0000 -12.0857 0.0000
# 2 15.3926 72.3503 18.0861 0.0000 14.3079 0.0000
# 3 2.9460 18.0861 51.0169 0.0000 -4.8787 0.0000
# 4 0.0000 0.0000 0.0000 28.5516 0.0000 2.8076
# 5 -12.0857 14.3079 -4.8787 0.0000 21.9778 0.0000
# 6 0.0000 0.0000 0.0000 2.8076 0.0000 45.6029
#
#
#
# Elastic Compliance Matrix: (Units=1/GPa)
#
#
# Indices 1 2 3 4 5 6 
#
# 1 0.039262 -0.016836 0.006962 0.000000 0.034096 0.000000
# 2 -0.016836 0.025744 -0.010873 0.000000 -0.028432 0.000000
# 3 0.006962 -0.010873 0.024620 0.000000 0.016372 0.000000
# 4 0.000000 0.000000 0.000000 0.035238 0.000000 -0.002169
# 5 0.034096 -0.028432 0.016372 0.000000 0.086394 0.000000
# 6 0.000000 0.000000 0.000000 -0.002169 0.000000 0.022062
#
#
# Mechanical properties :
#
#
# Convention : Reuss Voigt Hill
#
# Bulk Modulus (GPa) = 20.77672 26.47338 23.62505
# Shear Modulus (GPa) = 17.19047 27.82553 22.50800
#
# Velocity S-wave (km/s) = 2.61709 3.32964 2.99463
# Velocity P-wave (km/s) = 4.17256 5.03286 4.62277
#
# Compressibility (1/GPa) = 0.04813079
#
# Stress axis : x y z
#
# Youngs Moduli (GPa) = 25.47002 38.84339 40.61780
#
# Poissons Ratio (x) = 0.65398 -0.28278
# Poissons Ratio (y) = 0.42882 0.44165
# Poissons Ratio (z) = -0.17732 0.42236
#
# Static dielectric constant tensor:
#      x y z
#    x 2.148770 0.000000 -0.034480 
#    y 0.000000 2.025260 0.000000 
#    z -0.034480 0.000000 2.078290 
# 
# From -- ./inp_files/1678.got.cif
#   From: 2010.05.17/outbox.cif.g08.bks.cpg/sg4_1_cif.got.tgz:1678.got - 2010.06.03 18:43:04.
