data_PCOD9117492
_publ_section_title
;
Structure prediction by ZEFSAII (Michael W. Deem and Ramdas Pophale) SiO2 
 PCOD9117492
Probable space group: P 21
;
_chemical_formula_sum "Si O2"
_cell_formula_units_Z 16
_cell_length_a 15.870178
_cell_length_b 9.531441
_cell_length_c 7.302083
_cell_angle_alpha 90.000000
_cell_angle_beta 36.767328
_cell_angle_gamma 90.000000
_cell_volume 661.149725
_symmetry_space_group_name_H-M "P 21"
_symmetry_group_IT_number 4
_symmetry_cell_setting 'monoclinic'
loop_
_space_group_symop_operation_xyz
x,y,z
-x,1/2+y,-z
loop_
_atom_site_type_symbol
_atom_site_label
_atom_site_fract_x
_atom_site_fract_y
_atom_site_fract_z
Si Si1 0.578921 0.430470 0.824024
Si Si2 0.493683 0.057277 0.441380
Si Si3 0.807219 0.913295 0.648398
Si Si4 0.600674 0.840773 0.519434
Si Si5 0.711788 0.630075 0.884638
Si Si6 0.962283 0.454820 0.447101
Si Si7 0.192960 0.718619 0.458599
Si Si8 0.091451 0.307692 0.912112
O O1 0.366194 0.061774 0.809245
O O2 0.543742 0.480048 0.682033
O O3 0.656068 0.558615 0.796478
O O4 0.689814 0.301378 0.630185
O O5 0.507380 0.222273 0.366475
O O6 0.605936 0.972677 0.370566
O O7 0.696832 0.795876 0.902967
O O8 0.880674 0.848250 0.342478
O O9 0.752491 0.068308 0.697759
O O10 0.924295 0.933822 0.597170
O O11 0.545113 0.889123 0.816321
O O12 0.755549 0.772502 0.270520
O O13 0.875484 0.595181 0.620587
O O14 0.849912 0.325790 0.630793
O O15 0.037587 0.442317 0.120433
O O16 0.040197 0.704184 0.824391
#
# Coordination Sequence:
#
# PCOD9117492 Si02
#       8
#     2   2   2   2   2   2   2   2
#     4  10  24  48  70 100 145 188 241 295 363 428
#     4  11  26  47  78  97 148 186 246 297 362 428
#     4  12  22  38  71  99 143 186 234 292 361 416
#     4  11  26  46  72 107 137 195 243 296 365 427
#     4  10  23  41  69 105 136 192 235 296 357 428
#     4   9  22  39  61 100 144 184 231 281 361 419
#     4   9  24  44  64 106 142 182 240 294 349 432
#     4  10  25  41  65 102 149 177 236 289 356 426
#
# _framework density 24.200265000000002
#
# number of rings (size 3 to 8) (size 9 to 14) (size 15 to 20)
#    0.750    1.000    0.000    2.250    5.250    8.000 
#    0.000    1.250    0.000    0.000    0.000    0.000 
#    0.000    0.000    0.000    0.000    0.000    0.000 
#
# Total GULP energy -89451.449333 kJ/mol
# GULP energy per Si atom -5590.715583 kJ/mol
# Density = 2.414518 g / cm^3
# Si number density = 24.200265 Si / 1000 Ang^3
#
#
#
# Elastic Constant Matrix: (Units=GPa)
#
#
# Indices 1 2 3 4 5 6 
#
# 1 99.6917 33.9127 43.9631 0.0000 21.7494 0.0000
# 2 33.9127 133.4658 28.3415 0.0000 -3.1757 0.0000
# 3 43.9631 28.3415 97.8237 0.0000 2.0049 0.0000
# 4 0.0000 0.0000 0.0000 35.2874 0.0000 5.7150
# 5 21.7494 -3.1757 2.0049 0.0000 36.8801 0.0000
# 6 0.0000 0.0000 0.0000 5.7150 0.0000 28.7413
#
#
#
# Elastic Compliance Matrix: (Units=1/GPa)
#
#
# Indices 1 2 3 4 5 6 
#
# 1 0.015677 -0.002925 -0.006010 0.000000 -0.009171 0.000000
# 2 -0.002925 0.008554 -0.001215 0.000000 0.002528 0.000000
# 3 -0.006010 -0.001215 0.013220 0.000000 0.002721 0.000000
# 4 0.000000 0.000000 0.000000 0.029282 0.000000 -0.005822
# 5 -0.009171 0.002528 0.002721 0.000000 0.032593 0.000000
# 6 0.000000 0.000000 0.000000 -0.005822 0.000000 0.035951
#
#
# Mechanical properties :
#
#
# Convention : Reuss Voigt Hill
#
# Bulk Modulus (GPa) = 58.31096 60.37956 59.34526
# Shear Modulus (GPa) = 30.99921 35.16604 33.08262
#
# Velocity S-wave (km/s) = 3.58291 3.81612 3.70136
# Velocity P-wave (km/s) = 6.42369 6.66492 6.54542
#
# Compressibility (1/GPa) = 0.01714943
#
# Stress axis : x y z
#
# Youngs Moduli (GPa) = 63.78721 116.90269 75.64421
#
# Poissons Ratio (x) = 0.34199 0.45462
# Poissons Ratio (y) = 0.18661 0.09194
# Poissons Ratio (z) = 0.38336 0.14208
#
# Static dielectric constant tensor:
#      x y z
#    x 1.903160 0.000000 -0.023380 
#    y 0.000000 1.942060 0.000000 
#    z -0.023380 0.000000 1.957340 
# 
# From -- ./inp_files/9236.got.cif
#   From: 2010.05.17/outbox.cif.g08.bks.cpg/sg4_5_cif.got.tgz:9236.got - 2010.06.03 18:43:04.
