data_PCOD9117009
_publ_section_title
;
Structure prediction by ZEFSAII (Michael W. Deem and Ramdas Pophale) SiO2 
 PCOD9117009
Probable space group: P 21
;
_chemical_formula_sum "Si O2"
_cell_formula_units_Z 16
_cell_length_a 15.068354
_cell_length_b 11.354677
_cell_length_c 5.834345
_cell_angle_alpha 90.000000
_cell_angle_beta 39.943363
_cell_angle_gamma 90.000000
_cell_volume 640.896747
_symmetry_space_group_name_H-M "P 21"
_symmetry_group_IT_number 4
_symmetry_cell_setting 'monoclinic'
loop_
_space_group_symop_operation_xyz
x,y,z
-x,1/2+y,-z
loop_
_atom_site_type_symbol
_atom_site_label
_atom_site_fract_x
_atom_site_fract_y
_atom_site_fract_z
Si Si1 0.989891 0.500000 0.905052
Si Si2 0.633787 0.727644 0.687890
Si Si3 0.554942 0.257400 0.327509
Si Si4 0.197000 0.083547 0.351481
Si Si5 0.689557 0.968796 0.742097
Si Si6 0.103192 0.234848 0.161108
Si Si7 0.425424 0.520172 0.537110
Si Si8 0.838776 0.360881 0.858853
O O1 0.145783 0.461390 0.596336
O O2 0.965095 0.613128 0.791721
O O3 0.891493 0.395502 0.007033
O O4 0.941144 0.546262 0.244845
O O5 0.492793 0.715409 0.830070
O O6 0.688174 0.605863 0.684745
O O7 0.620692 0.839438 0.876863
O O8 0.764585 0.761899 0.259933
O O9 0.498312 0.392281 0.426019
O O10 0.497398 0.147427 0.592245
O O11 0.715333 0.268888 0.080515
O O12 0.167382 0.203974 0.279776
O O13 0.224492 0.979879 0.122389
O O14 0.641446 0.019270 0.586265
O O15 0.661994 0.022431 0.050025
O O16 0.976769 0.323448 0.447207
#
# Coordination Sequence:
#
# PCOD9117009 Si02
#       8
#     2   2   2   2   2   2   2   2
#     4  10  23  40  69 105 141 190 247 316 384 450
#     4  10  24  43  70 104 140 205 248 306 382 467
#     4  11  28  49  75 109 154 200 257 317 388 453
#     4  10  23  40  71 101 147 191 253 315 388 456
#     4  11  25  47  77 109 150 200 256 312 382 460
#     4  10  22  42  70 101 144 190 247 308 388 455
#     4  11  29  50  77 112 154 205 258 316 384 466
#     4  11  24  43  69 107 144 189 250 324 376 459
#
# _framework density 24.965019999999999
#
# number of rings (size 3 to 8) (size 9 to 14) (size 15 to 20)
#    0.000    1.500    0.000    2.250   17.500    5.000 
#    2.250    0.000    0.000    0.000    0.000    0.000 
#    0.000    0.000    0.000    0.000    0.000    0.000 
#
# Total GULP energy -89298.325174 kJ/mol
# GULP energy per Si atom -5581.145323 kJ/mol
# Density = 2.490820 g / cm^3
# Si number density = 24.965020 Si / 1000 Ang^3
#
#
#
# Elastic Constant Matrix: (Units=GPa)
#
#
# Indices 1 2 3 4 5 6 
#
# 1 124.5957 54.5377 37.2515 0.0000 -1.1660 0.0000
# 2 54.5377 110.7753 7.7011 0.0000 1.4842 0.0000
# 3 37.2515 7.7011 89.4168 0.0000 6.4305 0.0000
# 4 0.0000 0.0000 0.0000 33.9476 0.0000 -2.9540
# 5 -1.1660 1.4842 6.4305 0.0000 28.9389 0.0000
# 6 0.0000 0.0000 0.0000 -2.9540 0.0000 53.1005
#
#
#
# Elastic Compliance Matrix: (Units=1/GPa)
#
#
# Indices 1 2 3 4 5 6 
#
# 1 0.011833 -0.005531 -0.004581 0.000000 0.001779 0.000000
# 2 -0.005531 0.011670 0.001380 0.000000 -0.001128 0.000000
# 3 -0.004581 0.001380 0.013203 0.000000 -0.003189 0.000000
# 4 0.000000 0.000000 0.000000 0.029600 0.000000 0.001647
# 5 0.001779 -0.001128 -0.003189 0.000000 0.035394 0.000000
# 6 0.000000 0.000000 0.000000 0.001647 0.000000 0.018924
#
#
# Mechanical properties :
#
#
# Convention : Reuss Voigt Hill
#
# Bulk Modulus (GPa) = 51.97160 58.19649 55.08405
# Shear Modulus (GPa) = 34.60159 38.21723 36.40941
#
# Velocity S-wave (km/s) = 3.72694 3.91683 3.82307
# Velocity P-wave (km/s) = 6.27560 6.61946 6.44982
#
# Compressibility (1/GPa) = 0.01924128
#
# Stress axis : x y z
#
# Youngs Moduli (GPa) = 84.50597 85.69255 75.74223
#
# Poissons Ratio (x) = 0.47399 0.34701
# Poissons Ratio (y) = 0.46743 -0.10456
# Poissons Ratio (z) = 0.38716 -0.11829
#
# Static dielectric constant tensor:
#      x y z
#    x 2.009570 0.000000 0.029130 
#    y 0.000000 2.019490 0.000000 
#    z 0.029130 0.000000 1.985210 
# 
# From -- ./inp_files/2849.got.cif
#   From: 2010.05.17/outbox.cif.g08.bks.cpg/sg4_2_cif.got.tgz:2849.got - 2010.06.03 18:43:04.
