data_PCOD9117066
_publ_section_title
;
Structure prediction by ZEFSAII (Michael W. Deem and Ramdas Pophale) SiO2 
 PCOD9117066
Probable space group: P 21
;
_chemical_formula_sum "Si O2"
_cell_formula_units_Z 16
_cell_length_a 21.159436
_cell_length_b 5.459284
_cell_length_c 4.967173
_cell_angle_alpha 90.000000
_cell_angle_beta 103.320159
_cell_angle_gamma 90.000000
_cell_volume 558.348796
_symmetry_space_group_name_H-M "P 21"
_symmetry_group_IT_number 4
_symmetry_cell_setting 'monoclinic'
loop_
_space_group_symop_operation_xyz
x,y,z
-x,1/2+y,-z
loop_
_atom_site_type_symbol
_atom_site_label
_atom_site_fract_x
_atom_site_fract_y
_atom_site_fract_z
Si Si1 0.418257 0.396630 0.083157
Si Si2 0.705653 0.876939 0.734412
Si Si3 0.669507 0.386811 0.391128
Si Si4 0.955371 0.089645 0.169723
Si Si5 0.456238 0.663081 0.626702
Si Si6 0.080648 0.095099 0.551157
Si Si7 0.793910 0.375885 0.213580
Si Si8 0.831458 0.092773 0.749939
O O1 0.341713 0.373352 0.054556
O O2 0.439104 0.622082 0.299721
O O3 0.468024 0.200711 0.252453
O O4 0.435171 0.436863 0.792055
O O5 0.687002 0.631276 0.564535
O O6 0.688051 0.131817 0.562256
O O7 0.783483 0.890146 0.829766
O O8 0.591808 0.367884 0.294508
O O9 0.717134 0.398180 0.180903
O O10 0.936832 0.844899 0.315478
O O11 0.908333 0.069357 0.866726
O O12 0.033783 0.084454 0.242736
O O13 0.937462 0.345237 0.302219
O O14 0.158447 0.078624 0.610487
O O15 0.811764 0.320342 0.925224
O O16 0.813796 0.147774 0.426557
#
# Coordination Sequence:
#
# PCOD9117066 Si02
#       8
#     2   2   2   2   2   2   2   2
#     4  11  23  42  66  98 133 174 218 269 324 386
#     4  10  23  43  67  96 131 171 216 266 322 384
#     4  10  23  43  67  96 131 171 216 266 322 384
#     4   9  19  38  63  92 127 168 214 265 322 384
#     4  11  23  42  66  98 133 174 218 269 324 386
#     4   9  19  38  63  92 127 168 214 265 322 384
#     4  10  22  43  66  96 130 171 216 268 324 386
#     4  10  22  43  66  96 130 171 216 268 324 386
#
# _framework density 28.655922
#
# number of rings (size 3 to 8) (size 9 to 14) (size 15 to 20)
#    0.000    2.000    0.000    2.250    0.000   10.000 
#    0.000   22.500    0.000    0.000    0.000    0.000 
#    0.000    0.000    0.000    0.000    0.000    0.000 
#
# Total GULP energy -89571.347249 kJ/mol
# GULP energy per Si atom -5598.209203 kJ/mol
# Density = 2.859070 g / cm^3
# Si number density = 28.655922 Si / 1000 Ang^3
#
#
#
# Elastic Constant Matrix: (Units=GPa)
#
#
# Indices 1 2 3 4 5 6 
#
# 1 80.7201 67.2144 42.4392 0.0000 -12.3320 0.0000
# 2 67.2144 162.1379 44.1262 0.0000 3.5269 0.0000
# 3 42.4392 44.1262 110.0230 0.0000 11.8483 0.0000
# 4 0.0000 0.0000 0.0000 36.9336 0.0000 8.4671
# 5 -12.3320 3.5269 11.8483 0.0000 41.9905 0.0000
# 6 0.0000 0.0000 0.0000 8.4671 0.0000 50.6990
#
#
#
# Elastic Compliance Matrix: (Units=1/GPa)
#
#
# Indices 1 2 3 4 5 6 
#
# 1 0.024852 -0.008551 -0.007240 0.000000 0.010060 0.000000
# 2 -0.008551 0.009867 -0.000309 0.000000 -0.003253 0.000000
# 3 -0.007240 -0.000309 0.012615 0.000000 -0.005660 0.000000
# 4 0.000000 0.000000 0.000000 0.028154 0.000000 -0.004702
# 5 0.010060 -0.003253 -0.005660 0.000000 0.028640 0.000000
# 6 0.000000 0.000000 0.000000 -0.004702 0.000000 0.020510
#
#
# Mechanical properties :
#
#
# Convention : Reuss Voigt Hill
#
# Bulk Modulus (GPa) = 66.07232 73.38229 69.72730
# Shear Modulus (GPa) = 30.88685 39.19804 35.04244
#
# Velocity S-wave (km/s) = 3.28663 3.70251 3.50075
# Velocity P-wave (km/s) = 6.12452 6.62886 6.38167
#
# Compressibility (1/GPa) = 0.01513493
#
# Stress axis : x y z
#
# Youngs Moduli (GPa) = 40.23806 101.34652 79.27039
#
# Poissons Ratio (x) = 0.86660 0.57392
# Poissons Ratio (y) = 0.34407 0.02447
# Poissons Ratio (z) = 0.29133 0.03129
#
# Static dielectric constant tensor:
#      x y z
#    x 2.342460 0.000000 0.061970 
#    y 0.000000 2.255980 0.000000 
#    z 0.061970 0.000000 2.175830 
# 
# From -- ./inp_files/4380.got.cif
#   From: 2010.05.17/outbox.cif.g08.bks.cpg/sg4_3_cif.got.tgz:4380.got - 2010.06.03 18:43:04.
