data_PCOD9117318
_publ_section_title
;
Structure prediction by ZEFSAII (Michael W. Deem and Ramdas Pophale) SiO2 
 PCOD9117318
Probable space group: P 21
;
_chemical_formula_sum "Si O2"
_cell_formula_units_Z 14
_cell_length_a 9.098299
_cell_length_b 11.106007
_cell_length_c 5.420427
_cell_angle_alpha 90.000000
_cell_angle_beta 85.030435
_cell_angle_gamma 90.000000
_cell_volume 545.652306
_symmetry_space_group_name_H-M "P 21"
_symmetry_group_IT_number 4
_symmetry_cell_setting 'monoclinic'
loop_
_space_group_symop_operation_xyz
x,y,z
-x,1/2+y,-z
loop_
_atom_site_type_symbol
_atom_site_label
_atom_site_fract_x
_atom_site_fract_y
_atom_site_fract_z
Si Si1 0.160712 0.137540 0.012539
Si Si2 0.103446 0.812845 0.370180
Si Si3 0.393825 0.180372 0.618741
Si Si4 0.784707 0.859906 0.616776
Si Si5 0.612821 0.049304 0.929428
Si Si6 0.373898 0.965519 0.259375
Si Si7 0.860695 0.173820 0.143657
O O1 0.224786 0.162931 0.736117
O O2 0.996625 0.089950 0.048669
O O3 0.184408 0.258122 0.174500
O O4 0.260964 0.033024 0.097285
O O5 0.262303 0.875317 0.405555
O O6 0.118630 0.772665 0.081417
O O7 0.941544 0.872095 0.447824
O O8 0.109211 0.711402 0.581659
O O9 0.365517 0.308874 0.497282
O O10 0.511625 0.152387 0.815440
O O11 0.424587 0.070550 0.433831
O O12 0.731078 0.985703 0.736408
O O13 0.705060 0.114168 0.127770
O O14 0.512179 0.943091 0.060969
#
# Coordination Sequence:
#
# PCOD9117318 Si02
#       7
#     2   2   2   2   2   2   2
#     4   9  21  44  71  98 145 181 251 305 364 437
#     4  11  26  47  78 108 148 196 257 308 369 448
#     4  10  22  46  68 103 146 190 240 314 374 444
#     4  10  23  45  74 105 142 200 252 309 371 445
#     4  11  27  44  73 109 151 197 250 309 384 453
#     4  10  25  45  71 104 143 199 241 309 378 446
#     4  11  26  47  73 113 145 197 249 318 362 443
#
# _framework density 25.657364999999999
#
# number of rings (size 3 to 8) (size 9 to 14) (size 15 to 20)
#    0.000    1.714    1.429    0.000    8.000    6.857 
#    0.000    0.000    0.000    0.000    0.000    0.000 
#    0.000    0.000    0.000    0.000    0.000    0.000 
#
# Total GULP energy -78100.088722 kJ/mol
# GULP energy per Si atom -5578.577766 kJ/mol
# Density = 2.559897 g / cm^3
# Si number density = 25.657365 Si / 1000 Ang^3
#
#
#
# Elastic Constant Matrix: (Units=GPa)
#
#
# Indices 1 2 3 4 5 6 
#
# 1 143.9503 26.4489 22.5496 0.0000 -19.6566 0.0000
# 2 26.4489 45.1988 19.9507 0.0000 -15.5226 0.0000
# 3 22.5496 19.9507 60.9752 0.0000 -14.9456 0.0000
# 4 0.0000 0.0000 0.0000 16.9808 0.0000 -6.5866
# 5 -19.6566 -15.5226 -14.9456 0.0000 55.8772 0.0000
# 6 0.0000 0.0000 0.0000 -6.5866 0.0000 29.0571
#
#
#
# Elastic Compliance Matrix: (Units=1/GPa)
#
#
# Indices 1 2 3 4 5 6 
#
# 1 0.008025 -0.003560 -0.001449 0.000000 0.001447 0.000000
# 2 -0.003560 0.028972 -0.006953 0.000000 0.004936 0.000000
# 3 -0.001449 -0.006953 0.019918 0.000000 0.002886 0.000000
# 4 0.000000 0.000000 0.000000 0.064567 0.000000 0.014636
# 5 0.001447 0.004936 0.002886 0.000000 0.020549 0.000000
# 6 0.000000 0.000000 0.000000 0.014636 0.000000 0.037733
#
#
# Mechanical properties :
#
#
# Convention : Reuss Voigt Hill
#
# Bulk Modulus (GPa) = 30.30967 43.11362 36.71165
# Shear Modulus (GPa) = 23.28999 32.46137 27.87568
#
# Velocity S-wave (km/s) = 3.01613 3.56081 3.29972
# Velocity P-wave (km/s) = 4.89574 5.80912 5.37188
#
# Compressibility (1/GPa) = 0.03299277
#
# Stress axis : x y z
#
# Youngs Moduli (GPa) = 124.60422 34.51607 50.20515
#
# Poissons Ratio (x) = 0.12288 0.07272
# Poissons Ratio (y) = 0.44359 0.34908
# Poissons Ratio (z) = 0.18049 0.23999
#
# Static dielectric constant tensor:
#      x y z
#    x 2.114790 0.000000 0.006090 
#    y 0.000000 2.275050 0.000000 
#    z 0.006090 0.000000 2.264560 
# 
# From -- ./inp_files/1178.got.cif
#   From: 2010.05.17/outbox.cif.g08.bks.cpg/sg4_1_cif.got.tgz:1178.got - 2010.06.03 18:43:04.
