data_PCOD9117861
_publ_section_title
;
Structure prediction by ZEFSAII (Michael W. Deem and Ramdas Pophale) SiO2 
 PCOD9117861
Probable space group: P 21
;
_chemical_formula_sum "Si O2"
_cell_formula_units_Z 14
_cell_length_a 6.595388
_cell_length_b 9.817949
_cell_length_c 7.780328
_cell_angle_alpha 90.000000
_cell_angle_beta 105.696340
_cell_angle_gamma 90.000000
_cell_volume 485.013775
_symmetry_space_group_name_H-M "P 21"
_symmetry_group_IT_number 4
_symmetry_cell_setting 'monoclinic'
loop_
_space_group_symop_operation_xyz
x,y,z
-x,1/2+y,-z
loop_
_atom_site_type_symbol
_atom_site_label
_atom_site_fract_x
_atom_site_fract_y
_atom_site_fract_z
Si Si1 0.208269 0.258740 0.274093
Si Si2 0.160063 0.977913 0.801323
Si Si3 0.544205 0.457523 0.452638
Si Si4 0.865486 0.076081 0.303674
Si Si5 0.195818 0.668805 0.327316
Si Si6 0.537743 0.656290 0.979012
Si Si7 0.437751 0.355802 0.696649
O O1 0.376815 0.319965 0.457014
O O2 0.011389 0.361073 0.210878
O O3 0.098651 0.118885 0.301055
O O4 0.348505 0.246303 0.139465
O O5 0.265949 0.956732 0.636451
O O6 0.355683 0.006699 0.970942
O O7 0.022696 0.115455 0.798048
O O8 0.368452 0.551967 0.320029
O O9 0.509964 0.509140 0.639392
O O10 0.846426 0.155962 0.479344
O O11 0.805084 0.918936 0.315184
O O12 0.703911 0.134637 0.125868
O O13 0.306877 0.809715 0.315079
O O14 0.560843 0.741457 0.157641
#
# Coordination Sequence:
#
# PCOD9117861 Si02
#       7
#     2   2   2   2   2   2   2
#     4  11  26  45  73 104 154 197 255 306 380 460
#     4  11  25  45  80 103 147 200 253 313 382 444
#     4  10  23  49  75 104 146 203 248 320 370 450
#     4  11  28  47  74 112 153 204 250 312 389 449
#     4  10  23  47  74 108 144 197 261 307 375 456
#     4  12  28  42  72 107 155 191 249 316 385 443
#     4  11  25  47  78 106 157 192 256 316 383 446
#
# _framework density 28.865159999999999
#
# number of rings (size 3 to 8) (size 9 to 14) (size 15 to 20)
#    0.000    1.143    1.429    2.571   10.000    2.286 
#    2.571    0.000    0.000    0.000    0.000    0.000 
#    0.000    0.000    0.000    0.000    0.000    0.000 
#
# Total GULP energy -77995.960536 kJ/mol
# GULP energy per Si atom -5571.140038 kJ/mol
# Density = 2.879946 g / cm^3
# Si number density = 28.865160 Si / 1000 Ang^3
#
#
#
# Elastic Constant Matrix: (Units=GPa)
#
#
# Indices 1 2 3 4 5 6 
#
# 1 184.9034 71.3507 17.7955 0.0000 -34.9206 0.0000
# 2 71.3507 96.4394 17.7397 0.0000 -6.8671 0.0000
# 3 17.7955 17.7397 104.3003 0.0000 -8.3144 0.0000
# 4 0.0000 0.0000 0.0000 62.8777 0.0000 -0.6622
# 5 -34.9206 -6.8671 -8.3144 0.0000 51.9396 0.0000
# 6 0.0000 0.0000 0.0000 -0.6622 0.0000 81.1714
#
#
#
# Elastic Compliance Matrix: (Units=1/GPa)
#
#
# Indices 1 2 3 4 5 6 
#
# 1 0.008710 -0.006076 -0.000051 0.000000 0.005045 0.000000
# 2 -0.006076 0.015009 -0.001705 0.000000 -0.002374 0.000000
# 3 -0.000051 -0.001705 0.009993 0.000000 0.001340 0.000000
# 4 0.000000 0.000000 0.000000 0.015905 0.000000 0.000130
# 5 0.005045 -0.002374 0.001340 0.000000 0.022546 0.000000
# 6 0.000000 0.000000 0.000000 0.000130 0.000000 0.012321
#
#
# Mechanical properties :
#
#
# Convention : Reuss Voigt Hill
#
# Bulk Modulus (GPa) = 55.40437 66.60166 61.00301
# Shear Modulus (GPa) = 47.09673 57.78153 52.43913
#
# Velocity S-wave (km/s) = 4.04370 4.47897 4.26689
# Velocity P-wave (km/s) = 6.40608 7.06199 6.74202
#
# Compressibility (1/GPa) = 0.01804912
#
# Stress axis : x y z
#
# Youngs Moduli (GPa) = 114.80477 66.62608 100.06784
#
# Poissons Ratio (x) = 0.40481 0.00506
# Poissons Ratio (y) = 0.69754 0.17065
# Poissons Ratio (z) = 0.00581 0.11362
#
# Static dielectric constant tensor:
#      x y z
#    x 2.184300 0.000000 -0.083680 
#    y 0.000000 2.175440 0.000000 
#    z -0.083680 0.000000 1.935630 
# 
# From -- ./inp_files/2914.got.cif
#   From: 2010.05.17/outbox.cif.g08.bks.cpg/sg4_2_cif.got.tgz:2914.got - 2010.06.03 18:43:04.
