data_PCOD9117920
_publ_section_title
;
Structure prediction by ZEFSAII (Michael W. Deem and Ramdas Pophale) SiO2 
 PCOD9117920
Probable space group: P 21
;
_chemical_formula_sum "Si O2"
_cell_formula_units_Z 14
_cell_length_a 12.763330
_cell_length_b 8.419773
_cell_length_c 5.226218
_cell_angle_alpha 90.000000
_cell_angle_beta 100.542826
_cell_angle_gamma 90.000000
_cell_volume 552.150838
_symmetry_space_group_name_H-M "P 21"
_symmetry_group_IT_number 4
_symmetry_cell_setting 'monoclinic'
loop_
_space_group_symop_operation_xyz
x,y,z
-x,1/2+y,-z
loop_
_atom_site_type_symbol
_atom_site_label
_atom_site_fract_x
_atom_site_fract_y
_atom_site_fract_z
Si Si1 0.904956 0.095480 0.241998
Si Si2 0.768191 0.812631 0.099608
Si Si3 0.175691 0.852598 0.491781
Si Si4 0.001825 0.146236 0.788003
Si Si5 0.412571 0.738686 0.701433
Si Si6 0.468835 0.926559 0.250638
Si Si7 0.704905 0.658427 0.566569
O O1 0.876414 0.280895 0.272622
O O2 0.968450 0.045375 0.525718
O O3 0.798592 0.993279 0.167791
O O4 0.980043 0.060463 0.040338
O O5 0.689594 0.736790 0.278568
O O6 0.882639 0.722968 0.173432
O O7 0.732239 0.787861 0.792813
O O8 0.095915 0.772224 0.259425
O O9 0.292655 0.770913 0.553562
O O10 0.199379 0.034485 0.449622
O O11 0.484166 0.805180 0.494661
O O12 0.438670 0.554554 0.757690
O O13 0.435460 0.838033 0.973006
O O14 0.377465 0.042747 0.325394
#
# Coordination Sequence:
#
# PCOD9117920 Si02
#       7
#     2   2   2   2   2   2   2
#     4  10  24  41  60  96 129 173 228 268 322 395
#     4  12  25  41  65  96 135 175 221 281 324 380
#     4   9  25  41  69  91 132 175 221 264 333 404
#     4  10  24  38  66  89 133 170 229 261 326 389
#     4  11  24  45  73 100 135 174 221 276 342 399
#     4  11  25  46  70 105 132 175 223 272 342 406
#     4  11  25  42  67  95 136 174 217 272 337 391
#
# _framework density 25.355387
#
# number of rings (size 3 to 8) (size 9 to 14) (size 15 to 20)
#    0.857    0.571    0.000    4.286   10.000    2.286 
#    0.000    0.000    0.000    0.000    0.000    0.000 
#    0.000    0.000    0.000    0.000    0.000    0.000 
#
# Total GULP energy -78198.391388 kJ/mol
# GULP energy per Si atom -5585.599385 kJ/mol
# Density = 2.529768 g / cm^3
# Si number density = 25.355387 Si / 1000 Ang^3
#
#
#
# Elastic Constant Matrix: (Units=GPa)
#
#
# Indices 1 2 3 4 5 6 
#
# 1 97.5469 11.4634 36.0287 0.0000 -11.9247 0.0000
# 2 11.4634 58.1026 25.1809 0.0000 -12.9118 0.0000
# 3 36.0287 25.1809 105.0314 0.0000 -48.1448 0.0000
# 4 0.0000 0.0000 0.0000 32.0139 0.0000 3.7257
# 5 -11.9247 -12.9118 -48.1448 0.0000 37.6003 0.0000
# 6 0.0000 0.0000 0.0000 3.7257 0.0000 32.9254
#
#
#
# Elastic Compliance Matrix: (Units=1/GPa)
#
#
# Indices 1 2 3 4 5 6 
#
# 1 0.011957 -0.000744 -0.005573 0.000000 -0.003600 0.000000
# 2 -0.000744 0.019297 -0.003491 0.000000 0.001921 0.000000
# 3 -0.005573 -0.003491 0.026412 0.000000 0.030853 0.000000
# 4 0.000000 0.000000 0.000000 0.031653 0.000000 -0.003582
# 5 -0.003600 0.001921 0.030853 0.000000 0.065619 0.000000
# 6 0.000000 0.000000 0.000000 -0.003582 0.000000 0.030777
#
#
# Mechanical properties :
#
#
# Convention : Reuss Voigt Hill
#
# Bulk Modulus (GPa) = 26.28034 45.11410 35.69722
# Shear Modulus (GPa) = 22.93416 33.04179 27.98797
#
# Velocity S-wave (km/s) = 3.01077 3.61383 3.32599
# Velocity P-wave (km/s) = 4.74063 5.93669 5.37205
#
# Compressibility (1/GPa) = 0.03805125
#
# Stress axis : x y z
#
# Youngs Moduli (GPa) = 83.63051 51.82039 37.86130
#
# Poissons Ratio (x) = 0.03853 0.21102
# Poissons Ratio (y) = 0.06219 0.13217
# Poissons Ratio (z) = 0.46611 0.18090
#
# Static dielectric constant tensor:
#      x y z
#    x 2.156530 0.000000 0.021860 
#    y 0.000000 2.033190 0.000000 
#    z 0.021860 0.000000 1.984480 
# 
# From -- ./inp_files/3715.got.cif
#   From: 2010.05.17/outbox.cif.g08.bks.cpg/sg4_2_cif.got.tgz:3715.got - 2010.06.03 18:43:04.
