data_PCOD9117601
_publ_section_title
;
Structure prediction by ZEFSAII (Michael W. Deem and Ramdas Pophale) SiO2 
 PCOD9117601
Probable space group: P 21
;
_chemical_formula_sum "Si O2"
_cell_formula_units_Z 14
_cell_length_a 9.575717
_cell_length_b 7.251817
_cell_length_c 12.320412
_cell_angle_alpha 90.000000
_cell_angle_beta 36.859555
_cell_angle_gamma 90.000000
_cell_volume 513.204047
_symmetry_space_group_name_H-M "P 21"
_symmetry_group_IT_number 4
_symmetry_cell_setting 'monoclinic'
loop_
_space_group_symop_operation_xyz
x,y,z
-x,1/2+y,-z
loop_
_atom_site_type_symbol
_atom_site_label
_atom_site_fract_x
_atom_site_fract_y
_atom_site_fract_z
Si Si1 0.713651 0.581210 0.254498
Si Si2 0.513857 0.610714 0.754343
Si Si3 0.871235 0.001642 0.163539
Si Si4 0.069718 0.928751 0.263016
Si Si5 0.700471 0.019006 0.642424
Si Si6 0.388308 0.498813 0.072121
Si Si7 0.108828 0.999667 0.628513
O O1 0.769984 0.796359 0.230680
O O2 0.462926 0.570794 0.356259
O O3 0.755167 0.480023 0.342895
O O4 0.902697 0.505347 0.052669
O O5 0.322624 0.622665 0.777030
O O6 0.629275 0.806321 0.704686
O O7 0.710693 0.477201 0.581655
O O8 0.394974 0.557016 0.941092
O O9 0.960176 0.037004 0.228887
O O10 0.963257 0.019872 0.437132
O O11 0.974887 0.716965 0.318030
O O12 0.347162 0.928656 0.079902
O O13 0.640080 0.110588 0.794982
O O14 0.137161 0.395158 0.230099
#
# Coordination Sequence:
#
# PCOD9117601 Si02
#       7
#     2   2   2   2   2   2   2
#     4  11  22  42  70  98 132 170 218 271 328 389
#     4  11  24  44  69  97 133 172 219 274 328 388
#     4  11  22  42  70  98 132 170 218 271 328 389
#     4  10  23  43  66  97 133 172 218 272 327 386
#     4  11  24  44  69  97 133 172 219 274 328 388
#     4  12  22  40  64  92 134 178 214 264 322 388
#     4  10  23  43  66  97 133 172 218 272 327 386
#
# _framework density 27.279598
#
# number of rings (size 3 to 8) (size 9 to 14) (size 15 to 20)
#    0.000    1.143    2.857    3.429    0.000    2.286 
#    0.000    4.286    0.000    0.000    0.000    0.000 
#    0.000    0.000    0.000    0.000    0.000    0.000 
#
# Total GULP energy -78367.277964 kJ/mol
# GULP energy per Si atom -5597.662712 kJ/mol
# Density = 2.721751 g / cm^3
# Si number density = 27.279598 Si / 1000 Ang^3
#
#
#
# Elastic Constant Matrix: (Units=GPa)
#
#
# Indices 1 2 3 4 5 6 
#
# 1 213.9749 40.1884 62.3837 0.0000 -3.9308 0.0000
# 2 40.1884 45.8431 36.2668 0.0000 9.2323 0.0000
# 3 62.3837 36.2668 223.9541 0.0000 -1.3675 0.0000
# 4 0.0000 0.0000 0.0000 20.2470 0.0000 -3.9682
# 5 -3.9308 9.2323 -1.3675 0.0000 29.4186 0.0000
# 6 0.0000 0.0000 0.0000 -3.9682 0.0000 35.4522
#
#
#
# Elastic Compliance Matrix: (Units=1/GPa)
#
#
# Indices 1 2 3 4 5 6 
#
# 1 0.005890 -0.004981 -0.000820 0.000000 0.002312 0.000000
# 2 -0.004981 0.031289 -0.003745 0.000000 -0.010659 0.000000
# 3 -0.000820 -0.003745 0.005308 0.000000 0.001312 0.000000
# 4 0.000000 0.000000 0.000000 0.050498 0.000000 0.005652
# 5 0.002312 -0.010659 0.001312 0.000000 0.037707 0.000000
# 6 0.000000 0.000000 0.000000 0.005652 0.000000 0.028840
#
#
# Mechanical properties :
#
#
# Convention : Reuss Voigt Hill
#
# Bulk Modulus (GPa) = 42.74141 84.60555 63.67348
# Shear Modulus (GPa) = 26.82099 40.01913 33.42006
#
# Velocity S-wave (km/s) = 3.13899 3.83430 3.50393
# Velocity P-wave (km/s) = 5.37025 7.11927 6.30569
#
# Compressibility (1/GPa) = 0.02339652
#
# Stress axis : x y z
#
# Youngs Moduli (GPa) = 169.76521 31.96043 188.39295
#
# Poissons Ratio (x) = 0.15918 0.15451
# Poissons Ratio (y) = 0.84555 0.70544
# Poissons Ratio (z) = 0.13923 0.11968
#
# Static dielectric constant tensor:
#      x y z
#    x 2.124630 0.000000 -0.018230 
#    y 0.000000 2.286790 0.000000 
#    z -0.018230 0.000000 2.052420 
# 
# From -- ./inp_files/7475.got.cif
#   From: 2010.05.17/outbox.cif.g08.bks.cpg/sg4_4_cif.got.tgz:7475.got - 2010.06.03 18:43:04.
