data_PCOD9117951
_publ_section_title
;
Structure prediction by ZEFSAII (Michael W. Deem and Ramdas Pophale) SiO2 
 PCOD9117951
Probable space group: P 21
;
_chemical_formula_sum "Si O2"
_cell_formula_units_Z 12
_cell_length_a 6.558949
_cell_length_b 6.652506
_cell_length_c 13.127744
_cell_angle_alpha 90.000000
_cell_angle_beta 121.116548
_cell_angle_gamma 90.000000
_cell_volume 490.391787
_symmetry_space_group_name_H-M "P 21"
_symmetry_group_IT_number 4
_symmetry_cell_setting 'monoclinic'
loop_
_space_group_symop_operation_xyz
x,y,z
-x,1/2+y,-z
loop_
_atom_site_type_symbol
_atom_site_label
_atom_site_fract_x
_atom_site_fract_y
_atom_site_fract_z
Si Si1 0.766000 0.441760 0.335727
Si Si2 0.296307 0.275822 0.263621
Si Si3 0.234001 0.692478 0.164273
Si Si4 0.152771 0.115475 0.427059
Si Si5 0.296307 0.358416 0.763623
Si Si6 0.847229 0.018763 0.072941
O O1 0.547371 0.285601 0.268366
O O2 0.738010 0.543868 0.439514
O O3 0.760693 0.618891 0.252350
O O4 0.010106 0.322992 0.401904
O O5 0.239310 0.515347 0.247650
O O6 0.329523 0.163296 0.379946
O O7 0.055848 0.175953 0.157448
O O8 0.452631 0.848636 0.231634
O O9 0.261988 0.590369 0.060487
O O10 0.989896 0.811246 0.098098
O O11 0.944151 0.958287 0.342550
O O12 0.329525 0.470941 0.879948
#
# Coordination Sequence:
#
# PCOD9117951 Si02
#       6
#     2   2   2   2   2   2
#     4  11  22  42  66  93 127 165 209 259 316 374
#     4  10  24  42  62  94 126 166 210 258 312 376
#     4  11  22  42  66  93 127 165 209 259 316 374
#     4  11  22  42  66  93 127 165 209 259 316 374
#     4  10  24  42  62  94 126 166 210 258 312 376
#     4  11  22  42  66  93 127 165 209 259 316 374
#
# _framework density 24.470229
#
# number of rings (size 3 to 8) (size 9 to 14) (size 15 to 20)
#    0.000    1.333    3.333    2.000    0.000    2.667 
#   24.000    0.000    0.000    0.000    0.000    0.000 
#    0.000    0.000    0.000    0.000    0.000    0.000 
#
# Total GULP energy -67024.750260 kJ/mol
# GULP energy per Si atom -5585.395855 kJ/mol
# Density = 2.441453 g / cm^3
# Si number density = 24.470229 Si / 1000 Ang^3
#
#
#
# Elastic Constant Matrix: (Units=GPa)
#
#
# Indices 1 2 3 4 5 6 
#
# 1 73.7804 22.3447 26.3796 0.0000 -16.4410 0.0000
# 2 22.3447 88.5843 32.1328 0.0000 -7.3283 0.0000
# 3 26.3796 32.1328 51.3631 0.0000 0.4355 0.0000
# 4 0.0000 0.0000 0.0000 37.3541 0.0000 5.5444
# 5 -16.4410 -7.3283 0.4355 0.0000 25.2524 0.0000
# 6 0.0000 0.0000 0.0000 5.5444 0.0000 36.2066
#
#
#
# Elastic Compliance Matrix: (Units=1/GPa)
#
#
# Indices 1 2 3 4 5 6 
#
# 1 0.020316 -0.000253 -0.010389 0.000000 0.013333 0.000000
# 2 -0.000253 0.015110 -0.009360 0.000000 0.004382 0.000000
# 3 -0.010389 -0.009360 0.030745 0.000000 -0.010010 0.000000
# 4 0.000000 0.000000 0.000000 0.027393 0.000000 -0.004195
# 5 0.013333 0.004382 -0.010010 0.000000 0.049725 0.000000
# 6 0.000000 0.000000 0.000000 -0.004195 0.000000 0.028262
#
#
# Mechanical properties :
#
#
# Convention : Reuss Voigt Hill
#
# Bulk Modulus (GPa) = 38.21538 41.71578 39.96558
# Shear Modulus (GPa) = 22.69861 28.62067 25.65964
#
# Velocity S-wave (km/s) = 3.04896 3.42367 3.24173
# Velocity P-wave (km/s) = 5.29583 5.71955 5.51177
#
# Compressibility (1/GPa) = 0.02616747
#
# Stress axis : x y z
#
# Youngs Moduli (GPa) = 49.22274 66.18006 32.52523
#
# Poissons Ratio (x) = 0.01675 0.33789
# Poissons Ratio (y) = 0.01246 0.30444
# Poissons Ratio (z) = 0.51136 0.61945
#
# Static dielectric constant tensor:
#      x y z
#    x 1.977410 0.000000 -0.018140 
#    y 0.000000 1.970810 0.000000 
#    z -0.018140 0.000000 1.932390 
# 
# From -- ./inp_files/13192.got.cif
#   From: 2010.05.17/outbox.cif.g08.bks.cpg/sg4_7_cif.got.tgz:13192.got - 2010.06.03 18:43:04.
