data_PCOD9117901
_publ_section_title
;
Structure prediction by ZEFSAII (Michael W. Deem and Ramdas Pophale) SiO2 
 PCOD9117901
Probable space group: P 21
;
_chemical_formula_sum "Si O2"
_cell_formula_units_Z 10
_cell_length_a 8.643487
_cell_length_b 8.555815
_cell_length_c 9.213014
_cell_angle_alpha 90.000000
_cell_angle_beta 34.850101
_cell_angle_gamma 90.000000
_cell_volume 389.328493
_symmetry_space_group_name_H-M "P 21"
_symmetry_group_IT_number 4
_symmetry_cell_setting 'monoclinic'
loop_
_space_group_symop_operation_xyz
x,y,z
-x,1/2+y,-z
loop_
_atom_site_type_symbol
_atom_site_label
_atom_site_fract_x
_atom_site_fract_y
_atom_site_fract_z
Si Si1 0.426834 0.065780 0.362042
Si Si2 0.451795 0.432133 0.024715
Si Si3 0.122938 0.042159 0.086771
Si Si4 0.026829 0.310776 0.565676
Si Si5 0.780586 0.319919 0.258194
O O1 0.147663 0.148530 0.527905
O O2 0.585158 0.193804 0.333122
O O3 0.367992 0.914124 0.501329
O O4 0.589065 0.027526 0.090574
O O5 0.195302 0.351408 0.293170
O O6 0.594163 0.529200 0.045961
O O7 0.706154 0.317844 0.791045
O O8 0.927417 0.945864 0.347655
O O9 0.134334 0.944092 0.929741
O O10 0.025784 0.215226 0.128606
#
# Coordination Sequence:
#
# PCOD9117901 Si02
#       5
#     2   2   2   2   2
#     4  12  26  48  80 112 162 202 267 321 399 467
#     4  10  26  46  79 105 154 199 267 314 383 464
#     4  10  25  47  75 111 155 205 261 317 394 463
#     4  10  23  49  75 111 147 203 267 316 383 457
#     4  12  26  48  75 121 156 213 252 336 393 477
#
# _framework density 25.685254
#
# number of rings (size 3 to 8) (size 9 to 14) (size 15 to 20)
#    1.200    0.000    2.000    2.400    2.800    6.400 
#    0.000    0.000    0.000    0.000    0.000    0.000 
#    0.000    0.000    0.000    0.000    0.000    0.000 
#
# Total GULP energy -56086.095306 kJ/mol
# GULP energy per Si atom -5608.609531 kJ/mol
# Density = 2.562679 g / cm^3
# Si number density = 25.685254 Si / 1000 Ang^3
#
#
#
# Elastic Constant Matrix: (Units=GPa)
#
#
# Indices 1 2 3 4 5 6 
#
# 1 98.4273 69.2236 49.3880 0.0000 25.1662 0.0000
# 2 69.2236 94.7231 41.1910 0.0000 15.9059 0.0000
# 3 49.3880 41.1910 158.6591 0.0000 21.7222 0.0000
# 4 0.0000 0.0000 0.0000 50.9453 0.0000 1.0135
# 5 25.1662 15.9059 21.7222 0.0000 45.5485 0.0000
# 6 0.0000 0.0000 0.0000 1.0135 0.0000 71.8008
#
#
#
# Elastic Compliance Matrix: (Units=1/GPa)
#
#
# Indices 1 2 3 4 5 6 
#
# 1 0.023816 -0.015175 -0.002565 0.000000 -0.006636 0.000000
# 2 -0.015175 0.021931 -0.001144 0.000000 0.001272 0.000000
# 3 -0.002565 -0.001144 0.007649 0.000000 -0.001831 0.000000
# 4 0.000000 0.000000 0.000000 0.019634 0.000000 -0.000277
# 5 -0.006636 0.001272 -0.001831 0.000000 0.026050 0.000000
# 6 0.000000 0.000000 0.000000 -0.000277 0.000000 0.013931
#
#
# Mechanical properties :
#
#
# Convention : Reuss Voigt Hill
#
# Bulk Modulus (GPa) = 63.98976 74.60165 69.29571
# Shear Modulus (GPa) = 32.05322 46.45938 39.25630
#
# Velocity S-wave (km/s) = 3.53643 4.25761 3.91366
# Velocity P-wave (km/s) = 6.45308 7.29913 6.88910
#
# Compressibility (1/GPa) = 0.01562750
#
# Stress axis : x y z
#
# Youngs Moduli (GPa) = 41.98801 45.59755 130.73494
#
# Poissons Ratio (x) = 0.69195 0.33538
# Poissons Ratio (y) = 0.63717 0.14957
# Poissons Ratio (z) = 0.10771 0.05217
#
# Static dielectric constant tensor:
#      x y z
#    x 2.053610 0.000000 -0.046960 
#    y 0.000000 2.013630 0.000000 
#    z -0.046960 0.000000 1.960700 
# 
# From -- ./inp_files/930.got.cif
#   From: 2010.05.17/outbox.cif.g08.bks.cpg/sg4_1_cif.got.tgz:930.got - 2010.06.03 18:43:04.
