data_PCOD9117433
_publ_section_title
;
Structure prediction by ZEFSAII (Michael W. Deem and Ramdas Pophale) SiO2 
 PCOD9117433
Probable space group: P 21
;
_chemical_formula_sum "Si O2"
_cell_formula_units_Z 12
_cell_length_a 11.601133
_cell_length_b 9.079498
_cell_length_c 7.081797
_cell_angle_alpha 90.000000
_cell_angle_beta 38.302124
_cell_angle_gamma 90.000000
_cell_volume 462.341610
_symmetry_space_group_name_H-M "P 21"
_symmetry_group_IT_number 4
_symmetry_cell_setting 'monoclinic'
loop_
_space_group_symop_operation_xyz
x,y,z
-x,1/2+y,-z
loop_
_atom_site_type_symbol
_atom_site_label
_atom_site_fract_x
_atom_site_fract_y
_atom_site_fract_z
Si Si1 0.367874 0.167750 0.545414
Si Si2 0.755331 0.101091 0.995550
Si Si3 0.993671 0.941530 0.431565
Si Si4 0.658609 0.785178 0.031395
Si Si5 0.010549 0.792515 0.047915
Si Si6 0.722092 0.389380 0.608220
O O1 0.581325 0.208894 0.228932
O O2 0.356042 0.159982 0.790556
O O3 0.206749 0.279491 0.699172
O O4 0.324920 0.031564 0.460976
O O5 0.671280 0.938913 0.134818
O O6 0.903189 0.150592 0.958548
O O7 0.863534 0.078032 0.659932
O O8 0.045045 0.925559 0.149127
O O9 0.174768 0.932938 0.331187
O O10 0.848269 0.805831 0.668162
O O11 0.472108 0.798342 0.145148
O O12 0.119291 0.808100 0.715279
#
# Coordination Sequence:
#
# PCOD9117433 Si02
#       6
#     2   2   2   2   2   2
#     4  11  20  40  70  88 130 168 204 264 317 367
#     4   9  21  40  59  96 128 152 217 259 303 381
#     4  10  23  40  60  93 128 156 216 256 305 370
#     4   9  20  40  62  92 126 164 201 260 312 371
#     4  12  22  39  69  89 123 172 207 260 320 366
#     4  11  22  41  66  92 129 164 211 261 311 377
#
# _framework density 25.954832
#
# number of rings (size 3 to 8) (size 9 to 14) (size 15 to 20)
#    1.000    0.667    5.000    0.000    0.000    2.667 
#    0.000    0.000    7.333    0.000    0.000    0.000 
#    0.000    0.000    0.000    0.000    0.000    0.000 
#
# Total GULP energy -67014.779263 kJ/mol
# GULP energy per Si atom -5584.564939 kJ/mol
# Density = 2.589576 g / cm^3
# Si number density = 25.954832 Si / 1000 Ang^3
#
#
#
# Elastic Constant Matrix: (Units=GPa)
#
#
# Indices 1 2 3 4 5 6 
#
# 1 152.3042 13.9191 65.2265 0.0000 -22.9047 0.0000
# 2 13.9191 31.1323 35.5175 0.0000 -7.9063 0.0000
# 3 65.2265 35.5175 97.5930 0.0000 -25.7227 0.0000
# 4 0.0000 0.0000 0.0000 43.1955 0.0000 -0.6064
# 5 -22.9047 -7.9063 -25.7227 0.0000 46.9486 0.0000
# 6 0.0000 0.0000 0.0000 -0.6064 0.0000 34.0430
#
#
#
# Elastic Compliance Matrix: (Units=1/GPa)
#
#
# Indices 1 2 3 4 5 6 
#
# 1 0.009727 0.005150 -0.008060 0.000000 0.001197 0.000000
# 2 0.005150 0.057813 -0.024841 0.000000 -0.001362 0.000000
# 3 -0.008060 -0.024841 0.026339 0.000000 0.006315 0.000000
# 4 0.000000 0.000000 0.000000 0.023156 0.000000 0.000413
# 5 0.001197 -0.001362 0.006315 0.000000 0.025114 0.000000
# 6 0.000000 0.000000 0.000000 0.000413 0.000000 0.029382
#
#
# Mechanical properties :
#
#
# Convention : Reuss Voigt Hill
#
# Bulk Modulus (GPa) = 26.05762 56.70619 41.38191
# Shear Modulus (GPa) = 20.84858 35.92851 28.38854
#
# Velocity S-wave (km/s) = 2.83727 3.72461 3.31080
# Velocity P-wave (km/s) = 4.56014 6.35551 5.53115
#
# Compressibility (1/GPa) = 0.03837650
#
# Stress axis : x y z
#
# Youngs Moduli (GPa) = 102.80808 17.29726 37.96722
#
# Poissons Ratio (x) = -0.08909 0.30601
# Poissons Ratio (y) = -0.52949 0.94315
# Poissons Ratio (z) = 0.82862 0.42968
#
# Static dielectric constant tensor:
#      x y z
#    x 1.995210 0.000000 0.005060 
#    y 0.000000 2.208260 0.000000 
#    z 0.005060 0.000000 2.004860 
# 
# From -- ./inp_files/6494.got.cif
#   From: 2010.05.17/outbox.cif.g08.bks.cpg/sg4_4_cif.got.tgz:6494.got - 2010.06.03 18:43:04.
