data_PCOD9117982
_publ_section_title
;
Structure prediction by ZEFSAII (Michael W. Deem and Ramdas Pophale) SiO2 
 PCOD9117982
Probable space group: P 21
;
_chemical_formula_sum "Si O2"
_cell_formula_units_Z 16
_cell_length_a 13.491571
_cell_length_b 8.805777
_cell_length_c 5.066950
_cell_angle_alpha 90.000000
_cell_angle_beta 116.539000
_cell_angle_gamma 90.000000
_cell_volume 538.543136
_symmetry_space_group_name_H-M "P 21"
_symmetry_group_IT_number 4
_symmetry_cell_setting 'monoclinic'
loop_
_space_group_symop_operation_xyz
x,y,z
-x,1/2+y,-z
loop_
_atom_site_type_symbol
_atom_site_label
_atom_site_fract_x
_atom_site_fract_y
_atom_site_fract_z
Si Si1 0.903242 0.000000 0.725439
Si Si2 0.198449 0.962442 0.584026
Si Si3 0.394513 0.073514 0.099358
Si Si4 0.758468 0.850251 0.901209
Si Si5 0.175718 0.768851 0.084795
Si Si6 0.962522 0.729693 0.454880
Si Si7 0.435993 0.521759 0.095168
Si Si8 0.419158 0.775683 0.486433
O O1 0.896045 0.115185 0.971729
O O2 0.940323 0.135207 0.571353
O O3 0.785892 0.910285 0.639235
O O4 0.976827 0.859255 0.696839
O O5 0.148832 0.905674 0.250886
O O6 0.119345 0.100708 0.549058
O O7 0.195412 0.838766 0.818344
O O8 0.321417 0.033009 0.750025
O O9 0.317183 0.199834 0.151997
O O10 0.397977 0.920967 0.269060
O O11 0.521864 0.085271 0.135215
O O12 0.690736 0.977221 0.988283
O O13 0.882987 0.815962 0.148432
O O14 0.292403 0.728465 0.381568
O O15 0.469422 0.649047 0.349382
O O16 0.498475 0.362385 0.215927
#
# Coordination Sequence:
#
# PCOD9117982 Si02
#       8
#     2   2   2   2   2   2   2   2
#     4  12  28  51  82 117 157 215 285 351 436 493
#     4  11  27  51  77 118 158 218 272 350 414 503
#     4  10  24  42  73 109 160 214 267 332 412 488
#     4  10  26  45  75 113 156 210 269 349 409 507
#     4  12  27  47  79 115 163 208 278 334 423 498
#     4  11  29  51  83 111 161 208 284 352 432 492
#     4  11  23  43  68 112 155 215 266 328 412 497
#     4  11  24  40  69 105 156 212 267 330 394 498
#
# _framework density 29.709782000000001
#
# number of rings (size 3 to 8) (size 9 to 14) (size 15 to 20)
#    0.000    1.000    2.500    1.500   10.500    6.000 
#    0.000    0.000    0.000    0.000    0.000    0.000 
#    0.000    0.000    0.000    0.000    0.000    0.000 
#
# Total GULP energy -89275.106239 kJ/mol
# GULP energy per Si atom -5579.694140 kJ/mol
# Density = 2.964216 g / cm^3
# Si number density = 29.709782 Si / 1000 Ang^3
#
#
#
# Elastic Constant Matrix: (Units=GPa)
#
#
# Indices 1 2 3 4 5 6 
#
# 1 164.7578 53.8731 28.9712 0.0000 -29.0734 0.0000
# 2 53.8731 183.9264 2.7523 0.0000 -14.4872 0.0000
# 3 28.9712 2.7523 72.7744 0.0000 -6.4549 0.0000
# 4 0.0000 0.0000 0.0000 43.1501 0.0000 -15.5182
# 5 -29.0734 -14.4872 -6.4549 0.0000 52.2694 0.0000
# 6 0.0000 0.0000 0.0000 -15.5182 0.0000 41.4090
#
#
#
# Elastic Compliance Matrix: (Units=1/GPa)
#
#
# Indices 1 2 3 4 5 6 
#
# 1 0.007804 -0.001973 -0.002725 0.000000 0.003457 0.000000
# 2 -0.001973 0.006057 0.000615 0.000000 0.000658 0.000000
# 3 -0.002725 0.000615 0.014846 0.000000 0.000488 0.000000
# 4 0.000000 0.000000 0.000000 0.026785 0.000000 0.010038
# 5 0.003457 0.000658 0.000488 0.000000 0.021297 0.000000
# 6 0.000000 0.000000 0.000000 0.010038 0.000000 0.027911
#
#
# Mechanical properties :
#
#
# Convention : Reuss Voigt Hill
#
# Bulk Modulus (GPa) = 48.68501 65.85020 57.26760
# Shear Modulus (GPa) = 41.76611 49.75650 45.76131
#
# Velocity S-wave (km/s) = 3.75347 4.09681 3.92889
# Velocity P-wave (km/s) = 5.93356 6.67766 6.31658
#
# Compressibility (1/GPa) = 0.02054020
#
# Stress axis : x y z
#
# Youngs Moduli (GPa) = 128.14131 165.08827 67.35778
#
# Poissons Ratio (x) = 0.32567 0.18358
# Poissons Ratio (y) = 0.25278 -0.04139
# Poissons Ratio (z) = 0.34924 -0.10146
#
# Static dielectric constant tensor:
#      x y z
#    x 2.526160 0.000000 0.175400 
#    y 0.000000 2.504870 0.000000 
#    z 0.175400 0.000000 2.520020 
# 
# From -- ./inp_files/3584.got.cif
#   From: 2010.05.17/outbox.cif.g08.bks.cpg/sg4_2_cif.got.tgz:3584.got - 2010.06.03 18:43:04.
