data_PCOD9117981
_publ_section_title
;
Structure prediction by ZEFSAII (Michael W. Deem and Ramdas Pophale) SiO2 
 PCOD9117981
Probable space group: P 21
;
_chemical_formula_sum "Si O2"
_cell_formula_units_Z 10
_cell_length_a 10.827024
_cell_length_b 7.482194
_cell_length_c 10.861795
_cell_angle_alpha 90.000000
_cell_angle_beta 155.428422
_cell_angle_gamma 90.000000
_cell_volume 365.893908
_symmetry_space_group_name_H-M "P 21"
_symmetry_group_IT_number 4
_symmetry_cell_setting 'monoclinic'
loop_
_space_group_symop_operation_xyz
x,y,z
-x,1/2+y,-z
loop_
_atom_site_type_symbol
_atom_site_label
_atom_site_fract_x
_atom_site_fract_y
_atom_site_fract_z
Si Si1 0.260398 0.995480 0.486941
Si Si2 0.703311 0.493089 0.073771
Si Si3 0.199770 0.394225 0.133233
Si Si4 0.914724 0.852766 0.394353
Si Si5 0.392123 0.850767 0.274219
O O1 0.504985 0.842470 0.676813
O O2 0.139329 0.962189 0.511703
O O3 0.437230 0.178618 0.623473
O O4 0.988695 0.988100 0.146331
O O5 0.831496 0.679102 0.239963
O O6 0.910857 0.337206 0.318739
O O7 0.380244 0.458977 0.837157
O O8 0.694859 0.472172 0.919909
O O9 0.387528 0.446041 0.428071
O O10 0.915148 0.295019 0.935948
#
# Coordination Sequence:
#
# PCOD9117981 Si02
#       5
#     2   2   2   2   2
#     4  11  24  46  75 109 151 197 250 311 375 448
#     4  12  27  48  77 111 150 198 254 313 377 449
#     4  10  24  42  72 108 144 190 244 306 370 440
#     4  12  27  48  77 111 150 198 254 313 377 449
#     4  11  24  46  75 109 151 197 250 311 375 448
#
# _framework density 27.330327
#
# number of rings (size 3 to 8) (size 9 to 14) (size 15 to 20)
#    0.000    0.800    0.000    6.000    0.000    9.600 
#    0.000    0.000    0.000    0.000    0.000    0.000 
#    0.000    0.000    0.000    0.000    0.000    0.000 
#
# Total GULP energy -55912.146254 kJ/mol
# GULP energy per Si atom -5591.214625 kJ/mol
# Density = 2.726812 g / cm^3
# Si number density = 27.330327 Si / 1000 Ang^3
#
#
#
# Elastic Constant Matrix: (Units=GPa)
#
#
# Indices 1 2 3 4 5 6 
#
# 1 110.6987 9.0012 41.9386 0.0000 19.4549 0.0000
# 2 9.0012 43.1760 2.3733 0.0000 -6.1333 0.0000
# 3 41.9386 2.3733 203.4836 0.0000 3.1925 0.0000
# 4 0.0000 0.0000 0.0000 48.0749 0.0000 -5.5892
# 5 19.4549 -6.1333 3.1925 0.0000 68.2992 0.0000
# 6 0.0000 0.0000 0.0000 -5.5892 0.0000 13.0953
#
#
#
# Elastic Compliance Matrix: (Units=1/GPa)
#
#
# Indices 1 2 3 4 5 6 
#
# 1 0.010590 -0.002539 -0.002104 0.000000 -0.003146 0.000000
# 2 -0.002539 0.024088 0.000197 0.000000 0.002877 0.000000
# 3 -0.002104 0.000197 0.005340 0.000000 0.000367 0.000000
# 4 0.000000 0.000000 0.000000 0.021887 0.000000 0.009342
# 5 -0.003146 0.002877 0.000367 0.000000 0.015779 0.000000
# 6 0.000000 0.000000 0.000000 0.009342 0.000000 0.080351
#
#
# Mechanical properties :
#
#
# Convention : Reuss Voigt Hill
#
# Bulk Modulus (GPa) = 32.12633 51.55382 41.84007
# Shear Modulus (GPa) = 28.20063 46.16356 37.18210
#
# Velocity S-wave (km/s) = 3.21572 4.11432 3.69246
# Velocity P-wave (km/s) = 5.05649 6.44006 5.78975
#
# Compressibility (1/GPa) = 0.03112712
#
# Stress axis : x y z
#
# Youngs Moduli (GPa) = 94.42974 41.51404 187.26927
#
# Poissons Ratio (x) = 0.10541 0.39395
# Poissons Ratio (y) = 0.23976 -0.03693
# Poissons Ratio (z) = 0.19865 -0.00819
#
# Static dielectric constant tensor:
#      x y z
#    x 2.133210 0.000000 -0.008340 
#    y 0.000000 2.375050 0.000000 
#    z -0.008340 0.000000 2.050020 
# 
# From -- ./inp_files/11798.got.cif
#   From: 2010.05.17/outbox.cif.g08.bks.cpg/sg4_6_cif.got.tgz:11798.got - 2010.06.03 18:43:04.
