data_PCOD9117834
_publ_section_title
;
Structure prediction by ZEFSAII (Michael W. Deem and Ramdas Pophale) SiO2 
 PCOD9117834
Probable space group: P 21
;
_chemical_formula_sum "Si O2"
_cell_formula_units_Z 12
_cell_length_a 9.339429
_cell_length_b 10.700190
_cell_length_c 5.112586
_cell_angle_alpha 90.000000
_cell_angle_beta 101.770972
_cell_angle_gamma 90.000000
_cell_volume 500.175263
_symmetry_space_group_name_H-M "P 21"
_symmetry_group_IT_number 4
_symmetry_cell_setting 'monoclinic'
loop_
_space_group_symop_operation_xyz
x,y,z
-x,1/2+y,-z
loop_
_atom_site_type_symbol
_atom_site_label
_atom_site_fract_x
_atom_site_fract_y
_atom_site_fract_z
Si Si1 0.096842 0.464710 0.590995
Si Si2 0.886303 0.765807 0.032812
Si Si3 0.882533 0.481750 0.896509
Si Si4 0.609024 0.330480 0.864894
Si Si5 0.571732 0.849294 0.708899
Si Si6 0.258536 0.573590 0.155515
O O1 0.124177 0.318954 0.673259
O O2 0.167446 0.521222 0.364336
O O3 0.927030 0.485656 0.603462
O O4 0.180715 0.536339 0.858171
O O5 0.014122 0.862197 0.973804
O O6 0.917051 0.619991 0.017393
O O7 0.729675 0.791269 0.838628
O O8 0.715434 0.449259 0.890109
O O9 0.478524 0.337775 0.607078
O O10 0.710938 0.217454 0.811145
O O11 0.547634 0.301881 0.129221
O O12 0.590906 0.996343 0.779277
#
# Coordination Sequence:
#
# PCOD9117834 Si02
#       6
#     2   2   2   2   2   2
#     4   9  22  42  72  99 138 194 235 308 366 435
#     4   9  22  46  74 105 152 193 253 306 377 442
#     4  10  23  46  74 114 144 199 255 311 371 451
#     4  12  27  43  74 108 143 197 246 310 372 451
#     4  11  26  44  70 104 145 195 242 310 374 442
#     4  11  22  47  68  98 148 188 245 299 380 431
#
# _framework density 23.991592000000001
#
# number of rings (size 3 to 8) (size 9 to 14) (size 15 to 20)
#    1.000    0.667    0.000    4.000    4.667    1.333 
#    6.000    1.667    0.000    0.000    0.000    0.000 
#    0.000    0.000    0.000    0.000    0.000    0.000 
#
# Total GULP energy -66958.545358 kJ/mol
# GULP energy per Si atom -5579.878780 kJ/mol
# Density = 2.393699 g / cm^3
# Si number density = 23.991592 Si / 1000 Ang^3
#
#
#
# Elastic Constant Matrix: (Units=GPa)
#
#
# Indices 1 2 3 4 5 6 
#
# 1 96.5601 34.2590 23.1958 0.0000 -5.3867 0.0000
# 2 34.2590 145.3579 21.7160 0.0000 4.8658 0.0000
# 3 23.1958 21.7160 79.2916 0.0000 -10.1013 0.0000
# 4 0.0000 0.0000 0.0000 11.6295 0.0000 -2.5568
# 5 -5.3867 4.8658 -10.1013 0.0000 36.1314 0.0000
# 6 0.0000 0.0000 0.0000 -2.5568 0.0000 45.1133
#
#
#
# Elastic Compliance Matrix: (Units=1/GPa)
#
#
# Indices 1 2 3 4 5 6 
#
# 1 0.011943 -0.002466 -0.002643 0.000000 0.001374 0.000000
# 2 -0.002466 0.007769 -0.001645 0.000000 -0.001874 0.000000
# 3 -0.002643 -0.001645 0.014324 0.000000 0.003832 0.000000
# 4 0.000000 0.000000 0.000000 0.087073 0.000000 0.004935
# 5 0.001374 -0.001874 0.003832 0.000000 0.029205 0.000000
# 6 0.000000 0.000000 0.000000 0.004935 0.000000 0.022446
#
#
# Mechanical properties :
#
#
# Convention : Reuss Voigt Hill
#
# Bulk Modulus (GPa) = 48.71654 53.28348 51.00001
# Shear Modulus (GPa) = 25.89179 34.71075 30.30127
#
# Velocity S-wave (km/s) = 3.28869 3.80779 3.55772
# Velocity P-wave (km/s) = 5.89664 6.44902 6.17900
#
# Compressibility (1/GPa) = 0.02052691
#
# Stress axis : x y z
#
# Youngs Moduli (GPa) = 83.73301 128.71270 69.81429
#
# Poissons Ratio (x) = 0.31738 0.18455
# Poissons Ratio (y) = 0.20647 0.11486
# Poissons Ratio (z) = 0.22134 0.21176
#
# Static dielectric constant tensor:
#      x y z
#    x 1.984880 0.000000 -0.004620 
#    y 0.000000 1.954090 0.000000 
#    z -0.004620 0.000000 1.983050 
# 
# From -- ./inp_files/1273.got.cif
#   From: 2010.05.17/outbox.cif.g08.bks.cpg/sg4_1_cif.got.tgz:1273.got - 2010.06.03 18:43:04.
