data_PCOD9117605
_publ_section_title
;
Structure prediction by ZEFSAII (Michael W. Deem and Ramdas Pophale) SiO2 
 PCOD9117605
Probable space group: P 21
;
_chemical_formula_sum "Si O2"
_cell_formula_units_Z 10
_cell_length_a 10.926480
_cell_length_b 4.863180
_cell_length_c 9.629822
_cell_angle_alpha 90.000000
_cell_angle_beta 133.795996
_cell_angle_gamma 90.000000
_cell_volume 369.352403
_symmetry_space_group_name_H-M "P 21"
_symmetry_group_IT_number 4
_symmetry_cell_setting 'monoclinic'
loop_
_space_group_symop_operation_xyz
x,y,z
-x,1/2+y,-z
loop_
_atom_site_type_symbol
_atom_site_label
_atom_site_fract_x
_atom_site_fract_y
_atom_site_fract_z
Si Si1 0.285887 0.743650 0.960475
Si Si2 0.966263 0.655616 0.561065
Si Si3 0.598766 0.122516 0.525128
Si Si4 0.388831 0.909603 0.731920
Si Si5 0.884695 0.438126 0.918268
O O1 0.114244 0.581273 0.784419
O O2 0.357716 0.850636 0.870065
O O3 0.433928 0.563579 0.141633
O O4 0.221848 0.960373 0.022894
O O5 0.775391 0.580793 0.445370
O O6 0.012537 0.474117 0.461364
O O7 0.554947 0.820912 0.544002
O O8 0.606389 0.148303 0.364899
O O9 0.764318 0.269101 0.718849
O O10 0.956987 0.731519 0.932469
#
# Coordination Sequence:
#
# PCOD9117605 Si02
#       5
#     2   2   2   2   2
#     4  11  25  45  77 113 148 198 259 313 383 451
#     4  10  23  43  67 106 148 186 239 310 379 443
#     4  12  27  49  73 109 156 200 250 314 387 463
#     4  11  25  45  77 112 150 196 256 320 381 451
#     4  12  28  50  76 110 156 206 256 313 386 468
#
# _framework density 27.074414000000001
#
# number of rings (size 3 to 8) (size 9 to 14) (size 15 to 20)
#    0.000    0.800    2.000    3.600    2.800   12.800 
#    0.000    0.000    0.000    0.000    0.000    0.000 
#    0.000    0.000    0.000    0.000    0.000    0.000 
#
# Total GULP energy -56104.870764 kJ/mol
# GULP energy per Si atom -5610.487076 kJ/mol
# Density = 2.701279 g / cm^3
# Si number density = 27.074414 Si / 1000 Ang^3
#
#
#
# Elastic Constant Matrix: (Units=GPa)
#
#
# Indices 1 2 3 4 5 6 
#
# 1 143.2947 40.2672 37.3387 0.0000 -21.3912 0.0000
# 2 40.2672 106.2184 12.6247 0.0000 11.2469 0.0000
# 3 37.3387 12.6247 130.1988 0.0000 45.3292 0.0000
# 4 0.0000 0.0000 0.0000 36.8908 0.0000 10.3598
# 5 -21.3912 11.2469 45.3292 0.0000 64.6744 0.0000
# 6 0.0000 0.0000 0.0000 10.3598 0.0000 45.4328
#
#
#
# Elastic Compliance Matrix: (Units=1/GPa)
#
#
# Indices 1 2 3 4 5 6 
#
# 1 0.010885 -0.004339 -0.005578 0.000000 0.008264 0.000000
# 2 -0.004339 0.011342 0.001760 0.000000 -0.004641 0.000000
# 3 -0.005578 0.001760 0.013041 0.000000 -0.011291 0.000000
# 4 0.000000 0.000000 0.000000 0.028962 0.000000 -0.006604
# 5 0.008264 -0.004641 -0.011291 0.000000 0.026916 0.000000
# 6 0.000000 0.000000 0.000000 -0.006604 0.000000 0.023516
#
#
# Mechanical properties :
#
#
# Convention : Reuss Voigt Hill
#
# Bulk Modulus (GPa) = 52.75879 62.24145 57.50012
# Shear Modulus (GPa) = 36.41851 48.69837 42.55844
#
# Velocity S-wave (km/s) = 3.67158 4.24569 3.96903
# Velocity P-wave (km/s) = 6.12396 6.86101 6.50293
#
# Compressibility (1/GPa) = 0.01895419
#
# Stress axis : x y z
#
# Youngs Moduli (GPa) = 91.86874 88.17161 76.68312
#
# Poissons Ratio (x) = 0.38254 0.42776
# Poissons Ratio (y) = 0.39858 -0.13499
# Poissons Ratio (z) = 0.51247 -0.15521
#
# Static dielectric constant tensor:
#      x y z
#    x 2.091930 0.000000 -0.009960 
#    y 0.000000 2.008860 0.000000 
#    z -0.009960 0.000000 2.144440 
# 
# From -- ./inp_files/5053.got.cif
#   From: 2010.05.17/outbox.cif.g08.bks.cpg/sg4_3_cif.got.tgz:5053.got - 2010.06.03 18:43:04.
