data_PCOD9117335
_publ_section_title
;
Structure prediction by ZEFSAII (Michael W. Deem and Ramdas Pophale) SiO2 
 PCOD9117335
Probable space group: P 21
;
_chemical_formula_sum "Si O2"
_cell_formula_units_Z 16
_cell_length_a 12.486096
_cell_length_b 11.420832
_cell_length_c 6.963393
_cell_angle_alpha 90.000000
_cell_angle_beta 49.107646
_cell_angle_gamma 90.000000
_cell_volume 750.642459
_symmetry_space_group_name_H-M "P 21"
_symmetry_group_IT_number 4
_symmetry_cell_setting 'monoclinic'
loop_
_space_group_symop_operation_xyz
x,y,z
-x,1/2+y,-z
loop_
_atom_site_type_symbol
_atom_site_label
_atom_site_fract_x
_atom_site_fract_y
_atom_site_fract_z
Si Si1 0.520187 0.687680 0.412319
Si Si2 0.964808 0.341478 0.185677
Si Si3 0.335854 0.039564 0.022331
Si Si4 0.075983 0.082127 0.595298
Si Si5 0.635601 0.011557 0.633833
Si Si6 0.272758 0.830101 0.845918
Si Si7 0.181678 0.686536 0.322162
Si Si8 0.225586 0.273724 0.659601
O O1 0.614481 0.667848 0.109496
O O2 0.416659 0.575210 0.503516
O O3 0.413102 0.794455 0.564057
O O4 0.634929 0.700547 0.445277
O O5 0.963299 0.481206 0.209249
O O6 0.862746 0.310316 0.127812
O O7 0.895994 0.281885 0.452763
O O8 0.123198 0.297932 0.960464
O O9 0.484786 0.981894 0.910869
O O10 0.283941 0.963634 0.901804
O O11 0.211775 0.039691 0.317247
O O12 0.128835 0.200682 0.629876
O O13 0.941561 0.105877 0.620528
O O14 0.724893 0.897171 0.484988
O O15 0.717087 0.107112 0.664883
O O16 0.259844 0.751034 0.053339
#
# Coordination Sequence:
#
# PCOD9117335 Si02
#       8
#     2   2   2   2   2   2   2   2
#     4  10  22  46  71 102 142 192 237 301 354 436
#     4  12  27  47  74 105 144 200 241 305 368 435
#     4  10  23  46  69 107 140 189 246 296 360 432
#     4  12  28  45  75 108 144 198 240 313 364 441
#     4  10  26  45  72 104 150 189 243 308 362 436
#     4  12  23  49  72 104 148 190 244 297 366 435
#     4  12  27  48  71 109 146 190 245 306 367 438
#     4  12  26  46  74 109 150 192 252 300 373 443
#
# _framework density 21.315076000000001
#
# number of rings (size 3 to 8) (size 9 to 14) (size 15 to 20)
#    0.750    0.000    5.000    1.500    8.750    0.000 
#    2.250    0.000    0.000    0.000    0.000    0.000 
#    0.000    0.000    0.000    0.000    0.000    0.000 
#
# Total GULP energy -89278.778439 kJ/mol
# GULP energy per Si atom -5579.923652 kJ/mol
# Density = 2.126656 g / cm^3
# Si number density = 21.315076 Si / 1000 Ang^3
#
#
#
# Elastic Constant Matrix: (Units=GPa)
#
#
# Indices 1 2 3 4 5 6 
#
# 1 103.3336 17.6187 26.4446 0.0000 -8.8339 0.0000
# 2 17.6187 59.4632 35.3152 0.0000 3.3799 0.0000
# 3 26.4446 35.3152 60.4969 0.0000 -7.3025 0.0000
# 4 0.0000 0.0000 0.0000 33.7891 0.0000 -2.2557
# 5 -8.8339 3.3799 -7.3025 0.0000 24.7316 0.0000
# 6 0.0000 0.0000 0.0000 -2.2557 0.0000 33.0289
#
#
#
# Elastic Compliance Matrix: (Units=1/GPa)
#
#
# Indices 1 2 3 4 5 6 
#
# 1 0.011111 -0.001218 -0.003782 0.000000 0.003019 0.000000
# 2 -0.001218 0.027607 -0.016686 0.000000 -0.009135 0.000000
# 3 -0.003782 -0.016686 0.029072 0.000000 0.009514 0.000000
# 4 0.000000 0.000000 0.000000 0.029731 0.000000 0.002030
# 5 0.003019 -0.009135 0.009514 0.000000 0.045570 0.000000
# 6 0.000000 0.000000 0.000000 0.002030 0.000000 0.030415
#
#
# Mechanical properties :
#
#
# Convention : Reuss Voigt Hill
#
# Bulk Modulus (GPa) = 40.95199 42.45007 41.70103
# Shear Modulus (GPa) = 22.22074 27.90427 25.06251
#
# Velocity S-wave (km/s) = 3.23226 3.62212 3.43273
# Velocity P-wave (km/s) = 5.76059 6.11978 5.94290
#
# Compressibility (1/GPa) = 0.02441884
#
# Stress axis : x y z
#
# Youngs Moduli (GPa) = 90.00216 36.22286 34.39794
#
# Poissons Ratio (x) = 0.04411 0.13008
# Poissons Ratio (y) = 0.10961 0.57396
# Poissons Ratio (z) = 0.34035 0.60441
#
# Static dielectric constant tensor:
#      x y z
#    x 1.754600 0.000000 -0.002590 
#    y 0.000000 1.782570 0.000000 
#    z -0.002590 0.000000 1.773560 
# 
# From -- ./inp_files/3035.got.cif
#   From: 2010.05.17/outbox.cif.g08.bks.cpg/sg4_2_cif.got.tgz:3035.got - 2010.06.03 18:43:04.
