data_PCOD9117370
_publ_section_title
;
Structure prediction by ZEFSAII (Michael W. Deem and Ramdas Pophale) SiO2 
 PCOD9117370
Probable space group: P 21
;
_chemical_formula_sum "Si O2"
_cell_formula_units_Z 14
_cell_length_a 9.265025
_cell_length_b 6.328680
_cell_length_c 21.579678
_cell_angle_alpha 90.000000
_cell_angle_beta 30.831254
_cell_angle_gamma 90.000000
_cell_volume 648.497297
_symmetry_space_group_name_H-M "P 21"
_symmetry_group_IT_number 4
_symmetry_cell_setting 'monoclinic'
loop_
_space_group_symop_operation_xyz
x,y,z
-x,1/2+y,-z
loop_
_atom_site_type_symbol
_atom_site_label
_atom_site_fract_x
_atom_site_fract_y
_atom_site_fract_z
Si Si1 0.835199 0.368570 1.000000
Si Si2 0.505723 0.375307 0.362346
Si Si3 0.958314 0.722849 0.193376
Si Si4 0.044896 0.861825 0.362343
Si Si5 0.594447 0.118569 0.202775
Si Si6 0.268183 0.514282 0.193373
Si Si7 0.922453 0.118566 0.288773
O O1 0.703460 0.281613 0.111120
O O2 0.602896 0.540187 0.066446
O O3 0.868693 0.196947 0.933551
O O4 0.147936 0.455532 0.888884
O O5 0.656752 0.604810 0.299677
O O6 0.551808 0.241953 0.282778
O O7 0.666331 0.266049 0.361460
O O8 0.178924 0.368565 0.500002
O O9 0.128558 0.618565 0.185719
O O10 0.956612 0.966117 0.216584
O O11 0.144541 0.632322 0.299674
O O12 0.317081 0.995179 0.282775
O O13 0.887828 0.971085 0.361459
O O14 0.177051 0.271014 0.216582
#
# Coordination Sequence:
#
# PCOD9117370 Si02
#       7
#     2   2   2   2   2   2   2
#     4  12  24  44  70  94 146 178 238 282 342 432
#     4  11  26  45  71 104 142 181 236 288 353 424
#     4  10  24  42  72 107 134 182 230 294 354 411
#     4  11  26  45  71 104 142 181 236 288 353 424
#     4  12  26  46  68 104 138 196 228 286 356 420
#     4  10  24  42  72 107 134 182 230 294 354 411
#     4  10  22  48  68 108 134 182 236 286 364 402
#
# _framework density 21.588373000000001
#
# number of rings (size 3 to 8) (size 9 to 14) (size 15 to 20)
#    0.000    1.143    2.857    1.714    8.000    2.286 
#    0.000    0.000    0.000    0.000    0.000    0.000 
#    0.000    0.000    0.000    0.000    0.000    0.000 
#
# Total GULP energy -78126.737947 kJ/mol
# GULP energy per Si atom -5580.481282 kJ/mol
# Density = 2.153924 g / cm^3
# Si number density = 21.588373 Si / 1000 Ang^3
#
#
#
# Elastic Constant Matrix: (Units=GPa)
#
#
# Indices 1 2 3 4 5 6 
#
# 1 96.0746 34.1415 72.0697 0.0000 0.4905 0.0000
# 2 34.1415 78.0571 45.7676 0.0000 0.1022 0.0000
# 3 72.0697 45.7676 181.7404 0.0000 0.2690 0.0000
# 4 0.0000 0.0000 0.0000 27.0164 0.0000 0.0973
# 5 0.4905 0.1022 0.2690 0.0000 39.7605 0.0000
# 6 0.0000 0.0000 0.0000 0.0973 0.0000 15.9005
#
#
#
# Elastic Compliance Matrix: (Units=1/GPa)
#
#
# Indices 1 2 3 4 5 6 
#
# 1 0.015712 -0.003777 -0.005279 0.000000 -0.000148 0.000000
# 2 -0.003777 0.015938 -0.002516 0.000000 0.000023 0.000000
# 3 -0.005279 -0.002516 0.008229 0.000000 0.000016 0.000000
# 4 0.000000 0.000000 0.000000 0.037015 0.000000 -0.000226
# 5 -0.000148 0.000023 0.000016 0.000000 0.025152 0.000000
# 6 0.000000 0.000000 0.000000 -0.000226 0.000000 0.062893
#
#
# Mechanical properties :
#
#
# Convention : Reuss Voigt Hill
#
# Bulk Modulus (GPa) = 59.75332 73.31439 66.53385
# Shear Modulus (GPa) = 25.81822 30.12836 27.97329
#
# Velocity S-wave (km/s) = 3.46198 3.73980 3.60357
# Velocity P-wave (km/s) = 6.61203 7.25824 6.94266
#
# Compressibility (1/GPa) = 0.01673547
#
# Stress axis : x y z
#
# Youngs Moduli (GPa) = 63.64756 62.74228 121.51477
#
# Poissons Ratio (x) = 0.23695 0.64150
# Poissons Ratio (y) = 0.24037 0.30575
# Poissons Ratio (z) = 0.33601 0.15787
#
# Static dielectric constant tensor:
#      x y z
#    x 1.874230 0.000000 -0.001060 
#    y 0.000000 1.867420 0.000000 
#    z -0.001060 0.000000 1.753080 
# 
# From -- ./inp_files/9823.got.cif
#   From: 2010.05.17/outbox.cif.g08.bks.cpg/sg4_5_cif.got.tgz:9823.got - 2010.06.03 18:43:04.
