data_PCOD9117739
_publ_section_title
;
Structure prediction by ZEFSAII (Michael W. Deem and Ramdas Pophale) SiO2 
 PCOD9117739
Probable space group: P 21
;
_chemical_formula_sum "Si O2"
_cell_formula_units_Z 16
_cell_length_a 11.717786
_cell_length_b 9.808857
_cell_length_c 10.529178
_cell_angle_alpha 90.000000
_cell_angle_beta 144.032855
_cell_angle_gamma 90.000000
_cell_volume 710.778270
_symmetry_space_group_name_H-M "P 21"
_symmetry_group_IT_number 4
_symmetry_cell_setting 'monoclinic'
loop_
_space_group_symop_operation_xyz
x,y,z
-x,1/2+y,-z
loop_
_atom_site_type_symbol
_atom_site_label
_atom_site_fract_x
_atom_site_fract_y
_atom_site_fract_z
Si Si1 0.205324 0.923720 0.249001
Si Si2 0.799163 0.947261 0.770897
Si Si3 0.546689 0.826545 0.373803
Si Si4 0.606248 0.336638 0.180178
Si Si5 0.507662 0.029685 0.710495
Si Si6 0.171273 0.670315 0.399922
Si Si7 0.244321 0.307155 0.694471
Si Si8 0.931927 0.527487 0.394627
O O1 0.377364 0.898286 0.302142
O O2 0.131366 0.792303 0.264269
O O3 0.309639 0.011279 0.451815
O O4 0.020203 0.972404 0.004137
O O5 0.676603 0.954765 0.787578
O O6 0.730596 0.060567 0.605967
O O7 0.728204 0.812165 0.635599
O O8 0.445960 0.686248 0.244656
O O9 0.652587 0.865883 0.338797
O O10 0.520460 0.462702 0.181145
O O11 0.703478 0.236432 0.372081
O O12 0.762599 0.413308 0.231859
O O13 0.423118 0.271582 0.946971
O O14 0.999966 0.591828 0.321110
O O15 0.127953 0.162937 0.578589
O O16 0.103435 0.432143 0.608125
#
# Coordination Sequence:
#
# PCOD9117739 Si02
#       8
#     2   2   2   2   2   2   2   2
#     4  10  25  44  69 102 138 184 230 292 365 420
#     4  11  24  43  70 101 137 185 229 296 364 423
#     4  11  23  44  66 104 135 173 241 291 342 438
#     4  11  27  47  72 105 146 194 240 301 372 432
#     4  10  23  45  66 100 139 173 237 291 346 439
#     4  11  24  47  68 106 145 182 244 300 356 442
#     4  12  28  47  74 104 147 199 241 306 369 438
#     4  12  26  47  69 108 151 186 252 299 358 450
#
# _framework density 22.510536999999999
#
# number of rings (size 3 to 8) (size 9 to 14) (size 15 to 20)
#    0.000    1.000    5.000    0.000    7.000    0.000 
#    4.500    0.000    0.000    0.000    0.000    0.000 
#    0.000    0.000    0.000    0.000    0.000    0.000 
#
# Total GULP energy -89145.054133 kJ/mol
# GULP energy per Si atom -5571.565883 kJ/mol
# Density = 2.245930 g / cm^3
# Si number density = 22.510537 Si / 1000 Ang^3
#
#
#
# Elastic Constant Matrix: (Units=GPa)
#
#
# Indices 1 2 3 4 5 6 
#
# 1 72.1922 9.6844 29.2552 0.0000 9.7612 0.0000
# 2 9.6844 65.8292 11.9035 0.0000 4.5102 0.0000
# 3 29.2552 11.9035 100.6381 0.0000 11.5864 0.0000
# 4 0.0000 0.0000 0.0000 3.5725 0.0000 -10.2868
# 5 9.7612 4.5102 11.5864 0.0000 17.0742 0.0000
# 6 0.0000 0.0000 0.0000 -10.2868 0.0000 17.8729
#
#
#
# Elastic Compliance Matrix: (Units=1/GPa)
#
#
# Indices 1 2 3 4 5 6 
#
# 1 0.016472 -0.001278 -0.003896 0.000000 -0.006436 0.000000
# 2 -0.001278 0.015774 -0.001192 0.000000 -0.002628 0.000000
# 3 -0.003896 -0.001192 0.011843 0.000000 -0.005494 0.000000
# 4 0.000000 0.000000 0.000000 -0.425869 0.000000 -0.245111
# 5 -0.006436 -0.002628 -0.005494 0.000000 0.066669 0.000000
# 6 0.000000 0.000000 0.000000 -0.245111 0.000000 -0.085125
#
#
# Mechanical properties :
#
#
# Convention : Reuss Voigt Hill
#
# Bulk Modulus (GPa) = 31.89044 37.81621 34.85332
# Shear Modulus (GPa) = -13.26084 20.22501 3.48209
#
# Velocity S-wave (km/s) = -2.42976 3.00070 1.24508
# Velocity P-wave (km/s) = 2.51515 5.37042 4.19329
#
# Compressibility (1/GPa) = 0.03135736
#
# Stress axis : x y z
#
# Youngs Moduli (GPa) = 60.70725 63.39403 84.43979
#
# Poissons Ratio (x) = 0.08101 0.32901
# Poissons Ratio (y) = 0.07757 0.10064
# Poissons Ratio (z) = 0.23654 0.07555
#
# Static dielectric constant tensor:
#      x y z
#    x 1.920670 0.000000 -0.024780 
#    y 0.000000 1.975710 0.000000 
#    z -0.024780 0.000000 1.878370 
# 
# From -- ./inp_files/10432.got.cif
#   From: 2010.05.17/outbox.cif.g08.bks.cpg/sg4_6_cif.got.tgz:10432.got - 2010.06.03 18:43:04.
