data_PCOD9117198
_publ_section_title
;
Structure prediction by ZEFSAII (Michael W. Deem and Ramdas Pophale) SiO2 
 PCOD9117198
Probable space group: P 21
;
_chemical_formula_sum "Si O2"
_cell_formula_units_Z 14
_cell_length_a 6.737199
_cell_length_b 12.470775
_cell_length_c 7.149061
_cell_angle_alpha 90.000000
_cell_angle_beta 62.299119
_cell_angle_gamma 90.000000
_cell_volume 531.807805
_symmetry_space_group_name_H-M "P 21"
_symmetry_group_IT_number 4
_symmetry_cell_setting 'monoclinic'
loop_
_space_group_symop_operation_xyz
x,y,z
-x,1/2+y,-z
loop_
_atom_site_type_symbol
_atom_site_label
_atom_site_fract_x
_atom_site_fract_y
_atom_site_fract_z
Si Si1 0.132131 0.700670 0.464896
Si Si2 0.238099 0.729835 0.029652
Si Si3 0.398662 0.950009 0.900437
Si Si4 0.176121 0.410008 0.015110
Si Si5 0.722314 0.426075 0.438101
Si Si6 0.256615 0.181108 0.067111
Si Si7 0.648827 0.070113 0.339276
O O1 0.245790 0.817996 0.455373
O O2 0.299802 0.610892 0.475163
O O3 0.907461 0.688745 0.683568
O O4 0.091363 0.686315 0.263613
O O5 0.223629 0.857161 0.031151
O O6 0.721606 0.564517 0.031939
O O7 0.250246 0.668164 0.828736
O O8 0.447674 0.914465 0.664639
O O9 0.491854 0.708488 0.986822
O O10 0.611087 0.941766 0.944742
O O11 0.961346 0.440611 0.233709
O O12 0.179971 0.282297 0.976671
O O13 0.213495 0.471884 0.806684
O O14 0.606776 0.529741 0.583238
#
# Coordination Sequence:
#
# PCOD9117198 Si02
#       7
#     2   2   2   2   2   2   2
#     4  11  25  46  72 102 144 186 241 294 355 430
#     4  11  24  45  68 102 145 183 233 303 347 424
#     4  11  21  46  77 101 147 189 234 297 364 420
#     4  10  24  44  70 107 144 182 243 295 349 430
#     4  11  24  44  72 104 141 193 237 289 362 428
#     4  10  22  44  71 103 138 185 236 294 349 424
#     4  12  24  45  72  99 143 186 232 298 362 412
#
# _framework density 26.325301
#
# number of rings (size 3 to 8) (size 9 to 14) (size 15 to 20)
#    0.000    1.143    2.857    3.429    0.000    1.143 
#    2.571    4.286    0.000    0.000    0.000    0.000 
#    0.000    0.000    0.000    0.000    0.000    0.000 
#
# Total GULP energy -78333.165673 kJ/mol
# GULP energy per Si atom -5595.226119 kJ/mol
# Density = 2.626538 g / cm^3
# Si number density = 26.325301 Si / 1000 Ang^3
#
#
#
# Elastic Constant Matrix: (Units=GPa)
#
#
# Indices 1 2 3 4 5 6 
#
# 1 53.1672 30.4196 26.0119 0.0000 1.5414 0.0000
# 2 30.4196 193.3963 37.3453 0.0000 -6.2234 0.0000
# 3 26.0119 37.3453 123.9461 0.0000 -4.8757 0.0000
# 4 0.0000 0.0000 0.0000 43.5693 0.0000 -8.3727
# 5 1.5414 -6.2234 -4.8757 0.0000 41.3031 0.0000
# 6 0.0000 0.0000 0.0000 -8.3727 0.0000 38.9339
#
#
#
# Elastic Compliance Matrix: (Units=1/GPa)
#
#
# Indices 1 2 3 4 5 6 
#
# 1 0.022389 -0.002821 -0.003916 0.000000 -0.001723 0.000000
# 2 -0.002821 0.005862 -0.001141 0.000000 0.000854 0.000000
# 3 -0.003916 -0.001141 0.009276 0.000000 0.001069 0.000000
# 4 0.000000 0.000000 0.000000 0.023941 0.000000 0.005149
# 5 -0.001723 0.000854 0.001069 0.000000 0.024530 0.000000
# 6 0.000000 0.000000 0.000000 0.005149 0.000000 0.026792
#
#
# Mechanical properties :
#
#
# Convention : Reuss Voigt Hill
#
# Bulk Modulus (GPa) = 45.93341 62.00702 53.97022
# Shear Modulus (GPa) = 36.81814 43.21009 40.01412
#
# Velocity S-wave (km/s) = 3.74382 4.05580 3.90293
# Velocity P-wave (km/s) = 6.01453 6.74819 6.39189
#
# Compressibility (1/GPa) = 0.02177065
#
# Stress axis : x y z
#
# Youngs Moduli (GPa) = 44.66575 170.58564 107.80838
#
# Poissons Ratio (x) = 0.48117 0.42223
# Poissons Ratio (y) = 0.12599 0.12298
# Poissons Ratio (z) = 0.17493 0.19459
#
# Static dielectric constant tensor:
#      x y z
#    x 2.155740 0.000000 0.051700 
#    y 0.000000 2.126480 0.000000 
#    z 0.051700 0.000000 2.082420 
# 
# From -- ./inp_files/6710.got.cif
#   From: 2010.05.17/outbox.cif.g08.bks.cpg/sg4_4_cif.got.tgz:6710.got - 2010.06.03 18:43:04.
