data_PCOD9117057
_publ_section_title
;
Structure prediction by ZEFSAII (Michael W. Deem and Ramdas Pophale) SiO2 
 PCOD9117057
Probable space group: P 21
;
_chemical_formula_sum "Si O2"
_cell_formula_units_Z 16
_cell_length_a 6.665824
_cell_length_b 8.632620
_cell_length_c 16.273471
_cell_angle_alpha 90.000000
_cell_angle_beta 48.804323
_cell_angle_gamma 90.000000
_cell_volume 704.632608
_symmetry_space_group_name_H-M "P 21"
_symmetry_group_IT_number 4
_symmetry_cell_setting 'monoclinic'
loop_
_space_group_symop_operation_xyz
x,y,z
-x,1/2+y,-z
loop_
_atom_site_type_symbol
_atom_site_label
_atom_site_fract_x
_atom_site_fract_y
_atom_site_fract_z
Si Si1 0.182330 0.146540 0.130959
Si Si2 0.758046 0.437685 0.730300
Si Si3 0.743897 0.334972 0.341171
Si Si4 0.135414 0.454480 0.912690
Si Si5 0.717771 0.943601 0.636957
Si Si6 0.130513 0.678930 0.537474
Si Si7 0.085883 0.603338 0.270794
Si Si8 0.203052 0.658091 0.048978
O O1 0.010779 0.271254 0.226718
O O2 0.207370 0.001598 0.186411
O O3 0.483218 0.200263 0.034871
O O4 0.019678 0.087523 0.096356
O O5 0.441010 0.432922 0.799605
O O6 0.910170 0.559160 0.631916
O O7 0.896903 0.270950 0.692514
O O8 0.522590 0.342703 0.331901
O O9 0.685193 0.226448 0.434873
O O10 0.813729 0.507254 0.353400
O O11 0.971747 0.298487 0.939797
O O12 0.154568 0.511911 0.001693
O O13 0.702146 0.999494 0.735076
O O14 0.736950 0.094250 0.574350
O O15 0.977599 0.836548 0.556469
O O16 0.132525 0.621819 0.161811
#
# Coordination Sequence:
#
# PCOD9117057 Si02
#       8
#     2   2   2   2   2   2   2   2
#     4  10  23  44  64  94 141 176 225 286 335 401
#     4  10  22  43  65  97 134 176 226 282 340 402
#     4  10  25  42  69 104 133 180 227 280 342 406
#     4  11  25  42  66  97 129 184 231 279 347 400
#     4  11  24  45  72 101 136 183 220 286 349 405
#     4  10  23  45  69 100 136 174 228 283 340 410
#     4  11  25  42  64 100 140 174 228 283 338 402
#     4  11  27  41  65  99 135 181 235 283 337 412
#
# _framework density 22.706868
#
# number of rings (size 3 to 8) (size 9 to 14) (size 15 to 20)
#    0.000    1.500    1.250    1.500    7.000    4.000 
#    0.000    1.250    0.000    0.000    0.000    0.000 
#    0.000    0.000    0.000    0.000    0.000    0.000 
#
# Total GULP energy -89459.696163 kJ/mol
# GULP energy per Si atom -5591.231010 kJ/mol
# Density = 2.265519 g / cm^3
# Si number density = 22.706868 Si / 1000 Ang^3
#
#
#
# Elastic Constant Matrix: (Units=GPa)
#
#
# Indices 1 2 3 4 5 6 
#
# 1 134.6271 40.6539 33.0621 0.0000 14.8695 0.0000
# 2 40.6539 93.0752 22.8706 0.0000 13.7208 0.0000
# 3 33.0621 22.8706 51.5350 0.0000 22.3433 0.0000
# 4 0.0000 0.0000 0.0000 24.2846 0.0000 1.7462
# 5 14.8695 13.7208 22.3433 0.0000 31.2206 0.0000
# 6 0.0000 0.0000 0.0000 1.7462 0.0000 42.6499
#
#
#
# Elastic Compliance Matrix: (Units=1/GPa)
#
#
# Indices 1 2 3 4 5 6 
#
# 1 0.009501 -0.002990 -0.004895 0.000000 0.000292 0.000000
# 2 -0.002990 0.013099 -0.002923 0.000000 -0.002240 0.000000
# 3 -0.004895 -0.002923 0.032294 0.000000 -0.019496 0.000000
# 4 0.000000 0.000000 0.000000 0.041300 0.000000 -0.001691
# 5 0.000292 -0.002240 -0.019496 0.000000 0.046828 0.000000
# 6 0.000000 0.000000 0.000000 -0.001691 0.000000 0.023516
#
#
# Mechanical properties :
#
#
# Convention : Reuss Voigt Hill
#
# Bulk Modulus (GPa) = 30.05087 52.49006 41.27046
# Shear Modulus (GPa) = 25.09456 31.80774 28.45115
#
# Velocity S-wave (km/s) = 3.32799 3.74678 3.54358
# Velocity P-wave (km/s) = 5.29437 6.47182 5.91248
#
# Compressibility (1/GPa) = 0.03327691
#
# Stress axis : x y z
#
# Youngs Moduli (GPa) = 105.25577 76.34386 30.96508
#
# Poissons Ratio (x) = 0.22827 0.15157
# Poissons Ratio (y) = 0.31472 0.09053
# Poissons Ratio (z) = 0.51521 0.22319
#
# Static dielectric constant tensor:
#      x y z
#    x 1.847240 0.000000 0.008840 
#    y 0.000000 1.862430 0.000000 
#    z 0.008840 0.000000 1.813030 
# 
# From -- ./inp_files/2593.got.cif
#   From: 2010.05.17/outbox.cif.g08.bks.cpg/sg4_2_cif.got.tgz:2593.got - 2010.06.03 18:43:04.
