data_PCOD9117819
_publ_section_title
;
Structure prediction by ZEFSAII (Michael W. Deem and Ramdas Pophale) SiO2 
 PCOD9117819
Probable space group: P 21
;
_chemical_formula_sum "Si O2"
_cell_formula_units_Z 16
_cell_length_a 28.609128
_cell_length_b 5.009115
_cell_length_c 9.424126
_cell_angle_alpha 90.000000
_cell_angle_beta 151.848663
_cell_angle_gamma 90.000000
_cell_volume 637.186486
_symmetry_space_group_name_H-M "P 21"
_symmetry_group_IT_number 4
_symmetry_cell_setting 'monoclinic'
loop_
_space_group_symop_operation_xyz
x,y,z
-x,1/2+y,-z
loop_
_atom_site_type_symbol
_atom_site_label
_atom_site_fract_x
_atom_site_fract_y
_atom_site_fract_z
Si Si1 0.392221 0.512870 0.814842
Si Si2 0.756554 0.770106 0.377526
Si Si3 0.775208 0.368861 0.085319
Si Si4 0.084429 0.665577 0.331069
Si Si5 0.488886 0.505540 0.783029
Si Si6 0.906932 0.391140 0.930719
Si Si7 0.346995 0.349414 0.178535
Si Si8 0.065155 0.646224 0.703117
O O1 0.422679 0.814952 0.928980
O O2 0.473259 0.308499 0.101141
O O3 0.291650 0.442333 0.624989
O O4 0.403140 0.473299 0.674475
O O5 0.810499 0.530601 0.606147
O O6 0.837012 0.938018 0.502825
O O7 0.669493 0.736399 0.025334
O O8 0.851010 0.393286 0.419731
O O9 0.843063 0.246412 0.145080
O O10 0.719047 0.642070 0.906791
O O11 0.697113 0.145638 0.923882
O O12 0.043359 0.746373 0.069771
O O13 0.994476 0.601978 0.194901
O O14 0.452431 0.390033 0.535362
O O15 0.898945 0.196885 0.040367
O O16 0.972571 0.849259 0.430086
#
# Coordination Sequence:
#
# PCOD9117819 Si02
#       8
#     2   2   2   2   2   2   2   2
#     4  10  24  44  69 100 131 166 226 265 341 403
#     4  11  26  41  66 103 129 177 227 274 324 410
#     4  11  24  44  63  99 135 175 228 273 325 399
#     4  11  24  43  66  94 139 183 224 275 336 384
#     4  10  23  46  70  95 134 174 204 285 342 396
#     4  12  25  42  67  94 138 185 225 280 333 387
#     4  11  24  43  70  97 135 172 218 276 337 396
#     4  12  28  43  65  96 133 184 234 280 328 391
#
# _framework density 25.110388
#
# number of rings (size 3 to 8) (size 9 to 14) (size 15 to 20)
#    0.000    1.000    3.750    1.500    8.750    2.000 
#    0.000    0.000    0.000    0.000    0.000    0.000 
#    0.000    0.000    0.000    0.000    0.000    0.000 
#
# Total GULP energy -89446.794628 kJ/mol
# GULP energy per Si atom -5590.424664 kJ/mol
# Density = 2.505324 g / cm^3
# Si number density = 25.110388 Si / 1000 Ang^3
#
#
#
# Elastic Constant Matrix: (Units=GPa)
#
#
# Indices 1 2 3 4 5 6 
#
# 1 82.6895 -9.1248 15.4800 0.0000 -0.7562 0.0000
# 2 -9.1248 72.4168 12.2214 0.0000 0.7318 0.0000
# 3 15.4800 12.2214 78.1416 0.0000 -14.7597 0.0000
# 4 0.0000 0.0000 0.0000 39.7769 0.0000 -0.7933
# 5 -0.7562 0.7318 -14.7597 0.0000 21.1250 0.0000
# 6 0.0000 0.0000 0.0000 -0.7933 0.0000 24.0612
#
#
#
# Elastic Compliance Matrix: (Units=1/GPa)
#
#
# Indices 1 2 3 4 5 6 
#
# 1 0.012930 0.002199 -0.003263 0.000000 -0.001893 0.000000
# 2 0.002199 0.014659 -0.003237 0.000000 -0.002690 0.000000
# 3 -0.003263 -0.003237 0.016070 0.000000 0.011223 0.000000
# 4 0.000000 0.000000 0.000000 0.025157 0.000000 0.000829
# 5 -0.001893 -0.002690 0.011223 0.000000 0.055204 0.000000
# 6 0.000000 0.000000 0.000000 0.000829 0.000000 0.041588
#
#
# Mechanical properties :
#
#
# Convention : Reuss Voigt Hill
#
# Bulk Modulus (GPa) = 28.52429 30.04457 29.28443
# Shear Modulus (GPa) = 26.89699 31.30403 29.10051
#
# Velocity S-wave (km/s) = 3.27639 3.53463 3.40796
# Velocity P-wave (km/s) = 5.06924 5.35249 5.21279
#
# Compressibility (1/GPa) = 0.03505784
#
# Stress axis : x y z
#
# Youngs Moduli (GPa) = 77.34187 68.21545 62.22892
#
# Poissons Ratio (x) = -0.15000 0.20305
# Poissons Ratio (y) = -0.17007 0.20141
# Poissons Ratio (z) = 0.25236 0.22078
#
# Static dielectric constant tensor:
#      x y z
#    x 1.984500 0.000000 -0.003370 
#    y 0.000000 2.019230 0.000000 
#    z -0.003370 0.000000 2.102790 
# 
# From -- ./inp_files/9036.got.cif
#   From: 2010.05.17/outbox.cif.g08.bks.cpg/sg4_5_cif.got.tgz:9036.got - 2010.06.03 18:43:04.
