data_PCOD9117309
_publ_section_title
;
Structure prediction by ZEFSAII (Michael W. Deem and Ramdas Pophale) SiO2 
 PCOD9117309
Probable space group: P 21
;
_chemical_formula_sum "Si O2"
_cell_formula_units_Z 16
_cell_length_a 17.040685
_cell_length_b 8.687738
_cell_length_c 13.801887
_cell_angle_alpha 90.000000
_cell_angle_beta 160.869174
_cell_angle_gamma 90.000000
_cell_volume 669.643192
_symmetry_space_group_name_H-M "P 21"
_symmetry_group_IT_number 4
_symmetry_cell_setting 'monoclinic'
loop_
_space_group_symop_operation_xyz
x,y,z
-x,1/2+y,-z
loop_
_atom_site_type_symbol
_atom_site_label
_atom_site_fract_x
_atom_site_fract_y
_atom_site_fract_z
Si Si1 0.008740 0.141730 0.090934
Si Si2 0.286390 0.591744 0.956393
Si Si3 0.532427 0.252406 0.012992
Si Si4 0.320600 0.410181 0.380224
Si Si5 0.192201 0.399666 0.018380
Si Si6 0.956789 0.120756 0.637752
Si Si7 0.184022 0.862038 0.983537
Si Si8 0.191409 0.059532 0.711168
O O1 0.229881 0.246870 0.317308
O O2 0.020017 0.015396 0.190640
O O3 0.836581 0.265498 0.941857
O O4 0.880616 0.045629 0.855474
O O5 0.462590 0.647495 0.077920
O O6 0.345620 0.472581 0.110245
O O7 0.054440 0.523637 0.631232
O O8 0.212444 0.743964 0.928874
O O9 0.621767 0.422381 0.091227
O O10 0.724017 0.184920 0.313317
O O11 0.283230 0.221441 0.774532
O O12 0.569402 0.455995 0.718592
O O13 0.346831 0.383500 0.295375
O O14 0.068017 0.248555 0.835867
O O15 0.135552 0.080271 0.758080
O O16 0.950205 0.964661 0.692139
#
# Coordination Sequence:
#
# PCOD9117309 Si02
#       8
#     2   2   2   2   2   2   2   2
#     4   9  24  42  65  93 134 169 216 277 319 392
#     4  10  22  46  63  92 137 169 219 267 327 393
#     4  11  25  42  67  97 132 176 214 277 332 392
#     4  10  24  44  65  99 131 173 218 270 334 385
#     4   9  22  42  66  94 127 181 208 269 330 384
#     4  11  24  43  64  96 135 168 224 273 322 403
#     4  11  24  42  70  94 126 178 217 272 332 391
#     4  11  25  41  66  99 130 174 220 271 336 390
#
# _framework density 23.893321
#
# number of rings (size 3 to 8) (size 9 to 14) (size 15 to 20)
#    0.750    1.000    2.500    0.000    7.000    3.000 
#    0.000    0.000    0.000    0.000    0.000    0.000 
#    0.000    0.000    0.000    0.000    0.000    0.000 
#
# Total GULP energy -89330.987946 kJ/mol
# GULP energy per Si atom -5583.186747 kJ/mol
# Density = 2.383894 g / cm^3
# Si number density = 23.893321 Si / 1000 Ang^3
#
#
#
# Elastic Constant Matrix: (Units=GPa)
#
#
# Indices 1 2 3 4 5 6 
#
# 1 75.3994 18.1837 21.6158 0.0000 -17.1280 0.0000
# 2 18.1837 72.0750 18.2043 0.0000 -2.4171 0.0000
# 3 21.6158 18.2043 51.4691 0.0000 -14.1568 0.0000
# 4 0.0000 0.0000 0.0000 26.0661 0.0000 2.7609
# 5 -17.1280 -2.4171 -14.1568 0.0000 20.9675 0.0000
# 6 0.0000 0.0000 0.0000 2.7609 0.0000 37.5906
#
#
#
# Elastic Compliance Matrix: (Units=1/GPa)
#
#
# Indices 1 2 3 4 5 6 
#
# 1 0.017636 -0.003307 -0.002922 0.000000 0.012052 0.000000
# 2 -0.003307 0.015947 -0.005513 0.000000 -0.004585 0.000000
# 3 -0.002922 -0.005513 0.026741 0.000000 0.015033 0.000000
# 4 0.000000 0.000000 0.000000 0.038665 0.000000 -0.002840
# 5 0.012052 -0.004585 0.015033 0.000000 0.067160 0.000000
# 6 0.000000 0.000000 0.000000 -0.002840 0.000000 0.026811
#
#
# Mechanical properties :
#
#
# Convention : Reuss Voigt Hill
#
# Bulk Modulus (GPa) = 27.14399 34.99459 31.06929
# Shear Modulus (GPa) = 21.86050 26.32081 24.09066
#
# Velocity S-wave (km/s) = 3.02805 3.32263 3.17875
# Velocity P-wave (km/s) = 4.85907 5.42198 5.14822
#
# Compressibility (1/GPa) = 0.03684056
#
# Stress axis : x y z
#
# Youngs Moduli (GPa) = 56.70291 62.70611 37.39594
#
# Poissons Ratio (x) = 0.20738 0.10926
# Poissons Ratio (y) = 0.18752 0.20616
# Poissons Ratio (z) = 0.16567 0.34569
#
# Static dielectric constant tensor:
#      x y z
#    x 1.897380 0.000000 0.025430 
#    y 0.000000 1.933400 0.000000 
#    z 0.025430 0.000000 1.902750 
# 
# From -- ./inp_files/14300.got.cif
#   From: 2010.05.17/outbox.cif.g08.bks.cpg/sg4_8_cif.got.tgz:14300.got - 2010.06.03 18:43:04.
