data_PCOD9117311
_publ_section_title
;
Structure prediction by ZEFSAII (Michael W. Deem and Ramdas Pophale) SiO2 
 PCOD9117311
Probable space group: P 21
;
_chemical_formula_sum "Si O2"
_cell_formula_units_Z 16
_cell_length_a 11.283768
_cell_length_b 13.201957
_cell_length_c 5.561905
_cell_angle_alpha 90.000000
_cell_angle_beta 118.517376
_cell_angle_gamma 90.000000
_cell_volume 728.019474
_symmetry_space_group_name_H-M "P 21"
_symmetry_group_IT_number 4
_symmetry_cell_setting 'monoclinic'
loop_
_space_group_symop_operation_xyz
x,y,z
-x,1/2+y,-z
loop_
_atom_site_type_symbol
_atom_site_label
_atom_site_fract_x
_atom_site_fract_y
_atom_site_fract_z
Si Si1 0.096996 0.953650 0.565255
Si Si2 0.266438 0.623218 0.726630
Si Si3 0.833908 0.862144 0.059921
Si Si4 0.129474 0.563213 0.104676
Si Si5 0.320953 0.834900 0.000624
Si Si6 0.144036 0.121178 0.975670
Si Si7 0.557593 0.953551 0.968441
Si Si8 0.335157 0.972306 0.407820
O O1 0.169744 0.879527 0.826342
O O2 0.212898 0.960336 0.476639
O O3 0.958812 0.902608 0.344606
O O4 0.090385 0.063413 0.684600
O O5 0.189874 0.619476 0.397325
O O6 0.319799 0.730229 0.863834
O O7 0.189808 0.589137 0.900658
O O8 0.386150 0.543524 0.816737
O O9 0.844884 0.742110 0.029105
O O10 0.686191 0.885342 0.025025
O O11 0.849129 0.941338 0.850555
O O12 0.973342 0.593249 0.949742
O O13 0.440033 0.896279 0.989957
O O14 0.350382 0.860517 0.305469
O O15 0.280928 0.061505 0.180118
O O16 0.478707 0.998624 0.662116
#
# Coordination Sequence:
#
# PCOD9117311 Si02
#       8
#     2   2   2   2   2   2   2   2
#     4  10  22  46  66 106 142 185 248 305 353 445
#     4  11  26  45  73 102 149 194 243 306 371 433
#     4  11  24  45  72 106 147 189 248 309 374 430
#     4  11  25  46  69 112 145 185 249 308 356 446
#     4  10  24  42  76  94 143 202 243 295 378 439
#     4  11  23  42  75 102 148 196 241 308 380 429
#     4  10  25  44  64 104 147 182 247 307 355 448
#     4  10  23  44  65 102 141 187 247 296 361 446
#
# _framework density 21.977433999999999
#
# number of rings (size 3 to 8) (size 9 to 14) (size 15 to 20)
#    0.000    1.500    1.250    2.250    8.750    4.000 
#    6.750    0.000    0.000    0.000    0.000    0.000 
#    0.000    0.000    0.000    0.000    0.000    0.000 
#
# Total GULP energy -89186.102335 kJ/mol
# GULP energy per Si atom -5574.131396 kJ/mol
# Density = 2.192741 g / cm^3
# Si number density = 21.977434 Si / 1000 Ang^3
#
#
#
# Elastic Constant Matrix: (Units=GPa)
#
#
# Indices 1 2 3 4 5 6 
#
# 1 102.4320 26.3116 28.5013 0.0000 15.8261 0.0000
# 2 26.3116 71.3584 -29.5643 0.0000 -0.9379 0.0000
# 3 28.5013 -29.5643 37.9621 0.0000 13.0497 0.0000
# 4 0.0000 0.0000 0.0000 19.3351 0.0000 3.0706
# 5 15.8261 -0.9379 13.0497 0.0000 40.4420 0.0000
# 6 0.0000 0.0000 0.0000 3.0706 0.0000 19.7959
#
#
#
# Elastic Compliance Matrix: (Units=1/GPa)
#
#
# Indices 1 2 3 4 5 6 
#
# 1 0.031205 -0.031879 -0.049268 0.000000 0.002947 0.000000
# 2 -0.031879 0.054323 0.069194 0.000000 -0.008592 0.000000
# 3 -0.049268 0.069194 0.123768 0.000000 -0.019053 0.000000
# 4 0.000000 0.000000 0.000000 0.053026 0.000000 -0.008225
# 5 0.002947 -0.008592 -0.019053 0.000000 0.029522 0.000000
# 6 0.000000 0.000000 0.000000 -0.008225 0.000000 0.051791
#
#
# Mechanical properties :
#
#
# Convention : Reuss Voigt Hill
#
# Bulk Modulus (GPa) = 5.39407 29.13885 17.26646
# Shear Modulus (GPa) = 11.64585 28.34820 19.99703
#
# Velocity S-wave (km/s) = 2.30445 3.59538 3.01971
# Velocity P-wave (km/s) = 3.08875 5.52476 4.47568
#
# Compressibility (1/GPa) = 0.18538872
#
# Stress axis : x y z
#
# Youngs Moduli (GPa) = 32.04656 18.40844 8.07964
#
# Poissons Ratio (x) = 0.58685 0.39807
# Poissons Ratio (y) = 1.02162 -0.55906
# Poissons Ratio (z) = 1.57887 -1.27375
#
# Static dielectric constant tensor:
#      x y z
#    x 1.797470 0.000000 -0.047560 
#    y 0.000000 1.857170 0.000000 
#    z -0.047560 0.000000 1.937400 
# 
# From -- ./inp_files/3116.got.cif
#   From: 2010.05.17/outbox.cif.g08.bks.cpg/sg4_2_cif.got.tgz:3116.got - 2010.06.03 18:43:04.
