data_PCOD9117037
_publ_section_title
;
Structure prediction by ZEFSAII (Michael W. Deem and Ramdas Pophale) SiO2 
 PCOD9117037
Probable space group: P 21
;
_chemical_formula_sum "Si O2"
_cell_formula_units_Z 14
_cell_length_a 9.470743
_cell_length_b 8.182461
_cell_length_c 13.784329
_cell_angle_alpha 90.000000
_cell_angle_beta 36.622402
_cell_angle_gamma 90.000000
_cell_volume 637.224207
_symmetry_space_group_name_H-M "P 21"
_symmetry_group_IT_number 4
_symmetry_cell_setting 'monoclinic'
loop_
_space_group_symop_operation_xyz
x,y,z
-x,1/2+y,-z
loop_
_atom_site_type_symbol
_atom_site_label
_atom_site_fract_x
_atom_site_fract_y
_atom_site_fract_z
Si Si1 0.650011 0.804530 0.171753
Si Si2 0.441218 0.100509 0.960397
Si Si3 0.117294 0.972639 0.870631
Si Si4 0.809223 0.637441 0.707319
Si Si5 0.852534 0.443352 0.504448
Si Si6 0.325003 0.776675 0.912726
Si Si7 0.955507 0.098726 0.774543
O O1 0.589350 0.755920 0.093030
O O2 0.754789 0.638949 0.163486
O O3 0.408136 0.865479 0.352634
O O4 0.851581 0.944265 0.059389
O O5 0.694456 0.088211 0.872221
O O6 0.416081 0.945317 0.907199
O O7 0.245827 0.092684 0.152056
O O8 0.080128 0.965387 0.775793
O O9 0.253505 0.820221 0.843246
O O10 0.921105 0.504567 0.574479
O O11 0.550283 0.661563 0.801215
O O12 0.963261 0.800662 0.622891
O O13 0.884331 0.592230 0.410275
O O14 0.107597 0.727345 0.104023
#
# Coordination Sequence:
#
# PCOD9117037 Si02
#       7
#     2   2   2   2   2   2   2
#     4  11  24  44  71 102 135 183 234 287 346 406
#     4  10  22  42  77  98 131 183 244 271 331 429
#     4  11  23  45  70  97 137 185 242 269 342 434
#     4  11  25  41  70 104 141 176 232 289 356 398
#     4  12  26  42  67 109 145 175 218 310 351 402
#     4  10  22  43  71 102 125 194 229 285 328 434
#     4  11  22  43  68 100 142 172 229 281 350 407
#
# _framework density 21.970288
#
# number of rings (size 3 to 8) (size 9 to 14) (size 15 to 20)
#    0.000    1.143    2.857    3.429   10.000    0.000 
#    2.571    2.857    0.000    0.000    0.000    0.000 
#    0.000    0.000    0.000    0.000    0.000    0.000 
#
# Total GULP energy -78045.675485 kJ/mol
# GULP energy per Si atom -5574.691106 kJ/mol
# Density = 2.192028 g / cm^3
# Si number density = 21.970288 Si / 1000 Ang^3
#
#
#
# Elastic Constant Matrix: (Units=GPa)
#
#
# Indices 1 2 3 4 5 6 
#
# 1 109.8420 13.4706 18.7179 0.0000 11.9415 0.0000
# 2 13.4706 52.3585 9.3185 0.0000 -0.1645 0.0000
# 3 18.7179 9.3185 80.8413 0.0000 6.7079 0.0000
# 4 0.0000 0.0000 0.0000 42.1031 0.0000 -0.3500
# 5 11.9415 -0.1645 6.7079 0.0000 24.9915 0.0000
# 6 0.0000 0.0000 0.0000 -0.3500 0.0000 37.5172
#
#
#
# Elastic Compliance Matrix: (Units=1/GPa)
#
#
# Indices 1 2 3 4 5 6 
#
# 1 0.010161 -0.002322 -0.001719 0.000000 -0.004409 0.000000
# 2 -0.002322 0.020043 -0.001918 0.000000 0.001756 0.000000
# 3 -0.001719 -0.001918 0.013216 0.000000 -0.002739 0.000000
# 4 0.000000 0.000000 0.000000 0.023753 0.000000 0.000222
# 5 -0.004409 0.001756 -0.002739 0.000000 0.042867 0.000000
# 6 0.000000 0.000000 0.000000 0.000222 0.000000 0.026657
#
#
# Mechanical properties :
#
#
# Convention : Reuss Voigt Hill
#
# Bulk Modulus (GPa) = 31.74460 36.22842 33.98651
# Shear Modulus (GPa) = 31.42335 34.35800 32.89068
#
# Velocity S-wave (km/s) = 3.78599 3.95883 3.87337
# Velocity P-wave (km/s) = 5.79585 6.11735 5.95877
#
# Compressibility (1/GPa) = 0.03150142
#
# Stress axis : x y z
#
# Youngs Moduli (GPa) = 98.41505 49.89155 75.66386
#
# Poissons Ratio (x) = 0.11585 0.13008
# Poissons Ratio (y) = 0.22853 0.14516
# Poissons Ratio (z) = 0.16919 0.09572
#
# Static dielectric constant tensor:
#      x y z
#    x 1.858390 0.000000 0.002980 
#    y 0.000000 1.917420 0.000000 
#    z 0.002980 0.000000 1.798840 
# 
# From -- ./inp_files/5720.got.cif
#   From: 2010.05.17/outbox.cif.g08.bks.cpg/sg4_3_cif.got.tgz:5720.got - 2010.06.03 18:43:04.
