data_PCOD9117918
_publ_section_title
;
Structure prediction by ZEFSAII (Michael W. Deem and Ramdas Pophale) SiO2 
 PCOD9117918
Probable space group: P 21
;
_chemical_formula_sum "Si O2"
_cell_formula_units_Z 14
_cell_length_a 13.691584
_cell_length_b 8.956901
_cell_length_c 14.906940
_cell_angle_alpha 90.000000
_cell_angle_beta 19.819683
_cell_angle_gamma 90.000000
_cell_volume 619.837675
_symmetry_space_group_name_H-M "P 21"
_symmetry_group_IT_number 4
_symmetry_cell_setting 'monoclinic'
loop_
_space_group_symop_operation_xyz
x,y,z
-x,1/2+y,-z
loop_
_atom_site_type_symbol
_atom_site_label
_atom_site_fract_x
_atom_site_fract_y
_atom_site_fract_z
Si Si1 0.347982 0.805860 0.153717
Si Si2 0.349177 0.771097 0.944175
Si Si3 0.038179 0.319006 0.007657
Si Si4 0.095450 0.138096 0.333276
Si Si5 0.990828 0.628233 0.121849
Si Si6 0.454739 0.639201 0.483495
Si Si7 0.796971 0.952618 0.446413
O O1 0.092905 0.718620 0.426162
O O2 0.253091 0.981700 0.229584
O O3 0.391356 0.753058 0.013074
O O4 0.662782 0.751031 0.916626
O O5 0.627472 0.823452 0.647772
O O6 0.173034 0.633347 0.053806
O O7 0.113397 0.901939 0.144098
O O8 0.085453 0.490846 0.979630
O O9 0.805311 0.248797 0.273608
O O10 0.939788 0.279065 0.992206
O O11 0.326184 0.226204 0.769788
O O12 0.862780 0.085493 0.459319
O O13 0.644126 0.616273 0.410788
O O14 0.363720 0.495728 0.506331
#
# Coordination Sequence:
#
# PCOD9117918 Si02
#       7
#     2   2   2   2   2   2   2
#     4  11  23  45  69 105 128 180 216 284 333 411
#     4  11  24  40  72  94 133 170 225 256 337 389
#     4  10  24  38  61  89 131 167 214 265 316 378
#     4  11  23  45  72  96 139 167 229 273 343 392
#     4  10  25  40  65  90 134 168 213 269 319 378
#     4  10  24  38  64  90 129 161 225 248 318 375
#     4  11  23  44  69  96 126 183 216 261 322 415
#
# _framework density 22.586558
#
# number of rings (size 3 to 8) (size 9 to 14) (size 15 to 20)
#    0.857    0.571    0.000    6.000    8.000    0.000 
#    7.714    0.000    0.000    0.000    0.000    0.000 
#    0.000    0.000    0.000    0.000    0.000    0.000 
#
# Total GULP energy -78017.728303 kJ/mol
# GULP energy per Si atom -5572.694879 kJ/mol
# Density = 2.253515 g / cm^3
# Si number density = 22.586558 Si / 1000 Ang^3
#
#
#
# Elastic Constant Matrix: (Units=GPa)
#
#
# Indices 1 2 3 4 5 6 
#
# 1 38.0701 2.4739 17.7262 0.0000 0.7109 0.0000
# 2 2.4739 53.0020 22.7772 0.0000 7.9188 0.0000
# 3 17.7262 22.7772 154.7111 0.0000 17.3141 0.0000
# 4 0.0000 0.0000 0.0000 41.8265 0.0000 -3.4889
# 5 0.7109 7.9188 17.3141 0.0000 40.4886 0.0000
# 6 0.0000 0.0000 0.0000 -3.4889 0.0000 37.8872
#
#
#
# Elastic Compliance Matrix: (Units=1/GPa)
#
#
# Indices 1 2 3 4 5 6 
#
# 1 0.027780 -0.000024 -0.003282 0.000000 0.000921 0.000000
# 2 -0.000024 0.020450 -0.002689 0.000000 -0.002849 0.000000
# 3 -0.003282 -0.002689 0.007531 0.000000 -0.002637 0.000000
# 4 0.000000 0.000000 0.000000 0.024093 0.000000 0.002219
# 5 0.000921 -0.002849 -0.002637 0.000000 0.026367 0.000000
# 6 0.000000 0.000000 0.000000 0.002219 0.000000 0.026598
#
#
# Mechanical properties :
#
#
# Convention : Reuss Voigt Hill
#
# Bulk Modulus (GPa) = 22.84662 36.85975 29.85318
# Shear Modulus (GPa) = 31.36771 37.56086 34.46428
#
# Velocity S-wave (km/s) = 3.73067 4.08238 3.91048
# Velocity P-wave (km/s) = 5.35671 6.21095 5.79958
#
# Compressibility (1/GPa) = 0.04377016
#
# Stress axis : x y z
#
# Youngs Moduli (GPa) = 35.99701 48.90068 132.78893
#
# Poissons Ratio (x) = 0.00115 0.43588
# Poissons Ratio (y) = 0.00085 0.35709
# Poissons Ratio (z) = 0.11816 0.13150
#
# Static dielectric constant tensor:
#      x y z
#    x 2.009400 0.000000 -0.030190 
#    y 0.000000 1.846990 0.000000 
#    z -0.030190 0.000000 1.856150 
# 
# From -- ./inp_files/14169.got.cif
#   From: 2010.05.17/outbox.cif.g08.bks.cpg/sg4_8_cif.got.tgz:14169.got - 2010.06.03 18:43:04.
