data_PCOD9117846
_publ_section_title
;
Structure prediction by ZEFSAII (Michael W. Deem and Ramdas Pophale) SiO2 
 PCOD9117846
Probable space group: P 21
;
_chemical_formula_sum "Si O2"
_cell_formula_units_Z 16
_cell_length_a 13.062155
_cell_length_b 8.459430
_cell_length_c 15.589410
_cell_angle_alpha 90.000000
_cell_angle_beta 24.676437
_cell_angle_gamma 90.000000
_cell_volume 719.176091
_symmetry_space_group_name_H-M "P 21"
_symmetry_group_IT_number 4
_symmetry_cell_setting 'monoclinic'
loop_
_space_group_symop_operation_xyz
x,y,z
-x,1/2+y,-z
loop_
_atom_site_type_symbol
_atom_site_label
_atom_site_fract_x
_atom_site_fract_y
_atom_site_fract_z
Si Si1 0.470682 0.693240 0.554670
Si Si2 0.457165 0.580756 0.905080
Si Si3 0.966434 0.664580 0.932653
Si Si4 0.640463 0.891647 0.852686
Si Si5 0.946162 0.487979 0.228724
Si Si6 0.485705 0.092694 0.813849
Si Si7 0.508072 0.527200 0.369888
Si Si8 0.196228 0.897522 0.469654
O O1 0.721452 0.600623 0.374655
O O2 0.387137 0.664561 0.519010
O O3 0.501258 0.867561 0.568327
O O4 0.224320 0.615568 0.779708
O O5 0.498851 0.740559 0.925225
O O6 0.680195 0.547823 0.670559
O O7 0.437912 0.443922 0.992356
O O8 0.200976 0.579299 0.049583
O O9 0.812317 0.596215 0.967503
O O10 0.769361 0.608369 0.152160
O O11 0.000944 0.847926 0.879892
O O12 0.931745 0.859971 0.630439
O O13 0.576722 0.030103 0.834234
O O14 0.863626 0.424589 0.385294
O O15 0.579595 0.991123 0.659964
O O16 0.603162 0.261609 0.700820
#
# Coordination Sequence:
#
# PCOD9117846 Si02
#       8
#     2   2   2   2   2   2   2   2
#     4  12  24  47  71 110 141 193 251 304 359 449
#     4  11  24  45  68 103 142 188 234 302 362 425
#     4  10  24  46  70 100 147 195 233 306 368 429
#     4  11  25  43  69 104 140 186 238 298 357 444
#     4  11  25  44  74 102 147 187 244 295 368 434
#     4  10  23  47  68 101 142 188 237 292 366 429
#     4  10  26  44  73 103 147 192 247 305 371 427
#     4  11  23  44  75  99 138 189 236 294 365 431
#
# _framework density 22.247679000000002
#
# number of rings (size 3 to 8) (size 9 to 14) (size 15 to 20)
#    0.750    0.500    2.500    2.250    3.500    5.000 
#    4.500    0.000    0.000    0.000    0.000    0.000 
#    0.000    0.000    0.000    0.000    0.000    0.000 
#
# Total GULP energy -89120.682233 kJ/mol
# GULP energy per Si atom -5570.042640 kJ/mol
# Density = 2.219704 g / cm^3
# Si number density = 22.247679 Si / 1000 Ang^3
#
#
#
# Elastic Constant Matrix: (Units=GPa)
#
#
# Indices 1 2 3 4 5 6 
#
# 1 88.4428 23.0738 23.1791 0.0000 -13.7583 0.0000
# 2 23.0738 58.6226 37.5621 0.0000 0.4191 0.0000
# 3 23.1791 37.5621 55.0621 0.0000 -12.7706 0.0000
# 4 0.0000 0.0000 0.0000 32.7013 0.0000 -2.8198
# 5 -13.7583 0.4191 -12.7706 0.0000 42.5947 0.0000
# 6 0.0000 0.0000 0.0000 -2.8198 0.0000 32.7614
#
#
#
# Elastic Compliance Matrix: (Units=1/GPa)
#
#
# Indices 1 2 3 4 5 6 
#
# 1 0.013481 -0.004011 -0.002063 0.000000 0.003775 0.000000
# 2 -0.004011 0.033561 -0.023196 0.000000 -0.008581 0.000000
# 3 -0.002063 -0.023196 0.037349 0.000000 0.010760 0.000000
# 4 0.000000 0.000000 0.000000 0.030808 0.000000 0.002652
# 5 0.003775 -0.008581 0.010760 0.000000 0.028007 0.000000
# 6 0.000000 0.000000 0.000000 0.002652 0.000000 0.030752
#
#
# Mechanical properties :
#
#
# Convention : Reuss Voigt Hill
#
# Bulk Modulus (GPa) = 38.68376 41.08417 39.88396
# Shear Modulus (GPa) = 20.73679 29.49899 25.11789
#
# Velocity S-wave (km/s) = 3.05632 3.64529 3.36372
# Velocity P-wave (km/s) = 5.46629 6.01867 5.74912
#
# Compressibility (1/GPa) = 0.02585064
#
# Stress axis : x y z
#
# Youngs Moduli (GPa) = 74.17709 29.79620 26.77430
#
# Poissons Ratio (x) = 0.11952 0.05524
# Poissons Ratio (y) = 0.29755 0.62106
# Poissons Ratio (z) = 0.15303 0.69116
#
# Static dielectric constant tensor:
#      x y z
#    x 1.881860 0.000000 -0.002420 
#    y 0.000000 1.842950 0.000000 
#    z -0.002420 0.000000 1.859210 
# 
# From -- ./inp_files/15238.got.cif
#   From: 2010.05.17/outbox.cif.g08.bks.cpg/sg4_8_cif.got.tgz:15238.got - 2010.06.03 18:43:04.
