data_PCOD9117676
_publ_section_title
;
Structure prediction by ZEFSAII (Michael W. Deem and Ramdas Pophale) SiO2 
 PCOD9117676
Probable space group: P 21
;
_chemical_formula_sum "Si O2"
_cell_formula_units_Z 16
_cell_length_a 6.799303
_cell_length_b 10.804552
_cell_length_c 10.872806
_cell_angle_alpha 90.000000
_cell_angle_beta 122.155836
_cell_angle_gamma 90.000000
_cell_volume 676.227674
_symmetry_space_group_name_H-M "P 21"
_symmetry_group_IT_number 4
_symmetry_cell_setting 'monoclinic'
loop_
_space_group_symop_operation_xyz
x,y,z
-x,1/2+y,-z
loop_
_atom_site_type_symbol
_atom_site_label
_atom_site_fract_x
_atom_site_fract_y
_atom_site_fract_z
Si Si1 0.637674 0.787810 0.325164
Si Si2 0.227000 0.786250 0.006453
Si Si3 0.629103 0.688975 0.592899
Si Si4 0.902900 0.605194 0.263474
Si Si5 0.930935 0.066688 0.198088
Si Si6 0.198402 0.432517 0.204935
Si Si7 0.520961 0.946570 0.937846
Si Si8 0.794055 0.063442 0.423803
O O1 0.633855 0.708347 0.448607
O O2 0.835535 0.738739 0.295733
O O3 0.680069 0.929745 0.371041
O O4 0.391008 0.777313 0.176545
O O5 0.112915 0.658838 0.929886
O O6 0.383161 0.829232 0.942564
O O7 0.022499 0.885424 0.947808
O O8 0.734944 0.817663 0.683271
O O9 0.376051 0.657865 0.562264
O O10 0.792875 0.573589 0.690072
O O11 0.668518 0.556780 0.119716
O O12 0.110455 0.556058 0.244699
O O13 0.978834 0.540319 0.416872
O O14 0.847132 0.111570 0.304930
O O15 0.748127 0.961701 0.098475
O O16 0.404963 0.445734 0.178399
#
# Coordination Sequence:
#
# PCOD9117676 Si02
#       8
#     2   2   2   2   2   2   2   2
#     4  12  24  46  68 107 140 183 241 293 355 431
#     4  10  23  44  66 100 141 178 234 291 351 431
#     4  11  26  45  68  99 143 185 234 297 349 427
#     4  11  25  44  71 100 143 182 234 297 349 427
#     4  11  23  44  67  97 137 182 229 290 357 418
#     4  10  24  46  68 103 136 186 234 292 359 420
#     4  11  23  43  73  99 135 184 232 293 358 421
#     4  12  26  46  69 101 145 184 236 291 360 423
#
# _framework density 23.660668999999999
#
# number of rings (size 3 to 8) (size 9 to 14) (size 15 to 20)
#    0.000    1.000    5.000    0.750    3.500    1.000 
#    9.000    0.000    0.000    0.000    0.000    0.000 
#    0.000    0.000    0.000    0.000    0.000    0.000 
#
# Total GULP energy -89292.567216 kJ/mol
# GULP energy per Si atom -5580.785451 kJ/mol
# Density = 2.360682 g / cm^3
# Si number density = 23.660669 Si / 1000 Ang^3
#
#
#
# Elastic Constant Matrix: (Units=GPa)
#
#
# Indices 1 2 3 4 5 6 
#
# 1 92.2294 19.3700 8.5730 0.0000 -3.3139 0.0000
# 2 19.3700 55.6653 14.7503 0.0000 0.8045 0.0000
# 3 8.5730 14.7503 115.8759 0.0000 -1.0164 0.0000
# 4 0.0000 0.0000 0.0000 22.7883 0.0000 -6.9952
# 5 -3.3139 0.8045 -1.0164 0.0000 22.9492 0.0000
# 6 0.0000 0.0000 0.0000 -6.9952 0.0000 23.9952
#
#
#
# Elastic Compliance Matrix: (Units=1/GPa)
#
#
# Indices 1 2 3 4 5 6 
#
# 1 0.011788 -0.004038 -0.000342 0.000000 0.001829 0.000000
# 2 -0.004038 0.019988 -0.002258 0.000000 -0.001384 0.000000
# 3 -0.000342 -0.002258 0.008946 0.000000 0.000426 0.000000
# 4 0.000000 0.000000 0.000000 0.048195 0.000000 0.014050
# 5 0.001829 -0.001384 0.000426 0.000000 0.043906 0.000000
# 6 0.000000 0.000000 0.000000 0.014050 0.000000 0.045771
#
#
# Mechanical properties :
#
#
# Convention : Reuss Voigt Hill
#
# Bulk Modulus (GPa) = 36.43372 38.79524 37.61448
# Shear Modulus (GPa) = 24.87334 28.68501 26.77917
#
# Velocity S-wave (km/s) = 3.24582 3.48566 3.36787
# Velocity P-wave (km/s) = 5.42946 5.71243 5.57274
#
# Compressibility (1/GPa) = 0.02744710
#
# Stress axis : x y z
#
# Youngs Moduli (GPa) = 84.83185 50.03054 111.77724
#
# Poissons Ratio (x) = 0.20201 0.03824
# Poissons Ratio (y) = 0.34252 0.25236
# Poissons Ratio (z) = 0.02902 0.11296
#
# Static dielectric constant tensor:
#      x y z
#    x 1.915330 0.000000 0.017050 
#    y 0.000000 1.936660 0.000000 
#    z 0.017050 0.000000 1.886500 
# 
# From -- ./inp_files/1345.got.cif
#   From: 2010.05.17/outbox.cif.g08.bks.cpg/sg4_1_cif.got.tgz:1345.got - 2010.06.03 18:43:04.
