data_PCOD9117264
_publ_section_title
;
Structure prediction by ZEFSAII (Michael W. Deem and Ramdas Pophale) SiO2 
 PCOD9117264
Probable space group: P 21
;
_chemical_formula_sum "Si O2"
_cell_formula_units_Z 14
_cell_length_a 5.199771
_cell_length_b 14.669868
_cell_length_c 9.508246
_cell_angle_alpha 90.000000
_cell_angle_beta 71.303377
_cell_angle_gamma 90.000000
_cell_volume 687.014492
_symmetry_space_group_name_H-M "P 21"
_symmetry_group_IT_number 4
_symmetry_cell_setting 'monoclinic'
loop_
_space_group_symop_operation_xyz
x,y,z
-x,1/2+y,-z
loop_
_atom_site_type_symbol
_atom_site_label
_atom_site_fract_x
_atom_site_fract_y
_atom_site_fract_z
Si Si1 0.186071 0.170680 0.252420
Si Si2 0.394464 0.786814 0.156096
Si Si3 0.982793 0.259777 0.033578
Si Si4 0.604574 0.988994 0.502617
Si Si5 0.768306 0.473687 0.695129
Si Si6 0.449513 0.826501 0.706643
Si Si7 0.687982 0.195649 0.528533
O O1 0.011582 0.177079 0.140249
O O2 0.369565 0.260361 0.228270
O O3 0.994969 0.178651 0.422488
O O4 0.325681 0.072998 0.234820
O O5 0.304098 0.891570 0.189648
O O6 0.335236 0.737269 0.313918
O O7 0.714969 0.782300 0.069929
O O8 0.208903 0.743835 0.066405
O O9 0.832451 0.334454 0.159097
O O10 0.386546 0.958511 0.424554
O O11 0.572926 0.922607 0.641347
O O12 0.908090 0.977371 0.387634
O O13 0.556025 0.095490 0.543473
O O14 0.419891 0.766880 0.568944
#
# Coordination Sequence:
#
# PCOD9117264 Si02
#       7
#     2   2   2   2   2   2   2
#     4  10  22  45  68  94 127 177 215 258 327 391
#     4  12  24  44  64  99 130 172 212 270 318 376
#     4  11  26  43  63  91 138 176 210 252 334 385
#     4  11  23  39  67 104 120 163 223 273 317 371
#     4  11  23  40  69  97 126 166 221 265 317 386
#     4  11  21  44  68  91 131 175 209 265 320 389
#     4  10  23  39  71  96 126 163 220 277 313 370
#
# _framework density 20.378025999999998
#
# number of rings (size 3 to 8) (size 9 to 14) (size 15 to 20)
#    0.000    1.143    4.286    1.714    4.000    0.000 
#    2.571    1.429    0.000    0.000    0.000    0.000 
#    0.000    0.000    0.000    0.000    0.000    0.000 
#
# Total GULP energy -78149.600975 kJ/mol
# GULP energy per Si atom -5582.114355 kJ/mol
# Density = 2.033164 g / cm^3
# Si number density = 20.378026 Si / 1000 Ang^3
#
#
#
# Elastic Constant Matrix: (Units=GPa)
#
#
# Indices 1 2 3 4 5 6 
#
# 1 81.9565 15.3549 41.2115 0.0000 10.9102 0.0000
# 2 15.3549 70.2105 30.7099 0.0000 -7.6285 0.0000
# 3 41.2115 30.7099 124.7449 0.0000 3.1004 0.0000
# 4 0.0000 0.0000 0.0000 4.5814 0.0000 -2.9797
# 5 10.9102 -7.6285 3.1004 0.0000 37.0119 0.0000
# 6 0.0000 0.0000 0.0000 -2.9797 0.0000 21.4921
#
#
#
# Elastic Compliance Matrix: (Units=1/GPa)
#
#
# Indices 1 2 3 4 5 6 
#
# 1 0.015437 -0.001895 -0.004520 0.000000 -0.004562 0.000000
# 2 -0.001895 0.016695 -0.003591 0.000000 0.004300 0.000000
# 3 -0.004520 -0.003591 0.010401 0.000000 -0.000279 0.000000
# 4 0.000000 0.000000 0.000000 0.239909 0.000000 0.033262
# 5 -0.004562 0.004300 -0.000279 0.000000 0.029273 0.000000
# 6 0.000000 0.000000 0.000000 0.033262 0.000000 0.051140
#
#
# Mechanical properties :
#
#
# Convention : Reuss Voigt Hill
#
# Bulk Modulus (GPa) = 44.40248 50.16272 47.28260
# Shear Modulus (GPa) = 12.80826 25.25945 19.03385
#
# Velocity S-wave (km/s) = 2.50978 3.52453 3.05952
# Velocity P-wave (km/s) = 5.49867 6.42127 5.97779
#
# Compressibility (1/GPa) = 0.02252126
#
# Stress axis : x y z
#
# Youngs Moduli (GPa) = 64.78045 59.89757 96.14857
#
# Poissons Ratio (x) = 0.11349 0.43459
# Poissons Ratio (y) = 0.12274 0.34527
# Poissons Ratio (z) = 0.29281 0.21509
#
# Static dielectric constant tensor:
#      x y z
#    x 1.776760 0.000000 -0.000020 
#    y 0.000000 1.723930 0.000000 
#    z -0.000020 0.000000 1.706400 
# 
# From -- ./inp_files/1495.got.cif
#   From: 2010.05.17/outbox.cif.g08.bks.cpg/sg4_1_cif.got.tgz:1495.got - 2010.06.03 18:43:04.
