data_PCOD9117013
_publ_section_title
;
Structure prediction by ZEFSAII (Michael W. Deem and Ramdas Pophale) SiO2 
 PCOD9117013
Probable space group: P 21
;
_chemical_formula_sum "Si O2"
_cell_formula_units_Z 14
_cell_length_a 5.003100
_cell_length_b 18.631954
_cell_length_c 5.330117
_cell_angle_alpha 90.000000
_cell_angle_beta 92.379307
_cell_angle_gamma 90.000000
_cell_volume 496.431987
_symmetry_space_group_name_H-M "P 21"
_symmetry_group_IT_number 4
_symmetry_cell_setting 'monoclinic'
loop_
_space_group_symop_operation_xyz
x,y,z
-x,1/2+y,-z
loop_
_atom_site_type_symbol
_atom_site_label
_atom_site_fract_x
_atom_site_fract_y
_atom_site_fract_z
Si Si1 0.108239 0.485960 0.665203
Si Si2 0.858444 0.349430 0.722650
Si Si3 0.431167 0.395530 0.281499
Si Si4 0.167053 0.249881 0.376066
Si Si5 0.379180 0.015658 0.068479
Si Si6 0.787137 0.645833 0.222653
Si Si7 0.289162 0.713333 0.009089
O O1 0.222813 0.451215 0.413052
O O2 0.037564 0.414744 0.827874
O O3 0.335241 0.533632 0.800251
O O4 0.829298 0.524375 0.710616
O O5 0.663686 0.381136 0.499785
O O6 0.075060 0.296890 0.610505
O O7 0.702041 0.293812 0.884513
O O8 0.306220 0.316180 0.235451
O O9 0.562645 0.437474 0.053206
O O10 0.302130 0.182431 0.521136
O O11 0.893969 0.221970 0.241451
O O12 0.273997 0.063843 0.837701
O O13 0.588694 0.683703 0.010715
O O14 0.097173 0.663402 0.176909
#
# Coordination Sequence:
#
# PCOD9117013 Si02
#       7
#     2   2   2   2   2   2   2
#     4  11  25  45  68 106 144 185 241 304 363 443
#     4  10  22  42  70 111 141 177 253 310 359 449
#     4  11  24  45  76 110 149 188 252 315 367 439
#     4  10  24  43  76 108 143 194 249 313 373 425
#     4  12  27  45  72 102 151 202 241 301 383 436
#     4  11  26  48  64 107 146 193 255 301 357 468
#     4  11  24  44  74  98 144 191 241 310 374 428
#
# _framework density 28.201242000000001
#
# number of rings (size 3 to 8) (size 9 to 14) (size 15 to 20)
#    0.000    1.143    2.857    1.714    8.000    1.143 
#    2.571    1.429    0.000    0.000    0.000    0.000 
#    0.000    0.000    0.000    0.000    0.000    0.000 
#
# Total GULP energy -78285.750066 kJ/mol
# GULP energy per Si atom -5591.839290 kJ/mol
# Density = 2.813705 g / cm^3
# Si number density = 28.201242 Si / 1000 Ang^3
#
#
#
# Elastic Constant Matrix: (Units=GPa)
#
#
# Indices 1 2 3 4 5 6 
#
# 1 152.4221 11.5813 18.7856 0.0000 -10.3507 0.0000
# 2 11.5813 89.2321 -5.8712 0.0000 11.3319 0.0000
# 3 18.7856 -5.8712 70.6662 0.0000 0.1442 0.0000
# 4 0.0000 0.0000 0.0000 38.0545 0.0000 13.4975
# 5 -10.3507 11.3319 0.1442 0.0000 52.5920 0.0000
# 6 0.0000 0.0000 0.0000 13.4975 0.0000 38.0107
#
#
#
# Elastic Compliance Matrix: (Units=1/GPa)
#
#
# Indices 1 2 3 4 5 6 
#
# 1 0.007011 -0.001250 -0.001971 0.000000 0.001655 0.000000
# 2 -0.001250 0.011811 0.001319 0.000000 -0.002794 0.000000
# 3 -0.001971 0.001319 0.014786 0.000000 -0.000713 0.000000
# 4 0.000000 0.000000 0.000000 0.030065 0.000000 -0.010676
# 5 0.001655 -0.002794 -0.000713 0.000000 0.019944 0.000000
# 6 0.000000 0.000000 0.000000 -0.010676 0.000000 0.030099
#
#
# Mechanical properties :
#
#
# Convention : Reuss Voigt Hill
#
# Bulk Modulus (GPa) = 33.55190 40.14575 36.84882
# Shear Modulus (GPa) = 39.22997 44.91976 42.07486
#
# Velocity S-wave (km/s) = 3.73375 3.99536 3.86677
# Velocity P-wave (km/s) = 5.52368 5.96240 5.74723
#
# Compressibility (1/GPa) = 0.02980457
#
# Stress axis : x y z
#
# Youngs Moduli (GPa) = 142.63388 84.66970 67.63133
#
# Poissons Ratio (x) = 0.10581 0.13330
# Poissons Ratio (y) = 0.17826 -0.08922
# Poissons Ratio (z) = 0.28113 -0.11170
#
# Static dielectric constant tensor:
#      x y z
#    x 2.217900 0.000000 -0.039400 
#    y 0.000000 2.285630 0.000000 
#    z -0.039400 0.000000 2.234910 
# 
# From -- ./inp_files/408.got.cif
#   From: 2010.05.17/outbox.cif.g08.bks.cpg/sg4_1_cif.got.tgz:408.got - 2010.06.03 18:43:04.
