data_PCOD9117008
_publ_section_title
;
Structure prediction by ZEFSAII (Michael W. Deem and Ramdas Pophale) SiO2 
 PCOD9117008
Probable space group: P 21
;
_chemical_formula_sum "Si O2"
_cell_formula_units_Z 16
_cell_length_a 9.470000
_cell_length_b 5.211487
_cell_length_c 19.291570
_cell_angle_alpha 90.000000
_cell_angle_beta 38.080012
_cell_angle_gamma 90.000000
_cell_volume 587.213908
_symmetry_space_group_name_H-M "P 21"
_symmetry_group_IT_number 4
_symmetry_cell_setting 'monoclinic'
loop_
_space_group_symop_operation_xyz
x,y,z
-x,1/2+y,-z
loop_
_atom_site_type_symbol
_atom_site_label
_atom_site_fract_x
_atom_site_fract_y
_atom_site_fract_z
Si Si1 0.862090 0.364980 0.056828
Si Si2 0.595666 0.050312 0.354698
Si Si3 0.048248 0.935337 0.835402
Si Si4 0.715646 0.404341 0.643016
Si Si5 0.912922 0.904281 0.625833
Si Si6 0.771822 0.741648 0.410723
Si Si7 0.166317 0.840705 0.182812
Si Si8 0.371612 0.104330 0.976567
O O1 0.791935 0.470986 0.159341
O O2 0.699853 0.400882 0.053971
O O3 0.064266 0.571170 0.961415
O O4 0.612312 0.828182 0.407253
O O5 0.827118 0.211913 0.255536
O O6 0.512756 0.944252 0.313455
O O7 0.401996 0.249148 0.458004
O O8 0.806278 0.839238 0.960017
O O9 0.990757 0.175425 0.809968
O O10 0.748122 0.143905 0.672310
O O11 0.908000 0.393123 0.507888
O O12 0.764621 0.647741 0.673375
O O13 0.078548 0.985794 0.626868
O O14 0.988874 0.924365 0.310327
O O15 0.315281 0.025985 0.077331
O O16 0.364853 0.659818 0.134425
#
# Coordination Sequence:
#
# PCOD9117008 Si02
#       8
#     2   2   2   2   2   2   2   2
#     4  10  22  42  70 101 137 177 234 295 354 424
#     4  11  24  43  67 106 147 191 237 298 366 442
#     4  11  23  42  68  97 137 181 229 291 357 423
#     4   9  20  40  66  92 132 188 236 291 346 418
#     4   9  20  41  65  93 134 182 241 289 347 420
#     4  11  25  42  67 107 145 192 240 296 366 443
#     4  12  23  43  68  97 137 181 233 289 359 422
#     4  11  23  43  67  99 131 180 234 291 357 412
#
# _framework density 27.247312999999998
#
# number of rings (size 3 to 8) (size 9 to 14) (size 15 to 20)
#    0.000    1.500    3.750    0.750    0.000    8.000 
#    0.000    6.250    0.000    0.000    0.000    0.000 
#    0.000    0.000    0.000    0.000    0.000    0.000 
#
# Total GULP energy -89348.306226 kJ/mol
# GULP energy per Si atom -5584.269139 kJ/mol
# Density = 2.718530 g / cm^3
# Si number density = 27.247313 Si / 1000 Ang^3
#
#
#
# Elastic Constant Matrix: (Units=GPa)
#
#
# Indices 1 2 3 4 5 6 
#
# 1 133.0601 31.7897 20.4574 0.0000 10.5733 0.0000
# 2 31.7897 106.1067 20.9126 0.0000 6.8248 0.0000
# 3 20.4574 20.9126 124.8403 0.0000 -7.9415 0.0000
# 4 0.0000 0.0000 0.0000 22.2709 0.0000 8.0311
# 5 10.5733 6.8248 -7.9415 0.0000 34.8632 0.0000
# 6 0.0000 0.0000 0.0000 8.0311 0.0000 40.4989
#
#
#
# Elastic Compliance Matrix: (Units=1/GPa)
#
#
# Indices 1 2 3 4 5 6 
#
# 1 0.008395 -0.002130 -0.001171 0.000000 -0.002396 0.000000
# 2 -0.002130 0.010474 -0.001517 0.000000 -0.001750 0.000000
# 3 -0.001171 -0.001517 0.008623 0.000000 0.002616 0.000000
# 4 0.000000 0.000000 0.000000 0.048360 0.000000 -0.009590
# 5 -0.002396 -0.001750 0.002616 0.000000 0.030349 0.000000
# 6 0.000000 0.000000 0.000000 -0.009590 0.000000 0.026594
#
#
# Mechanical properties :
#
#
# Convention : Reuss Voigt Hill
#
# Bulk Modulus (GPa) = 56.00598 56.70295 56.35446
# Shear Modulus (GPa) = 33.69679 38.91642 36.30661
#
# Velocity S-wave (km/s) = 3.52049 3.78334 3.65428
# Velocity P-wave (km/s) = 6.09298 6.31985 6.20746
#
# Compressibility (1/GPa) = 0.01785524
#
# Stress axis : x y z
#
# Youngs Moduli (GPa) = 119.12188 95.47283 115.97318
#
# Poissons Ratio (x) = 0.20337 0.13583
# Poissons Ratio (y) = 0.25375 0.17591
# Poissons Ratio (z) = 0.13952 0.14482
#
# Static dielectric constant tensor:
#      x y z
#    x 2.226630 0.000000 0.009680 
#    y 0.000000 2.191910 0.000000 
#    z 0.009680 0.000000 2.112090 
# 
# From -- ./inp_files/15551.got.cif
#   From: 2010.05.17/outbox.cif.g08.bks.cpg/sg4_8_cif.got.tgz:15551.got - 2010.06.03 18:43:04.
