data_PCOD9117321
_publ_section_title
;
Structure prediction by ZEFSAII (Michael W. Deem and Ramdas Pophale) SiO2 
 PCOD9117321
Probable space group: P 21
;
_chemical_formula_sum "Si O2"
_cell_formula_units_Z 14
_cell_length_a 6.454429
_cell_length_b 15.537288
_cell_length_c 6.044875
_cell_angle_alpha 90.000000
_cell_angle_beta 103.501542
_cell_angle_gamma 90.000000
_cell_volume 589.452858
_symmetry_space_group_name_H-M "P 21"
_symmetry_group_IT_number 4
_symmetry_cell_setting 'monoclinic'
loop_
_space_group_symop_operation_xyz
x,y,z
-x,1/2+y,-z
loop_
_atom_site_type_symbol
_atom_site_label
_atom_site_fract_x
_atom_site_fract_y
_atom_site_fract_z
Si Si1 0.165381 0.650200 0.760136
Si Si2 0.587469 0.078073 0.557496
Si Si3 0.440892 0.744244 0.197052
Si Si4 0.861082 0.317152 0.502349
Si Si5 0.987964 0.020120 0.946560
Si Si6 0.767718 0.880218 0.136700
Si Si7 0.623233 0.456498 0.188925
O O1 0.346092 0.598120 0.672791
O O2 0.076064 0.722329 0.570569
O O3 0.280236 0.703520 0.980881
O O4 0.014207 0.579596 0.835338
O O5 0.485830 0.164176 0.633860
O O6 0.809840 0.058831 0.740607
O O7 0.450684 0.997062 0.596950
O O8 0.298450 0.803372 0.327800
O O9 0.639030 0.790490 0.126174
O O10 0.731109 0.367286 0.283104
O O11 0.069627 0.372682 0.617764
O O12 0.210292 0.019050 0.881876
O O13 0.924455 0.921137 0.990250
O O14 0.567426 0.941519 0.031096
#
# Coordination Sequence:
#
# PCOD9117321 Si02
#       7
#     2   2   2   2   2   2   2
#     4  10  22  48  74 103 148 189 244 299 360 432
#     4   9  23  44  71 103 139 192 242 289 366 435
#     4  10  22  46  68 107 143 183 245 299 351 437
#     4  11  25  44  75 104 145 191 241 297 363 431
#     4  10  24  44  71 107 148 184 245 306 349 431
#     4  11  24  44  72 105 144 188 239 296 359 427
#     4  11  24  48  73 105 147 189 240 300 362 427
#
# _framework density 23.75084
#
# number of rings (size 3 to 8) (size 9 to 14) (size 15 to 20)
#    0.000    1.714    1.429    0.857    4.000    4.571 
#    2.571    4.286    0.000    0.000    0.000    0.000 
#    0.000    0.000    0.000    0.000    0.000    0.000 
#
# Total GULP energy -78106.260905 kJ/mol
# GULP energy per Si atom -5579.018636 kJ/mol
# Density = 2.369678 g / cm^3
# Si number density = 23.750840 Si / 1000 Ang^3
#
#
#
# Elastic Constant Matrix: (Units=GPa)
#
#
# Indices 1 2 3 4 5 6 
#
# 1 74.5048 30.6389 28.4904 0.0000 2.4848 0.0000
# 2 30.6389 98.7420 48.2697 0.0000 -11.6495 0.0000
# 3 28.4904 48.2697 85.0082 0.0000 -18.7512 0.0000
# 4 0.0000 0.0000 0.0000 58.1351 0.0000 -7.8663
# 5 2.4848 -11.6495 -18.7512 0.0000 24.1714 0.0000
# 6 0.0000 0.0000 0.0000 -7.8663 0.0000 27.2832
#
#
#
# Elastic Compliance Matrix: (Units=1/GPa)
#
#
# Indices 1 2 3 4 5 6 
#
# 1 0.017240 -0.003604 -0.005436 0.000000 -0.007726 0.000000
# 2 -0.003604 0.014782 -0.006675 0.000000 0.002317 0.000000
# 3 -0.005436 -0.006675 0.020255 0.000000 0.013055 0.000000
# 4 0.000000 0.000000 0.000000 0.017900 0.000000 0.005161
# 5 -0.007726 0.002317 0.013055 0.000000 0.053410 0.000000
# 6 0.000000 0.000000 0.000000 0.005161 0.000000 0.038141
#
#
# Mechanical properties :
#
#
# Convention : Reuss Voigt Hill
#
# Bulk Modulus (GPa) = 47.96512 52.56143 50.26328
# Shear Modulus (GPa) = 24.98679 31.97499 28.48089
#
# Velocity S-wave (km/s) = 3.24703 3.67313 3.46664
# Velocity P-wave (km/s) = 5.85633 6.33779 6.10181
#
# Compressibility (1/GPa) = 0.02084848
#
# Stress axis : x y z
#
# Youngs Moduli (GPa) = 58.00352 67.65074 49.36993
#
# Poissons Ratio (x) = 0.24379 0.26838
# Poissons Ratio (y) = 0.20902 0.32953
# Poissons Ratio (z) = 0.31531 0.45155
#
# Static dielectric constant tensor:
#      x y z
#    x 1.869180 0.000000 -0.011410 
#    y 0.000000 1.934580 0.000000 
#    z -0.011410 0.000000 1.893050 
# 
# From -- ./inp_files/477.got.cif
#   From: 2010.05.17/outbox.cif.g08.bks.cpg/sg4_1_cif.got.tgz:477.got - 2010.06.03 18:43:04.
