data_PCOD9117197
_publ_section_title
;
Structure prediction by ZEFSAII (Michael W. Deem and Ramdas Pophale) SiO2 
 PCOD9117197
Probable space group: P 21
;
_chemical_formula_sum "Si O2"
_cell_formula_units_Z 16
_cell_length_a 26.521548
_cell_length_b 6.059774
_cell_length_c 14.819972
_cell_angle_alpha 90.000000
_cell_angle_beta 160.128719
_cell_angle_gamma 90.000000
_cell_volume 809.588475
_symmetry_space_group_name_H-M "P 21"
_symmetry_group_IT_number 4
_symmetry_cell_setting 'monoclinic'
loop_
_space_group_symop_operation_xyz
x,y,z
-x,1/2+y,-z
loop_
_atom_site_type_symbol
_atom_site_label
_atom_site_fract_x
_atom_site_fract_y
_atom_site_fract_z
Si Si1 0.641531 0.490990 0.467397
Si Si2 0.110551 0.312511 0.477418
Si Si3 0.948156 0.158660 0.377320
Si Si4 0.085032 0.767944 0.013089
Si Si5 0.685894 0.136476 0.057643
Si Si6 0.352060 0.668204 0.680238
Si Si7 0.870044 0.881356 0.811660
Si Si8 0.662991 0.443978 0.179674
O O1 0.741444 0.326260 0.694760
O O2 0.613789 0.382704 0.322955
O O3 0.756514 0.689686 0.646722
O O4 0.480066 0.546044 0.233181
O O5 0.209242 0.482482 0.701934
O O6 0.004671 0.187014 0.370730
O O7 0.224983 0.144919 0.623369
O O8 0.002834 0.383953 0.215023
O O9 0.776146 0.160047 0.117100
O O10 0.000279 0.403840 0.507527
O O11 0.076502 0.502832 0.007309
O O12 0.007902 0.827126 0.979165
O O13 0.667986 0.360273 0.085298
O O14 0.229459 0.536470 0.419455
O O15 0.300613 0.746432 0.691092
O O16 0.499196 0.522238 0.930291
#
# Coordination Sequence:
#
# PCOD9117197 Si02
#       8
#     2   2   2   2   2   2   2   2
#     4  11  22  41  58  86 125 175 208 256 320 387
#     4  11  24  41  65  96 127 164 220 277 332 391
#     4  10  22  44  71 103 131 167 221 288 353 401
#     4  11  24  38  60  87 127 174 217 254 317 392
#     4  11  22  41  69  92 124 163 216 280 336 391
#     4  11  24  33  56  90 130 166 209 258 320 392
#     4  11  22  39  57  84 127 174 216 251 312 395
#     4  12  22  35  58  96 127 163 209 272 326 391
#
# _framework density 19.763127000000001
#
# number of rings (size 3 to 8) (size 9 to 14) (size 15 to 20)
#    0.000    1.000    5.000    2.250    3.500    1.000 
#    0.000    0.000    2.750    0.000    0.000    0.000 
#    0.000    0.000    0.000    0.000    0.000    0.000 
#
# Total GULP energy -89148.226258 kJ/mol
# GULP energy per Si atom -5571.764141 kJ/mol
# Density = 1.971815 g / cm^3
# Si number density = 19.763127 Si / 1000 Ang^3
#
#
#
# Elastic Constant Matrix: (Units=GPa)
#
#
# Indices 1 2 3 4 5 6 
#
# 1 41.8319 -3.7502 14.8619 0.0000 16.5039 0.0000
# 2 -3.7502 48.6002 7.3702 0.0000 0.5399 0.0000
# 3 14.8619 7.3702 84.8210 0.0000 9.3609 0.0000
# 4 0.0000 0.0000 0.0000 26.5702 0.0000 5.6384
# 5 16.5039 0.5399 9.3609 0.0000 28.6854 0.0000
# 6 0.0000 0.0000 0.0000 5.6384 0.0000 30.0866
#
#
#
# Elastic Compliance Matrix: (Units=1/GPa)
#
#
# Indices 1 2 3 4 5 6 
#
# 1 0.032532 0.003320 -0.004062 0.000000 -0.017454 0.000000
# 2 0.003320 0.021191 -0.002249 0.000000 -0.001575 0.000000
# 3 -0.004062 -0.002249 0.012899 0.000000 -0.001830 0.000000
# 4 0.000000 0.000000 0.000000 0.039195 0.000000 -0.007345
# 5 -0.017454 -0.001575 -0.001830 0.000000 0.045530 0.000000
# 6 0.000000 0.000000 0.000000 -0.007345 0.000000 0.034614
#
#
# Mechanical properties :
#
#
# Convention : Reuss Voigt Hill
#
# Bulk Modulus (GPa) = 16.49103 23.57966 20.03535
# Shear Modulus (GPa) = 23.56759 27.51985 25.54372
#
# Velocity S-wave (km/s) = 3.45701 3.73565 3.59903
# Velocity P-wave (km/s) = 4.92920 5.52845 5.23741
#
# Compressibility (1/GPa) = 0.06063902
#
# Stress axis : x y z
#
# Youngs Moduli (GPa) = 30.73880 47.19014 77.52725
#
# Poissons Ratio (x) = -0.15668 0.31495
# Poissons Ratio (y) = -0.10206 0.17438
# Poissons Ratio (z) = 0.12487 0.10614
#
# Static dielectric constant tensor:
#      x y z
#    x 1.675330 0.000000 -0.002140 
#    y 0.000000 1.859600 0.000000 
#    z -0.002140 0.000000 1.691450 
# 
# From -- ./inp_files/8720.got.cif
#   From: 2010.05.17/outbox.cif.g08.bks.cpg/sg4_5_cif.got.tgz:8720.got - 2010.06.03 18:43:04.
