data_PCOD9117254
_publ_section_title
;
Structure prediction by ZEFSAII (Michael W. Deem and Ramdas Pophale) SiO2 
 PCOD9117254
Probable space group: P 21
;
_chemical_formula_sum "Si O2"
_cell_formula_units_Z 12
_cell_length_a 11.099840
_cell_length_b 4.861869
_cell_length_c 7.993918
_cell_angle_alpha 90.000000
_cell_angle_beta 100.511436
_cell_angle_gamma 90.000000
_cell_volume 424.159998
_symmetry_space_group_name_H-M "P 21"
_symmetry_group_IT_number 4
_symmetry_cell_setting 'monoclinic'
loop_
_space_group_symop_operation_xyz
x,y,z
-x,1/2+y,-z
loop_
_atom_site_type_symbol
_atom_site_label
_atom_site_fract_x
_atom_site_fract_y
_atom_site_fract_z
Si Si1 0.433203 0.393330 0.909960
Si Si2 0.798384 0.276074 0.124096
Si Si3 0.972058 0.946646 0.363476
Si Si4 0.468736 0.624358 0.391858
Si Si5 0.209494 0.171021 0.568948
Si Si6 0.215126 0.853974 0.252271
O O1 0.308032 0.546762 0.918066
O O2 0.446243 0.270518 0.726290
O O3 0.532446 0.636837 0.963547
O O4 0.930494 0.144140 0.194426
O O5 0.766452 0.498245 0.260288
O O6 0.798023 0.426263 0.943883
O O7 0.822146 0.979551 0.395062
O O8 0.054477 0.139621 0.513543
O O9 0.081875 0.780320 0.290341
O O10 0.512896 0.319817 0.442661
O O11 0.328917 0.644787 0.298257
O O12 0.254477 0.082705 0.402229
#
# Coordination Sequence:
#
# PCOD9117254 Si02
#       6
#     2   2   2   2   2   2
#     4  12  28  51  76 115 154 197 264 326 385 460
#     4  12  25  46  73 108 148 201 249 321 384 460
#     4  10  23  43  73 105 149 190 248 312 386 451
#     4  12  27  51  81 113 153 209 260 323 389 464
#     4  10  22  45  67 107 146 193 243 314 378 457
#     4  10  25  48  70 114 146 198 260 312 384 472
#
# _framework density 28.291214
#
# number of rings (size 3 to 8) (size 9 to 14) (size 15 to 20)
#    1.000    0.000    3.333    2.000    7.000    0.000 
#    3.000    0.000    0.000    0.000    0.000    0.000 
#    0.000    0.000    0.000    0.000    0.000    0.000 
#
# Total GULP energy -66981.266537 kJ/mol
# GULP energy per Si atom -5581.772211 kJ/mol
# Density = 2.822682 g / cm^3
# Si number density = 28.291214 Si / 1000 Ang^3
#
#
#
# Elastic Constant Matrix: (Units=GPa)
#
#
# Indices 1 2 3 4 5 6 
#
# 1 129.5562 23.8255 34.6054 0.0000 -8.7635 0.0000
# 2 23.8255 107.2348 58.0287 0.0000 -9.8114 0.0000
# 3 34.6054 58.0287 195.9886 0.0000 -6.1046 0.0000
# 4 0.0000 0.0000 0.0000 192.0768 0.0000 85.8648
# 5 -8.7635 -9.8114 -6.1046 0.0000 40.5866 0.0000
# 6 0.0000 0.0000 0.0000 85.8648 0.0000 97.0277
#
#
#
# Elastic Compliance Matrix: (Units=1/GPa)
#
#
# Indices 1 2 3 4 5 6 
#
# 1 0.008310 -0.001132 -0.001090 0.000000 0.001357 0.000000
# 2 -0.001132 0.011458 -0.003129 0.000000 0.002055 0.000000
# 3 -0.001090 -0.003129 0.006219 0.000000 -0.000056 0.000000
# 4 0.000000 0.000000 0.000000 0.008614 0.000000 -0.007623
# 5 0.001357 0.002055 -0.000056 0.000000 0.025420 0.000000
# 6 0.000000 0.000000 0.000000 -0.007623 0.000000 0.017052
#
#
# Mechanical properties :
#
#
# Convention : Reuss Voigt Hill
#
# Bulk Modulus (GPa) = 65.42111 73.96652 69.69381
# Shear Modulus (GPa) = 53.83898 87.02623 70.43261
#
# Velocity S-wave (km/s) = 4.36710 5.55227 4.99496
# Velocity P-wave (km/s) = 6.97160 8.20396 7.61276
#
# Compressibility (1/GPa) = 0.01528559
#
# Stress axis : x y z
#
# Youngs Moduli (GPa) = 120.34060 87.27610 160.79011
#
# Poissons Ratio (x) = 0.09884 0.17521
# Poissons Ratio (y) = 0.13628 0.50303
# Poissons Ratio (z) = 0.13113 0.27304
#
# Static dielectric constant tensor:
#      x y z
#    x 1.651140 0.000000 -0.321730 
#    y 0.000000 2.181720 0.000000 
#    z -0.321730 0.000000 2.121580 
# 
# From -- ./inp_files/7375.got.cif
#   From: 2010.05.17/outbox.cif.g08.bks.cpg/sg4_4_cif.got.tgz:7375.got - 2010.06.03 18:43:04.
