data_PCOD9117295
_publ_section_title
;
Structure prediction by ZEFSAII (Michael W. Deem and Ramdas Pophale) SiO2 
 PCOD9117295
Probable space group: P 21
;
_chemical_formula_sum "Si O2"
_cell_formula_units_Z 14
_cell_length_a 8.828739
_cell_length_b 10.856546
_cell_length_c 7.266679
_cell_angle_alpha 90.000000
_cell_angle_beta 54.610652
_cell_angle_gamma 90.000000
_cell_volume 567.818322
_symmetry_space_group_name_H-M "P 21"
_symmetry_group_IT_number 4
_symmetry_cell_setting 'monoclinic'
loop_
_space_group_symop_operation_xyz
x,y,z
-x,1/2+y,-z
loop_
_atom_site_type_symbol
_atom_site_label
_atom_site_fract_x
_atom_site_fract_y
_atom_site_fract_z
Si Si1 0.487167 0.352620 0.900489
Si Si2 0.276887 0.562890 0.875419
Si Si3 0.917324 0.791264 0.683222
Si Si4 0.120465 0.391380 0.683751
Si Si5 0.819698 0.322677 0.162248
Si Si6 0.479749 0.435073 0.315303
Si Si7 0.222022 0.636567 0.334489
O O1 0.532368 0.405775 0.069175
O O2 0.288953 0.284755 0.084708
O O3 0.442664 0.463246 0.789903
O O4 0.653317 0.260345 0.742267
O O5 0.134691 0.498718 0.831774
O O6 0.305011 0.699186 0.774408
O O7 0.221318 0.582313 0.128685
O O8 0.051977 0.827638 0.752255
O O9 0.012982 0.666001 0.544258
O O10 0.925672 0.884650 0.503344
O O11 0.333607 0.343024 0.517902
O O12 0.957990 0.313729 0.891438
O O13 0.678127 0.436150 0.267575
O O14 0.340555 0.549473 0.388227
#
# Coordination Sequence:
#
# PCOD9117295 Si02
#       7
#     2   2   2   2   2   2   2
#     4  10  22  45  72 107 142 190 236 297 358 424
#     4  11  23  45  74 103 147 186 234 302 352 428
#     4  11  24  44  75 103 141 193 243 292 357 426
#     4  11  24  48  70 103 147 183 245 299 350 432
#     4  12  24  47  73 107 146 192 232 300 366 418
#     4  10  24  43  71 108 143 187 241 289 364 434
#     4  11  23  46  75 105 148 185 243 299 357 436
#
# _framework density 24.655773
#
# number of rings (size 3 to 8) (size 9 to 14) (size 15 to 20)
#    0.000    1.143    4.286    0.857    2.000    2.286 
#    0.000    7.143    0.000    0.000    0.000    0.000 
#    0.000    0.000    0.000    0.000    0.000    0.000 
#
# Total GULP energy -77989.021690 kJ/mol
# GULP energy per Si atom -5570.644406 kJ/mol
# Density = 2.459966 g / cm^3
# Si number density = 24.655773 Si / 1000 Ang^3
#
#
#
# Elastic Constant Matrix: (Units=GPa)
#
#
# Indices 1 2 3 4 5 6 
#
# 1 99.7008 -0.4186 38.2156 0.0000 17.7898 0.0000
# 2 -0.4186 42.9260 7.7784 0.0000 -2.3446 0.0000
# 3 38.2156 7.7784 107.2954 0.0000 11.6799 0.0000
# 4 0.0000 0.0000 0.0000 36.0879 0.0000 4.9001
# 5 17.7898 -2.3446 11.6799 0.0000 25.8950 0.0000
# 6 0.0000 0.0000 0.0000 4.9001 0.0000 48.3742
#
#
#
# Elastic Compliance Matrix: (Units=1/GPa)
#
#
# Indices 1 2 3 4 5 6 
#
# 1 0.012739 0.000432 -0.003807 0.000000 -0.006996 0.000000
# 2 0.000432 0.023853 -0.002194 0.000000 0.002852 0.000000
# 3 -0.003807 -0.002194 0.011118 0.000000 -0.002598 0.000000
# 4 0.000000 0.000000 0.000000 0.028097 0.000000 -0.002846
# 5 -0.006996 0.002852 -0.002598 0.000000 0.044853 0.000000
# 6 0.000000 0.000000 0.000000 -0.002846 0.000000 0.020960
#
#
# Mechanical properties :
#
#
# Convention : Reuss Voigt Hill
#
# Bulk Modulus (GPa) = 27.34255 37.89699 32.61977
# Shear Modulus (GPa) = 30.31225 35.69454 33.00339
#
# Velocity S-wave (km/s) = 3.51011 3.80901 3.66261
# Velocity P-wave (km/s) = 5.24801 5.89479 5.58078
#
# Compressibility (1/GPa) = 0.03657303
#
# Stress axis : x y z
#
# Youngs Moduli (GPa) = 78.49691 41.92271 89.94505
#
# Poissons Ratio (x) = -0.01811 0.34244
# Poissons Ratio (y) = -0.03391 0.19731
# Poissons Ratio (z) = 0.29885 0.09196
#
# Static dielectric constant tensor:
#      x y z
#    x 1.958130 0.000000 0.009150 
#    y 0.000000 2.154900 0.000000 
#    z 0.009150 0.000000 2.045790 
# 
# From -- ./inp_files/6352.got.cif
#   From: 2010.05.17/outbox.cif.g08.bks.cpg/sg4_4_cif.got.tgz:6352.got - 2010.06.03 18:43:04.
