data_PCOD9117063
_publ_section_title
;
Structure prediction by ZEFSAII (Michael W. Deem and Ramdas Pophale) SiO2 
 PCOD9117063
Probable space group: P 21
;
_chemical_formula_sum "Si O2"
_cell_formula_units_Z 16
_cell_length_a 7.562343
_cell_length_b 18.824910
_cell_length_c 5.598232
_cell_angle_alpha 90.000000
_cell_angle_beta 117.412873
_cell_angle_gamma 90.000000
_cell_volume 707.476872
_symmetry_space_group_name_H-M "P 21"
_symmetry_group_IT_number 4
_symmetry_cell_setting 'monoclinic'
loop_
_space_group_symop_operation_xyz
x,y,z
-x,1/2+y,-z
loop_
_atom_site_type_symbol
_atom_site_label
_atom_site_fract_x
_atom_site_fract_y
_atom_site_fract_z
Si Si1 0.245533 0.376270 0.005288
Si Si2 0.972608 0.430189 0.454831
Si Si3 0.660396 0.339713 0.471835
Si Si4 0.326833 0.526044 0.238684
Si Si5 0.042185 0.085530 0.779987
Si Si6 0.823177 0.197645 0.340451
Si Si7 0.883049 0.309237 0.013638
Si Si8 0.497479 0.077136 0.150654
O O1 0.460615 0.345448 0.197758
O O2 0.244423 0.446281 0.171489
O O3 0.074600 0.320243 0.964381
O O4 0.178657 0.406476 0.707148
O O5 0.792064 0.411423 0.525771
O O6 0.971794 0.511440 0.377674
O O7 0.916705 0.373781 0.217627
O O8 0.771414 0.269044 0.451463
O O9 0.668929 0.324779 0.759004
O O10 0.438185 0.539477 0.559972
O O11 0.132325 0.576706 0.131831
O O12 0.449519 0.538357 0.069463
O O13 0.987908 0.150374 0.573397
O O14 0.263217 0.090671 0.015720
O O15 0.885992 0.231750 0.129036
O O16 0.628232 0.148563 0.214850
#
# Coordination Sequence:
#
# PCOD9117063 Si02
#       8
#     2   2   2   2   2   2   2   2
#     4  11  22  40  72  98 140 182 233 301 372 418
#     4  10  22  43  66 104 131 184 235 299 364 424
#     4  10  24  42  67 100 143 182 246 299 355 444
#     4  11  25  45  70 113 139 178 251 296 363 447
#     4  11  24  47  76  99 151 184 241 307 371 422
#     4  10  25  46  62 101 141 186 247 291 355 452
#     4  10  23  41  66  95 139 180 236 295 358 426
#     4  11  27  44  73 104 144 196 235 302 370 433
#
# _framework density 22.615580000000001
#
# number of rings (size 3 to 8) (size 9 to 14) (size 15 to 20)
#    0.000    1.500    1.250    2.250    5.250    9.000 
#    0.000    0.000    0.000    0.000    0.000    0.000 
#    0.000    0.000    0.000    0.000    0.000    0.000 
#
# Total GULP energy -89307.533697 kJ/mol
# GULP energy per Si atom -5581.720856 kJ/mol
# Density = 2.256411 g / cm^3
# Si number density = 22.615580 Si / 1000 Ang^3
#
#
#
# Elastic Constant Matrix: (Units=GPa)
#
#
# Indices 1 2 3 4 5 6 
#
# 1 50.8181 -0.7036 50.2199 0.0000 16.1308 0.0000
# 2 -0.7036 106.2242 45.7103 0.0000 0.3082 0.0000
# 3 50.2199 45.7103 156.0048 0.0000 30.3582 0.0000
# 4 0.0000 0.0000 0.0000 39.6600 0.0000 -5.9366
# 5 16.1308 0.3082 30.3582 0.0000 41.3091 0.0000
# 6 0.0000 0.0000 0.0000 -5.9366 0.0000 25.4580
#
#
#
# Elastic Compliance Matrix: (Units=1/GPa)
#
#
# Indices 1 2 3 4 5 6 
#
# 1 0.031859 0.004872 -0.010800 0.000000 -0.004540 0.000000
# 2 0.004872 0.011764 -0.005400 0.000000 0.001979 0.000000
# 3 -0.010800 -0.005400 0.012416 0.000000 -0.004867 0.000000
# 4 0.000000 0.000000 0.000000 0.026126 0.000000 0.006092
# 5 -0.004540 0.001979 -0.004867 0.000000 0.029543 0.000000
# 6 0.000000 0.000000 0.000000 0.006092 0.000000 0.040701
#
#
# Mechanical properties :
#
#
# Convention : Reuss Voigt Hill
#
# Bulk Modulus (GPa) = 29.95551 55.94448 42.95000
# Shear Modulus (GPa) = 26.85360 35.80679 31.33020
#
# Velocity S-wave (km/s) = 3.44960 3.98336 3.72605
# Velocity P-wave (km/s) = 5.39820 6.77843 6.12730
#
# Compressibility (1/GPa) = 0.03338284
#
# Stress axis : x y z
#
# Youngs Moduli (GPa) = 31.38795 85.00196 80.54051
#
# Poissons Ratio (x) = -0.41409 0.86982
# Poissons Ratio (y) = -0.15291 0.43494
# Poissons Ratio (z) = 0.33898 0.45904
#
# Static dielectric constant tensor:
#      x y z
#    x 1.987130 0.000000 -0.121600 
#    y 0.000000 1.791400 0.000000 
#    z -0.121600 0.000000 1.966600 
# 
# From -- ./inp_files/2223.got.cif
#   From: 2010.05.17/outbox.cif.g08.bks.cpg/sg4_2_cif.got.tgz:2223.got - 2010.06.03 18:43:04.
