data_PCOD9117112
_publ_section_title
;
Structure prediction by ZEFSAII (Michael W. Deem and Ramdas Pophale) SiO2 
 PCOD9117112
Probable space group: P 21
;
_chemical_formula_sum "Si O2"
_cell_formula_units_Z 12
_cell_length_a 5.647740
_cell_length_b 16.600665
_cell_length_c 4.988292
_cell_angle_alpha 90.000000
_cell_angle_beta 88.198211
_cell_angle_gamma 90.000000
_cell_volume 467.452268
_symmetry_space_group_name_H-M "P 21"
_symmetry_group_IT_number 4
_symmetry_cell_setting 'monoclinic'
loop_
_space_group_symop_operation_xyz
x,y,z
-x,1/2+y,-z
loop_
_atom_site_type_symbol
_atom_site_label
_atom_site_fract_x
_atom_site_fract_y
_atom_site_fract_z
Si Si1 0.221070 0.328920 0.330791
Si Si2 0.774841 0.615399 0.101973
Si Si3 0.845925 0.073867 0.301059
Si Si4 0.593898 0.995877 0.800620
Si Si5 0.959991 0.282381 0.837291
Si Si6 0.571789 0.216638 0.550096
O O1 0.383887 0.400741 0.225041
O O2 0.125879 0.335016 0.635970
O O3 0.377115 0.248802 0.352264
O O4 0.008946 0.313550 0.131198
O O5 0.672113 0.530831 0.228380
O O6 0.965971 0.686228 0.176560
O O7 0.545516 0.665497 0.206707
O O8 0.887548 0.586073 0.816609
O O9 0.785661 0.027326 0.575290
O O10 0.741188 0.161595 0.367080
O O11 0.693671 0.029504 0.077667
O O12 0.707558 0.286034 0.704960
#
# Coordination Sequence:
#
# PCOD9117112 Si02
#       6
#     2   2   2   2   2   2
#     4  11  25  45  68 103 146 187 233 290 359 428
#     4  10  22  43  71 101 134 180 236 289 344 412
#     4  11  23  43  70 101 137 185 239 292 350 417
#     4  11  25  44  67 100 146 189 231 289 360 427
#     4  11  23  43  73 104 137 184 242 295 348 418
#     4  10  24  46  75 105 140 187 241 299 353 416
#
# _framework density 25.67107
#
# number of rings (size 3 to 8) (size 9 to 14) (size 15 to 20)
#    0.000    1.333    0.000    5.000    0.000   12.000 
#    0.000   10.000    0.000    0.000    0.000    0.000 
#    0.000    0.000    0.000    0.000    0.000    0.000 
#
# Total GULP energy -66972.178108 kJ/mol
# GULP energy per Si atom -5581.014842 kJ/mol
# Density = 2.561264 g / cm^3
# Si number density = 25.671070 Si / 1000 Ang^3
#
#
#
# Elastic Constant Matrix: (Units=GPa)
#
#
# Indices 1 2 3 4 5 6 
#
# 1 77.1561 -2.4662 37.5409 0.0000 -33.1715 0.0000
# 2 -2.4662 22.5124 9.1817 0.0000 -8.8420 0.0000
# 3 37.5409 9.1817 124.8919 0.0000 -7.7179 0.0000
# 4 0.0000 0.0000 0.0000 29.6737 0.0000 7.1553
# 5 -33.1715 -8.8420 -7.7179 0.0000 51.6365 0.0000
# 6 0.0000 0.0000 0.0000 7.1553 0.0000 6.7757
#
#
#
# Elastic Compliance Matrix: (Units=1/GPa)
#
#
# Indices 1 2 3 4 5 6 
#
# 1 0.023710 0.011816 -0.006994 0.000000 0.016210 0.000000
# 2 0.011816 0.054672 -0.006584 0.000000 0.015968 0.000000
# 3 -0.006994 -0.006584 0.010341 0.000000 -0.004075 0.000000
# 4 0.000000 0.000000 0.000000 0.045213 0.000000 -0.047746
# 5 0.016210 0.015968 -0.004075 0.000000 0.031905 0.000000
# 6 0.000000 0.000000 0.000000 -0.047746 0.000000 0.198008
#
#
# Mechanical properties :
#
#
# Convention : Reuss Voigt Hill
#
# Bulk Modulus (GPa) = 11.73715 34.78591 23.26153
# Shear Modulus (GPa) = 12.63352 29.63745 21.13549
#
# Velocity S-wave (km/s) = 2.22081 3.40149 2.87247
# Velocity P-wave (km/s) = 3.34037 5.38581 4.48135
#
# Compressibility (1/GPa) = 0.08519957
#
# Stress axis : x y z
#
# Youngs Moduli (GPa) = 42.17553 18.29105 96.69778
#
# Poissons Ratio (x) = -0.21614 0.67631
# Poissons Ratio (y) = -0.49837 0.63669
# Poissons Ratio (z) = 0.29498 0.12043
#
# Static dielectric constant tensor:
#      x y z
#    x 2.060320 0.000000 0.028880 
#    y 0.000000 2.053740 0.000000 
#    z 0.028880 0.000000 1.999130 
# 
# From -- ./inp_files/394.got.cif
#   From: 2010.05.17/outbox.cif.g08.bks.cpg/sg4_1_cif.got.tgz:394.got - 2010.06.03 18:43:04.
