data_PCOD9117899
_publ_section_title
;
Structure prediction by ZEFSAII (Michael W. Deem and Ramdas Pophale) SiO2 
 PCOD9117899
Probable space group: P 21
;
_chemical_formula_sum "Si O2"
_cell_formula_units_Z 16
_cell_length_a 9.378291
_cell_length_b 10.774398
_cell_length_c 12.282193
_cell_angle_alpha 90.000000
_cell_angle_beta 151.131378
_cell_angle_gamma 90.000000
_cell_volume 599.187125
_symmetry_space_group_name_H-M "P 21"
_symmetry_group_IT_number 4
_symmetry_cell_setting 'monoclinic'
loop_
_space_group_symop_operation_xyz
x,y,z
-x,1/2+y,-z
loop_
_atom_site_type_symbol
_atom_site_label
_atom_site_fract_x
_atom_site_fract_y
_atom_site_fract_z
Si Si1 0.527421 0.658360 0.380640
Si Si2 0.983792 0.334369 0.936502
Si Si3 0.553167 0.538498 0.612717
Si Si4 0.530722 0.109099 0.041597
Si Si5 0.420165 0.723026 0.707370
Si Si6 0.058414 0.941071 0.397759
Si Si7 0.074793 0.938919 0.864611
Si Si8 0.638894 0.791646 0.248618
O O1 0.186758 0.703812 0.156582
O O2 0.607886 0.646250 0.560639
O O3 0.660238 0.532475 0.417647
O O4 0.659469 0.759710 0.388315
O O5 0.782689 0.430314 0.736339
O O6 0.002886 0.410826 0.061252
O O7 0.288379 0.306141 0.083650
O O8 0.529044 0.603664 0.712766
O O9 0.242040 0.471687 0.391885
O O10 0.687708 0.192174 0.242375
O O11 0.343003 0.176543 0.821829
O O12 0.786101 0.019763 0.161904
O O13 0.282667 0.043193 0.949569
O O14 0.204561 0.803738 0.484679
O O15 0.864209 0.902999 0.375226
O O16 0.297288 0.825267 0.992359
#
# Coordination Sequence:
#
# PCOD9117899 Si02
#       8
#     2   2   2   2   2   2   2   2
#     4  11  27  47  75 108 153 195 259 311 388 453
#     4  11  27  49  75 115 156 197 256 327 387 459
#     4  12  27  47  81 109 152 205 253 323 392 455
#     4  11  24  47  73 107 153 200 251 314 376 455
#     4  12  27  46  77 112 156 198 257 320 382 463
#     4  11  26  45  75 112 147 204 255 304 387 458
#     4  10  23  49  73 106 149 197 254 314 380 451
#     4  10  25  48  71 111 154 200 257 311 380 456
#
# _framework density 26.702842
#
# number of rings (size 3 to 8) (size 9 to 14) (size 15 to 20)
#    0.000    1.000    1.250    3.000    8.750    4.000 
#    0.000    0.000    0.000    0.000    0.000    0.000 
#    0.000    0.000    0.000    0.000    0.000    0.000 
#
# Total GULP energy -89195.568722 kJ/mol
# GULP energy per Si atom -5574.723045 kJ/mol
# Density = 2.664206 g / cm^3
# Si number density = 26.702842 Si / 1000 Ang^3
#
#
#
# Elastic Constant Matrix: (Units=GPa)
#
#
# Indices 1 2 3 4 5 6 
#
# 1 110.4194 21.1542 31.1689 0.0000 -2.6184 0.0000
# 2 21.1542 69.1091 37.3431 0.0000 3.8384 0.0000
# 3 31.1689 37.3431 79.5642 0.0000 20.3189 0.0000
# 4 0.0000 0.0000 0.0000 55.6585 0.0000 13.9102
# 5 -2.6184 3.8384 20.3189 0.0000 45.7053 0.0000
# 6 0.0000 0.0000 0.0000 13.9102 0.0000 37.2536
#
#
#
# Elastic Compliance Matrix: (Units=1/GPa)
#
#
# Indices 1 2 3 4 5 6 
#
# 1 0.010532 -0.001045 -0.004300 0.000000 0.002603 0.000000
# 2 -0.001045 0.019796 -0.009523 0.000000 0.002511 0.000000
# 3 -0.004300 -0.009523 0.020961 0.000000 -0.008765 0.000000
# 4 0.000000 0.000000 0.000000 0.019816 0.000000 -0.007399
# 5 0.002603 0.002511 -0.008765 0.000000 0.025714 0.000000
# 6 0.000000 0.000000 0.000000 -0.007399 0.000000 0.029606
#
#
# Mechanical properties :
#
#
# Convention : Reuss Voigt Hill
#
# Bulk Modulus (GPa) = 46.39765 48.71390 47.55577
# Shear Modulus (GPa) = 30.60986 39.01861 34.81423
#
# Velocity S-wave (km/s) = 3.38940 3.82673 3.61469
# Velocity P-wave (km/s) = 5.72107 6.14880 5.93879
#
# Compressibility (1/GPa) = 0.02155282
#
# Stress axis : x y z
#
# Youngs Moduli (GPa) = 94.94762 50.51499 47.70726
#
# Poissons Ratio (x) = 0.05278 0.20515
# Poissons Ratio (y) = 0.09920 0.45433
# Poissons Ratio (z) = 0.40830 0.48107
#
# Static dielectric constant tensor:
#      x y z
#    x 2.052330 0.000000 -0.038110 
#    y 0.000000 2.176230 0.000000 
#    z -0.038110 0.000000 2.138660 
# 
# From -- ./inp_files/11318.got.cif
#   From: 2010.05.17/outbox.cif.g08.bks.cpg/sg4_6_cif.got.tgz:11318.got - 2010.06.03 18:43:04.
