data_PCOD9117282
_publ_section_title
;
Structure prediction by ZEFSAII (Michael W. Deem and Ramdas Pophale) SiO2 
 PCOD9117282
Probable space group: P 21
;
_chemical_formula_sum "Si O2"
_cell_formula_units_Z 14
_cell_length_a 8.652645
_cell_length_b 12.569545
_cell_length_c 5.400297
_cell_angle_alpha 90.000000
_cell_angle_beta 63.564021
_cell_angle_gamma 90.000000
_cell_volume 525.919024
_symmetry_space_group_name_H-M "P 21"
_symmetry_group_IT_number 4
_symmetry_cell_setting 'monoclinic'
loop_
_space_group_symop_operation_xyz
x,y,z
-x,1/2+y,-z
loop_
_atom_site_type_symbol
_atom_site_label
_atom_site_fract_x
_atom_site_fract_y
_atom_site_fract_z
Si Si1 0.559089 0.619370 0.716510
Si Si2 0.751055 0.867929 0.250559
Si Si3 0.812737 0.275548 0.363203
Si Si4 0.820363 0.076661 0.985411
Si Si5 0.091876 0.197652 0.487397
Si Si6 0.469514 0.813990 0.055446
Si Si7 0.404280 0.960897 0.724230
O O1 0.382973 0.564376 0.936826
O O2 0.743549 0.629924 0.719470
O O3 0.501591 0.742076 0.791431
O O4 0.602112 0.573414 0.412983
O O5 0.846477 0.775251 0.332827
O O6 0.602115 0.925627 0.521406
O O7 0.870173 0.965589 0.077318
O O8 0.639443 0.825760 0.097659
O O9 0.820257 0.175118 0.176354
O O10 0.738737 0.384524 0.301519
O O11 0.999067 0.274395 0.358044
O O12 0.672124 0.255751 0.678277
O O13 0.950137 0.112970 0.681049
O O14 0.389607 0.925433 0.020110
#
# Coordination Sequence:
#
# PCOD9117282 Si02
#       7
#     2   2   2   2   2   2   2
#     4  11  23  46  69 103 140 190 237 289 364 419
#     4  10  25  44  70 107 140 193 238 296 362 420
#     4  11  23  43  71 101 144 183 231 305 348 426
#     4  11  25  47  68 104 145 188 242 292 362 427
#     4  12  25  44  69 105 144 185 234 301 353 432
#     4  11  21  49  75 101 145 188 239 301 351 425
#     4  10  22  45  70 105 142 185 243 292 362 429
#
# _framework density 26.620066999999999
#
# number of rings (size 3 to 8) (size 9 to 14) (size 15 to 20)
#    0.000    1.143    4.286    0.857    2.000    5.714 
#   12.857    0.000    0.000    0.000    0.000    0.000 
#    0.000    0.000    0.000    0.000    0.000    0.000 
#
# Total GULP energy -78227.639870 kJ/mol
# GULP energy per Si atom -5587.688562 kJ/mol
# Density = 2.655948 g / cm^3
# Si number density = 26.620067 Si / 1000 Ang^3
#
#
#
# Elastic Constant Matrix: (Units=GPa)
#
#
# Indices 1 2 3 4 5 6 
#
# 1 169.9215 36.4156 29.5746 0.0000 2.1184 0.0000
# 2 36.4156 108.6804 21.4229 0.0000 4.3275 0.0000
# 3 29.5746 21.4229 48.0397 0.0000 4.5847 0.0000
# 4 0.0000 0.0000 0.0000 45.9070 0.0000 0.3002
# 5 2.1184 4.3275 4.5847 0.0000 53.7921 0.0000
# 6 0.0000 0.0000 0.0000 0.3002 0.0000 40.5424
#
#
#
# Elastic Compliance Matrix: (Units=1/GPa)
#
#
# Indices 1 2 3 4 5 6 
#
# 1 0.006838 -0.001606 -0.003509 0.000000 0.000159 0.000000
# 2 -0.001606 0.010475 -0.003638 0.000000 -0.000469 0.000000
# 3 -0.003509 -0.003638 0.024759 0.000000 -0.001679 0.000000
# 4 0.000000 0.000000 0.000000 0.021784 0.000000 -0.000161
# 5 0.000159 -0.000469 -0.001679 0.000000 0.018765 0.000000
# 6 0.000000 0.000000 0.000000 -0.000161 0.000000 0.024667
#
#
# Mechanical properties :
#
#
# Convention : Reuss Voigt Hill
#
# Bulk Modulus (GPa) = 40.70512 55.71864 48.21188
# Shear Modulus (GPa) = 37.59926 43.99685 40.79806
#
# Velocity S-wave (km/s) = 3.76232 4.06984 3.91910
# Velocity P-wave (km/s) = 5.84789 6.56211 6.21527
#
# Compressibility (1/GPa) = 0.02456693
#
# Stress axis : x y z
#
# Youngs Moduli (GPa) = 146.24325 95.46388 40.38983
#
# Poissons Ratio (x) = 0.15331 0.14171
# Poissons Ratio (y) = 0.23485 0.14693
# Poissons Ratio (z) = 0.51312 0.34729
#
# Static dielectric constant tensor:
#      x y z
#    x 2.095920 0.000000 0.013700 
#    y 0.000000 2.096140 0.000000 
#    z 0.013700 0.000000 2.165660 
# 
# From -- ./inp_files/1738.got.cif
#   From: 2010.05.17/outbox.cif.g08.bks.cpg/sg4_1_cif.got.tgz:1738.got - 2010.06.03 18:43:04.
