data_PCOD9117404
_publ_section_title
;
Structure prediction by ZEFSAII (Michael W. Deem and Ramdas Pophale) SiO2 
 PCOD9117404
Probable space group: P 21
;
_chemical_formula_sum "Si O2"
_cell_formula_units_Z 14
_cell_length_a 10.208083
_cell_length_b 5.475303
_cell_length_c 17.582298
_cell_angle_alpha 90.000000
_cell_angle_beta 35.282377
_cell_angle_gamma 90.000000
_cell_volume 567.623166
_symmetry_space_group_name_H-M "P 21"
_symmetry_group_IT_number 4
_symmetry_cell_setting 'monoclinic'
loop_
_space_group_symop_operation_xyz
x,y,z
-x,1/2+y,-z
loop_
_atom_site_type_symbol
_atom_site_label
_atom_site_fract_x
_atom_site_fract_y
_atom_site_fract_z
Si Si1 0.090051 0.915320 0.361627
Si Si2 0.586440 0.907994 0.632301
Si Si3 0.537653 0.644155 0.165288
Si Si4 0.779276 0.939025 0.947207
Si Si5 0.467745 0.913910 0.435583
Si Si6 0.666034 0.764722 0.843194
Si Si7 0.114977 0.195163 0.693065
O O1 0.039650 0.784716 0.303714
O O2 0.317318 0.807770 0.291304
O O3 0.858400 0.890357 0.516980
O O4 0.154192 0.187990 0.306037
O O5 0.443852 0.951574 0.776120
O O6 0.554676 0.155658 0.597533
O O7 0.522719 0.654286 0.622039
O O8 0.458104 0.506332 0.126707
O O9 0.759717 0.792745 0.034926
O O10 0.976411 0.128713 0.834559
O O11 0.784096 0.779220 0.868238
O O12 0.534042 0.068015 0.059649
O O13 0.259801 0.969796 0.590671
O O14 0.697164 0.893583 0.375077
#
# Coordination Sequence:
#
# PCOD9117404 Si02
#       7
#     2   2   2   2   2   2   2
#     4  10  23  36  69 104 139 183 234 295 366 428
#     4  11  27  45  68 104 152 193 237 287 366 440
#     4  11  25  40  65 104 148 191 225 291 368 456
#     4  11  21  38  67 102 142 184 233 298 364 430
#     4  11  26  47  73 106 138 190 249 310 351 419
#     4  11  20  38  60 106 140 174 233 288 370 433
#     4  11  22  46  74 106 135 183 247 315 361 402
#
# _framework density 24.664251
#
# number of rings (size 3 to 8) (size 9 to 14) (size 15 to 20)
#    0.000    1.143    2.857    3.429    8.000    1.143 
#    0.000    0.000    3.143    0.000    0.000    0.000 
#    0.000    0.000    0.000    0.000    0.000    0.000 
#
# Total GULP energy -78291.755988 kJ/mol
# GULP energy per Si atom -5592.268285 kJ/mol
# Density = 2.460811 g / cm^3
# Si number density = 24.664251 Si / 1000 Ang^3
#
#
#
# Elastic Constant Matrix: (Units=GPa)
#
#
# Indices 1 2 3 4 5 6 
#
# 1 45.5761 25.0562 32.5255 0.0000 1.1652 0.0000
# 2 25.0562 96.4283 27.9251 0.0000 3.9932 0.0000
# 3 32.5255 27.9251 115.1332 0.0000 16.4361 0.0000
# 4 0.0000 0.0000 0.0000 45.2723 0.0000 8.3550
# 5 1.1652 3.9932 16.4361 0.0000 25.8859 0.0000
# 6 0.0000 0.0000 0.0000 8.3550 0.0000 40.8790
#
#
#
# Elastic Compliance Matrix: (Units=1/GPa)
#
#
# Indices 1 2 3 4 5 6 
#
# 1 0.030688 -0.005877 -0.007892 0.000000 0.004536 0.000000
# 2 -0.005877 0.012279 -0.001194 0.000000 -0.000872 0.000000
# 3 -0.007892 -0.001194 0.012237 0.000000 -0.007230 0.000000
# 4 0.000000 0.000000 0.000000 0.022954 0.000000 -0.004691
# 5 0.004536 -0.000872 -0.007230 0.000000 0.043152 0.000000
# 6 0.000000 0.000000 0.000000 -0.004691 0.000000 0.025421
#
#
# Mechanical properties :
#
#
# Convention : Reuss Voigt Hill
#
# Bulk Modulus (GPa) = 39.55673 47.57235 43.56454
# Shear Modulus (GPa) = 27.01502 33.84947 30.43224
#
# Velocity S-wave (km/s) = 3.31314 3.70862 3.51645
# Velocity P-wave (km/s) = 5.54155 6.13746 5.84710
#
# Compressibility (1/GPa) = 0.02528015
#
# Stress axis : x y z
#
# Youngs Moduli (GPa) = 32.58601 81.43883 81.72123
#
# Poissons Ratio (x) = 0.47858 0.64492
# Poissons Ratio (y) = 0.19149 0.09755
# Poissons Ratio (z) = 0.25716 0.09721
#
# Static dielectric constant tensor:
#      x y z
#    x 1.958970 0.000000 0.027480 
#    y 0.000000 2.025770 0.000000 
#    z 0.027480 0.000000 1.954060 
# 
# From -- ./inp_files/12727.got.cif
#   From: 2010.05.17/outbox.cif.g08.bks.cpg/sg4_7_cif.got.tgz:12727.got - 2010.06.03 18:43:04.
