data_PCOD9117872
_publ_section_title
;
Structure prediction by ZEFSAII (Michael W. Deem and Ramdas Pophale) SiO2 
 PCOD9117872
Probable space group: P 21
;
_chemical_formula_sum "Si O2"
_cell_formula_units_Z 14
_cell_length_a 8.049591
_cell_length_b 4.981380
_cell_length_c 12.864984
_cell_angle_alpha 90.000000
_cell_angle_beta 84.748102
_cell_angle_gamma 90.000000
_cell_volume 513.695411
_symmetry_space_group_name_H-M "P 21"
_symmetry_group_IT_number 4
_symmetry_cell_setting 'monoclinic'
loop_
_space_group_symop_operation_xyz
x,y,z
-x,1/2+y,-z
loop_
_atom_site_type_symbol
_atom_site_label
_atom_site_fract_x
_atom_site_fract_y
_atom_site_fract_z
Si Si1 0.651636 0.236750 0.934272
Si Si2 0.777313 0.863726 0.759160
Si Si3 0.856000 0.329917 0.247281
Si Si4 0.898281 0.599081 0.022834
Si Si5 0.555646 0.056199 0.172322
Si Si6 0.708162 0.688403 0.434346
Si Si7 0.690764 0.190627 0.565423
O O1 0.501567 0.260565 0.858960
O O2 0.770729 0.039640 0.864813
O O3 0.752021 0.510794 0.952576
O O4 0.591784 0.157423 0.052109
O O5 0.609690 0.685416 0.767852
O O6 0.767157 0.073424 0.665173
O O7 0.957280 0.721421 0.745807
O O8 0.856413 0.490676 0.138570
O O9 0.710714 0.110787 0.237130
O O10 0.808599 0.543402 0.338042
O O11 0.951232 0.906766 0.025741
O O12 0.745937 0.988869 0.469375
O O13 0.511119 0.673894 0.417474
O O14 0.733900 0.493045 0.532471
#
# Coordination Sequence:
#
# PCOD9117872 Si02
#       7
#     2   2   2   2   2   2   2
#     4  11  24  41  73  99 156 197 253 295 379 446
#     4  12  24  46  69 108 140 197 241 312 367 453
#     4  11  25  45  73 104 148 188 251 298 383 430
#     4  11  24  45  68 110 152 196 241 307 360 448
#     4  11  24  45  66 107 143 201 241 307 361 457
#     4  10  23  48  69 107 134 192 239 317 366 445
#     4  10  24  44  76  97 145 181 252 302 378 439
#
# _framework density 27.253502000000001
#
# number of rings (size 3 to 8) (size 9 to 14) (size 15 to 20)
#    0.000    1.143    4.286    0.857    2.000    3.429 
#    2.571    0.000    0.000    0.000    0.000    0.000 
#    0.000    0.000    0.000    0.000    0.000    0.000 
#
# Total GULP energy -78494.563685 kJ/mol
# GULP energy per Si atom -5606.754549 kJ/mol
# Density = 2.719147 g / cm^3
# Si number density = 27.253502 Si / 1000 Ang^3
#
#
#
# Elastic Constant Matrix: (Units=GPa)
#
#
# Indices 1 2 3 4 5 6 
#
# 1 160.0320 23.2935 20.2778 0.0000 6.9717 0.0000
# 2 23.2935 70.5088 5.9735 0.0000 1.8937 0.0000
# 3 20.2778 5.9735 110.1092 0.0000 -0.7734 0.0000
# 4 0.0000 0.0000 0.0000 35.7996 0.0000 1.5757
# 5 6.9717 1.8937 -0.7734 0.0000 39.8999 0.0000
# 6 0.0000 0.0000 0.0000 1.5757 0.0000 35.8270
#
#
#
# Elastic Compliance Matrix: (Units=1/GPa)
#
#
# Indices 1 2 3 4 5 6 
#
# 1 0.006747 -0.002103 -0.001136 0.000000 -0.001101 0.000000
# 2 -0.002103 0.014923 -0.000425 0.000000 -0.000349 0.000000
# 3 -0.001136 -0.000425 0.009317 0.000000 0.000399 0.000000
# 4 0.000000 0.000000 0.000000 0.027987 0.000000 -0.001231
# 5 -0.001101 -0.000349 0.000399 0.000000 0.025279 0.000000
# 6 0.000000 0.000000 0.000000 -0.001231 0.000000 0.027966
#
#
# Mechanical properties :
#
#
# Convention : Reuss Voigt Hill
#
# Bulk Modulus (GPa) = 42.26779 48.85996 45.56387
# Shear Modulus (GPa) = 39.23616 41.71233 40.47424
#
# Velocity S-wave (km/s) = 3.79842 3.91644 3.85788
# Velocity P-wave (km/s) = 5.89747 6.19825 6.04973
#
# Compressibility (1/GPa) = 0.02365868
#
# Stress axis : x y z
#
# Youngs Moduli (GPa) = 148.21861 67.01178 107.33107
#
# Poissons Ratio (x) = 0.14093 0.12194
# Poissons Ratio (y) = 0.31171 0.04558
# Poissons Ratio (z) = 0.16840 0.02846
#
# Static dielectric constant tensor:
#      x y z
#    x 2.210230 0.000000 -0.028220 
#    y 0.000000 2.130360 0.000000 
#    z -0.028220 0.000000 2.083870 
# 
# From -- ./inp_files/10729.got.cif
#   From: 2010.05.17/outbox.cif.g08.bks.cpg/sg4_6_cif.got.tgz:10729.got - 2010.06.03 18:43:04.
