data_PCOD9117122
_publ_section_title
;
Structure prediction by ZEFSAII (Michael W. Deem and Ramdas Pophale) SiO2 
 PCOD9117122
Probable space group: P 21
;
_chemical_formula_sum "Si O2"
_cell_formula_units_Z 14
_cell_length_a 7.836599
_cell_length_b 8.219426
_cell_length_c 15.249089
_cell_angle_alpha 90.000000
_cell_angle_beta 34.931392
_cell_angle_gamma 90.000000
_cell_volume 562.419893
_symmetry_space_group_name_H-M "P 21"
_symmetry_group_IT_number 4
_symmetry_cell_setting 'monoclinic'
loop_
_space_group_symop_operation_xyz
x,y,z
-x,1/2+y,-z
loop_
_atom_site_type_symbol
_atom_site_label
_atom_site_fract_x
_atom_site_fract_y
_atom_site_fract_z
Si Si1 0.767753 0.145670 0.633256
Si Si2 0.403858 0.278304 0.927363
Si Si3 0.316040 0.316031 0.705866
Si Si4 0.202833 0.600089 0.106956
Si Si5 0.766152 0.774569 0.691645
Si Si6 0.770170 0.159969 0.174547
Si Si7 0.221308 0.837643 0.642107
O O1 0.682022 0.273093 0.744882
O O2 0.510740 0.174498 0.669557
O O3 0.071582 0.187493 0.457766
O O4 0.774001 0.966844 0.669689
O O5 0.513003 0.165127 0.960791
O O6 0.306771 0.455920 0.999167
O O7 0.116576 0.189636 0.007325
O O8 0.315941 0.476909 0.765127
O O9 0.487331 0.350734 0.541896
O O10 0.977875 0.258969 0.844249
O O11 0.944323 0.508894 0.272621
O O12 0.427608 0.722411 0.822666
O O13 0.967001 0.741595 0.692561
O O14 0.720419 0.259221 0.287319
#
# Coordination Sequence:
#
# PCOD9117122 Si02
#       7
#     2   2   2   2   2   2   2
#     4  11  24  45  70 104 140 188 240 298 365 420
#     4  11  25  46  68 103 143 192 233 295 363 433
#     4  11  24  43  69 107 140 188 242 297 362 422
#     4  11  23  47  69 102 147 188 245 291 362 432
#     4  11  23  46  72 104 145 182 247 302 351 431
#     4  11  25  44  69 105 143 190 241 289 367 424
#     4  10  22  43  73 101 138 192 242 304 352 420
#
# _framework density 24.892431999999999
#
# number of rings (size 3 to 8) (size 9 to 14) (size 15 to 20)
#    0.000    1.143    1.429    5.143    2.000    3.429 
#   23.143    0.000    0.000    0.000    0.000    0.000 
#    0.000    0.000    0.000    0.000    0.000    0.000 
#
# Total GULP energy -78378.982712 kJ/mol
# GULP energy per Si atom -5598.498765 kJ/mol
# Density = 2.483578 g / cm^3
# Si number density = 24.892432 Si / 1000 Ang^3
#
#
#
# Elastic Constant Matrix: (Units=GPa)
#
#
# Indices 1 2 3 4 5 6 
#
# 1 57.8407 20.4392 20.3808 0.0000 -23.8317 0.0000
# 2 20.4392 94.7823 22.7060 0.0000 -1.4209 0.0000
# 3 20.3808 22.7060 109.1544 0.0000 2.7520 0.0000
# 4 0.0000 0.0000 0.0000 30.0617 0.0000 -8.4002
# 5 -23.8317 -1.4209 2.7520 0.0000 46.4532 0.0000
# 6 0.0000 0.0000 0.0000 -8.4002 0.0000 40.2334
#
#
#
# Elastic Compliance Matrix: (Units=1/GPa)
#
#
# Indices 1 2 3 4 5 6 
#
# 1 0.025837 -0.004351 -0.004256 0.000000 0.013374 0.000000
# 2 -0.004351 0.011847 -0.001607 0.000000 -0.001775 0.000000
# 3 -0.004256 -0.001607 0.010362 0.000000 -0.002847 0.000000
# 4 0.000000 0.000000 0.000000 0.035326 0.000000 0.007376
# 5 0.013374 -0.001775 -0.002847 0.000000 0.028503 0.000000
# 6 0.000000 0.000000 0.000000 0.007376 0.000000 0.026395
#
#
# Mechanical properties :
#
#
# Convention : Reuss Voigt Hill
#
# Bulk Modulus (GPa) = 36.21030 43.20329 39.70680
# Shear Modulus (GPa) = 29.77891 36.56643 33.17267
#
# Velocity S-wave (km/s) = 3.46251 3.83688 3.65450
# Velocity P-wave (km/s) = 5.52844 6.08462 5.81318
#
# Compressibility (1/GPa) = 0.02761645
#
# Stress axis : x y z
#
# Youngs Moduli (GPa) = 38.70491 84.40770 96.50542
#
# Poissons Ratio (x) = 0.36729 0.41074
# Poissons Ratio (y) = 0.16842 0.15510
# Poissons Ratio (z) = 0.16473 0.13566
#
# Static dielectric constant tensor:
#      x y z
#    x 2.027330 0.000000 0.033650 
#    y 0.000000 1.911560 0.000000 
#    z 0.033650 0.000000 1.978940 
# 
# From -- ./inp_files/5368.got.cif
#   From: 2010.05.17/outbox.cif.g08.bks.cpg/sg4_3_cif.got.tgz:5368.got - 2010.06.03 18:43:04.
