data_PCOD9117806
_publ_section_title
;
Structure prediction by ZEFSAII (Michael W. Deem and Ramdas Pophale) SiO2 
 PCOD9117806
Probable space group: P 21
;
_chemical_formula_sum "Si O2"
_cell_formula_units_Z 16
_cell_length_a 11.520919
_cell_length_b 12.035251
_cell_length_c 9.184113
_cell_angle_alpha 90.000000
_cell_angle_beta 143.028013
_cell_angle_gamma 90.000000
_cell_volume 765.879769
_symmetry_space_group_name_H-M "P 21"
_symmetry_group_IT_number 4
_symmetry_cell_setting 'monoclinic'
loop_
_space_group_symop_operation_xyz
x,y,z
-x,1/2+y,-z
loop_
_atom_site_type_symbol
_atom_site_label
_atom_site_fract_x
_atom_site_fract_y
_atom_site_fract_z
Si Si1 0.459713 0.744130 0.530403
Si Si2 0.241727 0.417692 0.064202
Si Si3 0.711138 0.112387 0.392506
Si Si4 0.823584 0.904187 0.338280
Si Si5 0.849219 0.434718 0.835422
Si Si6 0.428193 0.094571 0.602734
Si Si7 0.604403 0.674412 0.105584
Si Si8 0.880115 0.527581 0.190262
O O1 0.623814 0.809124 0.784779
O O2 0.384999 0.639925 0.549974
O O3 0.282232 0.826499 0.321988
O O4 0.548306 0.705083 0.467684
O O5 0.384536 0.519272 0.240254
O O6 0.170169 0.430993 0.826739
O O7 0.066191 0.413283 0.000602
O O8 0.942084 0.116428 0.641517
O O9 0.690637 0.991271 0.296404
O O10 0.606659 0.196033 0.175787
O O11 0.733792 0.782891 0.258656
O O12 0.030119 0.929337 0.619229
O O13 0.756979 0.528912 0.640434
O O14 0.838201 0.478643 0.989645
O O15 0.417236 0.116784 0.761383
O O16 0.709102 0.591169 0.098244
#
# Coordination Sequence:
#
# PCOD9117806 Si02
#       8
#     2   2   2   2   2   2   2   2
#     4  11  25  43  72  99 137 185 234 289 364 413
#     4  11  23  45  65 100 134 181 234 287 349 424
#     4  10  23  46  68  98 137 184 231 299 340 418
#     4  10  24  44  67 101 135 178 239 285 338 429
#     4  11  26  44  70  99 143 183 231 297 354 423
#     4  11  25  43  66 102 137 180 228 290 351 428
#     4  12  23  45  73  97 141 186 235 294 353 409
#     4  10  25  46  65 104 136 185 230 291 351 420
#
# _framework density 20.891006999999998
#
# number of rings (size 3 to 8) (size 9 to 14) (size 15 to 20)
#    0.750    0.500    2.500    2.250    3.500    4.000 
#    6.750    0.000    0.000    0.000    0.000    0.000 
#    0.000    0.000    0.000    0.000    0.000    0.000 
#
# Total GULP energy -89338.956598 kJ/mol
# GULP energy per Si atom -5583.684787 kJ/mol
# Density = 2.084346 g / cm^3
# Si number density = 20.891007 Si / 1000 Ang^3
#
#
#
# Elastic Constant Matrix: (Units=GPa)
#
#
# Indices 1 2 3 4 5 6 
#
# 1 117.1992 48.6395 42.1187 0.0000 -18.5769 0.0000
# 2 48.6395 60.3313 4.7855 0.0000 -0.4529 0.0000
# 3 42.1187 4.7855 74.6691 0.0000 -19.1086 0.0000
# 4 0.0000 0.0000 0.0000 19.1614 0.0000 -8.7086
# 5 -18.5769 -0.4529 -19.1086 0.0000 38.4451 0.0000
# 6 0.0000 0.0000 0.0000 -8.7086 0.0000 33.3882
#
#
#
# Elastic Compliance Matrix: (Units=1/GPa)
#
#
# Indices 1 2 3 4 5 6 
#
# 1 0.017799 -0.013680 -0.008024 0.000000 0.004451 0.000000
# 2 -0.013680 0.027179 0.005001 0.000000 -0.003804 0.000000
# 3 -0.008024 0.005001 0.019043 0.000000 0.005647 0.000000
# 4 0.000000 0.000000 0.000000 0.059207 0.000000 0.015443
# 5 0.004451 -0.003804 0.005647 0.000000 0.030924 0.000000
# 6 0.000000 0.000000 0.000000 0.015443 0.000000 0.033979
#
#
# Mechanical properties :
#
#
# Convention : Reuss Voigt Hill
#
# Bulk Modulus (GPa) = 32.66380 49.25412 40.95896
# Shear Modulus (GPa) = 21.57582 28.64267 25.10925
#
# Velocity S-wave (km/s) = 3.21718 3.70679 3.47063
# Velocity P-wave (km/s) = 5.42859 6.47675 5.97569
#
# Compressibility (1/GPa) = 0.03061494
#
# Stress axis : x y z
#
# Youngs Moduli (GPa) = 56.18283 36.79353 52.51239
#
# Poissons Ratio (x) = 0.50333 0.42136
# Poissons Ratio (y) = 0.76857 -0.26261
# Poissons Ratio (z) = 0.45081 -0.18400
#
# Static dielectric constant tensor:
#      x y z
#    x 1.723940 0.000000 0.015250 
#    y 0.000000 1.749020 0.000000 
#    z 0.015250 0.000000 1.752660 
# 
# From -- ./inp_files/8402.got.cif
#   From: 2010.05.17/outbox.cif.g08.bks.cpg/sg4_5_cif.got.tgz:8402.got - 2010.06.03 18:43:04.
