data_PCOD9117277
_publ_section_title
;
Structure prediction by ZEFSAII (Michael W. Deem and Ramdas Pophale) SiO2 
 PCOD9117277
Probable space group: P 21
;
_chemical_formula_sum "Si O2"
_cell_formula_units_Z 12
_cell_length_a 7.964874
_cell_length_b 4.863399
_cell_length_c 12.275567
_cell_angle_alpha 90.000000
_cell_angle_beta 63.703898
_cell_angle_gamma 90.000000
_cell_volume 426.303299
_symmetry_space_group_name_H-M "P 21"
_symmetry_group_IT_number 4
_symmetry_cell_setting 'monoclinic'
loop_
_space_group_symop_operation_xyz
x,y,z
-x,1/2+y,-z
loop_
_atom_site_type_symbol
_atom_site_label
_atom_site_fract_x
_atom_site_fract_y
_atom_site_fract_z
Si Si1 0.355612 0.719890 0.207781
Si Si2 0.346122 0.999997 0.035414
Si Si3 0.962835 0.830032 0.783894
Si Si4 0.076034 0.508099 0.537773
Si Si5 0.671340 0.382523 0.201457
Si Si6 0.455486 0.164927 0.443666
O O1 0.168461 0.557523 0.235987
O O2 0.499971 0.602441 0.249177
O O3 0.331144 0.030044 0.179778
O O4 0.471871 0.692910 0.053149
O O5 0.154666 0.188483 0.086170
O O6 0.302825 0.832245 0.933513
O O7 0.039146 0.623879 0.668496
O O8 0.142563 0.969668 0.789690
O O9 0.260376 0.320377 0.479361
O O10 0.922399 0.284868 0.537716
O O11 0.580577 0.143664 0.300104
O O12 0.564081 0.375301 0.492359
#
# Coordination Sequence:
#
# PCOD9117277 Si02
#       6
#     2   2   2   2   2   2
#     4  10  22  45  69 106 151 191 244 313 384 455
#     4  10  23  44  72 109 148 194 247 313 384 455
#     4  12  25  47  73 112 146 199 260 309 387 469
#     4  12  29  50  81 115 152 206 261 329 387 462
#     4  10  25  47  71 111 146 204 249 323 379 467
#     4  12  26  53  76 113 155 200 265 323 387 460
#
# _framework density 28.148973000000002
#
# number of rings (size 3 to 8) (size 9 to 14) (size 15 to 20)
#    1.000    0.000    3.333    2.000    7.000    0.000 
#    6.000    0.000    0.000    0.000    0.000    0.000 
#    0.000    0.000    0.000    0.000    0.000    0.000 
#
# Total GULP energy -66964.982439 kJ/mol
# GULP energy per Si atom -5580.415203 kJ/mol
# Density = 2.808490 g / cm^3
# Si number density = 28.148973 Si / 1000 Ang^3
#
#
#
# Elastic Constant Matrix: (Units=GPa)
#
#
# Indices 1 2 3 4 5 6 
#
# 1 202.9160 45.4868 45.7148 0.0000 1.0738 0.0000
# 2 45.4868 110.5010 30.1392 0.0000 22.0593 0.0000
# 3 45.7148 30.1392 128.8078 0.0000 13.8205 0.0000
# 4 0.0000 0.0000 0.0000 40.7922 0.0000 13.1088
# 5 1.0738 22.0593 13.8205 0.0000 40.8175 0.0000
# 6 0.0000 0.0000 0.0000 13.1088 0.0000 44.6915
#
#
#
# Elastic Compliance Matrix: (Units=1/GPa)
#
#
# Indices 1 2 3 4 5 6 
#
# 1 0.005810 -0.002253 -0.001711 0.000000 0.001644 0.000000
# 2 -0.002253 0.011463 -0.001270 0.000000 -0.005705 0.000000
# 3 -0.001711 -0.001270 0.008913 0.000000 -0.002286 0.000000
# 4 0.000000 0.000000 0.000000 0.027066 0.000000 -0.007939
# 5 0.001644 -0.005705 -0.002286 0.000000 0.028314 0.000000
# 6 0.000000 0.000000 0.000000 -0.007939 0.000000 0.024704
#
#
# Mechanical properties :
#
#
# Convention : Reuss Voigt Hill
#
# Bulk Modulus (GPa) = 63.62638 76.10068 69.86353
# Shear Modulus (GPa) = 40.99104 46.65251 43.82177
#
# Velocity S-wave (km/s) = 3.82018 4.07546 3.94989
# Velocity P-wave (km/s) = 6.48929 7.01709 6.75834
#
# Compressibility (1/GPa) = 0.01571675
#
# Stress axis : x y z
#
# Youngs Moduli (GPa) = 172.11546 87.24004 112.19075
#
# Poissons Ratio (x) = 0.19657 0.19199
# Poissons Ratio (y) = 0.38780 0.14251
# Poissons Ratio (z) = 0.29453 0.11082
#
# Static dielectric constant tensor:
#      x y z
#    x 2.343800 0.000000 -0.090630 
#    y 0.000000 2.201050 0.000000 
#    z -0.090630 0.000000 2.522550 
# 
# From -- ./inp_files/9334.got.cif
#   From: 2010.05.17/outbox.cif.g08.bks.cpg/sg4_5_cif.got.tgz:9334.got - 2010.06.03 18:43:04.
