data_PCOD9117129
_publ_section_title
;
Structure prediction by ZEFSAII (Michael W. Deem and Ramdas Pophale) SiO2 
 PCOD9117129
Probable space group: P 21
;
_chemical_formula_sum "Si O2"
_cell_formula_units_Z 14
_cell_length_a 5.478829
_cell_length_b 11.827913
_cell_length_c 8.987286
_cell_angle_alpha 90.000000
_cell_angle_beta 78.885441
_cell_angle_gamma 90.000000
_cell_volume 571.480369
_symmetry_space_group_name_H-M "P 21"
_symmetry_group_IT_number 4
_symmetry_cell_setting 'monoclinic'
loop_
_space_group_symop_operation_xyz
x,y,z
-x,1/2+y,-z
loop_
_atom_site_type_symbol
_atom_site_label
_atom_site_fract_x
_atom_site_fract_y
_atom_site_fract_z
Si Si1 0.893335 0.724600 0.694934
Si Si2 0.676051 0.866075 0.212489
Si Si3 0.771910 0.247215 0.861011
Si Si4 0.575372 0.865330 0.551384
Si Si5 0.144149 0.594502 0.420215
Si Si6 0.052155 0.578999 0.925382
Si Si7 0.874999 0.452740 0.233821
O O1 0.688714 0.748606 0.595529
O O2 0.112121 0.679137 0.561061
O O3 0.869440 0.631887 0.824702
O O4 0.936923 0.847580 0.763713
O O5 0.475863 0.823260 0.114416
O O6 0.522366 0.854805 0.383840
O O7 0.950597 0.804204 0.194692
O O8 0.754546 0.993459 0.169654
O O9 0.724258 0.156607 0.733608
O O10 0.805028 0.181006 0.010773
O O11 0.380260 0.894756 0.700333
O O12 0.748520 0.976828 0.533510
O O13 0.902361 0.547220 0.359769
O O14 0.912199 0.510530 0.071815
#
# Coordination Sequence:
#
# PCOD9117129 Si02
#       7
#     2   2   2   2   2   2   2
#     4  11  22  48  74 107 151 200 259 313 391 453
#     4  12  26  50  81 114 152 202 266 314 378 470
#     4  11  27  49  77 112 157 201 252 322 387 451
#     4  11  24  44  79 112 146 202 267 321 370 468
#     4  10  22  43  76 109 146 199 251 322 384 449
#     4  11  26  52  73 111 159 206 250 321 399 458
#     4  10  25  46  68 111 155 192 265 317 381 467
#
# _framework density 24.497779999999999
#
# number of rings (size 3 to 8) (size 9 to 14) (size 15 to 20)
#    0.000    1.143    2.857    1.714    6.000    2.286 
#   20.571    0.000    0.000    0.000    0.000    0.000 
#    0.000    0.000    0.000    0.000    0.000    0.000 
#
# Total GULP energy -78161.144437 kJ/mol
# GULP energy per Si atom -5582.938888 kJ/mol
# Density = 2.444202 g / cm^3
# Si number density = 24.497780 Si / 1000 Ang^3
#
#
#
# Elastic Constant Matrix: (Units=GPa)
#
#
# Indices 1 2 3 4 5 6 
#
# 1 42.6892 -11.7342 -12.1832 0.0000 -18.3284 0.0000
# 2 -11.7342 28.5240 -25.3637 0.0000 -11.7915 0.0000
# 3 -12.1832 -25.3637 51.3367 0.0000 -12.6822 0.0000
# 4 0.0000 0.0000 0.0000 59.4864 0.0000 11.7185
# 5 -18.3284 -11.7915 -12.6822 0.0000 8.2329 0.0000
# 6 0.0000 0.0000 0.0000 11.7185 0.0000 8.5746
#
#
#
# Elastic Compliance Matrix: (Units=1/GPa)
#
#
# Indices 1 2 3 4 5 6 
#
# 1 0.007570 -0.014732 -0.010544 0.000000 -0.020489 0.000000
# 2 -0.014732 0.007812 -0.008030 0.000000 -0.033976 0.000000
# 3 -0.010544 -0.008030 0.007055 0.000000 -0.024106 0.000000
# 4 0.000000 0.000000 0.000000 0.023004 0.000000 -0.031438
# 5 -0.020489 -0.033976 -0.024106 0.000000 -0.009947 0.000000
# 6 0.000000 0.000000 0.000000 -0.031438 0.000000 0.159589
#
#
# Mechanical properties :
#
#
# Convention : Reuss Voigt Hill
#
# Bulk Modulus (GPa) = -22.63802 2.66531 -9.98636
# Shear Modulus (GPa) = 20.24545 26.71417 23.47981
#
# Velocity S-wave (km/s) = 2.87787 3.30581 3.09924
# Velocity P-wave (km/s) = 1.33490 3.95747 2.95326
#
# Compressibility (1/GPa) = -0.04417348
#
# Stress axis : x y z
#
# Youngs Moduli (GPa) = 132.10727 128.00002 141.75102
#
# Poissons Ratio (x) = 1.88566 1.49458
# Poissons Ratio (y) = 1.94616 1.13822
# Poissons Ratio (z) = 1.39290 1.02780
#
# Static dielectric constant tensor:
#      x y z
#    x 2.065530 0.000000 0.009460 
#    y 0.000000 1.984750 0.000000 
#    z 0.009460 0.000000 1.896280 
# 
# From -- ./inp_files/1130.got.cif
#   From: 2010.05.17/outbox.cif.g08.bks.cpg/sg4_1_cif.got.tgz:1130.got - 2010.06.03 18:43:04.
