data_PCOD9117257
_publ_section_title
;
Structure prediction by ZEFSAII (Michael W. Deem and Ramdas Pophale) SiO2 
 PCOD9117257
Probable space group: P 21
;
_chemical_formula_sum "Si O2"
_cell_formula_units_Z 16
_cell_length_a 8.325799
_cell_length_b 11.036785
_cell_length_c 10.794948
_cell_angle_alpha 90.000000
_cell_angle_beta 137.183480
_cell_angle_gamma 90.000000
_cell_volume 674.180504
_symmetry_space_group_name_H-M "P 21"
_symmetry_group_IT_number 4
_symmetry_cell_setting 'monoclinic'
loop_
_space_group_symop_operation_xyz
x,y,z
-x,1/2+y,-z
loop_
_atom_site_type_symbol
_atom_site_label
_atom_site_fract_x
_atom_site_fract_y
_atom_site_fract_z
Si Si1 0.739647 0.146210 0.998270
Si Si2 0.039573 0.358510 0.125742
Si Si3 0.879443 0.140343 0.411817
Si Si4 0.296470 0.443677 0.858335
Si Si5 0.791190 0.531077 0.837008
Si Si6 0.632599 0.746795 0.891321
Si Si7 0.362263 0.281554 0.664379
Si Si8 0.691069 0.997517 0.538476
O O1 0.887435 0.266012 0.124960
O O2 0.589657 0.056897 0.002185
O O3 0.565244 0.182847 0.790239
O O4 0.960343 0.069470 0.077431
O O5 0.260296 0.301609 0.175978
O O6 0.147749 0.475821 0.252619
O O7 0.847586 0.396644 0.914161
O O8 0.649726 0.226832 0.258563
O O9 0.113388 0.217950 0.547491
O O10 0.898340 0.029798 0.322092
O O11 0.826157 0.076138 0.512514
O O12 0.405737 0.375680 0.802643
O O13 0.274280 0.333707 0.945510
O O14 0.723213 0.609667 0.919931
O O15 0.578634 0.543927 0.618683
O O16 0.341279 0.360262 0.530296
#
# Coordination Sequence:
#
# PCOD9117257 Si02
#       8
#     2   2   2   2   2   2   2   2
#     4  11  23  42  68 102 134 178 229 274 345 404
#     4  11  22  44  74  96 136 178 224 293 336 405
#     4  10  24  44  62 101 137 179 232 274 339 419
#     4  11  23  41  68  97 134 182 223 279 337 415
#     4  10  22  45  67  99 135 173 230 285 340 402
#     4  10  23  44  64 100 132 175 232 282 345 396
#     4  11  24  42  65  98 142 184 221 280 338 407
#     4  10  23  44  68  97 136 177 229 283 338 398
#
# _framework density 23.732516
#
# number of rings (size 3 to 8) (size 9 to 14) (size 15 to 20)
#    0.000    1.500    2.500    1.500    1.750    4.000 
#    9.000    0.000    0.000    0.000    0.000    0.000 
#    0.000    0.000    0.000    0.000    0.000    0.000 
#
# Total GULP energy -89092.458736 kJ/mol
# GULP energy per Si atom -5568.278671 kJ/mol
# Density = 2.367850 g / cm^3
# Si number density = 23.732516 Si / 1000 Ang^3
#
#
#
# Elastic Constant Matrix: (Units=GPa)
#
#
# Indices 1 2 3 4 5 6 
#
# 1 73.7826 17.3910 37.3168 0.0000 19.1140 0.0000
# 2 17.3910 69.5523 28.9670 0.0000 16.5953 0.0000
# 3 37.3168 28.9670 83.6034 0.0000 23.1361 0.0000
# 4 0.0000 0.0000 0.0000 37.8638 0.0000 -2.0575
# 5 19.1140 16.5953 23.1361 0.0000 34.3411 0.0000
# 6 0.0000 0.0000 0.0000 -2.0575 0.0000 36.4746
#
#
#
# Elastic Compliance Matrix: (Units=1/GPa)
#
#
# Indices 1 2 3 4 5 6 
#
# 1 0.018414 -0.000571 -0.006467 0.000000 -0.005616 0.000000
# 2 -0.000571 0.017598 -0.004397 0.000000 -0.005224 0.000000
# 3 -0.006467 -0.004397 0.018176 0.000000 -0.006521 0.000000
# 4 0.000000 0.000000 0.000000 0.026492 0.000000 0.001494
# 5 -0.005616 -0.005224 -0.006521 0.000000 0.039163 0.000000
# 6 0.000000 0.000000 0.000000 0.001494 0.000000 0.027501
#
#
# Mechanical properties :
#
#
# Convention : Reuss Voigt Hill
#
# Bulk Modulus (GPa) = 31.93038 43.80977 37.87008
# Shear Modulus (GPa) = 27.67750 31.28680 29.48215
#
# Velocity S-wave (km/s) = 3.41871 3.63479 3.52841
# Velocity P-wave (km/s) = 5.39138 6.00962 5.70887
#
# Compressibility (1/GPa) = 0.03131813
#
# Stress axis : x y z
#
# Youngs Moduli (GPa) = 54.30777 56.82425 55.01792
#
# Poissons Ratio (x) = 0.03243 0.35580
# Poissons Ratio (y) = 0.03100 0.24191
# Poissons Ratio (z) = 0.35121 0.24985
#
# Static dielectric constant tensor:
#      x y z
#    x 1.954970 0.000000 -0.042230 
#    y 0.000000 2.005170 0.000000 
#    z -0.042230 0.000000 1.903430 
# 
# From -- ./inp_files/10554.got.cif
#   From: 2010.05.17/outbox.cif.g08.bks.cpg/sg4_6_cif.got.tgz:10554.got - 2010.06.03 18:43:04.
