data_PCOD9117574
_publ_section_title
;
Structure prediction by ZEFSAII (Michael W. Deem and Ramdas Pophale) SiO2 
 PCOD9117574
Probable space group: P 21
;
_chemical_formula_sum "Si O2"
_cell_formula_units_Z 16
_cell_length_a 17.178165
_cell_length_b 6.838368
_cell_length_c 9.063455
_cell_angle_alpha 90.000000
_cell_angle_beta 135.597587
_cell_angle_gamma 90.000000
_cell_volume 744.956333
_symmetry_space_group_name_H-M "P 21"
_symmetry_group_IT_number 4
_symmetry_cell_setting 'monoclinic'
loop_
_space_group_symop_operation_xyz
x,y,z
-x,1/2+y,-z
loop_
_atom_site_type_symbol
_atom_site_label
_atom_site_fract_x
_atom_site_fract_y
_atom_site_fract_z
Si Si1 0.293964 0.734650 0.837876
Si Si2 0.810584 0.628833 0.741162
Si Si3 0.611086 0.530717 0.253183
Si Si4 0.039238 0.812137 0.730502
Si Si5 0.608555 0.833776 0.984833
Si Si6 0.267091 0.018720 0.046162
Si Si7 0.948193 0.182781 0.570308
Si Si8 0.042811 0.460659 0.945130
O O1 0.305821 0.505012 0.862618
O O2 0.172024 0.777627 0.610543
O O3 0.367352 0.841212 0.817637
O O4 0.316961 0.828253 0.030372
O O5 0.720880 0.596243 0.490922
O O6 0.925627 0.506540 0.868964
O O7 0.743210 0.556517 0.794510
O O8 0.859481 0.848933 0.834467
O O9 0.589642 0.699899 0.103488
O O10 0.504145 0.458371 0.202958
O O11 0.014140 0.688906 0.549875
O O12 0.072009 0.664966 0.904455
O O13 0.137217 0.970714 0.836244
O O14 0.939338 0.962296 0.619532
O O15 0.667232 0.696779 0.941857
O O16 0.016383 0.312174 0.776301
#
# Coordination Sequence:
#
# PCOD9117574 Si02
#       8
#     2   2   2   2   2   2   2   2
#     4  10  23  42  75  99 134 187 232 302 346 409
#     4  12  27  48  68 104 151 193 231 288 363 438
#     4  11  24  48  74 107 136 179 248 295 359 421
#     4  11  23  40  66 106 142 186 242 285 349 420
#     4  11  24  47  76 103 135 183 243 308 352 409
#     4  10  25  44  66 103 143 182 239 284 356 429
#     4  11  22  37  69 102 140 184 238 288 347 417
#     4  12  26  44  66 102 153 194 233 292 352 443
#
# _framework density 21.477768999999999
#
# number of rings (size 3 to 8) (size 9 to 14) (size 15 to 20)
#    0.000    1.000    5.000    0.750    7.000    0.000 
#    4.500    0.000    0.000    0.000    0.000    0.000 
#    0.000    0.000    0.000    0.000    0.000    0.000 
#
# Total GULP energy -89098.820931 kJ/mol
# GULP energy per Si atom -5568.676308 kJ/mol
# Density = 2.142888 g / cm^3
# Si number density = 21.477769 Si / 1000 Ang^3
#
#
#
# Elastic Constant Matrix: (Units=GPa)
#
#
# Indices 1 2 3 4 5 6 
#
# 1 102.5995 38.0078 46.2618 0.0000 -8.0946 0.0000
# 2 38.0078 100.6646 26.4931 0.0000 -15.7899 0.0000
# 3 46.2618 26.4931 67.8102 0.0000 -3.0936 0.0000
# 4 0.0000 0.0000 0.0000 33.8194 0.0000 5.2850
# 5 -8.0946 -15.7899 -3.0936 0.0000 20.3720 0.0000
# 6 0.0000 0.0000 0.0000 5.2850 0.0000 14.8300
#
#
#
# Elastic Compliance Matrix: (Units=1/GPa)
#
#
# Indices 1 2 3 4 5 6 
#
# 1 0.015103 -0.002956 -0.009042 0.000000 0.002337 0.000000
# 2 -0.002956 0.013109 -0.002714 0.000000 0.008574 0.000000
# 3 -0.009042 -0.002714 0.021868 0.000000 -0.002375 0.000000
# 4 0.000000 0.000000 0.000000 0.031313 0.000000 -0.011159
# 5 0.002337 0.008574 -0.002375 0.000000 0.056300 0.000000
# 6 0.000000 0.000000 0.000000 -0.011159 0.000000 0.071408
#
#
# Mechanical properties :
#
#
# Convention : Reuss Voigt Hill
#
# Bulk Modulus (GPa) = 48.41248 54.73331 51.57289
# Shear Modulus (GPa) = 20.37404 24.49172 22.43288
#
# Velocity S-wave (km/s) = 3.08329 3.38054 3.23533
# Velocity P-wave (km/s) = 5.93846 6.38564 6.16610
#
# Compressibility (1/GPa) = 0.02065583
#
# Stress axis : x y z
#
# Youngs Moduli (GPa) = 66.21100 76.28194 45.72948
#
# Poissons Ratio (x) = 0.22551 0.41350
# Poissons Ratio (y) = 0.19574 0.12410
# Poissons Ratio (z) = 0.59869 0.20701
#
# Static dielectric constant tensor:
#      x y z
#    x 1.890010 0.000000 -0.004160 
#    y 0.000000 1.816710 0.000000 
#    z -0.004160 0.000000 1.780290 
# 
# From -- ./inp_files/9516.got.cif
#   From: 2010.05.17/outbox.cif.g08.bks.cpg/sg4_5_cif.got.tgz:9516.got - 2010.06.03 18:43:04.
