data_PCOD9117639
_publ_section_title
;
Structure prediction by ZEFSAII (Michael W. Deem and Ramdas Pophale) SiO2 
 PCOD9117639
Probable space group: P 21
;
_chemical_formula_sum "Si O2"
_cell_formula_units_Z 16
_cell_length_a 9.879793
_cell_length_b 5.598672
_cell_length_c 13.430902
_cell_angle_alpha 90.000000
_cell_angle_beta 122.608094
_cell_angle_gamma 90.000000
_cell_volume 625.812421
_symmetry_space_group_name_H-M "P 21"
_symmetry_group_IT_number 4
_symmetry_cell_setting 'monoclinic'
loop_
_space_group_symop_operation_xyz
x,y,z
-x,1/2+y,-z
loop_
_atom_site_type_symbol
_atom_site_label
_atom_site_fract_x
_atom_site_fract_y
_atom_site_fract_z
Si Si1 0.915137 0.290420 0.934376
Si Si2 0.738988 0.947786 0.447264
Si Si3 0.650515 0.791406 0.123844
Si Si4 0.571353 0.297009 0.147662
Si Si5 0.170669 0.192061 0.323982
Si Si6 0.034897 0.089704 0.796877
Si Si7 0.038172 0.816511 0.428540
Si Si8 0.392541 0.013564 0.233289
O O1 0.726798 0.341558 0.876877
O O2 0.919903 0.251746 0.816851
O O3 0.009489 0.537332 0.998730
O O4 0.739104 0.872382 0.563297
O O5 0.562385 0.905170 0.335236
O O6 0.892926 0.841471 0.448068
O O7 0.792973 0.226454 0.459757
O O8 0.632068 0.565032 0.189765
O O9 0.792890 0.695268 0.110132
O O10 0.680876 0.054008 0.183361
O O11 0.498610 0.819937 0.991968
O O12 0.440817 0.226292 0.177761
O O13 0.023767 0.323186 0.208040
O O14 0.085126 0.021370 0.370016
O O15 0.299130 0.109189 0.293318
O O16 0.021147 0.118280 0.673497
#
# Coordination Sequence:
#
# PCOD9117639 Si02
#       8
#     2   2   2   2   2   2   2   2
#     4  12  28  50  75 113 163 208 257 320 395 471
#     4  11  26  46  77 108 154 201 262 323 393 471
#     4  10  23  43  71 102 146 194 248 310 372 446
#     4  10  24  44  66 107 147 188 248 315 375 449
#     4  11  26  47  70 109 154 197 257 318 391 465
#     4  11  25  43  75 100 145 203 257 308 383 467
#     4  11  23  48  71 109 145 203 253 316 389 461
#     4  12  27  47  75 116 152 206 258 324 396 466
#
# _framework density 25.566766999999999
#
# number of rings (size 3 to 8) (size 9 to 14) (size 15 to 20)
#    0.000    1.000    2.500    2.250    5.250    5.000 
#    4.500    0.000    0.000    0.000    0.000    0.000 
#    0.000    0.000    0.000    0.000    0.000    0.000 
#
# Total GULP energy -89225.111185 kJ/mol
# GULP energy per Si atom -5576.569449 kJ/mol
# Density = 2.550858 g / cm^3
# Si number density = 25.566767 Si / 1000 Ang^3
#
#
#
# Elastic Constant Matrix: (Units=GPa)
#
#
# Indices 1 2 3 4 5 6 
#
# 1 141.6170 54.3463 24.5475 0.0000 -10.4719 0.0000
# 2 54.3463 125.2615 41.8139 0.0000 4.9752 0.0000
# 3 24.5475 41.8139 72.0852 0.0000 2.8705 0.0000
# 4 0.0000 0.0000 0.0000 42.5473 0.0000 -16.9701
# 5 -10.4719 4.9752 2.8705 0.0000 53.9485 0.0000
# 6 0.0000 0.0000 0.0000 -16.9701 0.0000 43.7103
#
#
#
# Elastic Compliance Matrix: (Units=1/GPa)
#
#
# Indices 1 2 3 4 5 6 
#
# 1 0.008749 -0.003542 -0.001007 0.000000 0.002078 0.000000
# 2 -0.003542 0.011354 -0.005322 0.000000 -0.001451 0.000000
# 3 -0.001007 -0.005322 0.017328 0.000000 -0.000627 0.000000
# 4 0.000000 0.000000 0.000000 0.027810 0.000000 0.010797
# 5 0.002078 -0.001451 -0.000627 0.000000 0.019107 0.000000
# 6 0.000000 0.000000 0.000000 0.010797 0.000000 0.027070
#
#
# Mechanical properties :
#
#
# Convention : Reuss Voigt Hill
#
# Bulk Modulus (GPa) = 56.53721 64.48656 60.51188
# Shear Modulus (GPa) = 36.48133 42.59162 39.53647
#
# Velocity S-wave (km/s) = 3.78154 4.08597 3.93670
# Velocity P-wave (km/s) = 6.42092 6.89476 6.66206
#
# Compressibility (1/GPa) = 0.01768747
#
# Stress axis : x y z
#
# Youngs Moduli (GPa) = 114.29990 88.07203 57.71103
#
# Poissons Ratio (x) = 0.31196 0.05814
# Poissons Ratio (y) = 0.40486 0.30715
# Poissons Ratio (z) = 0.11515 0.46874
#
# Static dielectric constant tensor:
#      x y z
#    x 1.988820 0.000000 0.036430 
#    y 0.000000 2.205610 0.000000 
#    z 0.036430 0.000000 2.076570 
# 
# From -- ./inp_files/13566.got.cif
#   From: 2010.05.17/outbox.cif.g08.bks.cpg/sg4_7_cif.got.tgz:13566.got - 2010.06.03 18:43:04.
