data_PCOD9117411
_publ_section_title
;
Structure prediction by ZEFSAII (Michael W. Deem and Ramdas Pophale) SiO2 
 PCOD9117411
Probable space group: P 21
;
_chemical_formula_sum "Si O2"
_cell_formula_units_Z 14
_cell_length_a 11.838720
_cell_length_b 7.151544
_cell_length_c 12.026655
_cell_angle_alpha 90.000000
_cell_angle_beta 140.870382
_cell_angle_gamma 90.000000
_cell_volume 642.586638
_symmetry_space_group_name_H-M "P 21"
_symmetry_group_IT_number 4
_symmetry_cell_setting 'monoclinic'
loop_
_space_group_symop_operation_xyz
x,y,z
-x,1/2+y,-z
loop_
_atom_site_type_symbol
_atom_site_label
_atom_site_fract_x
_atom_site_fract_y
_atom_site_fract_z
Si Si1 0.668110 0.386590 0.049521
Si Si2 0.581524 0.560059 0.206965
Si Si3 0.917911 0.189662 0.833996
Si Si4 0.675042 0.668298 0.517042
Si Si5 0.432577 0.594972 0.527816
Si Si6 0.038603 0.764005 0.887061
Si Si7 0.316000 0.254439 0.090833
O O1 0.495393 0.255333 0.899357
O O2 0.660232 0.578193 0.973365
O O3 0.684538 0.447527 0.189718
O O4 0.832142 0.274804 0.119725
O O5 0.686582 0.596319 0.400762
O O6 0.413788 0.431909 0.114425
O O7 0.747299 0.217415 0.624948
O O8 0.868305 0.214700 0.925424
O O9 0.968952 0.973823 0.855060
O O10 0.106190 0.290689 0.952997
O O11 0.519900 0.577038 0.472802
O O12 0.861602 0.647629 0.724697
O O13 0.621567 0.889220 0.471225
O O14 0.579691 0.689262 0.718764
#
# Coordination Sequence:
#
# PCOD9117411 Si02
#       7
#     2   2   2   2   2   2   2
#     4  11  24  45  68  94 132 182 235 274 335 402
#     4  12  24  44  71  94 131 183 235 279 333 402
#     4  10  23  38  65 100 140 171 217 276 346 406
#     4  11  23  40  66 102 138 177 223 282 343 407
#     4  11  22  40  65 105 144 172 220 282 347 412
#     4  10  23  41  63 101 139 172 222 282 340 410
#     4  11  23  44  68 100 136 175 224 283 338 407
#
# _framework density 21.786946
#
# number of rings (size 3 to 8) (size 9 to 14) (size 15 to 20)
#    0.000    1.143    4.286    1.714    6.000    1.143 
#    0.000    5.714    0.000    0.000    0.000    0.000 
#    0.000    0.000    0.000    0.000    0.000    0.000 
#
# Total GULP energy -78314.453465 kJ/mol
# GULP energy per Si atom -5593.889533 kJ/mol
# Density = 2.173736 g / cm^3
# Si number density = 21.786946 Si / 1000 Ang^3
#
#
#
# Elastic Constant Matrix: (Units=GPa)
#
#
# Indices 1 2 3 4 5 6 
#
# 1 125.1594 13.4908 45.0718 0.0000 -19.2913 0.0000
# 2 13.4908 60.2200 11.5707 0.0000 0.6057 0.0000
# 3 45.0718 11.5707 104.5684 0.0000 -3.5483 0.0000
# 4 0.0000 0.0000 0.0000 24.5720 0.0000 -8.1635
# 5 -19.2913 0.6057 -3.5483 0.0000 34.1399 0.0000
# 6 0.0000 0.0000 0.0000 -8.1635 0.0000 41.2521
#
#
#
# Elastic Compliance Matrix: (Units=1/GPa)
#
#
# Indices 1 2 3 4 5 6 
#
# 1 0.010518 -0.001611 -0.004167 0.000000 0.005539 0.000000
# 2 -0.001611 0.017222 -0.001257 0.000000 -0.001347 0.000000
# 3 -0.004167 -0.001257 0.011460 0.000000 -0.001141 0.000000
# 4 0.000000 0.000000 0.000000 0.043561 0.000000 0.008620
# 5 0.005539 -0.001347 -0.001141 0.000000 0.032326 0.000000
# 6 0.000000 0.000000 0.000000 0.008620 0.000000 0.025947
#
#
# Mechanical properties :
#
#
# Convention : Reuss Voigt Hill
#
# Bulk Modulus (GPa) = 39.79526 47.80161 43.79843
# Shear Modulus (GPa) = 30.58474 34.64711 32.61593
#
# Velocity S-wave (km/s) = 3.75081 3.99214 3.87336
# Velocity P-wave (km/s) = 6.08797 6.57554 6.33645
#
# Compressibility (1/GPa) = 0.02512862
#
# Stress axis : x y z
#
# Youngs Moduli (GPa) = 95.07616 58.06599 87.26272
#
# Poissons Ratio (x) = 0.09356 0.36365
# Poissons Ratio (y) = 0.15319 0.10967
# Poissons Ratio (z) = 0.39621 0.07298
#
# Static dielectric constant tensor:
#      x y z
#    x 1.783150 0.000000 0.029110 
#    y 0.000000 1.839760 0.000000 
#    z 0.029110 0.000000 1.793340 
# 
# From -- ./inp_files/11831.got.cif
#   From: 2010.05.17/outbox.cif.g08.bks.cpg/sg4_6_cif.got.tgz:11831.got - 2010.06.03 18:43:04.
