data_PCOD9117848
_publ_section_title
;
Structure prediction by ZEFSAII (Michael W. Deem and Ramdas Pophale) SiO2 
 PCOD9117848
Probable space group: P 21
;
_chemical_formula_sum "Si O2"
_cell_formula_units_Z 16
_cell_length_a 7.689084
_cell_length_b 17.757577
_cell_length_c 5.784701
_cell_angle_alpha 90.000000
_cell_angle_beta 60.078070
_cell_angle_gamma 90.000000
_cell_volume 684.559143
_symmetry_space_group_name_H-M "P 21"
_symmetry_group_IT_number 4
_symmetry_cell_setting 'monoclinic'
loop_
_space_group_symop_operation_xyz
x,y,z
-x,1/2+y,-z
loop_
_atom_site_type_symbol
_atom_site_label
_atom_site_fract_x
_atom_site_fract_y
_atom_site_fract_z
Si Si1 0.451080 0.519720 0.020900
Si Si2 0.507156 0.670171 0.688665
Si Si3 0.897964 0.712144 0.703381
Si Si4 0.193851 0.757581 0.156108
Si Si5 0.964349 0.353872 0.098491
Si Si6 0.988339 0.995514 0.696641
Si Si7 0.324608 0.890911 0.353258
Si Si8 0.743858 0.597113 0.163770
O O1 0.223949 0.518784 0.262761
O O2 0.615320 0.535022 0.111138
O O3 0.473490 0.589580 0.831691
O O4 0.500048 0.444657 0.844385
O O5 0.690835 0.709339 0.700908
O O6 0.581553 0.654484 0.381789
O O7 0.308411 0.716526 0.874360
O O8 0.080548 0.702322 0.403687
O O9 0.936787 0.793045 0.795083
O O10 0.881376 0.645439 0.900589
O O11 0.333214 0.813499 0.209090
O O12 0.034234 0.814027 0.146674
O O13 0.055446 0.436149 0.065637
O O14 0.733893 0.368482 0.344523
O O15 0.125115 0.060309 0.718693
O O16 0.127933 0.944709 0.437677
#
# Coordination Sequence:
#
# PCOD9117848 Si02
#       8
#     2   2   2   2   2   2   2   2
#     4  11  24  44  72  99 140 186 231 289 356 412
#     4  11  25  43  65 105 141 180 236 287 349 425
#     4  10  24  43  66  99 145 179 234 290 348 410
#     4  11  23  43  71 100 140 189 230 290 353 420
#     4   9  21  43  66  98 135 181 227 289 354 404
#     4  10  23  47  69 102 136 185 236 289 351 416
#     4   9  22  43  65 100 141 171 238 297 333 422
#     4  11  24  48  70 105 144 185 234 299 342 425
#
# _framework density 23.372706999999998
#
# number of rings (size 3 to 8) (size 9 to 14) (size 15 to 20)
#    0.750    1.000    1.250    1.500    5.250    4.000 
#    6.750    0.000    0.000    0.000    0.000    0.000 
#    0.000    0.000    0.000    0.000    0.000    0.000 
#
# Total GULP energy -89306.108250 kJ/mol
# GULP energy per Si atom -5581.631766 kJ/mol
# Density = 2.331951 g / cm^3
# Si number density = 23.372707 Si / 1000 Ang^3
#
#
#
# Elastic Constant Matrix: (Units=GPa)
#
#
# Indices 1 2 3 4 5 6 
#
# 1 49.8768 18.7134 20.9180 0.0000 -20.9674 0.0000
# 2 18.7134 59.2872 41.8666 0.0000 -11.3376 0.0000
# 3 20.9180 41.8666 91.2081 0.0000 -20.0144 0.0000
# 4 0.0000 0.0000 0.0000 38.5891 0.0000 -2.3355
# 5 -20.9674 -11.3376 -20.0144 0.0000 28.8820 0.0000
# 6 0.0000 0.0000 0.0000 -2.3355 0.0000 28.2987
#
#
#
# Elastic Compliance Matrix: (Units=1/GPa)
#
#
# Indices 1 2 3 4 5 6 
#
# 1 0.030627 -0.005893 0.000062 0.000000 0.019963 0.000000
# 2 -0.005893 0.026209 -0.011039 0.000000 -0.001639 0.000000
# 3 0.000062 -0.011039 0.017779 0.000000 0.008032 0.000000
# 4 0.000000 0.000000 0.000000 0.026044 0.000000 0.002149
# 5 0.019963 -0.001639 0.008032 0.000000 0.054039 0.000000
# 6 0.000000 0.000000 0.000000 0.002149 0.000000 0.035515
#
#
# Mechanical properties :
#
#
# Convention : Reuss Voigt Hill
#
# Bulk Modulus (GPa) = 24.46482 40.37423 32.41953
# Shear Modulus (GPa) = 21.04578 27.07891 24.06235
#
# Velocity S-wave (km/s) = 3.00399 3.40747 3.21207
# Velocity P-wave (km/s) = 4.74573 5.72649 5.25902
#
# Compressibility (1/GPa) = 0.04087502
#
# Stress axis : x y z
#
# Youngs Moduli (GPa) = 32.65113 38.15530 56.24513
#
# Poissons Ratio (x) = 0.22485 -0.00347
# Poissons Ratio (y) = 0.19241 0.62087
# Poissons Ratio (z) = -0.00201 0.42118
#
# Static dielectric constant tensor:
#      x y z
#    x 1.880500 0.000000 -0.002340 
#    y 0.000000 1.876090 0.000000 
#    z -0.002340 0.000000 1.900150 
# 
# From -- ./inp_files/2098.got.cif
#   From: 2010.05.17/outbox.cif.g08.bks.cpg/sg4_2_cif.got.tgz:2098.got - 2010.06.03 18:43:04.
