data_PCOD9117271
_publ_section_title
;
Structure prediction by ZEFSAII (Michael W. Deem and Ramdas Pophale) SiO2 
 PCOD9117271
Probable space group: P 21
;
_chemical_formula_sum "Si O2"
_cell_formula_units_Z 12
_cell_length_a 6.818113
_cell_length_b 9.012515
_cell_length_c 8.723947
_cell_angle_alpha 90.000000
_cell_angle_beta 121.491428
_cell_angle_gamma 90.000000
_cell_volume 457.118513
_symmetry_space_group_name_H-M "P 21"
_symmetry_group_IT_number 4
_symmetry_cell_setting 'monoclinic'
loop_
_space_group_symop_operation_xyz
x,y,z
-x,1/2+y,-z
loop_
_atom_site_type_symbol
_atom_site_label
_atom_site_fract_x
_atom_site_fract_y
_atom_site_fract_z
Si Si1 0.085026 0.061500 0.957587
Si Si2 0.557092 0.562658 0.476650
Si Si3 0.298898 0.336907 0.889195
Si Si4 0.593766 0.327523 0.733909
Si Si5 0.263860 0.911067 0.756958
Si Si6 0.045906 0.619827 0.776474
O O1 0.913066 0.115452 0.022329
O O2 0.214435 0.926439 0.101520
O O3 0.222027 0.212005 0.975299
O O4 0.067411 0.992905 0.778940
O O5 0.481773 0.447766 0.574710
O O6 0.363290 0.680830 0.349028
O O7 0.667261 0.469561 0.380784
O O8 0.778053 0.649545 0.636390
O O9 0.411443 0.270784 0.783727
O O10 0.105517 0.451183 0.756741
O O11 0.501462 0.430533 0.050137
O O12 0.197168 0.737898 0.746765
#
# Coordination Sequence:
#
# PCOD9117271 Si02
#       6
#     2   2   2   2   2   2
#     4  10  22  45  69 102 136 180 234 285 346 412
#     4  11  26  45  68 105 144 187 231 293 353 419
#     4  11  23  45  70  99 136 186 237 282 348 418
#     4  10  24  44  69 101 142 185 234 283 357 415
#     4  11  23  43  71 100 134 186 233 288 349 412
#     4  11  26  42  67 103 142 182 233 291 351 416
#
# _framework density 26.251397999999998
#
# number of rings (size 3 to 8) (size 9 to 14) (size 15 to 20)
#    0.000    1.333    1.667    3.000   11.667    0.000 
#    0.000    0.000    0.000    0.000    0.000    0.000 
#    0.000    0.000    0.000    0.000    0.000    0.000 
#
# Total GULP energy -67033.686593 kJ/mol
# GULP energy per Si atom -5586.140549 kJ/mol
# Density = 2.619165 g / cm^3
# Si number density = 26.251398 Si / 1000 Ang^3
#
#
#
# Elastic Constant Matrix: (Units=GPa)
#
#
# Indices 1 2 3 4 5 6 
#
# 1 64.0838 39.3780 5.4415 0.0000 -16.0743 0.0000
# 2 39.3780 133.6593 6.7243 0.0000 -4.4370 0.0000
# 3 5.4415 6.7243 64.3196 0.0000 -0.2168 0.0000
# 4 0.0000 0.0000 0.0000 37.7424 0.0000 -9.1417
# 5 -16.0743 -4.4370 -0.2168 0.0000 42.8830 0.0000
# 6 0.0000 0.0000 0.0000 -9.1417 0.0000 60.3980
#
#
#
# Elastic Compliance Matrix: (Units=1/GPa)
#
#
# Indices 1 2 3 4 5 6 
#
# 1 0.021190 -0.005942 -0.001147 0.000000 0.007322 0.000000
# 2 -0.005942 0.009213 -0.000465 0.000000 -0.001276 0.000000
# 3 -0.001147 -0.000465 0.015692 0.000000 -0.000399 0.000000
# 4 0.000000 0.000000 0.000000 0.027504 0.000000 0.004163
# 5 0.007322 -0.001276 -0.000399 0.000000 0.025930 0.000000
# 6 0.000000 0.000000 0.000000 0.004163 0.000000 0.017187
#
#
# Mechanical properties :
#
#
# Convention : Reuss Voigt Hill
#
# Bulk Modulus (GPa) = 32.27111 40.57227 36.42169
# Shear Modulus (GPa) = 35.17364 42.23927 38.70646
#
# Velocity S-wave (km/s) = 3.66440 4.01562 3.84403
# Velocity P-wave (km/s) = 5.49760 6.08187 5.79710
#
# Compressibility (1/GPa) = 0.03098747
#
# Stress axis : x y z
#
# Youngs Moduli (GPa) = 47.19235 108.53827 63.72824
#
# Poissons Ratio (x) = 0.64494 0.07308
# Poissons Ratio (y) = 0.28042 0.02962
# Poissons Ratio (z) = 0.05412 0.05045
#
# Static dielectric constant tensor:
#      x y z
#    x 2.107170 0.000000 0.035270 
#    y 0.000000 2.070240 0.000000 
#    z 0.035270 0.000000 2.116470 
# 
# From -- ./inp_files/5203.got.cif
#   From: 2010.05.17/outbox.cif.g08.bks.cpg/sg4_3_cif.got.tgz:5203.got - 2010.06.03 18:43:04.
