data_PCOD9117707
_publ_section_title
;
Structure prediction by ZEFSAII (Michael W. Deem and Ramdas Pophale) SiO2 
 PCOD9117707
Probable space group: P 21
;
_chemical_formula_sum "Si O2"
_cell_formula_units_Z 16
_cell_length_a 10.773630
_cell_length_b 12.405744
_cell_length_c 6.112732
_cell_angle_alpha 90.000000
_cell_angle_beta 55.105222
_cell_angle_gamma 90.000000
_cell_volume 670.103860
_symmetry_space_group_name_H-M "P 21"
_symmetry_group_IT_number 4
_symmetry_cell_setting 'monoclinic'
loop_
_space_group_symop_operation_xyz
x,y,z
-x,1/2+y,-z
loop_
_atom_site_type_symbol
_atom_site_label
_atom_site_fract_x
_atom_site_fract_y
_atom_site_fract_z
Si Si1 0.962642 0.320210 0.975062
Si Si2 0.412736 0.639005 0.237545
Si Si3 0.958289 0.612067 0.363856
Si Si4 0.334152 0.803266 0.959609
Si Si5 0.464791 0.343046 0.614056
Si Si6 0.852757 0.914425 0.898153
Si Si7 0.873160 0.010840 0.433019
Si Si8 0.349946 0.994378 0.260662
O O1 0.080681 0.533692 0.124154
O O2 0.786131 0.304850 0.114332
O O3 0.035399 0.225326 0.760229
O O4 0.014350 0.331036 0.173375
O O5 0.488394 0.732885 0.306806
O O6 0.276976 0.573935 0.491726
O O7 0.339974 0.696058 0.096458
O O8 0.540364 0.562133 0.007901
O O9 0.791316 0.563318 0.516093
O O10 0.015740 0.596138 0.555853
O O11 0.492252 0.827379 0.681796
O O12 0.290140 0.896659 0.171855
O O13 0.291276 0.373233 0.826300
O O14 0.557797 0.440428 0.633895
O O15 0.975699 0.932068 0.186625
O O16 0.814062 0.928815 0.683628
#
# Coordination Sequence:
#
# PCOD9117707 Si02
#       8
#     2   2   2   2   2   2   2   2
#     4  12  24  44  73  97 139 186 232 287 349 414
#     4  11  25  44  70  99 138 183 228 292 356 404
#     4  10  23  44  69  99 137 179 233 287 341 411
#     4  11  24  44  65 101 136 180 230 287 345 419
#     4  11  26  43  69 100 137 182 231 282 355 422
#     4  10  24  46  64 102 139 178 230 291 337 421
#     4  10  23  47  67  97 137 182 228 288 345 412
#     4  11  23  44  67  97 137 176 228 290 342 415
#
# _framework density 23.876897
#
# number of rings (size 3 to 8) (size 9 to 14) (size 15 to 20)
#    0.750    0.500    3.750    0.750    5.250    3.000 
#    4.500    0.000    0.000    0.000    0.000    0.000 
#    0.000    0.000    0.000    0.000    0.000    0.000 
#
# Total GULP energy -89418.110055 kJ/mol
# GULP energy per Si atom -5588.631878 kJ/mol
# Density = 2.382255 g / cm^3
# Si number density = 23.876897 Si / 1000 Ang^3
#
#
#
# Elastic Constant Matrix: (Units=GPa)
#
#
# Indices 1 2 3 4 5 6 
#
# 1 82.4908 23.1096 -10.0902 0.0000 -13.8115 0.0000
# 2 23.1096 93.6030 15.7771 0.0000 1.3303 0.0000
# 3 -10.0902 15.7771 56.5794 0.0000 -7.9521 0.0000
# 4 0.0000 0.0000 0.0000 44.0447 0.0000 -6.0560
# 5 -13.8115 1.3303 -7.9521 0.0000 22.7132 0.0000
# 6 0.0000 0.0000 0.0000 -6.0560 0.0000 29.5755
#
#
#
# Elastic Compliance Matrix: (Units=1/GPa)
#
#
# Indices 1 2 3 4 5 6 
#
# 1 0.016438 -0.005273 0.006153 0.000000 0.012459 0.000000
# 2 -0.005273 0.012975 -0.005381 0.000000 -0.005850 0.000000
# 3 0.006153 -0.005381 0.021921 0.000000 0.011731 0.000000
# 4 0.000000 0.000000 0.000000 0.023362 0.000000 0.004784
# 5 0.012459 -0.005850 0.011731 0.000000 0.056053 0.000000
# 6 0.000000 0.000000 0.000000 0.004784 0.000000 0.034791
#
#
# Mechanical properties :
#
#
# Convention : Reuss Voigt Hill
#
# Bulk Modulus (GPa) = 23.62193 32.25180 27.93686
# Shear Modulus (GPa) = 26.50377 32.85845 29.68111
#
# Velocity S-wave (km/s) = 3.33531 3.71369 3.52957
# Velocity P-wave (km/s) = 4.97464 5.65027 5.32318
#
# Compressibility (1/GPa) = 0.04233355
#
# Stress axis : x y z
#
# Youngs Moduli (GPa) = 60.83377 77.07005 45.61887
#
# Poissons Ratio (x) = 0.40636 -0.28069
# Poissons Ratio (y) = 0.32075 0.24546
# Poissons Ratio (z) = -0.37430 0.41468
#
# Static dielectric constant tensor:
#      x y z
#    x 1.977330 0.000000 0.071070 
#    y 0.000000 1.875900 0.000000 
#    z 0.071070 0.000000 1.938710 
# 
# From -- ./inp_files/3033.got.cif
#   From: 2010.05.17/outbox.cif.g08.bks.cpg/sg4_2_cif.got.tgz:3033.got - 2010.06.03 18:43:04.
