data_PCOD9117171
_publ_section_title
;
Structure prediction by ZEFSAII (Michael W. Deem and Ramdas Pophale) SiO2 
 PCOD9117171
Probable space group: P 21
;
_chemical_formula_sum "Si O2"
_cell_formula_units_Z 16
_cell_length_a 16.678817
_cell_length_b 9.994064
_cell_length_c 7.239276
_cell_angle_alpha 90.000000
_cell_angle_beta 140.459420
_cell_angle_gamma 90.000000
_cell_volume 768.220511
_symmetry_space_group_name_H-M "P 21"
_symmetry_group_IT_number 4
_symmetry_cell_setting 'monoclinic'
loop_
_space_group_symop_operation_xyz
x,y,z
-x,1/2+y,-z
loop_
_atom_site_type_symbol
_atom_site_label
_atom_site_fract_x
_atom_site_fract_y
_atom_site_fract_z
Si Si1 0.597784 0.096450 0.260515
Si Si2 0.001596 0.218781 0.624526
Si Si3 0.984529 0.403745 0.249551
Si Si4 0.274190 0.217929 0.236680
Si Si5 0.552721 0.763044 0.761918
Si Si6 0.740962 0.832940 0.402006
Si Si7 0.191654 0.824021 0.408475
Si Si8 0.389573 0.005698 0.630869
O O1 0.527778 0.131919 0.327692
O O2 0.715058 0.197537 0.451692
O O3 0.654533 0.950878 0.331050
O O4 0.490527 0.104884 0.908741
O O5 0.962903 0.288377 0.364327
O O6 0.907003 0.280545 0.609300
O O7 0.145909 0.261986 0.914987
O O8 0.012821 0.056194 0.663802
O O9 0.124112 0.386338 0.415825
O O10 0.888617 0.370898 0.912453
O O11 0.393797 0.281907 0.347373
O O12 0.248169 0.236598 0.406140
O O13 0.315634 0.063857 0.322215
O O14 0.469317 0.884070 0.688417
O O15 0.675092 0.765365 0.110716
O O16 0.292455 0.945132 0.609184
#
# Coordination Sequence:
#
# PCOD9117171 Si02
#       8
#     2   2   2   2   2   2   2   2
#     4  10  22  44  68  94 139 176 226 290 347 420
#     4  12  27  45  73 106 142 188 238 302 354 429
#     4  12  26  46  70 106 147 186 243 296 358 435
#     4  12  23  40  69  96 130 180 227 283 355 413
#     4  10  23  41  62  98 131 175 228 279 340 426
#     4  11  22  41  66  95 135 180 223 288 351 414
#     4  11  24  47  71  99 139 187 237 292 363 423
#     4  10  23  44  65  98 137 178 232 286 352 424
#
# _framework density 20.827352999999999
#
# number of rings (size 3 to 8) (size 9 to 14) (size 15 to 20)
#    0.000    1.000    6.250    0.000    1.750    4.000 
#    4.500    0.000    0.000    0.000    0.000    0.000 
#    0.000    0.000    0.000    0.000    0.000    0.000 
#
# Total GULP energy -89099.800983 kJ/mol
# GULP energy per Si atom -5568.737561 kJ/mol
# Density = 2.077995 g / cm^3
# Si number density = 20.827353 Si / 1000 Ang^3
#
#
#
# Elastic Constant Matrix: (Units=GPa)
#
#
# Indices 1 2 3 4 5 6 
#
# 1 122.6937 28.5640 21.6165 0.0000 9.2752 0.0000
# 2 28.5640 62.1656 11.2483 0.0000 -1.3980 0.0000
# 3 21.6165 11.2483 53.6718 0.0000 6.0974 0.0000
# 4 0.0000 0.0000 0.0000 25.8761 0.0000 -1.6909
# 5 9.2752 -1.3980 6.0974 0.0000 31.6741 0.0000
# 6 0.0000 0.0000 0.0000 -1.6909 0.0000 22.8724
#
#
#
# Elastic Compliance Matrix: (Units=1/GPa)
#
#
# Indices 1 2 3 4 5 6 
#
# 1 0.009774 -0.004040 -0.002806 0.000000 -0.002500 0.000000
# 2 -0.004040 0.018454 -0.002523 0.000000 0.002483 0.000000
# 3 -0.002806 -0.002523 0.020662 0.000000 -0.003267 0.000000
# 4 0.000000 0.000000 0.000000 0.038833 0.000000 0.002871
# 5 -0.002500 0.002483 -0.003267 0.000000 0.033042 0.000000
# 6 0.000000 0.000000 0.000000 0.002871 0.000000 0.043933
#
#
# Mechanical properties :
#
#
# Convention : Reuss Voigt Hill
#
# Bulk Modulus (GPa) = 33.16321 40.15428 36.65875
# Shear Modulus (GPa) = 25.84156 27.89135 26.86645
#
# Velocity S-wave (km/s) = 3.52625 3.66344 3.59550
# Velocity P-wave (km/s) = 5.70410 6.10048 5.90561
#
# Compressibility (1/GPa) = 0.03015389
#
# Stress axis : x y z
#
# Youngs Moduli (GPa) = 102.31027 54.18735 48.39861
#
# Poissons Ratio (x) = 0.21889 0.13580
# Poissons Ratio (y) = 0.41329 0.12210
# Poissons Ratio (z) = 0.28708 0.13670
#
# Static dielectric constant tensor:
#      x y z
#    x 1.730290 0.000000 -0.004050 
#    y 0.000000 1.840950 0.000000 
#    z -0.004050 0.000000 1.809650 
# 
# From -- ./inp_files/3790.got.cif
#   From: 2010.05.17/outbox.cif.g08.bks.cpg/sg4_2_cif.got.tgz:3790.got - 2010.06.03 18:43:04.
