data_PCOD9117622
_publ_section_title
;
Structure prediction by ZEFSAII (Michael W. Deem and Ramdas Pophale) SiO2 
 PCOD9117622
Probable space group: P 21
;
_chemical_formula_sum "Si O2"
_cell_formula_units_Z 14
_cell_length_a 8.986086
_cell_length_b 5.040302
_cell_length_c 11.862215
_cell_angle_alpha 90.000000
_cell_angle_beta 98.232200
_cell_angle_gamma 90.000000
_cell_volume 531.734329
_symmetry_space_group_name_H-M "P 21"
_symmetry_group_IT_number 4
_symmetry_cell_setting 'monoclinic'
loop_
_space_group_symop_operation_xyz
x,y,z
-x,1/2+y,-z
loop_
_atom_site_type_symbol
_atom_site_label
_atom_site_fract_x
_atom_site_fract_y
_atom_site_fract_z
Si Si1 0.712477 0.501450 0.779501
Si Si2 0.308777 0.346341 0.407458
Si Si3 0.440558 0.157041 0.654626
Si Si4 0.015415 0.749781 0.076315
Si Si5 0.502246 0.252845 0.071572
Si Si6 0.900932 0.185325 0.472379
Si Si7 0.227776 0.464621 0.774121
O O1 0.789419 0.680480 0.691219
O O2 0.572917 0.357385 0.704595
O O3 0.644851 0.678422 0.872736
O O4 0.825571 0.290830 0.844987
O O5 0.364912 0.205700 0.526096
O O6 0.461423 0.397375 0.353251
O O7 0.222301 0.602490 0.446714
O O8 0.313225 0.209572 0.731141
O O9 0.892002 0.858110 0.150120
O O10 0.988623 0.453115 0.030123
O O11 0.649979 0.150852 0.151856
O O12 0.495728 0.059332 0.961961
O O13 0.837373 0.116639 0.342177
O O14 0.037610 0.980730 0.510427
#
# Coordination Sequence:
#
# PCOD9117622 Si02
#       7
#     2   2   2   2   2   2   2
#     4  11  25  42  72 100 136 193 226 294 361 414
#     4  11  23  42  73 106 146 185 236 286 357 433
#     4  10  23  43  69 106 145 181 233 289 355 434
#     4  12  28  49  71 102 141 190 248 298 348 417
#     4  11  25  45  68 100 136 180 243 300 349 410
#     4  11  27  46  71 109 151 189 231 285 352 442
#     4  10  25  47  70 107 139 192 231 298 356 418
#
# _framework density 26.328941
#
# number of rings (size 3 to 8) (size 9 to 14) (size 15 to 20)
#    0.000    1.143    1.429    2.571   10.000    2.286 
#    2.571    0.000    0.000    0.000    0.000    0.000 
#    0.000    0.000    0.000    0.000    0.000    0.000 
#
# Total GULP energy -78563.698441 kJ/mol
# GULP energy per Si atom -5611.692746 kJ/mol
# Density = 2.626901 g / cm^3
# Si number density = 26.328941 Si / 1000 Ang^3
#
#
#
# Elastic Constant Matrix: (Units=GPa)
#
#
# Indices 1 2 3 4 5 6 
#
# 1 106.2676 11.8685 29.2473 0.0000 -4.1875 0.0000
# 2 11.8685 77.2572 20.4228 0.0000 6.8700 0.0000
# 3 29.2473 20.4228 111.2647 0.0000 5.3476 0.0000
# 4 0.0000 0.0000 0.0000 37.5742 0.0000 1.2150
# 5 -4.1875 6.8700 5.3476 0.0000 35.4489 0.0000
# 6 0.0000 0.0000 0.0000 1.2150 0.0000 39.2490
#
#
#
# Elastic Compliance Matrix: (Units=1/GPa)
#
#
# Indices 1 2 3 4 5 6 
#
# 1 0.010317 -0.001058 -0.002605 0.000000 0.001817 0.000000
# 2 -0.001058 0.013897 -0.002153 0.000000 -0.002493 0.000000
# 3 -0.002605 -0.002153 0.010136 0.000000 -0.001419 0.000000
# 4 0.000000 0.000000 0.000000 0.026641 0.000000 -0.000825
# 5 0.001817 -0.002493 -0.001419 0.000000 0.029122 0.000000
# 6 0.000000 0.000000 0.000000 -0.000825 0.000000 0.025504
#
#
# Mechanical properties :
#
#
# Convention : Reuss Voigt Hill
#
# Bulk Modulus (GPa) = 44.01772 46.42965 45.22368
# Shear Modulus (GPa) = 37.08639 38.00448 37.54544
#
# Velocity S-wave (km/s) = 3.75718 3.80340 3.78036
# Velocity P-wave (km/s) = 5.96460 6.07951 6.02233
#
# Compressibility (1/GPa) = 0.02271812
#
# Stress axis : x y z
#
# Youngs Moduli (GPa) = 96.92822 71.95727 98.66064
#
# Poissons Ratio (x) = 0.07612 0.25702
# Poissons Ratio (y) = 0.10253 0.21241
# Poissons Ratio (z) = 0.25251 0.15492
#
# Static dielectric constant tensor:
#      x y z
#    x 2.080090 0.000000 0.020760 
#    y 0.000000 2.049670 0.000000 
#    z 0.020760 0.000000 2.063800 
# 
# From -- ./inp_files/7063.got.cif
#   From: 2010.05.17/outbox.cif.g08.bks.cpg/sg4_4_cif.got.tgz:7063.got - 2010.06.03 18:43:04.
