data_PCOD9117937
_publ_section_title
;
Structure prediction by ZEFSAII (Michael W. Deem and Ramdas Pophale) SiO2 
 PCOD9117937
Probable space group: P 21
;
_chemical_formula_sum "Si O2"
_cell_formula_units_Z 12
_cell_length_a 11.140523
_cell_length_b 4.968787
_cell_length_c 16.594398
_cell_angle_alpha 90.000000
_cell_angle_beta 150.979380
_cell_angle_gamma 90.000000
_cell_volume 445.626017
_symmetry_space_group_name_H-M "P 21"
_symmetry_group_IT_number 4
_symmetry_cell_setting 'monoclinic'
loop_
_space_group_symop_operation_xyz
x,y,z
-x,1/2+y,-z
loop_
_atom_site_type_symbol
_atom_site_label
_atom_site_fract_x
_atom_site_fract_y
_atom_site_fract_z
Si Si1 0.632232 0.830480 0.045131
Si Si2 0.947718 0.936163 0.847007
Si Si3 0.010309 0.639102 0.459522
Si Si4 0.844169 0.436426 0.683925
Si Si5 0.472582 0.700581 0.163583
Si Si6 0.517453 0.357781 0.344358
O O1 0.922004 0.847203 0.232334
O O2 0.535430 0.532017 0.001178
O O3 0.613502 0.954373 0.944202
O O4 0.890711 0.739850 0.738303
O O5 0.776247 0.812819 0.817114
O O6 0.859124 0.233299 0.768737
O O7 0.240879 0.902626 0.033085
O O8 0.739935 0.771469 0.282539
O O9 0.059180 0.829243 0.566479
O O10 0.266928 0.659953 0.561596
O O11 0.608086 0.416578 0.488452
O O12 0.526870 0.595887 0.285095
#
# Coordination Sequence:
#
# PCOD9117937 Si02
#       6
#     2   2   2   2   2   2
#     4  11  23  42  67  97 137 182 226 281 352 422
#     4  11  26  47  69 100 142 187 231 284 354 424
#     4  10  24  41  62  97 136 170 219 286 349 401
#     4  11  25  45  69 100 139 186 234 285 350 423
#     4  10  25  44  70 104 138 179 236 294 346 414
#     4  11  25  45  73 102 138 184 236 292 347 414
#
# _framework density 26.92841
#
# number of rings (size 3 to 8) (size 9 to 14) (size 15 to 20)
#    0.000    1.333    0.000    4.000    0.000   22.667 
#    0.000    0.000    0.000    0.000    0.000    0.000 
#    0.000    0.000    0.000    0.000    0.000    0.000 
#
# Total GULP energy -67051.476951 kJ/mol
# GULP energy per Si atom -5587.623079 kJ/mol
# Density = 2.686712 g / cm^3
# Si number density = 26.928410 Si / 1000 Ang^3
#
#
#
# Elastic Constant Matrix: (Units=GPa)
#
#
# Indices 1 2 3 4 5 6 
#
# 1 136.0595 12.7628 35.1166 0.0000 49.5848 0.0000
# 2 12.7628 90.7330 25.4707 0.0000 -6.3669 0.0000
# 3 35.1166 25.4707 118.1929 0.0000 31.7242 0.0000
# 4 0.0000 0.0000 0.0000 26.3983 0.0000 3.3649
# 5 49.5848 -6.3669 31.7242 0.0000 57.4206 0.0000
# 6 0.0000 0.0000 0.0000 3.3649 0.0000 39.2004
#
#
#
# Elastic Compliance Matrix: (Units=1/GPa)
#
#
# Indices 1 2 3 4 5 6 
#
# 1 0.011173 -0.002194 -0.000225 0.000000 -0.009767 0.000000
# 2 -0.002194 0.012674 -0.003481 0.000000 0.005223 0.000000
# 3 -0.000225 -0.003481 0.010954 0.000000 -0.006243 0.000000
# 4 0.000000 0.000000 0.000000 0.038300 0.000000 -0.003288
# 5 -0.009767 0.005223 -0.006243 0.000000 0.029878 0.000000
# 6 0.000000 0.000000 0.000000 -0.003288 0.000000 0.025792
#
#
# Mechanical properties :
#
#
# Convention : Reuss Voigt Hill
#
# Bulk Modulus (GPa) = 43.47880 54.63173 49.05527
# Shear Modulus (GPa) = 33.72941 42.71289 38.22115
#
# Velocity S-wave (km/s) = 3.54299 3.98699 3.77153
# Velocity P-wave (km/s) = 5.73743 6.44411 6.10101
#
# Compressibility (1/GPa) = 0.02299971
#
# Stress axis : x y z
#
# Youngs Moduli (GPa) = 89.50009 78.90341 91.29369
#
# Poissons Ratio (x) = 0.17310 0.02057
# Poissons Ratio (y) = 0.19634 0.31782
# Poissons Ratio (z) = 0.02016 0.27469
#
# Static dielectric constant tensor:
#      x y z
#    x 2.174550 0.000000 -0.081230 
#    y 0.000000 2.062950 0.000000 
#    z -0.081230 0.000000 2.212070 
# 
# From -- ./inp_files/11459.got.cif
#   From: 2010.05.17/outbox.cif.g08.bks.cpg/sg4_6_cif.got.tgz:11459.got - 2010.06.03 18:43:04.
