data_PCOD9117719
_publ_section_title
;
Structure prediction by ZEFSAII (Michael W. Deem and Ramdas Pophale) SiO2 
 PCOD9117719
Probable space group: P 21
;
_chemical_formula_sum "Si O2"
_cell_formula_units_Z 16
_cell_length_a 5.195974
_cell_length_b 11.270662
_cell_length_c 11.751133
_cell_angle_alpha 90.000000
_cell_angle_beta 71.373861
_cell_angle_gamma 90.000000
_cell_volume 652.126183
_symmetry_space_group_name_H-M "P 21"
_symmetry_group_IT_number 4
_symmetry_cell_setting 'monoclinic'
loop_
_space_group_symop_operation_xyz
x,y,z
-x,1/2+y,-z
loop_
_atom_site_type_symbol
_atom_site_label
_atom_site_fract_x
_atom_site_fract_y
_atom_site_fract_z
Si Si1 0.205047 0.522820 0.417182
Si Si2 0.034716 0.360670 0.020938
Si Si3 0.969544 0.938016 0.321274
Si Si4 0.633310 0.299941 0.876808
Si Si5 0.374775 0.227299 0.631438
Si Si6 0.050557 0.576159 0.189521
Si Si7 0.962467 0.187688 0.237993
Si Si8 0.636329 0.766863 0.619442
O O1 0.023451 0.489949 0.552186
O O2 0.353231 0.649107 0.411328
O O3 0.074800 0.519672 0.311240
O O4 0.407036 0.408860 0.385484
O O5 0.011505 0.479859 0.098265
O O6 0.019185 0.252305 0.112334
O O7 0.330721 0.347706 0.923940
O O8 0.796564 0.347839 0.963455
O O9 0.685965 0.867278 0.344772
O O10 0.205566 0.846178 0.256932
O O11 0.003340 0.047341 0.231844
O O12 0.686876 0.158507 0.871084
O O13 0.264317 0.217088 0.516505
O O14 0.201136 0.164707 0.755117
O O15 0.650356 0.209295 0.313016
O O16 0.153936 0.240433 0.309808
#
# Coordination Sequence:
#
# PCOD9117719 Si02
#       8
#     2   2   2   2   2   2   2   2
#     4  11  22  47  76 111 149 205 244 323 384 478
#     4  12  28  49  79 105 146 205 259 315 375 455
#     4  10  25  47  74 112 157 198 252 325 387 466
#     4  11  30  50  73 111 148 201 253 318 384 445
#     4  10  23  44  71 111 153 200 243 314 395 459
#     4  11  26  47  77 106 150 198 258 312 386 465
#     4  12  24  47  70 111 145 198 255 314 372 457
#     4  11  24  43  72 113 152 191 252 309 391 451
#
# _framework density 24.535132000000001
#
# number of rings (size 3 to 8) (size 9 to 14) (size 15 to 20)
#    0.000    1.000    2.500    2.250    8.750    1.000 
#    4.500    0.000    0.000    0.000    0.000    0.000 
#    0.000    0.000    0.000    0.000    0.000    0.000 
#
# Total GULP energy -89561.081680 kJ/mol
# GULP energy per Si atom -5597.567605 kJ/mol
# Density = 2.447929 g / cm^3
# Si number density = 24.535132 Si / 1000 Ang^3
#
#
#
# Elastic Constant Matrix: (Units=GPa)
#
#
# Indices 1 2 3 4 5 6 
#
# 1 154.5895 -19.5865 32.8305 0.0000 14.5037 0.0000
# 2 -19.5865 137.3957 39.4542 0.0000 6.9817 0.0000
# 3 32.8305 39.4542 126.5000 0.0000 17.9404 0.0000
# 4 0.0000 0.0000 0.0000 243.9998 0.0000 87.0541
# 5 14.5037 6.9817 17.9404 0.0000 42.5818 0.0000
# 6 0.0000 0.0000 0.0000 87.0541 0.0000 62.9958
#
#
#
# Elastic Compliance Matrix: (Units=1/GPa)
#
#
# Indices 1 2 3 4 5 6 
#
# 1 0.007333 0.001769 -0.002190 0.000000 -0.001865 0.000000
# 2 0.001769 0.008424 -0.002983 0.000000 -0.000727 0.000000
# 3 -0.002190 -0.002983 0.009815 0.000000 -0.002900 0.000000
# 4 0.000000 0.000000 0.000000 0.008084 0.000000 -0.011171
# 5 -0.001865 -0.000727 -0.002900 0.000000 0.025460 0.000000
# 6 0.000000 0.000000 0.000000 -0.011171 0.000000 0.031312
#
#
# Mechanical properties :
#
#
# Convention : Reuss Voigt Hill
#
# Bulk Modulus (GPa) = 53.29623 58.20906 55.75265
# Shear Modulus (GPa) = 48.31242 94.30127 71.30685
#
# Velocity S-wave (km/s) = 4.44228 6.20634 5.39687
# Velocity P-wave (km/s) = 6.93407 8.66801 7.84907
#
# Compressibility (1/GPa) = 0.01876305
#
# Stress axis : x y z
#
# Youngs Moduli (GPa) = 136.36894 118.70696 101.88030
#
# Poissons Ratio (x) = -0.21001 0.22316
# Poissons Ratio (y) = -0.24125 0.30396
# Poissons Ratio (z) = 0.29871 0.35416
#
# Static dielectric constant tensor:
#      x y z
#    x 1.870130 0.000000 -0.137910 
#    y 0.000000 1.951850 0.000000 
#    z -0.137910 0.000000 1.696170 
# 
# From -- ./inp_files/10513.got.cif
#   From: 2010.05.17/outbox.cif.g08.bks.cpg/sg4_6_cif.got.tgz:10513.got - 2010.06.03 18:43:04.
