data_PCOD9117994
_publ_section_title
;
Structure prediction by ZEFSAII (Michael W. Deem and Ramdas Pophale) SiO2 
 PCOD9117994
Probable space group: P 21
;
_chemical_formula_sum "Si O2"
_cell_formula_units_Z 14
_cell_length_a 9.959113
_cell_length_b 11.285442
_cell_length_c 7.936334
_cell_angle_alpha 90.000000
_cell_angle_beta 136.112882
_cell_angle_gamma 90.000000
_cell_volume 618.361814
_symmetry_space_group_name_H-M "P 21"
_symmetry_group_IT_number 4
_symmetry_cell_setting 'monoclinic'
loop_
_space_group_symop_operation_xyz
x,y,z
-x,1/2+y,-z
loop_
_atom_site_type_symbol
_atom_site_label
_atom_site_fract_x
_atom_site_fract_y
_atom_site_fract_z
Si Si1 0.860346 0.974910 0.158893
Si Si2 0.225152 0.929960 0.690156
Si Si3 0.469508 0.328838 0.256761
Si Si4 0.675758 0.231235 0.938458
Si Si5 0.329413 0.360573 0.506445
Si Si6 0.922856 0.405436 0.990101
Si Si7 0.599217 0.559751 0.872581
O O1 0.007958 0.962918 0.446009
O O2 0.692683 0.877731 0.017858
O O3 0.980258 0.944760 0.096446
O O4 0.755729 0.101559 0.045909
O O5 0.333083 0.889070 0.619711
O O6 0.263460 0.820584 0.854502
O O7 0.328179 0.041421 0.871736
O O8 0.406075 0.367032 0.384058
O O9 0.464073 0.188810 0.236234
O O10 0.446691 0.249517 0.693565
O O11 0.787616 0.288337 0.877583
O O12 0.419037 0.472930 0.681436
O O13 0.100137 0.371114 0.276670
O O14 0.781794 0.509960 0.929076
#
# Coordination Sequence:
#
# PCOD9117994 Si02
#       7
#     2   2   2   2   2   2   2
#     4  11  25  40  68  97 125 169 217 260 322 384
#     4  10  24  44  60  94 132 172 208 260 324 380
#     4  11  25  40  68  97 125 169 217 260 322 384
#     4  10  24  43  65  96 129 164 218 263 316 388
#     4   9  21  42  66  94 123 168 207 266 322 367
#     4   9  21  42  66  94 123 168 207 266 322 367
#     4  10  24  43  65  96 129 164 218 263 316 388
#
# _framework density 22.640467000000001
#
# number of rings (size 3 to 8) (size 9 to 14) (size 15 to 20)
#    0.000    2.286    0.000    1.714   12.000    6.857 
#    0.000    0.000    0.000    0.000    0.000    0.000 
#    0.000    0.000    0.000    0.000    0.000    0.000 
#
# Total GULP energy -78206.406514 kJ/mol
# GULP energy per Si atom -5586.171894 kJ/mol
# Density = 2.258894 g / cm^3
# Si number density = 22.640467 Si / 1000 Ang^3
#
#
#
# Elastic Constant Matrix: (Units=GPa)
#
#
# Indices 1 2 3 4 5 6 
#
# 1 60.7582 -1.7806 -3.7068 0.0000 6.3086 0.0000
# 2 -1.7806 34.6819 -4.7928 0.0000 2.3499 0.0000
# 3 -3.7068 -4.7928 123.4020 0.0000 23.4209 0.0000
# 4 0.0000 0.0000 0.0000 -3.6098 0.0000 -31.8789
# 5 6.3086 2.3499 23.4209 0.0000 40.1031 0.0000
# 6 0.0000 0.0000 0.0000 -31.8789 0.0000 -33.7732
#
#
#
# Elastic Compliance Matrix: (Units=1/GPa)
#
#
# Indices 1 2 3 4 5 6 
#
# 1 0.016928 0.001270 0.001212 0.000000 -0.003445 0.000000
# 2 0.001270 0.029337 0.001734 0.000000 -0.002931 0.000000
# 3 0.001212 0.001734 0.009293 0.000000 -0.005719 0.000000
# 4 0.000000 0.000000 0.000000 0.037763 0.000000 -0.035645
# 5 -0.003445 -0.002931 -0.005719 0.000000 0.028990 0.000000
# 6 0.000000 0.000000 0.000000 -0.035645 0.000000 0.004036
#
#
# Mechanical properties :
#
#
# Convention : Reuss Voigt Hill
#
# Bulk Modulus (GPa) = 15.62788 22.03129 18.82959
# Shear Modulus (GPa) = 35.90811 15.81886 25.86349
#
# Velocity S-wave (km/s) = 3.98680 2.64616 3.38354
# Velocity P-wave (km/s) = 5.30192 4.36901 4.85791
#
# Compressibility (1/GPa) = 0.06398820
#
# Stress axis : x y z
#
# Youngs Moduli (GPa) = 59.07544 34.08676 107.60985
#
# Poissons Ratio (x) = -0.04329 -0.13038
# Poissons Ratio (y) = -0.07502 -0.18659
# Poissons Ratio (z) = -0.07158 -0.05910
#
# Static dielectric constant tensor:
#      x y z
#    x 1.894710 0.000000 -0.020460 
#    y 0.000000 1.792870 0.000000 
#    z -0.020460 0.000000 2.048510 
# 
# From -- ./inp_files/8457.got.cif
#   From: 2010.05.17/outbox.cif.g08.bks.cpg/sg4_5_cif.got.tgz:8457.got - 2010.06.03 18:43:04.
