data_PCOD9117443
_publ_section_title
;
Structure prediction by ZEFSAII (Michael W. Deem and Ramdas Pophale) SiO2 
 PCOD9117443
Probable space group: P 21
;
_chemical_formula_sum "Si O2"
_cell_formula_units_Z 16
_cell_length_a 16.465625
_cell_length_b 8.935229
_cell_length_c 5.473010
_cell_angle_alpha 90.000000
_cell_angle_beta 117.229942
_cell_angle_gamma 90.000000
_cell_volume 715.976148
_symmetry_space_group_name_H-M "P 21"
_symmetry_group_IT_number 4
_symmetry_cell_setting 'monoclinic'
loop_
_space_group_symop_operation_xyz
x,y,z
-x,1/2+y,-z
loop_
_atom_site_type_symbol
_atom_site_label
_atom_site_fract_x
_atom_site_fract_y
_atom_site_fract_z
Si Si1 0.342350 0.647910 0.641544
Si Si2 0.577025 0.177172 0.741550
Si Si3 0.779949 0.677245 0.730936
Si Si4 0.980532 0.822578 0.986012
Si Si5 0.149256 0.689798 0.523170
Si Si6 0.600887 0.872687 0.527200
Si Si7 0.814979 0.514902 0.267177
Si Si8 0.014978 0.596709 0.682275
O O1 0.370180 0.731458 0.430588
O O2 0.233550 0.623816 0.491462
O O3 0.393633 0.488264 0.691261
O O4 0.376341 0.718652 0.939475
O O5 0.477165 0.248972 0.595268
O O6 0.581780 0.996166 0.712503
O O7 0.698462 0.792806 0.665559
O O8 0.775378 0.596670 0.457785
O O9 0.879112 0.757651 0.880689
O O10 0.775939 0.563940 0.953748
O O11 0.061663 0.749984 0.257114
O O12 0.008035 0.770145 0.753147
O O13 0.982745 0.993110 0.074286
O O14 0.189567 0.838061 0.703510
O O15 0.106605 0.574643 0.656508
O O16 0.922114 0.559834 0.416930
#
# Coordination Sequence:
#
# PCOD9117443 Si02
#       8
#     2   2   2   2   2   2   2   2
#     4  10  27  43  74 109 136 183 233 285 360 425
#     4  10  26  48  72 108 137 180 232 300 358 418
#     4  11  24  45  67 105 140 186 234 283 349 416
#     4  10  24  39  66  99 147 188 235 287 337 415
#     4  11  24  42  68 100 148 188 243 279 355 410
#     4  10  27  47  80 103 142 178 236 291 369 415
#     4  10  25  42  62 103 142 189 233 283 339 405
#     4  10  23  40  65  95 144 198 230 292 335 406
#
# _framework density 22.347113
#
# number of rings (size 3 to 8) (size 9 to 14) (size 15 to 20)
#    0.750    1.000    1.250    0.000   14.000    2.000 
#    0.000    0.000    0.000    0.000    0.000    0.000 
#    0.000    0.000    0.000    0.000    0.000    0.000 
#
# Total GULP energy -89262.040397 kJ/mol
# GULP energy per Si atom -5578.877525 kJ/mol
# Density = 2.229625 g / cm^3
# Si number density = 22.347113 Si / 1000 Ang^3
#
#
#
# Elastic Constant Matrix: (Units=GPa)
#
#
# Indices 1 2 3 4 5 6 
#
# 1 149.4903 25.5627 42.0773 0.0000 -0.6248 0.0000
# 2 25.5627 29.0561 3.4604 0.0000 -13.2120 0.0000
# 3 42.0773 3.4604 82.1658 0.0000 -17.5046 0.0000
# 4 0.0000 0.0000 0.0000 22.3622 0.0000 5.2040
# 5 -0.6248 -13.2120 -17.5046 0.0000 23.3911 0.0000
# 6 0.0000 0.0000 0.0000 5.2040 0.0000 31.2432
#
#
#
# Elastic Compliance Matrix: (Units=1/GPa)
#
#
# Indices 1 2 3 4 5 6 
#
# 1 0.011887 -0.016465 -0.008694 0.000000 -0.015489 0.000000
# 2 -0.016465 0.070436 0.016474 0.000000 0.051673 0.000000
# 3 -0.008694 0.016474 0.021249 0.000000 0.024975 0.000000
# 4 0.000000 0.000000 0.000000 0.046522 0.000000 -0.007749
# 5 -0.015489 0.051673 0.024975 0.000000 0.090214 0.000000
# 6 0.000000 0.000000 0.000000 -0.007749 0.000000 0.033298
#
#
# Mechanical properties :
#
#
# Convention : Reuss Voigt Hill
#
# Bulk Modulus (GPa) = 11.60067 44.76813 28.18440
# Shear Modulus (GPa) = 15.63919 28.04008 21.83963
#
# Velocity S-wave (km/s) = 2.64830 3.54609 3.12956
# Velocity P-wave (km/s) = 3.81493 6.06984 5.06935
#
# Compressibility (1/GPa) = 0.08620194
#
# Stress axis : x y z
#
# Youngs Moduli (GPa) = 84.12357 14.19734 47.06007
#
# Poissons Ratio (x) = 0.23377 0.40913
# Poissons Ratio (y) = 1.38513 -0.77526
# Poissons Ratio (z) = 0.73135 -0.23389
#
# Static dielectric constant tensor:
#      x y z
#    x 1.838290 0.000000 -0.063800 
#    y 0.000000 1.851300 0.000000 
#    z -0.063800 0.000000 1.882520 
# 
# From -- ./inp_files/4075.got.cif
#   From: 2010.05.17/outbox.cif.g08.bks.cpg/sg4_3_cif.got.tgz:4075.got - 2010.06.03 18:43:04.
