data_PCOD9117049
_publ_section_title
;
Structure prediction by ZEFSAII (Michael W. Deem and Ramdas Pophale) SiO2 
 PCOD9117049
Probable space group: P 21
;
_chemical_formula_sum "Si O2"
_cell_formula_units_Z 16
_cell_length_a 24.869466
_cell_length_b 5.325561
_cell_length_c 14.115538
_cell_angle_alpha 90.000000
_cell_angle_beta 159.095974
_cell_angle_gamma 90.000000
_cell_volume 667.050230
_symmetry_space_group_name_H-M "P 21"
_symmetry_group_IT_number 4
_symmetry_cell_setting 'monoclinic'
loop_
_space_group_symop_operation_xyz
x,y,z
-x,1/2+y,-z
loop_
_atom_site_type_symbol
_atom_site_label
_atom_site_fract_x
_atom_site_fract_y
_atom_site_fract_z
Si Si1 0.910315 0.689460 0.265211
Si Si2 0.756366 0.013976 0.131335
Si Si3 0.599299 0.144005 0.678129
Si Si4 0.643143 0.162069 0.147994
Si Si5 0.106642 0.035157 0.968854
Si Si6 0.079966 0.547331 0.870164
Si Si7 0.301375 0.160314 0.658581
Si Si8 0.094787 0.951543 0.152695
O O1 0.838001 0.568066 0.050617
O O2 0.068342 0.578685 0.556028
O O3 0.784346 0.731813 0.136658
O O4 0.956016 0.960036 0.294331
O O5 0.669426 0.072788 0.083798
O O6 0.674197 0.146202 0.906726
O O7 0.504925 0.394719 0.501273
O O8 0.739622 0.100721 0.835992
O O9 0.715975 0.945221 0.333233
O O10 0.703362 0.443845 0.267446
O O11 0.469483 0.159739 0.891217
O O12 0.003681 0.794362 0.781550
O O13 0.043958 0.313305 0.876140
O O14 0.179320 0.975109 0.189081
O O15 0.199849 0.055659 0.407266
O O16 0.960516 0.162684 0.928406
#
# Coordination Sequence:
#
# PCOD9117049 Si02
#       8
#     2   2   2   2   2   2   2   2
#     4   9  25  40  67 106 133 173 233 287 343 425
#     4  11  25  44  73 104 138 189 230 287 364 411
#     4  11  25  43  62  95 137 176 229 274 327 427
#     4  10  24  47  72  99 137 193 230 298 337 411
#     4  10  22  43  64  99 137 176 215 287 353 408
#     4   9  21  41  65  90 133 178 211 283 338 390
#     4  10  24  46  70 103 143 176 250 286 340 420
#     4  12  26  42  71 108 138 183 228 290 372 408
#
# _framework density 23.986201000000001
#
# number of rings (size 3 to 8) (size 9 to 14) (size 15 to 20)
#    0.750    1.000    0.000    2.250    7.000    4.000 
#    0.000    2.500    0.000    0.000    0.000    0.000 
#    0.000    0.000    0.000    0.000    0.000    0.000 
#
# Total GULP energy -89125.470148 kJ/mol
# GULP energy per Si atom -5570.341884 kJ/mol
# Density = 2.393161 g / cm^3
# Si number density = 23.986201 Si / 1000 Ang^3
#
#
#
# Elastic Constant Matrix: (Units=GPa)
#
#
# Indices 1 2 3 4 5 6 
#
# 1 106.7535 5.4141 0.9187 0.0000 -25.8757 0.0000
# 2 5.4141 137.6319 4.7414 0.0000 -2.1766 0.0000
# 3 0.9187 4.7414 60.8705 0.0000 -6.5228 0.0000
# 4 0.0000 0.0000 0.0000 32.4439 0.0000 -7.1177
# 5 -25.8757 -2.1766 -6.5228 0.0000 35.1086 0.0000
# 6 0.0000 0.0000 0.0000 -7.1177 0.0000 25.9845
#
#
#
# Elastic Compliance Matrix: (Units=1/GPa)
#
#
# Indices 1 2 3 4 5 6 
#
# 1 0.011454 -0.000342 0.000771 0.000000 0.008564 0.000000
# 2 -0.000342 0.007300 -0.000553 0.000000 0.000098 0.000000
# 3 0.000771 -0.000553 0.016853 0.000000 0.003665 0.000000
# 4 0.000000 0.000000 0.000000 0.032793 0.000000 0.008983
# 5 0.008564 0.000098 0.003665 0.000000 0.035482 0.000000
# 6 0.000000 0.000000 0.000000 0.008983 0.000000 0.040945
#
#
# Mechanical properties :
#
#
# Convention : Reuss Voigt Hill
#
# Bulk Modulus (GPa) = 28.28081 36.37827 32.32954
# Shear Modulus (GPa) = 31.87574 38.31951 35.09762
#
# Velocity S-wave (km/s) = 3.64939 4.00129 3.82938
# Velocity P-wave (km/s) = 5.43815 6.04536 5.74977
#
# Compressibility (1/GPa) = 0.03535966
#
# Stress axis : x y z
#
# Youngs Moduli (GPa) = 87.30710 136.99011 59.33838
#
# Poissons Ratio (x) = 0.04681 -0.04578
# Poissons Ratio (y) = 0.02983 0.03281
# Poissons Ratio (z) = -0.06735 0.07575
#
# Static dielectric constant tensor:
#      x y z
#    x 2.017480 0.000000 0.016510 
#    y 0.000000 2.068330 0.000000 
#    z 0.016510 0.000000 1.900440 
# 
# From -- ./inp_files/14600.got.cif
#   From: 2010.05.17/outbox.cif.g08.bks.cpg/sg4_8_cif.got.tgz:14600.got - 2010.06.03 18:43:04.
