data_PCOD9117041
_publ_section_title
;
Structure prediction by ZEFSAII (Michael W. Deem and Ramdas Pophale) SiO2 
 PCOD9117041
Probable space group: P 21
;
_chemical_formula_sum "Si O2"
_cell_formula_units_Z 12
_cell_length_a 11.600107
_cell_length_b 5.201226
_cell_length_c 7.788343
_cell_angle_alpha 90.000000
_cell_angle_beta 99.498108
_cell_angle_gamma 90.000000
_cell_volume 463.466003
_symmetry_space_group_name_H-M "P 21"
_symmetry_group_IT_number 4
_symmetry_cell_setting 'monoclinic'
loop_
_space_group_symop_operation_xyz
x,y,z
-x,1/2+y,-z
loop_
_atom_site_type_symbol
_atom_site_label
_atom_site_fract_x
_atom_site_fract_y
_atom_site_fract_z
Si Si1 0.003632 0.493410 0.072014
Si Si2 0.734747 0.449109 0.401835
Si Si3 0.558208 0.992238 0.089492
Si Si4 0.252598 0.820628 0.970823
Si Si5 0.387886 0.101555 0.315998
Si Si6 0.801030 0.936981 0.596051
O O1 0.886343 0.309221 0.057739
O O2 0.092333 0.489862 0.251674
O O3 0.943799 0.774179 0.043478
O O4 0.716627 0.472192 0.196659
O O5 0.621786 0.490578 0.495000
O O6 0.784363 0.174204 0.466273
O O7 0.817965 0.674722 0.493753
O O8 0.687929 0.048526 0.059982
O O9 0.516448 0.061151 0.270925
O O10 0.489364 0.216940 0.970800
O O11 0.305052 0.944825 0.158011
O O12 0.318495 0.371460 0.324875
#
# Coordination Sequence:
#
# PCOD9117041 Si02
#       6
#     2   2   2   2   2   2
#     4  12  24  40  71  98 130 178 223 271 334 407
#     4  10  24  42  66  99 132 171 219 275 330 405
#     4  10  24  40  68  98 128 174 219 277 323 392
#     4  11  24  45  69 101 129 180 231 264 341 405
#     4   9  22  46  64  91 138 167 217 274 335 379
#     4  10  22  43  62  97 133 172 211 279 331 382
#
# _framework density 25.891864999999999
#
# number of rings (size 3 to 8) (size 9 to 14) (size 15 to 20)
#    1.000    0.667    1.667    2.000    7.000    5.333 
#    3.000    0.000    0.000    0.000    0.000    0.000 
#    0.000    0.000    0.000    0.000    0.000    0.000 
#
# Total GULP energy -66942.264677 kJ/mol
# GULP energy per Si atom -5578.522056 kJ/mol
# Density = 2.583293 g / cm^3
# Si number density = 25.891865 Si / 1000 Ang^3
#
#
#
# Elastic Constant Matrix: (Units=GPa)
#
#
# Indices 1 2 3 4 5 6 
#
# 1 136.4054 56.4772 68.1543 0.0000 -56.5921 0.0000
# 2 56.4772 193.9881 74.5405 0.0000 -3.2747 0.0000
# 3 68.1543 74.5405 161.5354 0.0000 -37.5726 0.0000
# 4 0.0000 0.0000 0.0000 43.6333 0.0000 14.2439
# 5 -56.5921 -3.2747 -37.5726 0.0000 67.6524 0.0000
# 6 0.0000 0.0000 0.0000 14.2439 0.0000 25.1515
#
#
#
# Elastic Compliance Matrix: (Units=1/GPa)
#
#
# Indices 1 2 3 4 5 6 
#
# 1 0.013938 -0.003100 -0.002036 0.000000 0.010378 0.000000
# 2 -0.003100 0.007090 -0.002856 0.000000 -0.003836 0.000000
# 3 -0.002036 -0.002856 0.009117 0.000000 0.003222 0.000000
# 4 0.000000 0.000000 0.000000 0.028116 0.000000 -0.015923
# 5 0.010378 -0.003836 0.003222 0.000000 0.025067 0.000000
# 6 0.000000 0.000000 0.000000 -0.015923 0.000000 0.048776
#
#
# Mechanical properties :
#
#
# Convention : Reuss Voigt Hill
#
# Bulk Modulus (GPa) = 70.61987 98.91920 84.76953
# Shear Modulus (GPa) = 32.72054 46.80457 39.76255
#
# Velocity S-wave (km/s) = 3.55877 4.25631 3.92307
# Velocity P-wave (km/s) = 6.64985 7.90206 7.30285
#
# Compressibility (1/GPa) = 0.01416032
#
# Stress axis : x y z
#
# Youngs Moduli (GPa) = 71.74755 141.03856 109.68560
#
# Poissons Ratio (x) = 0.43726 0.22332
# Poissons Ratio (y) = 0.22244 0.31327
# Poissons Ratio (z) = 0.14608 0.40282
#
# Static dielectric constant tensor:
#      x y z
#    x 2.259620 0.000000 -0.162860 
#    y 0.000000 1.775150 0.000000 
#    z -0.162860 0.000000 2.135880 
# 
# From -- ./inp_files/7103.got.cif
#   From: 2010.05.17/outbox.cif.g08.bks.cpg/sg4_4_cif.got.tgz:7103.got - 2010.06.03 18:43:04.
