data_PCOD9117368
_publ_section_title
;
Structure prediction by ZEFSAII (Michael W. Deem and Ramdas Pophale) SiO2 
 PCOD9117368
Probable space group: P 21
;
_chemical_formula_sum "Si O2"
_cell_formula_units_Z 16
_cell_length_a 14.897976
_cell_length_b 8.195290
_cell_length_c 11.620256
_cell_angle_alpha 90.000000
_cell_angle_beta 152.010481
_cell_angle_gamma 90.000000
_cell_volume 665.835792
_symmetry_space_group_name_H-M "P 21"
_symmetry_group_IT_number 4
_symmetry_cell_setting 'monoclinic'
loop_
_space_group_symop_operation_xyz
x,y,z
-x,1/2+y,-z
loop_
_atom_site_type_symbol
_atom_site_label
_atom_site_fract_x
_atom_site_fract_y
_atom_site_fract_z
Si Si1 0.998348 0.769330 0.994325
Si Si2 0.606641 0.555605 0.839124
Si Si3 0.579367 0.691143 0.067943
Si Si4 0.786180 0.032726 0.344452
Si Si5 0.278785 0.505571 0.289669
Si Si6 0.010434 0.708983 0.252981
Si Si7 0.222711 0.725267 0.028757
Si Si8 0.939657 0.524936 0.547749
O O1 0.062264 0.577189 0.063838
O O2 0.070194 0.801374 0.205122
O O3 0.117152 0.817497 0.015890
O O4 0.775723 0.818733 0.745293
O O5 0.432157 0.573354 0.552123
O O6 0.651013 0.361009 0.890833
O O7 0.575568 0.631444 0.930495
O O8 0.795390 0.644656 0.004445
O O9 0.719283 0.572093 0.296588
O O10 0.673488 0.866573 0.192794
O O11 0.362005 0.672425 0.861448
O O12 0.851802 0.063879 0.549211
O O13 0.977472 0.035742 0.486615
O O14 0.323203 0.573459 0.211786
O O15 0.023063 0.845134 0.365032
O O16 0.064630 0.648184 0.766578
#
# Coordination Sequence:
#
# PCOD9117368 Si02
#       8
#     2   2   2   2   2   2   2   2
#     4  10  22  48  66 107 139 195 242 304 367 440
#     4  12  25  44  72 105 148 198 247 304 371 452
#     4  12  28  46  76 110 146 201 252 304 383 444
#     4  12  26  48  72 113 149 198 250 311 372 456
#     4  10  24  44  69 105 143 186 251 295 378 434
#     4  12  23  45  80  97 160 194 238 316 373 439
#     4  10  26  44  72 105 144 194 247 306 378 432
#     4  12  24  49  71 110 151 194 247 312 374 445
#
# _framework density 24.029948999999998
#
# number of rings (size 3 to 8) (size 9 to 14) (size 15 to 20)
#    0.750    0.000    3.750    3.000    5.250    1.000 
#    0.000    0.000    0.000    0.000    0.000    0.000 
#    0.000    0.000    0.000    0.000    0.000    0.000 
#
# Total GULP energy -89285.461738 kJ/mol
# GULP energy per Si atom -5580.341359 kJ/mol
# Density = 2.397526 g / cm^3
# Si number density = 24.029949 Si / 1000 Ang^3
#
#
#
# Elastic Constant Matrix: (Units=GPa)
#
#
# Indices 1 2 3 4 5 6 
#
# 1 43.3207 21.7376 18.8175 0.0000 -10.4439 0.0000
# 2 21.7376 69.0927 36.2131 0.0000 -8.3143 0.0000
# 3 18.8175 36.2131 139.9607 0.0000 -14.6285 0.0000
# 4 0.0000 0.0000 0.0000 45.9078 0.0000 -5.6077
# 5 -10.4439 -8.3143 -14.6285 0.0000 32.7430 0.0000
# 6 0.0000 0.0000 0.0000 -5.6077 0.0000 35.3018
#
#
#
# Elastic Compliance Matrix: (Units=1/GPa)
#
#
# Indices 1 2 3 4 5 6 
#
# 1 0.029114 -0.007708 -0.001210 0.000000 0.006788 0.000000
# 2 -0.007708 0.018971 -0.003803 0.000000 0.000659 0.000000
# 3 -0.001210 -0.003803 0.008550 0.000000 0.002468 0.000000
# 4 0.000000 0.000000 0.000000 0.022214 0.000000 0.003529
# 5 0.006788 0.000659 0.002468 0.000000 0.033976 0.000000
# 6 0.000000 0.000000 0.000000 0.003529 0.000000 0.028888
#
#
# Mechanical properties :
#
#
# Convention : Reuss Voigt Hill
#
# Bulk Modulus (GPa) = 32.06092 45.10116 38.58104
# Shear Modulus (GPa) = 28.16055 34.49757 31.32906
#
# Velocity S-wave (km/s) = 3.42701 3.79305 3.61467
# Velocity P-wave (km/s) = 5.38797 6.16380 5.78890
#
# Compressibility (1/GPa) = 0.03119062
#
# Stress axis : x y z
#
# Youngs Moduli (GPa) = 34.34785 52.71144 116.96483
#
# Poissons Ratio (x) = 0.40632 0.14157
# Poissons Ratio (y) = 0.26477 0.44485
# Poissons Ratio (z) = 0.04157 0.20048
#
# Static dielectric constant tensor:
#      x y z
#    x 1.901100 0.000000 -0.003530 
#    y 0.000000 2.020050 0.000000 
#    z -0.003530 0.000000 1.879010 
# 
# From -- ./inp_files/12674.got.cif
#   From: 2010.05.17/outbox.cif.g08.bks.cpg/sg4_7_cif.got.tgz:12674.got - 2010.06.03 18:43:04.
