data_PCOD9117548
_publ_section_title
;
Structure prediction by ZEFSAII (Michael W. Deem and Ramdas Pophale) SiO2 
 PCOD9117548
Probable space group: P 21
;
_chemical_formula_sum "Si O2"
_cell_formula_units_Z 16
_cell_length_a 12.971164
_cell_length_b 11.837067
_cell_length_c 9.401698
_cell_angle_alpha 90.000000
_cell_angle_beta 30.127728
_cell_angle_gamma 90.000000
_cell_volume 724.555999
_symmetry_space_group_name_H-M "P 21"
_symmetry_group_IT_number 4
_symmetry_cell_setting 'monoclinic'
loop_
_space_group_symop_operation_xyz
x,y,z
-x,1/2+y,-z
loop_
_atom_site_type_symbol
_atom_site_label
_atom_site_fract_x
_atom_site_fract_y
_atom_site_fract_z
Si Si1 0.690871 0.461090 0.373969
Si Si2 0.903216 0.255761 0.532755
Si Si3 0.883709 0.221736 0.099943
Si Si4 0.107066 0.338946 0.576620
Si Si5 0.064572 0.082328 0.145335
Si Si6 0.686170 0.080495 0.102702
Si Si7 0.466783 0.186025 0.109983
Si Si8 0.129881 0.006393 0.543280
O O1 0.755268 0.332778 0.287053
O O2 0.456333 0.473136 0.700633
O O3 0.831664 0.512842 0.332513
O O4 0.739580 0.526627 0.168776
O O5 0.073103 0.170756 0.265224
O O6 0.875128 0.375666 0.489494
O O7 0.960293 0.292885 0.625532
O O8 0.683274 0.194713 0.772952
O O9 0.965926 0.159974 0.140209
O O10 0.740287 0.136958 0.185654
O O11 0.052269 0.269129 0.785476
O O12 0.064841 0.470847 0.654153
O O13 0.335273 0.300665 0.260453
O O14 0.547728 0.162547 0.173166
O O15 0.904167 0.051199 0.772793
O O16 0.312468 0.082383 0.260053
#
# Coordination Sequence:
#
# PCOD9117548 Si02
#       8
#     2   2   2   2   2   2   2   2
#     4  10  23  42  68 102 138 181 237 290 354 412
#     4  12  27  45  72 105 145 188 234 289 359 418
#     4  11  20  46  66 103 139 183 231 298 345 417
#     4  11  26  46  73 100 147 185 237 295 349 421
#     4  11  25  46  72 105 143 181 240 294 351 419
#     4  11  22  42  72  99 136 186 236 287 354 413
#     4  11  24  45  70 100 138 190 232 289 354 426
#     4  11  23  44  73  98 140 186 235 294 348 416
#
# _framework density 22.08249
#
# number of rings (size 3 to 8) (size 9 to 14) (size 15 to 20)
#    0.000    1.000    5.000    0.750    5.250    3.000 
#    2.250    0.000    0.000    0.000    0.000    0.000 
#    0.000    0.000    0.000    0.000    0.000    0.000 
#
# Total GULP energy -89322.763345 kJ/mol
# GULP energy per Si atom -5582.672709 kJ/mol
# Density = 2.203223 g / cm^3
# Si number density = 22.082490 Si / 1000 Ang^3
#
#
#
# Elastic Constant Matrix: (Units=GPa)
#
#
# Indices 1 2 3 4 5 6 
#
# 1 65.1217 32.9434 30.4300 0.0000 2.7091 0.0000
# 2 32.9434 111.6401 29.6526 0.0000 10.3614 0.0000
# 3 30.4300 29.6526 72.9620 0.0000 -14.5273 0.0000
# 4 0.0000 0.0000 0.0000 38.0534 0.0000 8.2831
# 5 2.7091 10.3614 -14.5273 0.0000 32.9320 0.0000
# 6 0.0000 0.0000 0.0000 8.2831 0.0000 15.9565
#
#
#
# Elastic Compliance Matrix: (Units=1/GPa)
#
#
# Indices 1 2 3 4 5 6 
#
# 1 0.021226 -0.003701 -0.008183 0.000000 -0.004192 0.000000
# 2 -0.003701 0.011661 -0.004238 0.000000 -0.005234 0.000000
# 3 -0.008183 -0.004238 0.021093 0.000000 0.011311 0.000000
# 4 0.000000 0.000000 0.000000 0.029626 0.000000 -0.015379
# 5 -0.004192 -0.005234 0.011311 0.000000 0.037347 0.000000
# 6 0.000000 0.000000 0.000000 -0.015379 0.000000 0.070654
#
#
# Mechanical properties :
#
#
# Convention : Reuss Voigt Hill
#
# Bulk Modulus (GPa) = 46.00552 48.41953 47.21252
# Shear Modulus (GPa) = 21.63599 27.83490 24.73544
#
# Velocity S-wave (km/s) = 3.13354 3.55420 3.35048
# Velocity P-wave (km/s) = 5.82845 6.23036 6.03275
#
# Compressibility (1/GPa) = 0.02173652
#
# Stress axis : x y z
#
# Youngs Moduli (GPa) = 47.11133 85.75780 47.40899
#
# Poissons Ratio (x) = 0.31739 0.38796
# Poissons Ratio (y) = 0.17436 0.20090
# Poissons Ratio (z) = 0.38552 0.36340
#
# Static dielectric constant tensor:
#      x y z
#    x 1.796990 0.000000 0.038080 
#    y 0.000000 1.814780 0.000000 
#    z 0.038080 0.000000 1.859700 
# 
# From -- ./inp_files/2918.got.cif
#   From: 2010.05.17/outbox.cif.g08.bks.cpg/sg4_2_cif.got.tgz:2918.got - 2010.06.03 18:43:04.
