data_PCOD9117788
_publ_section_title
;
Structure prediction by ZEFSAII (Michael W. Deem and Ramdas Pophale) SiO2 
 PCOD9117788
Probable space group: P 21
;
_chemical_formula_sum "Si O2"
_cell_formula_units_Z 16
_cell_length_a 11.013414
_cell_length_b 10.937021
_cell_length_c 6.009083
_cell_angle_alpha 90.000000
_cell_angle_beta 109.049271
_cell_angle_gamma 90.000000
_cell_volume 684.180204
_symmetry_space_group_name_H-M "P 21"
_symmetry_group_IT_number 4
_symmetry_cell_setting 'monoclinic'
loop_
_space_group_symop_operation_xyz
x,y,z
-x,1/2+y,-z
loop_
_atom_site_type_symbol
_atom_site_label
_atom_site_fract_x
_atom_site_fract_y
_atom_site_fract_z
Si Si1 0.126249 0.366670 0.168552
Si Si2 0.900377 0.672813 0.248739
Si Si3 0.748678 0.102559 0.866033
Si Si4 0.104676 0.759981 0.681668
Si Si5 0.309372 0.820978 0.466938
Si Si6 0.314262 0.206366 0.500281
Si Si7 0.282454 0.012097 0.089071
Si Si8 0.481079 0.014923 0.810463
O O1 0.139146 0.508571 0.128980
O O2 0.264476 0.332742 0.366990
O O3 0.011628 0.327571 0.263384
O O4 0.106200 0.284370 0.933311
O O5 0.791320 0.686089 0.372087
O O6 0.033170 0.673831 0.458664
O O7 0.851088 0.551680 0.099172
O O8 0.694333 0.180680 0.621475
O O9 0.633175 0.024666 0.907670
O O10 0.810473 0.187200 0.091756
O O11 0.202591 0.838879 0.592929
O O12 0.269050 0.891162 0.221581
O O13 0.432106 0.898375 0.632604
O O14 0.306011 0.117363 0.284053
O O15 0.440192 0.150749 0.692526
O O16 0.401819 0.003388 0.992056
#
# Coordination Sequence:
#
# PCOD9117788 Si02
#       8
#     2   2   2   2   2   2   2   2
#     4  10  23  48  71 105 146 190 241 303 359 437
#     4   9  19  44  70 103 138 187 237 295 362 427
#     4  12  28  48  72 111 147 191 246 300 358 443
#     4  11  25  49  68 111 148 190 242 302 363 434
#     4  11  25  49  69 111 145 190 241 300 371 431
#     4   8  18  40  74 105 134 184 238 292 368 423
#     4   9  19  45  72 107 137 188 245 299 363 435
#     4  10  23  45  76 105 143 188 238 307 364 432
#
# _framework density 23.385650999999999
#
# number of rings (size 3 to 8) (size 9 to 14) (size 15 to 20)
#    0.000    2.000    0.000    1.500    1.750    4.000 
#   69.750    0.000    0.000    0.000    0.000    0.000 
#    0.000    0.000    0.000    0.000    0.000    0.000 
#
# Total GULP energy -89258.434061 kJ/mol
# GULP energy per Si atom -5578.652129 kJ/mol
# Density = 2.333242 g / cm^3
# Si number density = 23.385651 Si / 1000 Ang^3
#
#
#
# Elastic Constant Matrix: (Units=GPa)
#
#
# Indices 1 2 3 4 5 6 
#
# 1 162.1430 47.1174 54.3958 0.0000 -7.5192 0.0000
# 2 47.1174 71.4130 42.6764 0.0000 -19.9768 0.0000
# 3 54.3958 42.6764 85.6952 0.0000 -24.2436 0.0000
# 4 0.0000 0.0000 0.0000 13.8413 0.0000 -17.1608
# 5 -7.5192 -19.9768 -24.2436 0.0000 24.7777 0.0000
# 6 0.0000 0.0000 0.0000 -17.1608 0.0000 27.9350
#
#
#
# Elastic Compliance Matrix: (Units=1/GPa)
#
#
# Indices 1 2 3 4 5 6 
#
# 1 0.008903 -0.004482 -0.005084 0.000000 -0.005887 0.000000
# 2 -0.004482 0.023682 -0.005437 0.000000 0.012414 0.000000
# 3 -0.005084 -0.005437 0.022024 0.000000 0.015623 0.000000
# 4 0.000000 0.000000 0.000000 0.303107 0.000000 0.186202
# 5 -0.005887 0.012414 0.015623 0.000000 0.063867 0.000000
# 6 0.000000 0.000000 0.000000 0.186202 0.000000 0.150184
#
#
# Mechanical properties :
#
#
# Convention : Reuss Voigt Hill
#
# Bulk Modulus (GPa) = 40.64698 67.51451 54.08075
# Shear Modulus (GPa) = 8.19709 24.98156 16.58932
#
# Velocity S-wave (km/s) = 1.87424 3.27194 2.66631
# Velocity P-wave (km/s) = 4.70134 6.57320 5.71443
#
# Compressibility (1/GPa) = 0.02460207
#
# Stress axis : x y z
#
# Youngs Moduli (GPa) = 112.32739 42.22654 45.40552
#
# Poissons Ratio (x) = 0.18927 0.23085
# Poissons Ratio (y) = 0.50347 0.24685
# Poissons Ratio (z) = 0.57110 0.22957
#
# Static dielectric constant tensor:
#      x y z
#    x 1.879460 0.000000 0.027600 
#    y 0.000000 1.930030 0.000000 
#    z 0.027600 0.000000 1.911010 
# 
# From -- ./inp_files/2881.got.cif
#   From: 2010.05.17/outbox.cif.g08.bks.cpg/sg4_2_cif.got.tgz:2881.got - 2010.06.03 18:43:04.
