data_PCOD9117528
_publ_section_title
;
Structure prediction by ZEFSAII (Michael W. Deem and Ramdas Pophale) SiO2 
 PCOD9117528
Probable space group: P 21
;
_chemical_formula_sum "Si O2"
_cell_formula_units_Z 12
_cell_length_a 4.935036
_cell_length_b 5.198974
_cell_length_c 17.337535
_cell_angle_alpha 90.000000
_cell_angle_beta 113.074758
_cell_angle_gamma 90.000000
_cell_volume 409.242224
_symmetry_space_group_name_H-M "P 21"
_symmetry_group_IT_number 4
_symmetry_cell_setting 'monoclinic'
loop_
_space_group_symop_operation_xyz
x,y,z
-x,1/2+y,-z
loop_
_atom_site_type_symbol
_atom_site_label
_atom_site_fract_x
_atom_site_fract_y
_atom_site_fract_z
Si Si1 0.642127 0.676140 0.145426
Si Si2 0.143156 0.651884 0.979453
Si Si3 0.235608 0.384001 0.686279
Si Si4 0.207196 0.299669 0.519819
Si Si5 0.198453 0.358320 0.185492
Si Si6 0.829768 0.876671 0.646426
O O1 0.600356 0.867962 0.213188
O O2 0.473771 0.429140 0.163477
O O3 0.976758 0.602959 0.166608
O O4 0.469984 0.721910 0.046265
O O5 0.030126 0.658066 0.878831
O O6 0.037707 0.388647 0.004441
O O7 0.386963 0.329421 0.619950
O O8 0.068585 0.651035 0.664573
O O9 0.002952 0.146630 0.665403
O O10 0.966957 0.530629 0.496667
O O11 0.356663 0.346098 0.453067
O O12 0.303347 0.319593 0.284530
#
# Coordination Sequence:
#
# PCOD9117528 Si02
#       6
#     2   2   2   2   2   2
#     4  10  23  42  65  92 124 162 204 252 305 362
#     4  10  24  44  66  92 124 162 204 252 306 364
#     4   9  18  33  57  87 120 158 200 247 299 356
#     4   8  14  28  52  82 116 154 196 242 294 352
#     4  10  23  42  65  92 124 162 204 252 305 362
#     4   9  18  33  57  87 120 158 200 247 299 356
#
# _framework density 29.322489999999998
#
# number of rings (size 3 to 8) (size 9 to 14) (size 15 to 20)
#    0.000    2.667    0.000    0.000    0.000   17.333 
#    0.000    0.000    0.000   28.000    0.000    0.000 
#    0.000    0.000    0.000    0.000    0.000    0.000 
#
# Total GULP energy -67225.621831 kJ/mol
# GULP energy per Si atom -5602.135153 kJ/mol
# Density = 2.925575 g / cm^3
# Si number density = 29.322490 Si / 1000 Ang^3
#
#
#
# Elastic Constant Matrix: (Units=GPa)
#
#
# Indices 1 2 3 4 5 6 
#
# 1 88.1752 53.4448 42.9236 0.0000 2.6702 0.0000
# 2 53.4448 118.3053 46.7899 0.0000 15.3107 0.0000
# 3 42.9236 46.7899 190.5109 0.0000 -11.8880 0.0000
# 4 0.0000 0.0000 0.0000 57.3442 0.0000 5.3878
# 5 2.6702 15.3107 -11.8880 0.0000 37.8156 0.0000
# 6 0.0000 0.0000 0.0000 5.3878 0.0000 17.0329
#
#
#
# Elastic Compliance Matrix: (Units=1/GPa)
#
#
# Indices 1 2 3 4 5 6 
#
# 1 0.016351 -0.006730 -0.001972 0.000000 0.000950 0.000000
# 2 -0.006730 0.012990 -0.002012 0.000000 -0.005417 0.000000
# 3 -0.001972 -0.002012 0.006372 0.000000 0.002957 0.000000
# 4 0.000000 0.000000 0.000000 0.017973 0.000000 -0.005685
# 5 0.000950 -0.005417 0.002957 0.000000 0.029500 0.000000
# 6 0.000000 0.000000 0.000000 -0.005685 0.000000 0.060508
#
#
# Mechanical properties :
#
#
# Convention : Reuss Voigt Hill
#
# Bulk Modulus (GPa) = 70.00122 75.92311 72.96217
# Shear Modulus (GPa) = 29.43203 39.36073 34.39638
#
# Velocity S-wave (km/s) = 3.17162 3.66777 3.42868
# Velocity P-wave (km/s) = 6.11039 6.62460 6.37269
#
# Compressibility (1/GPa) = 0.01428546
#
# Stress axis : x y z
#
# Youngs Moduli (GPa) = 61.15720 76.98419 156.93652
#
# Poissons Ratio (x) = 0.51809 0.30947
# Poissons Ratio (y) = 0.41158 0.31576
# Poissons Ratio (z) = 0.12060 0.15489
#
# Static dielectric constant tensor:
#      x y z
#    x 2.150030 0.000000 0.004100 
#    y 0.000000 2.260100 0.000000 
#    z 0.004100 0.000000 2.511370 
# 
# From -- ./inp_files/3934.got.cif
#   From: 2010.05.17/outbox.cif.g08.bks.cpg/sg4_2_cif.got.tgz:3934.got - 2010.06.03 18:43:04.
