data_PCOD9117596
_publ_section_title
;
Structure prediction by ZEFSAII (Michael W. Deem and Ramdas Pophale) SiO2 
 PCOD9117596
Probable space group: P 21
;
_chemical_formula_sum "Si O2"
_cell_formula_units_Z 12
_cell_length_a 11.301450
_cell_length_b 8.069726
_cell_length_c 4.902341
_cell_angle_alpha 90.000000
_cell_angle_beta 95.095308
_cell_angle_gamma 90.000000
_cell_volume 445.324809
_symmetry_space_group_name_H-M "P 21"
_symmetry_group_IT_number 4
_symmetry_cell_setting 'monoclinic'
loop_
_space_group_symop_operation_xyz
x,y,z
-x,1/2+y,-z
loop_
_atom_site_type_symbol
_atom_site_label
_atom_site_fract_x
_atom_site_fract_y
_atom_site_fract_z
Si Si1 0.222125 0.706610 0.358187
Si Si2 0.627313 0.652475 0.974221
Si Si3 0.432571 0.846105 0.691791
Si Si4 0.681457 0.857484 0.505899
Si Si5 0.012935 0.654442 0.927782
Si Si6 0.963438 0.444218 0.399885
O O1 0.350054 0.786816 0.429192
O O2 0.236358 0.516727 0.454133
O O3 0.143055 0.826568 0.529760
O O4 0.145261 0.694787 0.067356
O O5 0.630240 0.476268 0.121380
O O6 0.670268 0.787379 0.202233
O O7 0.489315 0.693853 0.873067
O O8 0.697656 0.697389 0.710874
O O9 0.552005 0.920628 0.584763
O O10 0.961696 0.817105 0.771366
O O11 0.009899 0.517300 0.691779
O O12 0.942263 0.593076 0.181650
#
# Coordination Sequence:
#
# PCOD9117596 Si02
#       6
#     2   2   2   2   2   2
#     4  12  26  49  85 108 158 213 256 320 416 454
#     4  10  23  43  66 105 167 198 257 312 367 445
#     4  10  24  45  73 114 161 210 257 315 372 476
#     4  10  25  44  71 111 156 206 255 315 371 476
#     4  12  26  53  75 118 149 206 268 340 398 465
#     4  12  26  52  80 110 155 203 265 344 394 468
#
# _framework density 26.946622999999999
#
# number of rings (size 3 to 8) (size 9 to 14) (size 15 to 20)
#    1.000    0.000    3.333    2.000    4.667    1.333 
#    9.000    0.000    0.000    0.000    0.000    0.000 
#    0.000    0.000    0.000    0.000    0.000    0.000 
#
# Total GULP energy -67130.647951 kJ/mol
# GULP energy per Si atom -5594.220663 kJ/mol
# Density = 2.688529 g / cm^3
# Si number density = 26.946623 Si / 1000 Ang^3
#
#
#
# Elastic Constant Matrix: (Units=GPa)
#
#
# Indices 1 2 3 4 5 6 
#
# 1 85.8658 35.8885 32.5256 0.0000 22.2310 0.0000
# 2 35.8885 111.7871 51.2585 0.0000 29.5588 0.0000
# 3 32.5256 51.2585 190.0630 0.0000 24.8144 0.0000
# 4 0.0000 0.0000 0.0000 79.7583 0.0000 5.6308
# 5 22.2310 29.5588 24.8144 0.0000 29.4761 0.0000
# 6 0.0000 0.0000 0.0000 5.6308 0.0000 45.1962
#
#
#
# Elastic Compliance Matrix: (Units=1/GPa)
#
#
# Indices 1 2 3 4 5 6 
#
# 1 0.015084 -0.002212 -0.000887 0.000000 -0.008412 0.000000
# 2 -0.002212 0.013139 -0.001868 0.000000 -0.009936 0.000000
# 3 -0.000887 -0.001868 0.006275 0.000000 -0.002741 0.000000
# 4 0.000000 0.000000 0.000000 0.012649 0.000000 -0.001576
# 5 -0.008412 -0.009936 -0.002741 0.000000 0.052541 0.000000
# 6 0.000000 0.000000 0.000000 -0.001576 0.000000 0.022322
#
#
# Mechanical properties :
#
#
# Convention : Reuss Voigt Hill
#
# Bulk Modulus (GPa) = 40.70701 69.67345 55.19023
# Shear Modulus (GPa) = 35.68070 48.75567 42.21818
#
# Velocity S-wave (km/s) = 3.64280 4.25825 3.96249
# Velocity P-wave (km/s) = 5.72998 7.07737 6.43901
#
# Compressibility (1/GPa) = 0.02456579
#
# Stress axis : x y z
#
# Youngs Moduli (GPa) = 66.29396 76.10732 159.37041
#
# Poissons Ratio (x) = 0.16833 0.14130
# Poissons Ratio (y) = 0.14663 0.29769
# Poissons Ratio (z) = 0.05878 0.14216
#
# Static dielectric constant tensor:
#      x y z
#    x 2.148350 0.000000 -0.015750 
#    y 0.000000 2.203550 0.000000 
#    z -0.015750 0.000000 2.041030 
# 
# From -- ./inp_files/2542.got.cif
#   From: 2010.05.17/outbox.cif.g08.bks.cpg/sg4_2_cif.got.tgz:2542.got - 2010.06.03 18:43:04.
