data_PCOD9117422
_publ_section_title
;
Structure prediction by ZEFSAII (Michael W. Deem and Ramdas Pophale) SiO2 
 PCOD9117422
Probable space group: P 21
;
_chemical_formula_sum "Si O2"
_cell_formula_units_Z 14
_cell_length_a 9.022425
_cell_length_b 8.750632
_cell_length_c 12.337782
_cell_angle_alpha 90.000000
_cell_angle_beta 37.724316
_cell_angle_gamma 90.000000
_cell_volume 596.010383
_symmetry_space_group_name_H-M "P 21"
_symmetry_group_IT_number 4
_symmetry_cell_setting 'monoclinic'
loop_
_space_group_symop_operation_xyz
x,y,z
-x,1/2+y,-z
loop_
_atom_site_type_symbol
_atom_site_label
_atom_site_fract_x
_atom_site_fract_y
_atom_site_fract_z
Si Si1 0.774958 0.523890 0.331165
Si Si2 0.050584 0.061395 0.141133
Si Si3 0.173405 0.034308 0.295883
Si Si4 0.442888 0.610204 0.072750
Si Si5 0.197262 0.735122 0.017332
Si Si6 0.953563 0.886235 0.623827
Si Si7 0.413099 0.739668 0.671817
O O1 0.905946 0.417017 0.345327
O O2 0.622835 0.648962 0.487503
O O3 0.607302 0.414845 0.355212
O O4 0.982863 0.610567 0.142660
O O5 0.841571 0.162685 0.215012
O O6 0.994330 0.009985 0.297448
O O7 0.091010 0.903026 0.056300
O O8 0.311648 0.147360 0.003537
O O9 0.133603 0.214264 0.339552
O O10 0.120564 0.930677 0.427231
O O11 0.441085 0.011707 0.093171
O O12 0.297885 0.729902 0.083014
O O13 0.266896 0.507107 0.245150
O O14 0.403348 0.716259 0.806903
#
# Coordination Sequence:
#
# PCOD9117422 Si02
#       7
#     2   2   2   2   2   2   2
#     4  11  25  43  68  94 135 171 225 270 320 397
#     4  10  23  44  64  97 136 164 220 272 320 395
#     4  10  23  39  65  97 132 165 214 263 331 379
#     4   9  22  41  66  95 132 161 219 267 317 384
#     4  11  23  44  70  96 128 179 216 271 329 391
#     4  11  22  42  66  99 129 175 210 273 326 384
#     4  12  24  47  65  96 134 175 220 268 331 388
#
# _framework density 23.489526000000001
#
# number of rings (size 3 to 8) (size 9 to 14) (size 15 to 20)
#    0.857    0.571    1.429    3.429    4.000    0.000 
#    7.714    1.429    0.000    0.000    0.000    0.000 
#    0.000    0.000    0.000    0.000    0.000    0.000 
#
# Total GULP energy -78187.656315 kJ/mol
# GULP energy per Si atom -5584.832594 kJ/mol
# Density = 2.343606 g / cm^3
# Si number density = 23.489526 Si / 1000 Ang^3
#
#
#
# Elastic Constant Matrix: (Units=GPa)
#
#
# Indices 1 2 3 4 5 6 
#
# 1 61.6248 14.1834 -10.7223 0.0000 -10.5016 0.0000
# 2 14.1834 94.7183 15.1532 0.0000 -0.5701 0.0000
# 3 -10.7223 15.1532 70.3981 0.0000 -1.3795 0.0000
# 4 0.0000 0.0000 0.0000 26.3077 0.0000 1.8857
# 5 -10.5016 -0.5701 -1.3795 0.0000 31.6929 0.0000
# 6 0.0000 0.0000 0.0000 1.8857 0.0000 33.5141
#
#
#
# Elastic Compliance Matrix: (Units=1/GPa)
#
#
# Indices 1 2 3 4 5 6 
#
# 1 0.018717 -0.003356 0.003697 0.000000 0.006302 0.000000
# 2 -0.003356 0.011536 -0.003015 0.000000 -0.001036 0.000000
# 3 0.003697 -0.003015 0.015453 0.000000 0.001843 0.000000
# 4 0.000000 0.000000 0.000000 0.038166 0.000000 -0.002147
# 5 0.006302 -0.001036 0.001843 0.000000 0.033703 0.000000
# 6 0.000000 0.000000 0.000000 -0.002147 0.000000 0.029959
#
#
# Mechanical properties :
#
#
# Convention : Reuss Voigt Hill
#
# Bulk Modulus (GPa) = 24.77836 29.32999 27.05417
# Shear Modulus (GPa) = 30.05991 32.17806 31.11898
#
# Velocity S-wave (km/s) = 3.58119 3.70522 3.64373
# Velocity P-wave (km/s) = 5.26037 5.55143 5.40786
#
# Compressibility (1/GPa) = 0.04035780
#
# Stress axis : x y z
#
# Youngs Moduli (GPa) = 53.42764 86.68326 64.71232
#
# Poissons Ratio (x) = 0.29093 -0.23922
# Poissons Ratio (y) = 0.17931 0.19509
# Poissons Ratio (z) = -0.19751 0.26132
#
# Static dielectric constant tensor:
#      x y z
#    x 1.924190 0.000000 0.005690 
#    y 0.000000 1.910060 0.000000 
#    z 0.005690 0.000000 1.882030 
# 
# From -- ./inp_files/11005.got.cif
#   From: 2010.05.17/outbox.cif.g08.bks.cpg/sg4_6_cif.got.tgz:11005.got - 2010.06.03 18:43:04.
