data_PCOD9117725
_publ_section_title
;
Structure prediction by ZEFSAII (Michael W. Deem and Ramdas Pophale) SiO2 
 PCOD9117725
Probable space group: P 21
;
_chemical_formula_sum "Si O2"
_cell_formula_units_Z 10
_cell_length_a 9.254346
_cell_length_b 9.580777
_cell_length_c 5.092911
_cell_angle_alpha 90.000000
_cell_angle_beta 124.684301
_cell_angle_gamma 90.000000
_cell_volume 371.315294
_symmetry_space_group_name_H-M "P 21"
_symmetry_group_IT_number 4
_symmetry_cell_setting 'monoclinic'
loop_
_space_group_symop_operation_xyz
x,y,z
-x,1/2+y,-z
loop_
_atom_site_type_symbol
_atom_site_label
_atom_site_fract_x
_atom_site_fract_y
_atom_site_fract_z
Si Si1 0.683921 0.720030 0.126354
Si Si2 0.734553 0.440496 0.439350
Si Si3 0.423001 0.375971 0.477198
Si Si4 0.050865 0.811768 0.714789
Si Si5 0.924048 0.050745 0.924291
O O1 0.646926 0.564566 0.182114
O O2 0.594598 0.824931 0.243572
O O3 0.888491 0.752330 0.382268
O O4 0.634242 0.749448 0.776709
O O5 0.612911 0.414488 0.563394
O O6 0.778915 0.312418 0.293121
O O7 0.927047 0.492184 0.725330
O O8 0.274767 0.493118 0.262562
O O9 0.074220 0.713468 0.995117
O O10 0.996318 0.969088 0.742691
#
# Coordination Sequence:
#
# PCOD9117725 Si02
#       5
#     2   2   2   2   2
#     4  10  25  46  66 103 140 174 233 288 334 412
#     4  11  25  41  72  97 135 187 228 282 346 409
#     4  11  25  45  68 100 140 177 230 286 342 406
#     4  10  23  44  72  97 143 182 232 282 347 407
#     4  10  24  44  64 105 134 188 223 292 337 414
#
# _framework density 26.931291000000002
#
# number of rings (size 3 to 8) (size 9 to 14) (size 15 to 20)
#    0.000    1.600    2.000    0.000   14.000    0.000 
#    0.000    0.000    0.000    0.000    0.000    0.000 
#    0.000    0.000    0.000    0.000    0.000    0.000 
#
# Total GULP energy -55998.754100 kJ/mol
# GULP energy per Si atom -5599.875410 kJ/mol
# Density = 2.686999 g / cm^3
# Si number density = 26.931291 Si / 1000 Ang^3
#
#
#
# Elastic Constant Matrix: (Units=GPa)
#
#
# Indices 1 2 3 4 5 6 
#
# 1 187.3487 53.7913 27.1606 0.0000 14.7444 0.0000
# 2 53.7913 106.0443 13.2024 0.0000 8.3045 0.0000
# 3 27.1606 13.2024 65.6503 0.0000 15.9466 0.0000
# 4 0.0000 0.0000 0.0000 41.5525 0.0000 -5.1581
# 5 14.7444 8.3045 15.9466 0.0000 31.5097 0.0000
# 6 0.0000 0.0000 0.0000 -5.1581 0.0000 29.0230
#
#
#
# Elastic Compliance Matrix: (Units=1/GPa)
#
#
# Indices 1 2 3 4 5 6 
#
# 1 0.006566 -0.003001 -0.001777 0.000000 -0.001382 0.000000
# 2 -0.003001 0.011133 -0.000713 0.000000 -0.001169 0.000000
# 3 -0.001777 -0.000713 0.018087 0.000000 -0.008134 0.000000
# 4 0.000000 0.000000 0.000000 0.024609 0.000000 0.004374
# 5 -0.001382 -0.001169 -0.008134 0.000000 0.036807 0.000000
# 6 0.000000 0.000000 0.000000 0.004374 0.000000 0.035233
#
#
# Mechanical properties :
#
#
# Convention : Reuss Voigt Hill
#
# Bulk Modulus (GPa) = 40.31935 60.81688 50.56811
# Shear Modulus (GPa) = 32.96325 38.07631 35.51978
#
# Velocity S-wave (km/s) = 3.50233 3.76417 3.63561
# Velocity P-wave (km/s) = 5.59989 6.44386 6.03664
#
# Compressibility (1/GPa) = 0.02480199
#
# Stress axis : x y z
#
# Youngs Moduli (GPa) = 152.30723 89.82612 55.28955
#
# Poissons Ratio (x) = 0.26957 0.09826
# Poissons Ratio (y) = 0.45707 0.03944
# Poissons Ratio (z) = 0.27067 0.06408
#
# Static dielectric constant tensor:
#      x y z
#    x 2.038420 0.000000 0.008300 
#    y 0.000000 2.117670 0.000000 
#    z 0.008300 0.000000 2.127320 
# 
# From -- ./inp_files/899.got.cif
#   From: 2010.05.17/outbox.cif.g08.bks.cpg/sg4_1_cif.got.tgz:899.got - 2010.06.03 18:43:04.
