data_PCOD9117497
_publ_section_title
;
Structure prediction by ZEFSAII (Michael W. Deem and Ramdas Pophale) SiO2 
 PCOD9117497
Probable space group: P 21
;
_chemical_formula_sum "Si O2"
_cell_formula_units_Z 12
_cell_length_a 8.485244
_cell_length_b 10.701506
_cell_length_c 5.603083
_cell_angle_alpha 90.000000
_cell_angle_beta 72.568955
_cell_angle_gamma 90.000000
_cell_volume 485.422881
_symmetry_space_group_name_H-M "P 21"
_symmetry_group_IT_number 4
_symmetry_cell_setting 'monoclinic'
loop_
_space_group_symop_operation_xyz
x,y,z
-x,1/2+y,-z
loop_
_atom_site_type_symbol
_atom_site_label
_atom_site_fract_x
_atom_site_fract_y
_atom_site_fract_z
Si Si1 0.156781 0.545930 0.705511
Si Si2 0.182285 0.102405 0.876042
Si Si3 0.952017 0.444868 0.426342
Si Si4 0.435494 0.862506 0.816633
Si Si5 0.338382 0.759677 0.361244
Si Si6 0.742072 0.869708 0.983427
O O1 0.069313 0.438354 0.597474
O O2 0.246041 0.634422 0.477737
O O3 0.287311 0.483628 0.821687
O O4 0.993342 0.605880 0.901899
O O5 0.307107 0.982656 0.869401
O O6 0.272530 0.231158 0.899741
O O7 0.117518 0.077996 0.635108
O O8 0.796085 0.367029 0.559615
O O9 0.065368 0.389281 0.167164
O O10 0.387885 0.770057 0.060631
O O11 0.619381 0.893776 0.820718
O O12 0.442070 0.796007 0.555040
#
# Coordination Sequence:
#
# PCOD9117497 Si02
#       6
#     2   2   2   2   2   2
#     4  11  24  41  72 101 135 193 243 291 347 428
#     4  10  23  44  69  98 145 181 239 294 347 425
#     4  10  23  41  70 100 131 185 238 286 348 418
#     4  11  27  48  68 108 140 188 226 297 365 413
#     4  11  25  47  71  96 145 182 235 289 350 423
#     4  11  26  43  70 103 142 187 237 293 363 421
#
# _framework density 24.720713
#
# number of rings (size 3 to 8) (size 9 to 14) (size 15 to 20)
#    0.000    1.333    3.333    0.000   11.667    0.000 
#    3.000    0.000    0.000    0.000    0.000    0.000 
#    0.000    0.000    0.000    0.000    0.000    0.000 
#
# Total GULP energy -66892.437365 kJ/mol
# GULP energy per Si atom -5574.369780 kJ/mol
# Density = 2.466445 g / cm^3
# Si number density = 24.720713 Si / 1000 Ang^3
#
#
#
# Elastic Constant Matrix: (Units=GPa)
#
#
# Indices 1 2 3 4 5 6 
#
# 1 93.9191 8.9999 31.2653 0.0000 26.1357 0.0000
# 2 8.9999 45.0831 10.2319 0.0000 5.1415 0.0000
# 3 31.2653 10.2319 84.8648 0.0000 10.1088 0.0000
# 4 0.0000 0.0000 0.0000 27.0929 0.0000 -2.2791
# 5 26.1357 5.1415 10.1088 0.0000 49.1291 0.0000
# 6 0.0000 0.0000 0.0000 -2.2791 0.0000 21.4776
#
#
#
# Elastic Compliance Matrix: (Units=1/GPa)
#
#
# Indices 1 2 3 4 5 6 
#
# 1 0.013956 -0.001089 -0.004243 0.000000 -0.006437 0.000000
# 2 -0.001089 0.023058 -0.002215 0.000000 -0.001378 0.000000
# 3 -0.004243 -0.002215 0.013652 0.000000 -0.000320 0.000000
# 4 0.000000 0.000000 0.000000 0.037243 0.000000 0.003952
# 5 -0.006437 -0.001378 -0.000320 0.000000 0.023989 0.000000
# 6 0.000000 0.000000 0.000000 0.003952 0.000000 0.046979
#
#
# Mechanical properties :
#
#
# Convention : Reuss Voigt Hill
#
# Bulk Modulus (GPa) = 28.11196 36.09569 32.10383
# Shear Modulus (GPa) = 26.90653 31.09790 29.00221
#
# Velocity S-wave (km/s) = 3.30270 3.55063 3.42891
# Velocity P-wave (km/s) = 5.09316 5.60736 5.35643
#
# Compressibility (1/GPa) = 0.03557205
#
# Stress axis : x y z
#
# Youngs Moduli (GPa) = 71.65516 43.36802 73.24980
#
# Poissons Ratio (x) = 0.04722 0.31083
# Poissons Ratio (y) = 0.07802 0.16223
# Poissons Ratio (z) = 0.30406 0.09605
#
# Static dielectric constant tensor:
#      x y z
#    x 2.070150 0.000000 -0.050320 
#    y 0.000000 2.002180 0.000000 
#    z -0.050320 0.000000 2.031990 
# 
# From -- ./inp_files/1067.got.cif
#   From: 2010.05.17/outbox.cif.g08.bks.cpg/sg4_1_cif.got.tgz:1067.got - 2010.06.03 18:43:04.
