data_PCOD9117610
_publ_section_title
;
Structure prediction by ZEFSAII (Michael W. Deem and Ramdas Pophale) SiO2 
 PCOD9117610
Probable space group: P 21
;
_chemical_formula_sum "Si O2"
_cell_formula_units_Z 10
_cell_length_a 13.784939
_cell_length_b 5.007310
_cell_length_c 13.578802
_cell_angle_alpha 90.000000
_cell_angle_beta 156.985616
_cell_angle_gamma 90.000000
_cell_volume 366.442267
_symmetry_space_group_name_H-M "P 21"
_symmetry_group_IT_number 4
_symmetry_cell_setting 'monoclinic'
loop_
_space_group_symop_operation_xyz
x,y,z
-x,1/2+y,-z
loop_
_atom_site_type_symbol
_atom_site_label
_atom_site_fract_x
_atom_site_fract_y
_atom_site_fract_z
Si Si1 0.787849 0.605130 0.192853
Si Si2 0.697254 0.791515 0.325382
Si Si3 0.859129 0.905391 0.078441
Si Si4 0.930937 0.758492 0.870607
Si Si5 0.378136 0.952985 0.547089
O O1 0.738248 0.632665 0.261987
O O2 0.809253 0.875001 0.147330
O O3 0.051403 0.460783 0.427903
O O4 0.548264 0.464508 0.922773
O O5 0.651199 0.614280 0.378170
O O6 0.906254 0.200216 0.076584
O O7 0.129297 0.776355 0.311484
O O8 0.632569 0.799809 0.800901
O O9 0.659868 0.658854 0.578808
O O10 0.032952 0.530357 0.039614
#
# Coordination Sequence:
#
# PCOD9117610 Si02
#       5
#     2   2   2   2   2
#     4  12  24  40  67 100 145 190 238 292 357 435
#     4  12  24  40  67 100 145 190 238 292 357 435
#     4  10  23  43  67  98 139 179 241 290 364 420
#     4  10  26  46  74 104 144 188 248 306 368 426
#     4  10  23  43  67  98 139 179 241 290 364 420
#
# _framework density 27.289428999999998
#
# number of rings (size 3 to 8) (size 9 to 14) (size 15 to 20)
#    1.200    0.000    0.000    6.000    2.800    1.600 
#    0.000    0.000    0.000    0.000    0.000    0.000 
#    0.000    0.000    0.000    0.000    0.000    0.000 
#
# Total GULP energy -55948.108561 kJ/mol
# GULP energy per Si atom -5594.810856 kJ/mol
# Density = 2.722732 g / cm^3
# Si number density = 27.289429 Si / 1000 Ang^3
#
#
#
# Elastic Constant Matrix: (Units=GPa)
#
#
# Indices 1 2 3 4 5 6 
#
# 1 139.5504 53.2525 38.0794 0.0000 -33.3033 0.0000
# 2 53.2525 83.2648 38.8389 0.0000 -8.9434 0.0000
# 3 38.0794 38.8389 245.5636 0.0000 0.9734 0.0000
# 4 0.0000 0.0000 0.0000 40.8031 0.0000 -14.0784
# 5 -33.3033 -8.9434 0.9734 0.0000 56.9204 0.0000
# 6 0.0000 0.0000 0.0000 -14.0784 0.0000 58.1954
#
#
#
# Elastic Compliance Matrix: (Units=1/GPa)
#
#
# Indices 1 2 3 4 5 6 
#
# 1 0.011013 -0.006096 -0.000765 0.000000 0.005499 0.000000
# 2 -0.006096 0.016590 -0.001675 0.000000 -0.000931 0.000000
# 3 -0.000765 -0.001675 0.004459 0.000000 -0.000787 0.000000
# 4 0.000000 0.000000 0.000000 0.026740 0.000000 0.006469
# 5 0.005499 -0.000931 -0.000787 0.000000 0.020653 0.000000
# 6 0.000000 0.000000 0.000000 0.006469 0.000000 0.018748
#
#
# Mechanical properties :
#
#
# Convention : Reuss Voigt Hill
#
# Bulk Modulus (GPa) = 66.71348 80.96892 73.84120
# Shear Modulus (GPa) = 41.57238 53.73100 47.65169
#
# Velocity S-wave (km/s) = 3.90729 4.44208 4.18324
# Velocity P-wave (km/s) = 6.69744 7.48627 7.10281
#
# Compressibility (1/GPa) = 0.01498947
#
# Stress axis : x y z
#
# Youngs Moduli (GPa) = 90.79962 60.27820 224.26597
#
# Poissons Ratio (x) = 0.36745 0.17167
# Poissons Ratio (y) = 0.55350 0.37562
# Poissons Ratio (z) = 0.06950 0.10096
#
# Static dielectric constant tensor:
#      x y z
#    x 2.152720 0.000000 0.073940 
#    y 0.000000 2.126730 0.000000 
#    z 0.073940 0.000000 2.235410 
# 
# From -- ./inp_files/3262.got.cif
#   From: 2010.05.17/outbox.cif.g08.bks.cpg/sg4_2_cif.got.tgz:3262.got - 2010.06.03 18:43:04.
