data_PCOD9117075
_publ_section_title
;
Structure prediction by ZEFSAII (Michael W. Deem and Ramdas Pophale) SiO2 
 PCOD9117075
Probable space group: P 21
;
_chemical_formula_sum "Si O2"
_cell_formula_units_Z 16
_cell_length_a 7.189779
_cell_length_b 8.571431
_cell_length_c 15.236999
_cell_angle_alpha 90.000000
_cell_angle_beta 48.745802
_cell_angle_gamma 90.000000
_cell_volume 705.936638
_symmetry_space_group_name_H-M "P 21"
_symmetry_group_IT_number 4
_symmetry_cell_setting 'monoclinic'
loop_
_space_group_symop_operation_xyz
x,y,z
-x,1/2+y,-z
loop_
_atom_site_type_symbol
_atom_site_label
_atom_site_fract_x
_atom_site_fract_y
_atom_site_fract_z
Si Si1 0.570971 0.360420 0.906035
Si Si2 0.299892 0.020989 0.453246
Si Si3 0.648896 0.367203 0.086491
Si Si4 0.885058 0.041219 0.010184
Si Si5 0.977694 0.108979 0.783345
Si Si6 0.870874 0.530653 0.675238
Si Si7 0.668454 0.809577 0.444741
Si Si8 0.858176 0.892596 0.679711
O O1 0.307006 0.399295 0.946117
O O2 0.746808 0.493123 0.807814
O O3 0.723368 0.202712 0.838799
O O4 0.547648 0.362547 0.018348
O O5 0.315634 0.983999 0.345615
O O6 0.385722 0.192172 0.458045
O O7 0.443824 0.899084 0.469568
O O8 0.008076 0.002418 0.566940
O O9 0.435047 0.414573 0.220557
O O10 0.742453 0.195283 0.086064
O O11 0.882791 0.480830 0.008749
O O12 0.987303 0.092668 0.883376
O O13 0.200114 0.204241 0.670931
O O14 0.964850 0.943336 0.740817
O O15 0.912695 0.712624 0.647245
O O16 0.123114 0.433691 0.591971
#
# Coordination Sequence:
#
# PCOD9117075 Si02
#       8
#     2   2   2   2   2   2   2   2
#     4  10  22  43  67  94 138 175 219 275 330 392
#     4  11  24  45  70 101 134 178 220 274 339 392
#     4  11  25  41  66 102 132 175 226 271 338 394
#     4  11  23  42  65  99 132 176 223 271 334 399
#     4   9  22  42  66  95 133 179 216 274 340 379
#     4  11  23  43  70  98 131 177 225 272 331 397
#     4  10  23  46  67 100 134 173 225 277 326 398
#     4  11  22  44  65  99 134 171 220 278 330 395
#
# _framework density 22.664923000000002
#
# number of rings (size 3 to 8) (size 9 to 14) (size 15 to 20)
#    0.000    1.500    2.500    1.500    1.750    4.000 
#   18.000    0.000    0.000    0.000    0.000    0.000 
#    0.000    0.000    0.000    0.000    0.000    0.000 
#
# Total GULP energy -89394.268883 kJ/mol
# GULP energy per Si atom -5587.141805 kJ/mol
# Density = 2.261334 g / cm^3
# Si number density = 22.664923 Si / 1000 Ang^3
#
#
#
# Elastic Constant Matrix: (Units=GPa)
#
#
# Indices 1 2 3 4 5 6 
#
# 1 72.8119 29.3152 23.9009 0.0000 -15.6783 0.0000
# 2 29.3152 62.8326 3.4291 0.0000 -2.0923 0.0000
# 3 23.9009 3.4291 55.8595 0.0000 -7.3794 0.0000
# 4 0.0000 0.0000 0.0000 23.6432 0.0000 -6.3233
# 5 -15.6783 -2.0923 -7.3794 0.0000 20.3129 0.0000
# 6 0.0000 0.0000 0.0000 -6.3233 0.0000 29.2055
#
#
#
# Elastic Compliance Matrix: (Units=1/GPa)
#
#
# Indices 1 2 3 4 5 6 
#
# 1 0.023259 -0.009971 -0.007462 0.000000 0.014214 0.000000
# 2 -0.009971 0.020279 0.002396 0.000000 -0.004737 0.000000
# 3 -0.007462 0.002396 0.021239 0.000000 0.002203 0.000000
# 4 0.000000 0.000000 0.000000 0.044895 0.000000 0.009720
# 5 0.014214 -0.004737 0.002203 0.000000 0.060513 0.000000
# 6 0.000000 0.000000 0.000000 0.009720 0.000000 0.036345
#
#
# Mechanical properties :
#
#
# Convention : Reuss Voigt Hill
#
# Bulk Modulus (GPa) = 28.81691 33.86606 31.34148
# Shear Modulus (GPa) = 20.14738 23.62288 21.88513
#
# Velocity S-wave (km/s) = 2.98472 3.23192 3.11077
# Velocity P-wave (km/s) = 4.96185 5.37602 5.17308
#
# Compressibility (1/GPa) = 0.03470185
#
# Stress axis : x y z
#
# Youngs Moduli (GPa) = 42.99487 49.31236 47.08357
#
# Poissons Ratio (x) = 0.49169 0.35133
# Poissons Ratio (y) = 0.42870 -0.11280
# Poissons Ratio (z) = 0.32082 -0.11814
#
# Static dielectric constant tensor:
#      x y z
#    x 1.831050 0.000000 -0.022750 
#    y 0.000000 1.855080 0.000000 
#    z -0.022750 0.000000 1.852390 
# 
# From -- ./inp_files/13297.got.cif
#   From: 2010.05.17/outbox.cif.g08.bks.cpg/sg4_7_cif.got.tgz:13297.got - 2010.06.03 18:43:04.
