data_PCOD9117924
_publ_section_title
;
Structure prediction by ZEFSAII (Michael W. Deem and Ramdas Pophale) SiO2 
 PCOD9117924
Probable space group: P 21
;
_chemical_formula_sum "Si O2"
_cell_formula_units_Z 16
_cell_length_a 5.906538
_cell_length_b 11.539872
_cell_length_c 13.006821
_cell_angle_alpha 90.000000
_cell_angle_beta 50.924414
_cell_angle_gamma 90.000000
_cell_volume 688.245174
_symmetry_space_group_name_H-M "P 21"
_symmetry_group_IT_number 4
_symmetry_cell_setting 'monoclinic'
loop_
_space_group_symop_operation_xyz
x,y,z
-x,1/2+y,-z
loop_
_atom_site_type_symbol
_atom_site_label
_atom_site_fract_x
_atom_site_fract_y
_atom_site_fract_z
Si Si1 0.438525 0.257010 0.683085
Si Si2 0.814808 0.923939 0.771117
Si Si3 0.792722 0.241674 0.866876
Si Si4 0.531513 0.696437 0.840193
Si Si5 0.921642 0.120549 0.613635
Si Si6 0.692311 0.836375 0.503493
Si Si7 0.737818 0.442353 0.739141
Si Si8 0.736246 0.391639 0.190977
O O1 0.645096 0.145098 0.622474
O O2 0.437401 0.307283 0.569697
O O3 0.537738 0.360238 0.727669
O O4 0.119339 0.223435 0.812623
O O5 0.800951 0.786498 0.754070
O O6 0.469750 0.952513 0.839025
O O7 0.962932 0.937388 0.842340
O O8 0.993845 0.992971 0.631952
O O9 0.805229 0.172983 0.756359
O O10 0.756599 0.375865 0.843547
O O11 0.561865 0.199647 0.014185
O O12 0.618372 0.570344 0.780157
O O13 0.266129 0.760660 0.855036
O O14 0.165064 0.211075 0.506785
O O15 0.472503 0.880317 0.650512
O O16 0.948984 0.927710 0.405302
#
# Coordination Sequence:
#
# PCOD9117924 Si02
#       8
#     2   2   2   2   2   2   2   2
#     4   8  18  37  63  87 118 159 223 258 308 379
#     4  10  25  43  57  96 130 162 206 261 318 373
#     4   9  20  38  62  95 119 169 210 262 316 377
#     4  10  24  39  59  95 134 166 209 262 321 377
#     4   9  20  39  66  89 120 163 217 258 316 376
#     4   9  20  39  65  88 122 166 216 258 315 381
#     4   9  20  40  62  92 121 168 212 261 316 379
#     4  10  25  41  60  94 132 167 207 258 320 372
#
# _framework density 23.247529
#
# number of rings (size 3 to 8) (size 9 to 14) (size 15 to 20)
#    0.750    2.500    0.000    0.000    8.750    5.000 
#    4.500    0.000    0.000    0.000    0.000    0.000 
#    0.000    0.000    0.000    0.000    0.000    0.000 
#
# Total GULP energy -89080.889083 kJ/mol
# GULP energy per Si atom -5567.555568 kJ/mol
# Density = 2.319462 g / cm^3
# Si number density = 23.247529 Si / 1000 Ang^3
#
#
#
# Elastic Constant Matrix: (Units=GPa)
#
#
# Indices 1 2 3 4 5 6 
#
# 1 110.7641 16.8285 -4.9757 0.0000 -8.4726 0.0000
# 2 16.8285 88.6055 20.6503 0.0000 -9.2498 0.0000
# 3 -4.9757 20.6503 65.4676 0.0000 7.0327 0.0000
# 4 0.0000 0.0000 0.0000 12.5632 0.0000 3.6174
# 5 -8.4726 -9.2498 7.0327 0.0000 13.3284 0.0000
# 6 0.0000 0.0000 0.0000 3.6174 0.0000 14.3177
#
#
#
# Elastic Compliance Matrix: (Units=1/GPa)
#
#
# Indices 1 2 3 4 5 6 
#
# 1 0.009649 -0.001503 0.000700 0.000000 0.004721 0.000000
# 2 -0.001503 0.014194 -0.005880 0.000000 0.011998 0.000000
# 3 0.000700 -0.005880 0.018629 0.000000 -0.013466 0.000000
# 4 0.000000 0.000000 0.000000 0.085842 0.000000 -0.021688
# 5 0.004721 0.011998 -0.013466 0.000000 0.093461 0.000000
# 6 0.000000 0.000000 0.000000 -0.021688 0.000000 0.075323
#
#
# Mechanical properties :
#
#
# Convention : Reuss Voigt Hill
#
# Bulk Modulus (GPa) = 34.35643 36.64927 35.50285
# Shear Modulus (GPa) = 15.61681 23.53080 19.57380
#
# Velocity S-wave (km/s) = 2.59465 3.18494 2.90483
# Velocity P-wave (km/s) = 4.87718 5.41518 5.15320
#
# Compressibility (1/GPa) = 0.02910663
#
# Stress axis : x y z
#
# Youngs Moduli (GPa) = 103.63622 70.45000 53.67879
#
# Poissons Ratio (x) = 0.10588 -0.03759
# Poissons Ratio (y) = 0.15576 0.31566
# Poissons Ratio (z) = -0.07257 0.41428
#
# Static dielectric constant tensor:
#      x y z
#    x 2.004140 0.000000 -0.005400 
#    y 0.000000 1.979730 0.000000 
#    z -0.005400 0.000000 1.851000 
# 
# From -- ./inp_files/3797.got.cif
#   From: 2010.05.17/outbox.cif.g08.bks.cpg/sg4_2_cif.got.tgz:3797.got - 2010.06.03 18:43:04.
