data_PCOD9117038
_publ_section_title
;
Structure prediction by ZEFSAII (Michael W. Deem and Ramdas Pophale) SiO2 
 PCOD9117038
Probable space group: P 21
;
_chemical_formula_sum "Si O2"
_cell_formula_units_Z 16
_cell_length_a 9.393856
_cell_length_b 12.470169
_cell_length_c 5.149943
_cell_angle_alpha 90.000000
_cell_angle_beta 99.328814
_cell_angle_gamma 90.000000
_cell_volume 595.300845
_symmetry_space_group_name_H-M "P 21"
_symmetry_group_IT_number 4
_symmetry_cell_setting 'monoclinic'
loop_
_space_group_symop_operation_xyz
x,y,z
-x,1/2+y,-z
loop_
_atom_site_type_symbol
_atom_site_label
_atom_site_fract_x
_atom_site_fract_y
_atom_site_fract_z
Si Si1 0.659850 0.073490 0.175631
Si Si2 0.258606 0.777429 0.075534
Si Si3 0.540610 0.803278 0.365127
Si Si4 0.080917 0.615405 0.398997
Si Si5 0.730931 0.779951 0.909571
Si Si6 0.986587 0.420586 0.012029
Si Si7 0.185568 0.076818 0.388016
Si Si8 0.503986 0.552305 0.379387
O O1 0.819686 0.068657 0.339647
O O2 0.659552 0.200391 0.105270
O O3 0.596781 0.024899 0.892986
O O4 0.641511 0.793158 0.144883
O O5 0.382007 0.847445 0.248961
O O6 0.168704 0.703243 0.255774
O O7 0.139366 0.848764 0.898586
O O8 0.636729 0.827629 0.644023
O O9 0.491838 0.680347 0.406723
O O10 0.564595 0.018423 0.368883
O O11 0.044261 0.517672 0.199940
O O12 0.927487 0.647407 0.477103
O O13 0.761478 0.656550 0.827574
O O14 0.879898 0.842378 0.995249
O O15 0.903949 0.476663 0.747907
O O16 0.324957 0.037505 0.589391
#
# Coordination Sequence:
#
# PCOD9117038 Si02
#       8
#     2   2   2   2   2   2   2   2
#     4  11  21  47  78 109 138 199 250 307 371 429
#     4  11  25  50  77 108 149 198 252 314 373 445
#     4  10  22  47  78 108 138 201 249 308 367 431
#     4  12  26  47  75 111 153 201 248 304 385 446
#     4  11  26  50  77 106 152 193 252 303 370 440
#     4  12  29  47  69 118 154 200 247 305 376 459
#     4  11  27  46  75 114 150 204 246 303 382 442
#     4  10  22  42  81 108 142 190 258 302 362 446
#
# _framework density 26.877165000000002
#
# number of rings (size 3 to 8) (size 9 to 14) (size 15 to 20)
#    0.000    1.000    2.500    5.250   10.500    1.000 
#    2.250    1.250    0.000    0.000    0.000    0.000 
#    0.000    0.000    0.000    0.000    0.000    0.000 
#
# Total GULP energy -89583.143515 kJ/mol
# GULP energy per Si atom -5598.946470 kJ/mol
# Density = 2.681599 g / cm^3
# Si number density = 26.877165 Si / 1000 Ang^3
#
#
#
# Elastic Constant Matrix: (Units=GPa)
#
#
# Indices 1 2 3 4 5 6 
#
# 1 156.8337 18.4758 87.1937 0.0000 20.7822 0.0000
# 2 18.4758 55.9758 15.9461 0.0000 2.9042 0.0000
# 3 87.1937 15.9461 154.5793 0.0000 -1.9659 0.0000
# 4 0.0000 0.0000 0.0000 27.2146 0.0000 -0.2324
# 5 20.7822 2.9042 -1.9659 0.0000 54.0994 0.0000
# 6 0.0000 0.0000 0.0000 -0.2324 0.0000 39.1163
#
#
#
# Elastic Compliance Matrix: (Units=1/GPa)
#
#
# Indices 1 2 3 4 5 6 
#
# 1 0.010252 -0.001557 -0.005674 0.000000 -0.004061 0.000000
# 2 -0.001557 0.018703 -0.001057 0.000000 -0.000444 0.000000
# 3 -0.005674 -0.001057 0.009812 0.000000 0.002593 0.000000
# 4 0.000000 0.000000 0.000000 0.036747 0.000000 0.000218
# 5 -0.004061 -0.000444 0.002593 0.000000 0.020163 0.000000
# 6 0.000000 0.000000 0.000000 0.000218 0.000000 0.025566
#
#
# Mechanical properties :
#
#
# Convention : Reuss Voigt Hill
#
# Bulk Modulus (GPa) = 45.06253 67.84669 56.45461
# Shear Modulus (GPa) = 34.43170 40.47094 37.45132
#
# Velocity S-wave (km/s) = 3.58310 3.88464 3.73691
# Velocity P-wave (km/s) = 5.82414 6.73933 6.29838
#
# Compressibility (1/GPa) = 0.02219138
#
# Stress axis : x y z
#
# Youngs Moduli (GPa) = 97.53926 53.46782 101.91867
#
# Poissons Ratio (x) = 0.08324 0.57829
# Poissons Ratio (y) = 0.15185 0.10771
# Poissons Ratio (z) = 0.55344 0.05651
#
# Static dielectric constant tensor:
#      x y z
#    x 2.124550 0.000000 -0.005860 
#    y 0.000000 2.262540 0.000000 
#    z -0.005860 0.000000 2.134490 
# 
# From -- ./inp_files/3118.got.cif
#   From: 2010.05.17/outbox.cif.g08.bks.cpg/sg4_2_cif.got.tgz:3118.got - 2010.06.03 18:43:04.
