data_PCOD9117735
_publ_section_title
;
Structure prediction by ZEFSAII (Michael W. Deem and Ramdas Pophale) SiO2 
 PCOD9117735
Probable space group: P 21
;
_chemical_formula_sum "Si O2"
_cell_formula_units_Z 14
_cell_length_a 17.123168
_cell_length_b 5.108028
_cell_length_c 15.715004
_cell_angle_alpha 90.000000
_cell_angle_beta 23.435707
_cell_angle_gamma 90.000000
_cell_volume 546.674799
_symmetry_space_group_name_H-M "P 21"
_symmetry_group_IT_number 4
_symmetry_cell_setting 'monoclinic'
loop_
_space_group_symop_operation_xyz
x,y,z
-x,1/2+y,-z
loop_
_atom_site_type_symbol
_atom_site_label
_atom_site_fract_x
_atom_site_fract_y
_atom_site_fract_z
Si Si1 0.049667 0.977660 0.007341
Si Si2 0.257720 0.434989 0.040080
Si Si3 0.409728 0.170030 0.579681
Si Si4 0.362365 0.052151 0.433324
Si Si5 0.543716 0.405694 0.904990
Si Si6 0.116869 0.225119 0.522077
Si Si7 0.907232 0.070974 0.335909
O O1 0.281641 0.030608 0.780247
O O2 0.014735 0.734978 0.980197
O O3 0.959526 0.947647 0.189697
O O4 0.100082 0.621652 0.245081
O O5 0.413257 0.576097 0.821895
O O6 0.406464 0.326456 0.962768
O O7 0.115925 0.239492 0.132831
O O8 0.403181 0.479069 0.598684
O O9 0.344543 0.103691 0.549816
O O10 0.274096 0.767551 0.501739
O O11 0.224564 0.235988 0.510163
O O12 0.741241 0.561522 0.678486
O O13 0.430765 0.640435 0.067669
O O14 0.100813 0.534304 0.546968
#
# Coordination Sequence:
#
# PCOD9117735 Si02
#       7
#     2   2   2   2   2   2   2
#     4  12  25  44  67 100 146 196 246 310 369 408
#     4  10  25  45  74 107 138 190 244 287 363 438
#     4  12  26  41  64  97 138 186 247 302 361 416
#     4  10  23  45  64  98 143 190 241 303 357 425
#     4  11  28  50  79 110 153 185 229 299 373 442
#     4  10  25  44  77 105 140 191 243 292 364 435
#     4  11  24  43  75 101 146 196 250 303 355 436
#
# _framework density 25.609376000000001
#
# number of rings (size 3 to 8) (size 9 to 14) (size 15 to 20)
#    0.000    1.143    1.429    2.571   14.000    2.286 
#    0.000    0.000    0.000    0.000    0.000    0.000 
#    0.000    0.000    0.000    0.000    0.000    0.000 
#
# Total GULP energy -78006.730139 kJ/mol
# GULP energy per Si atom -5571.909296 kJ/mol
# Density = 2.555109 g / cm^3
# Si number density = 25.609376 Si / 1000 Ang^3
#
#
#
# Elastic Constant Matrix: (Units=GPa)
#
#
# Indices 1 2 3 4 5 6 
#
# 1 56.8357 19.4216 23.4596 0.0000 -0.4238 0.0000
# 2 19.4216 69.6923 1.0696 0.0000 -0.3629 0.0000
# 3 23.4596 1.0696 139.6423 0.0000 -3.1169 0.0000
# 4 0.0000 0.0000 0.0000 39.0082 0.0000 3.4351
# 5 -0.4238 -0.3629 -3.1169 0.0000 35.4820 0.0000
# 6 0.0000 0.0000 0.0000 3.4351 0.0000 36.1670
#
#
#
# Elastic Compliance Matrix: (Units=1/GPa)
#
#
# Indices 1 2 3 4 5 6 
#
# 1 0.021017 -0.005804 -0.003489 0.000000 -0.000115 0.000000
# 2 -0.005804 0.015954 0.000857 0.000000 0.000169 0.000000
# 3 -0.003489 0.000857 0.007755 0.000000 0.000648 0.000000
# 4 0.000000 0.000000 0.000000 0.025852 0.000000 -0.002455
# 5 -0.000115 0.000169 0.000648 0.000000 0.028241 0.000000
# 6 0.000000 0.000000 0.000000 -0.002455 0.000000 0.027883
#
#
# Mechanical properties :
#
#
# Convention : Reuss Voigt Hill
#
# Bulk Modulus (GPa) = 35.90197 39.34133 37.62165
# Shear Modulus (GPa) = 32.70994 36.94607 34.82800
#
# Velocity S-wave (km/s) = 3.57776 3.80238 3.69178
# Velocity P-wave (km/s) = 5.57823 5.88837 5.73540
#
# Compressibility (1/GPa) = 0.02785363
#
# Stress axis : x y z
#
# Youngs Moduli (GPa) = 47.58022 62.68033 128.94581
#
# Poissons Ratio (x) = 0.36380 0.44988
# Poissons Ratio (y) = 0.27616 -0.11046
# Poissons Ratio (z) = 0.16600 -0.05369
#
# Static dielectric constant tensor:
#      x y z
#    x 2.070480 0.000000 -0.049670 
#    y 0.000000 2.194930 0.000000 
#    z -0.049670 0.000000 2.173750 
# 
# From -- ./inp_files/15343.got.cif
#   From: 2010.05.17/outbox.cif.g08.bks.cpg/sg4_8_cif.got.tgz:15343.got - 2010.06.03 18:43:04.
