data_PCOD9117329
_publ_section_title
;
Structure prediction by ZEFSAII (Michael W. Deem and Ramdas Pophale) SiO2 
 PCOD9117329
Probable space group: P 21
;
_chemical_formula_sum "Si O2"
_cell_formula_units_Z 14
_cell_length_a 10.465168
_cell_length_b 6.676048
_cell_length_c 10.977670
_cell_angle_alpha 90.000000
_cell_angle_beta 139.606372
_cell_angle_gamma 90.000000
_cell_volume 497.020642
_symmetry_space_group_name_H-M "P 21"
_symmetry_group_IT_number 4
_symmetry_cell_setting 'monoclinic'
loop_
_space_group_symop_operation_xyz
x,y,z
-x,1/2+y,-z
loop_
_atom_site_type_symbol
_atom_site_label
_atom_site_fract_x
_atom_site_fract_y
_atom_site_fract_z
Si Si1 0.017701 0.285000 0.206419
Si Si2 0.253458 0.441266 0.787697
Si Si3 0.776517 0.653089 0.865112
Si Si4 0.401210 0.865687 0.674583
Si Si5 0.584216 0.232400 0.883447
Si Si6 0.913658 0.510481 0.363370
Si Si7 0.864925 0.344710 0.741682
O O1 0.030910 0.390950 0.344690
O O2 0.176847 0.310647 0.215079
O O3 0.792194 0.334384 0.006383
O O4 0.015756 0.041867 0.217336
O O5 0.427937 0.387548 0.820481
O O6 0.073622 0.543135 0.584898
O O7 0.168326 0.217396 0.752524
O O8 0.354882 0.576335 0.964017
O O9 0.596076 0.731925 0.812951
O O10 0.738808 0.456526 0.754671
O O11 0.982408 0.688780 0.088622
O O12 0.266942 0.784518 0.467590
O O13 0.269765 0.901808 0.700549
O O14 0.482435 0.091821 0.709085
#
# Coordination Sequence:
#
# PCOD9117329 Si02
#       7
#     2   2   2   2   2   2   2
#     4  10  22  46  69 102 148 188 249 309 366 443
#     4  11  24  41  72 107 154 188 246 305 377 446
#     4  10  24  44  73  98 145 195 237 298 371 426
#     4  11  22  42  72 102 138 186 239 303 364 438
#     4  11  21  41  73 102 146 193 243 304 376 436
#     4  11  24  44  72 112 143 194 249 309 378 439
#     4  10  23  46  73  97 144 190 251 294 364 438
#
# _framework density 28.167840999999999
#
# number of rings (size 3 to 8) (size 9 to 14) (size 15 to 20)
#    0.857    0.571    1.429    5.143    0.000    3.429 
#    2.571    1.429    0.000    0.000    0.000    0.000 
#    0.000    0.000    0.000    0.000    0.000    0.000 
#
# Total GULP energy -78337.504964 kJ/mol
# GULP energy per Si atom -5595.536069 kJ/mol
# Density = 2.810373 g / cm^3
# Si number density = 28.167841 Si / 1000 Ang^3
#
#
#
# Elastic Constant Matrix: (Units=GPa)
#
#
# Indices 1 2 3 4 5 6 
#
# 1 89.7003 50.8803 42.2519 0.0000 9.3792 0.0000
# 2 50.8803 77.1646 10.9673 0.0000 -10.1389 0.0000
# 3 42.2519 10.9673 126.2067 0.0000 -11.5362 0.0000
# 4 0.0000 0.0000 0.0000 47.1444 0.0000 2.2071
# 5 9.3792 -10.1389 -11.5362 0.0000 51.4945 0.0000
# 6 0.0000 0.0000 0.0000 2.2071 0.0000 54.4210
#
#
#
# Elastic Compliance Matrix: (Units=1/GPa)
#
#
# Indices 1 2 3 4 5 6 
#
# 1 0.025594 -0.017029 -0.007985 0.000000 -0.009803 0.000000
# 2 -0.017029 0.024743 0.004369 0.000000 0.008952 0.000000
# 3 -0.007985 0.004369 0.010647 0.000000 0.004700 0.000000
# 4 0.000000 0.000000 0.000000 0.021252 0.000000 -0.000862
# 5 -0.009803 0.008952 0.004700 0.000000 0.024021 0.000000
# 6 0.000000 0.000000 0.000000 -0.000862 0.000000 0.018410
#
#
# Mechanical properties :
#
#
# Convention : Reuss Voigt Hill
#
# Bulk Modulus (GPa) = 50.77603 55.69673 53.23638
# Shear Modulus (GPa) = 28.98227 43.21012 36.09619
#
# Velocity S-wave (km/s) = 3.21115 3.92091 3.58364
# Velocity P-wave (km/s) = 5.64039 6.34934 6.00534
#
# Compressibility (1/GPa) = 0.01969433
#
# Stress axis : x y z
#
# Youngs Moduli (GPa) = 39.07233 40.41544 93.92737
#
# Poissons Ratio (x) = 0.68823 0.74997
# Poissons Ratio (y) = 0.66536 -0.41038
# Poissons Ratio (z) = 0.31198 -0.17658
#
# Static dielectric constant tensor:
#      x y z
#    x 2.246660 0.000000 -0.061260 
#    y 0.000000 2.329210 0.000000 
#    z -0.061260 0.000000 2.139480 
# 
# From -- ./inp_files/8080.got.cif
#   From: 2010.05.17/outbox.cif.g08.bks.cpg/sg4_5_cif.got.tgz:8080.got - 2010.06.03 18:43:04.
