data_PCOD9117647
_publ_section_title
;
Structure prediction by ZEFSAII (Michael W. Deem and Ramdas Pophale) SiO2 
 PCOD9117647
Probable space group: P 21
;
_chemical_formula_sum "Si O2"
_cell_formula_units_Z 16
_cell_length_a 14.568837
_cell_length_b 10.017942
_cell_length_c 7.705814
_cell_angle_alpha 90.000000
_cell_angle_beta 34.348012
_cell_angle_gamma 90.000000
_cell_volume 634.554501
_symmetry_space_group_name_H-M "P 21"
_symmetry_group_IT_number 4
_symmetry_cell_setting 'monoclinic'
loop_
_space_group_symop_operation_xyz
x,y,z
-x,1/2+y,-z
loop_
_atom_site_type_symbol
_atom_site_label
_atom_site_fract_x
_atom_site_fract_y
_atom_site_fract_z
Si Si1 0.795924 0.000000 0.757887
Si Si2 0.830425 0.462238 0.773121
Si Si3 0.188421 0.906138 0.606299
Si Si4 0.623085 0.666739 0.699220
Si Si5 0.184929 0.375863 0.764400
Si Si6 0.682630 0.743790 0.092826
Si Si7 0.370205 0.726311 0.792951
Si Si8 0.661614 0.123708 0.614156
O O1 0.755728 0.069989 0.639974
O O2 0.757006 0.108460 0.968848
O O3 0.980409 0.953180 0.478056
O O4 0.683619 0.872105 0.967327
O O5 0.807823 0.414783 0.609903
O O6 0.777372 0.614727 0.879481
O O7 0.723415 0.365809 0.060548
O O8 0.256147 0.763787 0.558792
O O9 0.301725 0.028620 0.486095
O O10 0.001449 0.920268 0.954007
O O11 0.766404 0.774783 0.466707
O O12 0.488352 0.722308 0.777149
O O13 0.522738 0.641882 0.031242
O O14 0.220409 0.296690 0.886881
O O15 0.303649 0.502602 0.568996
O O16 0.499574 0.709153 0.437697
#
# Coordination Sequence:
#
# PCOD9117647 Si02
#       8
#     2   2   2   2   2   2   2   2
#     4  11  22  44  70 104 141 190 234 288 365 427
#     4  12  23  43  73 102 145 190 235 302 359 428
#     4  12  23  44  70 104 142 190 239 294 360 423
#     4  10  23  43  72  99 143 189 237 297 355 424
#     4  11  24  46  69 107 145 184 239 297 350 429
#     4  11  24  42  70 103 141 186 238 292 354 427
#     4  10  23  47  66 100 140 184 241 295 350 425
#     4  11  24  45  72 101 145 189 239 295 355 427
#
# _framework density 25.21454
#
# number of rings (size 3 to 8) (size 9 to 14) (size 15 to 20)
#    0.000    1.000    3.750    3.750    3.500    1.000 
#    0.000    2.500    0.000    0.000    0.000    0.000 
#    0.000    0.000    0.000    0.000    0.000    0.000 
#
# Total GULP energy -89760.966236 kJ/mol
# GULP energy per Si atom -5610.060390 kJ/mol
# Density = 2.515715 g / cm^3
# Si number density = 25.214540 Si / 1000 Ang^3
#
#
#
# Elastic Constant Matrix: (Units=GPa)
#
#
# Indices 1 2 3 4 5 6 
#
# 1 61.1610 1.2597 12.0378 0.0000 -5.1039 0.0000
# 2 1.2597 172.3509 48.6597 0.0000 -15.2168 0.0000
# 3 12.0378 48.6597 138.0424 0.0000 -19.9913 0.0000
# 4 0.0000 0.0000 0.0000 55.9223 0.0000 -8.3046
# 5 -5.1039 -15.2168 -19.9913 0.0000 43.7465 0.0000
# 6 0.0000 0.0000 0.0000 -8.3046 0.0000 35.4827
#
#
#
# Elastic Compliance Matrix: (Units=1/GPa)
#
#
# Indices 1 2 3 4 5 6 
#
# 1 0.016737 0.000398 -0.001389 0.000000 0.001457 0.000000
# 2 0.000398 0.006521 -0.002140 0.000000 0.001337 0.000000
# 3 -0.001389 -0.002140 0.008554 0.000000 0.003003 0.000000
# 4 0.000000 0.000000 0.000000 0.018526 0.000000 0.004336
# 5 0.001457 0.001337 0.003003 0.000000 0.024866 0.000000
# 6 0.000000 0.000000 0.000000 0.004336 0.000000 0.029198
#
#
# Mechanical properties :
#
#
# Convention : Reuss Voigt Hill
#
# Bulk Modulus (GPa) = 39.13608 55.05206 47.09407
# Shear Modulus (GPa) = 41.95304 47.67009 44.81156
#
# Velocity S-wave (km/s) = 4.08345 4.35280 4.22027
# Velocity P-wave (km/s) = 6.14717 6.86610 6.51655
#
# Compressibility (1/GPa) = 0.02555187
#
# Stress axis : x y z
#
# Youngs Moduli (GPa) = 59.74779 153.34116 116.89803
#
# Poissons Ratio (x) = -0.06110 0.16238
# Poissons Ratio (y) = -0.02381 0.25015
# Poissons Ratio (z) = 0.08299 0.32814
#
# Static dielectric constant tensor:
#      x y z
#    x 2.084240 0.000000 0.086830 
#    y 0.000000 1.922670 0.000000 
#    z 0.086830 0.000000 1.958180 
# 
# From -- ./inp_files/5511.got.cif
#   From: 2010.05.17/outbox.cif.g08.bks.cpg/sg4_3_cif.got.tgz:5511.got - 2010.06.03 18:43:04.
