data_PCOD9117791
_publ_section_title
;
Structure prediction by ZEFSAII (Michael W. Deem and Ramdas Pophale) SiO2 
 PCOD9117791
Probable space group: P 21
;
_chemical_formula_sum "Si O2"
_cell_formula_units_Z 14
_cell_length_a 5.091196
_cell_length_b 10.969212
_cell_length_c 9.781529
_cell_angle_alpha 90.000000
_cell_angle_beta 81.185114
_cell_angle_gamma 90.000000
_cell_volume 539.811129
_symmetry_space_group_name_H-M "P 21"
_symmetry_group_IT_number 4
_symmetry_cell_setting 'monoclinic'
loop_
_space_group_symop_operation_xyz
x,y,z
-x,1/2+y,-z
loop_
_atom_site_type_symbol
_atom_site_label
_atom_site_fract_x
_atom_site_fract_y
_atom_site_fract_z
Si Si1 0.912410 0.171360 0.087578
Si Si2 0.142352 0.267312 0.606424
Si Si3 0.734177 0.067398 0.685282
Si Si4 0.459973 0.229794 0.921764
Si Si5 0.226294 0.957904 0.204131
Si Si6 0.012063 0.839644 0.669720
Si Si7 0.543484 0.462240 0.545378
O O1 0.875177 0.256351 0.222010
O O2 0.049028 0.045892 0.125878
O O3 0.148620 0.231649 0.978107
O O4 0.639184 0.167910 0.026311
O O5 0.429927 0.328446 0.595712
O O6 0.001500 0.147309 0.672040
O O7 0.971160 0.372989 0.692525
O O8 0.103239 0.262797 0.446485
O O9 0.519057 0.142946 0.787360
O O10 0.651059 0.041715 0.534399
O O11 0.789626 0.933612 0.741626
O O12 0.580328 0.364820 0.890295
O O13 0.384594 0.023176 0.316203
O O14 0.223792 0.925849 0.576913
#
# Coordination Sequence:
#
# PCOD9117791 Si02
#       7
#     2   2   2   2   2   2   2
#     4  12  30  47  76 107 152 204 250 306 361 469
#     4   9  22  44  70 108 143 186 239 320 383 433
#     4  10  24  46  73 105 147 191 252 311 384 448
#     4  11  30  48  77 104 152 205 248 306 372 452
#     4  10  26  49  73 110 145 195 255 313 385 439
#     4  10  25  41  71 109 139 189 252 304 379 442
#     4  10  23  45  80 107 148 188 252 330 380 449
#
# _framework density 25.934996000000002
#
# number of rings (size 3 to 8) (size 9 to 14) (size 15 to 20)
#    0.000    1.714    0.000    0.000   22.000    2.286 
#    5.143    0.000    0.000    0.000    0.000    0.000 
#    0.000    0.000    0.000    0.000    0.000    0.000 
#
# Total GULP energy -78372.512630 kJ/mol
# GULP energy per Si atom -5598.036616 kJ/mol
# Density = 2.587597 g / cm^3
# Si number density = 25.934996 Si / 1000 Ang^3
#
#
#
# Elastic Constant Matrix: (Units=GPa)
#
#
# Indices 1 2 3 4 5 6 
#
# 1 72.3471 -6.3911 15.5270 0.0000 13.3460 0.0000
# 2 -6.3911 58.2350 24.0936 0.0000 11.6195 0.0000
# 3 15.5270 24.0936 90.7535 0.0000 20.4980 0.0000
# 4 0.0000 0.0000 0.0000 27.9106 0.0000 2.6875
# 5 13.3460 11.6195 20.4980 0.0000 55.1788 0.0000
# 6 0.0000 0.0000 0.0000 2.6875 0.0000 34.3526
#
#
#
# Elastic Compliance Matrix: (Units=1/GPa)
#
#
# Indices 1 2 3 4 5 6 
#
# 1 0.015364 0.003524 -0.002791 0.000000 -0.003421 0.000000
# 2 0.003524 0.020384 -0.005297 0.000000 -0.003177 0.000000
# 3 -0.002791 -0.005297 0.013643 0.000000 -0.003278 0.000000
# 4 0.000000 0.000000 0.000000 0.036101 0.000000 -0.002824
# 5 -0.003421 -0.003177 -0.003278 0.000000 0.020837 0.000000
# 6 0.000000 0.000000 0.000000 -0.002824 0.000000 0.029331
#
#
# Mechanical properties :
#
#
# Convention : Reuss Voigt Hill
#
# Bulk Modulus (GPa) = 24.83781 31.97718 28.40749
# Shear Modulus (GPa) = 31.60386 36.02881 33.81634
#
# Velocity S-wave (km/s) = 3.49460 3.73124 3.61486
# Velocity P-wave (km/s) = 5.08731 5.56052 5.32917
#
# Compressibility (1/GPa) = 0.04026121
#
# Stress axis : x y z
#
# Youngs Moduli (GPa) = 65.08862 49.05841 73.29798
#
# Poissons Ratio (x) = -0.17286 0.20460
# Poissons Ratio (y) = -0.22934 0.38825
# Poissons Ratio (z) = 0.18168 0.25986
#
# Static dielectric constant tensor:
#      x y z
#    x 2.098820 0.000000 0.014540 
#    y 0.000000 2.046160 0.000000 
#    z 0.014540 0.000000 2.026430 
# 
# From -- ./inp_files/2683.got.cif
#   From: 2010.05.17/outbox.cif.g08.bks.cpg/sg4_2_cif.got.tgz:2683.got - 2010.06.03 18:43:04.
