data_PCOD9117571
_publ_section_title
;
Structure prediction by ZEFSAII (Michael W. Deem and Ramdas Pophale) SiO2 
 PCOD9117571
Probable space group: P 21
;
_chemical_formula_sum "Si O2"
_cell_formula_units_Z 10
_cell_length_a 8.797537
_cell_length_b 7.494116
_cell_length_c 9.353577
_cell_angle_alpha 90.000000
_cell_angle_beta 139.898336
_cell_angle_gamma 90.000000
_cell_volume 397.231288
_symmetry_space_group_name_H-M "P 21"
_symmetry_group_IT_number 4
_symmetry_cell_setting 'monoclinic'
loop_
_space_group_symop_operation_xyz
x,y,z
-x,1/2+y,-z
loop_
_atom_site_type_symbol
_atom_site_label
_atom_site_fract_x
_atom_site_fract_y
_atom_site_fract_z
Si Si1 0.616013 0.469420 0.232314
Si Si2 0.696230 0.089500 0.229697
Si Si3 0.762771 0.039204 0.605549
Si Si4 0.729850 0.640425 0.609388
Si Si5 0.104776 0.364976 0.874650
O O1 0.763249 0.298358 0.285864
O O2 0.705692 0.591943 0.423727
O O3 0.540454 0.580121 0.037993
O O4 0.373111 0.379390 0.121745
O O5 0.690242 0.027841 0.386969
O O6 0.855041 0.955108 0.252572
O O7 0.531456 0.115496 0.516981
O O8 0.977911 0.176254 0.777192
O O9 0.817027 0.840220 0.694782
O O10 0.917362 0.501375 0.810108
#
# Coordination Sequence:
#
# PCOD9117571 Si02
#       5
#     2   2   2   2   2
#     4  10  23  46  69 110 140 186 243 293 353 425
#     4  10  23  42  73 101 145 180 244 292 347 431
#     4  12  24  47  74 103 145 187 238 294 360 421
#     4  12  24  48  74 101 147 189 237 300 353 433
#     4  10  26  45  70 103 139 192 232 287 369 410
#
# _framework density 25.174247999999999
#
# number of rings (size 3 to 8) (size 9 to 14) (size 15 to 20)
#    1.200    0.000    4.000    1.200    2.800    1.600 
#    7.200    0.000    0.000    0.000    0.000    0.000 
#    0.000    0.000    0.000    0.000    0.000    0.000 
#
# Total GULP energy -55913.175905 kJ/mol
# GULP energy per Si atom -5591.317590 kJ/mol
# Density = 2.511695 g / cm^3
# Si number density = 25.174248 Si / 1000 Ang^3
#
#
#
# Elastic Constant Matrix: (Units=GPa)
#
#
# Indices 1 2 3 4 5 6 
#
# 1 56.8938 35.7769 11.1191 0.0000 -0.8780 0.0000
# 2 35.7769 201.7917 43.0644 0.0000 17.5366 0.0000
# 3 11.1191 43.0644 65.8644 0.0000 12.0887 0.0000
# 4 0.0000 0.0000 0.0000 42.2889 0.0000 8.0640
# 5 -0.8780 17.5366 12.0887 0.0000 46.9326 0.0000
# 6 0.0000 0.0000 0.0000 8.0640 0.0000 38.5585
#
#
#
# Elastic Compliance Matrix: (Units=1/GPa)
#
#
# Indices 1 2 3 4 5 6 
#
# 1 0.020049 -0.003405 -0.001533 0.000000 0.002042 0.000000
# 2 -0.003405 0.006407 -0.003320 0.000000 -0.001603 0.000000
# 3 -0.001533 -0.003320 0.018253 0.000000 -0.003490 0.000000
# 4 0.000000 0.000000 0.000000 0.024629 0.000000 -0.005151
# 5 0.002042 -0.001603 -0.003490 0.000000 0.022843 0.000000
# 6 0.000000 0.000000 0.000000 -0.005151 0.000000 0.027012
#
#
# Mechanical properties :
#
#
# Convention : Reuss Voigt Hill
#
# Bulk Modulus (GPa) = 35.47080 56.05231 45.76155
# Shear Modulus (GPa) = 34.45733 41.19528 37.82631
#
# Velocity S-wave (km/s) = 3.70368 4.04964 3.88052
# Velocity P-wave (km/s) = 5.69301 6.64682 6.18832
#
# Compressibility (1/GPa) = 0.02819221
#
# Stress axis : x y z
#
# Youngs Moduli (GPa) = 49.87807 156.07626 54.78572
#
# Poissons Ratio (x) = 0.53142 0.08400
# Poissons Ratio (y) = 0.16983 0.18190
# Poissons Ratio (z) = 0.07647 0.51822
#
# Static dielectric constant tensor:
#      x y z
#    x 2.034000 0.000000 0.030750 
#    y 0.000000 1.960030 0.000000 
#    z 0.030750 0.000000 2.056360 
# 
# From -- ./inp_files/10818.got.cif
#   From: 2010.05.17/outbox.cif.g08.bks.cpg/sg4_6_cif.got.tgz:10818.got - 2010.06.03 18:43:04.
