data_PCOD9117615
_publ_section_title
;
Structure prediction by ZEFSAII (Michael W. Deem and Ramdas Pophale) SiO2 
 PCOD9117615
Probable space group: P 21
;
_chemical_formula_sum "Si O2"
_cell_formula_units_Z 16
_cell_length_a 5.203968
_cell_length_b 11.270847
_cell_length_c 12.225664
_cell_angle_alpha 90.000000
_cell_angle_beta 119.286360
_cell_angle_gamma 90.000000
_cell_volume 625.421224
_symmetry_space_group_name_H-M "P 21"
_symmetry_group_IT_number 4
_symmetry_cell_setting 'monoclinic'
loop_
_space_group_symop_operation_xyz
x,y,z
-x,1/2+y,-z
loop_
_atom_site_type_symbol
_atom_site_label
_atom_site_fract_x
_atom_site_fract_y
_atom_site_fract_z
Si Si1 0.950644 0.617200 0.458614
Si Si2 0.112408 0.343017 0.857825
Si Si3 0.209693 0.998877 0.354573
Si Si4 0.639035 0.135823 0.751984
Si Si5 0.541354 0.205835 0.083115
Si Si6 0.510585 0.714914 0.677884
Si Si7 0.035232 0.562857 0.975633
Si Si8 0.736699 0.927292 0.598227
O O1 0.238599 0.697002 0.536625
O O2 0.000872 0.484969 0.417806
O O3 0.863987 0.589791 0.564728
O O4 0.695350 0.677702 0.335045
O O5 0.072512 0.427142 0.744674
O O6 0.878839 0.238520 0.792113
O O7 0.000124 0.428290 0.931839
O O8 0.424606 0.298230 0.967226
O O9 0.358562 0.081382 0.293385
O O10 0.467364 0.917204 0.456823
O O11 0.679696 0.037401 0.667551
O O12 0.707420 0.073094 0.880272
O O13 0.576227 0.249613 0.215955
O O14 0.826059 0.142497 0.093197
O O15 0.262210 0.116420 0.036136
O O16 0.730390 0.811305 0.671358
#
# Coordination Sequence:
#
# PCOD9117615 Si02
#       8
#     2   2   2   2   2   2   2   2
#     4  10  24  46  73 109 151 196 260 313 387 464
#     4  11  24  48  77 105 155 196 252 319 372 472
#     4  10  23  43  68 109 140 199 251 305 389 455
#     4  10  25  46  72 112 149 196 255 317 386 456
#     4  11  26  47  73 113 149 202 255 314 377 460
#     4  11  23  46  73 101 156 196 257 316 389 458
#     4  11  25  48  72 111 151 197 257 306 385 453
#     4  10  24  44  66 108 147 192 249 322 379 448
#
# _framework density 25.582756
#
# number of rings (size 3 to 8) (size 9 to 14) (size 15 to 20)
#    0.000    1.500    1.250    1.500    8.750    4.000 
#   15.750    0.000    0.000    0.000    0.000    0.000 
#    0.000    0.000    0.000    0.000    0.000    0.000 
#
# Total GULP energy -89475.251640 kJ/mol
# GULP energy per Si atom -5592.203228 kJ/mol
# Density = 2.552453 g / cm^3
# Si number density = 25.582756 Si / 1000 Ang^3
#
#
#
# Elastic Constant Matrix: (Units=GPa)
#
#
# Indices 1 2 3 4 5 6 
#
# 1 61.9874 6.8413 16.6801 0.0000 3.0394 0.0000
# 2 6.8413 83.3020 37.2837 0.0000 6.6406 0.0000
# 3 16.6801 37.2837 147.1935 0.0000 11.6106 0.0000
# 4 0.0000 0.0000 0.0000 36.3948 0.0000 13.2334
# 5 3.0394 6.6406 11.6106 0.0000 36.9022 0.0000
# 6 0.0000 0.0000 0.0000 13.2334 0.0000 8.8098
#
#
#
# Elastic Compliance Matrix: (Units=1/GPa)
#
#
# Indices 1 2 3 4 5 6 
#
# 1 0.016685 -0.000554 -0.001692 0.000000 -0.000742 0.000000
# 2 -0.000554 0.013628 -0.003281 0.000000 -0.001375 0.000000
# 3 -0.001692 -0.003281 0.007956 0.000000 -0.001774 0.000000
# 4 0.000000 0.000000 0.000000 0.060545 0.000000 -0.090946
# 5 -0.000742 -0.001375 -0.001774 0.000000 0.027965 0.000000
# 6 0.000000 0.000000 0.000000 -0.090946 0.000000 0.250121
#
#
# Mechanical properties :
#
#
# Convention : Reuss Voigt Hill
#
# Bulk Modulus (GPa) = 36.74255 46.01035 41.37645
# Shear Modulus (GPa) = 12.59363 31.86655 22.23009
#
# Velocity S-wave (km/s) = 2.22112 3.53317 2.95099
# Velocity P-wave (km/s) = 4.57944 5.88798 5.27445
#
# Compressibility (1/GPa) = 0.02721640
#
# Stress axis : x y z
#
# Youngs Moduli (GPa) = 59.93370 73.37862 125.68486
#
# Poissons Ratio (x) = 0.04064 0.21265
# Poissons Ratio (y) = 0.03320 0.41234
# Poissons Ratio (z) = 0.10140 0.24074
#
# Static dielectric constant tensor:
#      x y z
#    x 2.114320 0.000000 -0.010940 
#    y 0.000000 1.986250 0.000000 
#    z -0.010940 0.000000 2.072650 
# 
# From -- ./inp_files/2939.got.cif
#   From: 2010.05.17/outbox.cif.g08.bks.cpg/sg4_2_cif.got.tgz:2939.got - 2010.06.03 18:43:04.
