data_PCOD9117356
_publ_section_title
;
Structure prediction by ZEFSAII (Michael W. Deem and Ramdas Pophale) SiO2 
 PCOD9117356
Probable space group: P 21
;
_chemical_formula_sum "Si O2"
_cell_formula_units_Z 14
_cell_length_a 8.854411
_cell_length_b 12.250710
_cell_length_c 4.962052
_cell_angle_alpha 90.000000
_cell_angle_beta 107.645496
_cell_angle_gamma 90.000000
_cell_volume 512.923367
_symmetry_space_group_name_H-M "P 21"
_symmetry_group_IT_number 4
_symmetry_cell_setting 'monoclinic'
loop_
_space_group_symop_operation_xyz
x,y,z
-x,1/2+y,-z
loop_
_atom_site_type_symbol
_atom_site_label
_atom_site_fract_x
_atom_site_fract_y
_atom_site_fract_z
Si Si1 0.726700 0.524000 0.820300
Si Si2 0.512547 0.713435 0.843193
Si Si3 0.777965 0.144374 0.685900
Si Si4 0.038145 0.131635 0.451424
Si Si5 0.449470 0.359925 0.632914
Si Si6 0.208129 0.460280 0.926468
Si Si7 0.941341 0.333469 0.078781
O O1 0.637966 0.616540 0.940793
O O2 0.806261 0.585239 0.608019
O O3 0.588275 0.444482 0.647866
O O4 0.842484 0.445516 0.057880
O O5 0.346891 0.674256 0.618684
O O6 0.584346 0.799771 0.666349
O O7 0.494951 0.768717 0.121265
O O8 0.815434 0.254629 0.866774
O O9 0.964223 0.122563 0.708178
O O10 0.710374 0.037591 0.802667
O O11 0.910376 0.051245 0.249250
O O12 0.007675 0.258427 0.355763
O O13 0.312672 0.417156 0.737005
O O14 0.094201 0.368528 0.989170
#
# Coordination Sequence:
#
# PCOD9117356 Si02
#       7
#     2   2   2   2   2   2   2
#     4  11  25  47  77 112 152 209 249 323 384 455
#     4  12  29  48  76 115 154 199 259 309 382 466
#     4  11  24  44  72 106 149 198 251 320 371 463
#     4  10  23  45  72 108 148 193 262 311 375 461
#     4  12  28  50  76 112 155 201 255 314 382 457
#     4  10  25  43  73 100 151 196 251 309 387 442
#     4  10  22  47  68 109 143 200 247 320 379 448
#
# _framework density 27.294528
#
# number of rings (size 3 to 8) (size 9 to 14) (size 15 to 20)
#    0.000    1.143    1.429    2.571   10.000    2.286 
#   10.286    0.000    0.000    0.000    0.000    0.000 
#    0.000    0.000    0.000    0.000    0.000    0.000 
#
# Total GULP energy -78356.980505 kJ/mol
# GULP energy per Si atom -5596.927179 kJ/mol
# Density = 2.723240 g / cm^3
# Si number density = 27.294528 Si / 1000 Ang^3
#
#
#
# Elastic Constant Matrix: (Units=GPa)
#
#
# Indices 1 2 3 4 5 6 
#
# 1 163.0012 76.7366 19.2619 0.0000 -11.7327 0.0000
# 2 76.7366 153.9350 29.8986 0.0000 -4.7694 0.0000
# 3 19.2619 29.8986 54.8843 0.0000 -12.2198 0.0000
# 4 0.0000 0.0000 0.0000 30.4455 0.0000 -1.7289
# 5 -11.7327 -4.7694 -12.2198 0.0000 29.3759 0.0000
# 6 0.0000 0.0000 0.0000 -1.7289 0.0000 71.0421
#
#
#
# Elastic Compliance Matrix: (Units=1/GPa)
#
#
# Indices 1 2 3 4 5 6 
#
# 1 0.008214 -0.003988 -0.000136 0.000000 0.002576 0.000000
# 2 -0.003988 0.009209 -0.004010 0.000000 -0.001766 0.000000
# 3 -0.000136 -0.004010 0.022367 0.000000 0.008599 0.000000
# 4 0.000000 0.000000 0.000000 0.032891 0.000000 0.000800
# 5 0.002576 -0.001766 0.008599 0.000000 0.038361 0.000000
# 6 0.000000 0.000000 0.000000 0.000800 0.000000 0.014096
#
#
# Mechanical properties :
#
#
# Convention : Reuss Voigt Hill
#
# Bulk Modulus (GPa) = 42.51670 69.29051 55.90361
# Shear Modulus (GPa) = 33.50164 42.56760 38.03462
#
# Velocity S-wave (km/s) = 3.50725 3.95342 3.73700
# Velocity P-wave (km/s) = 5.65790 6.80299 6.25670
#
# Compressibility (1/GPa) = 0.02352017
#
# Stress axis : x y z
#
# Youngs Moduli (GPa) = 121.74136 108.59422 44.70894
#
# Poissons Ratio (x) = 0.43312 0.00610
# Poissons Ratio (y) = 0.48556 0.17928
# Poissons Ratio (z) = 0.01661 0.43545
#
# Static dielectric constant tensor:
#      x y z
#    x 2.192390 0.000000 -0.076320 
#    y 0.000000 2.171600 0.000000 
#    z -0.076320 0.000000 2.416700 
# 
# From -- ./inp_files/1185.got.cif
#   From: 2010.05.17/outbox.cif.g08.bks.cpg/sg4_1_cif.got.tgz:1185.got - 2010.06.03 18:43:04.
