data_PCOD9117698
_publ_section_title
;
Structure prediction by ZEFSAII (Michael W. Deem and Ramdas Pophale) SiO2 
 PCOD9117698
Probable space group: P 21
;
_chemical_formula_sum "Si O2"
_cell_formula_units_Z 16
_cell_length_a 6.501730
_cell_length_b 10.565416
_cell_length_c 12.421757
_cell_angle_alpha 90.000000
_cell_angle_beta 57.535861
_cell_angle_gamma 90.000000
_cell_volume 719.947458
_symmetry_space_group_name_H-M "P 21"
_symmetry_group_IT_number 4
_symmetry_cell_setting 'monoclinic'
loop_
_space_group_symop_operation_xyz
x,y,z
-x,1/2+y,-z
loop_
_atom_site_type_symbol
_atom_site_label
_atom_site_fract_x
_atom_site_fract_y
_atom_site_fract_z
Si Si1 0.914205 0.205090 0.509246
Si Si2 0.458811 0.429330 0.131778
Si Si3 0.131979 0.755062 0.045257
Si Si4 0.941981 0.532684 0.953507
Si Si5 0.382214 0.940546 0.489962
Si Si6 0.970006 0.096465 0.721938
Si Si7 0.445849 0.304600 0.362112
Si Si8 0.203519 0.600913 0.684245
O O1 0.792558 0.341544 0.520522
O O2 0.855776 0.149563 0.642593
O O3 0.835458 0.117898 0.431446
O O4 0.204526 0.221386 0.419002
O O5 0.193781 0.483604 0.181260
O O6 0.450497 0.394415 0.259278
O O7 0.587924 0.309516 0.035811
O O8 0.656705 0.540118 0.060891
O O9 0.033119 0.706723 0.188197
O O10 0.090907 0.636272 0.978099
O O11 0.996463 0.884028 0.044068
O O12 0.979788 0.554544 0.816204
O O13 0.563176 0.867082 0.518880
O O14 0.562981 0.013066 0.360988
O O15 0.223317 0.034947 0.609953
O O16 0.704276 0.234171 0.295494
#
# Coordination Sequence:
#
# PCOD9117698 Si02
#       8
#     2   2   2   2   2   2   2   2
#     4  11  26  42  70 105 142 188 236 304 370 431
#     4  10  23  44  68  99 140 194 238 301 358 434
#     4  10  25  45  70 102 139 195 243 302 361 438
#     4  10  23  46  71 103 137 191 244 301 359 438
#     4  11  25  39  72 102 140 192 225 310 359 437
#     4  12  24  46  67 108 146 190 246 300 374 437
#     4  11  21  44  66 100 143 180 245 289 374 425
#     4  11  23  42  70 101 137 182 241 299 361 428
#
# _framework density 22.223845000000001
#
# number of rings (size 3 to 8) (size 9 to 14) (size 15 to 20)
#    0.750    0.500    3.750    1.500    1.750    2.000 
#    4.500    0.000    0.000    0.000    0.000    0.000 
#    0.000    0.000    0.000    0.000    0.000    0.000 
#
# Total GULP energy -89214.012483 kJ/mol
# GULP energy per Si atom -5575.875780 kJ/mol
# Density = 2.217326 g / cm^3
# Si number density = 22.223845 Si / 1000 Ang^3
#
#
#
# Elastic Constant Matrix: (Units=GPa)
#
#
# Indices 1 2 3 4 5 6 
#
# 1 44.6535 20.4860 9.7682 0.0000 2.1518 0.0000
# 2 20.4860 82.8921 30.0601 0.0000 11.5299 0.0000
# 3 9.7682 30.0601 86.9756 0.0000 3.0127 0.0000
# 4 0.0000 0.0000 0.0000 37.6930 0.0000 -1.2095
# 5 2.1518 11.5299 3.0127 0.0000 34.1559 0.0000
# 6 0.0000 0.0000 0.0000 -1.2095 0.0000 24.8472
#
#
#
# Elastic Compliance Matrix: (Units=1/GPa)
#
#
# Indices 1 2 3 4 5 6 
#
# 1 0.025313 -0.006048 -0.000770 0.000000 0.000515 0.000000
# 2 -0.006048 0.015881 -0.004651 0.000000 -0.004570 0.000000
# 3 -0.000770 -0.004651 0.013176 0.000000 0.000456 0.000000
# 4 0.000000 0.000000 0.000000 0.026572 0.000000 0.001293
# 5 0.000515 -0.004570 0.000456 0.000000 0.030747 0.000000
# 6 0.000000 0.000000 0.000000 0.001293 0.000000 0.040309
#
#
# Mechanical properties :
#
#
# Convention : Reuss Voigt Hill
#
# Bulk Modulus (GPa) = 31.81636 37.23885 34.52761
# Shear Modulus (GPa) = 26.96668 29.61967 28.29318
#
# Velocity S-wave (km/s) = 3.48719 3.65470 3.57192
# Velocity P-wave (km/s) = 5.52823 5.88232 5.70802
#
# Compressibility (1/GPa) = 0.03143037
#
# Stress axis : x y z
#
# Youngs Moduli (GPa) = 39.50518 62.96861 75.89728
#
# Poissons Ratio (x) = 0.38084 0.05847
# Poissons Ratio (y) = 0.23893 0.35301
# Poissons Ratio (z) = 0.03044 0.29288
#
# Static dielectric constant tensor:
#      x y z
#    x 1.798480 0.000000 -0.010960 
#    y 0.000000 1.881600 0.000000 
#    z -0.010960 0.000000 1.845300 
# 
# From -- ./inp_files/10506.got.cif
#   From: 2010.05.17/outbox.cif.g08.bks.cpg/sg4_6_cif.got.tgz:10506.got - 2010.06.03 18:43:04.
