data_PCOD9117147
_publ_section_title
;
Structure prediction by ZEFSAII (Michael W. Deem and Ramdas Pophale) SiO2 
 PCOD9117147
Probable space group: P 21
;
_chemical_formula_sum "Si O2"
_cell_formula_units_Z 16
_cell_length_a 9.608341
_cell_length_b 13.798575
_cell_length_c 7.040265
_cell_angle_alpha 90.000000
_cell_angle_beta 53.651000
_cell_angle_gamma 90.000000
_cell_volume 751.787282
_symmetry_space_group_name_H-M "P 21"
_symmetry_group_IT_number 4
_symmetry_cell_setting 'monoclinic'
loop_
_space_group_symop_operation_xyz
x,y,z
-x,1/2+y,-z
loop_
_atom_site_type_symbol
_atom_site_label
_atom_site_fract_x
_atom_site_fract_y
_atom_site_fract_z
Si Si1 0.682762 0.323580 0.882551
Si Si2 0.432456 0.099504 0.750278
Si Si3 0.792503 0.622223 0.411849
Si Si4 0.369194 0.787013 0.499506
Si Si5 0.786049 0.011913 0.363290
Si Si6 0.378927 0.328586 0.389840
Si Si7 0.830977 0.165792 0.038502
Si Si8 0.849893 0.523076 0.756162
O O1 0.697665 0.325857 0.643800
O O2 0.805372 0.412053 0.844565
O O3 0.486618 0.345418 0.109463
O O4 0.738014 0.221683 0.937568
O O5 0.328090 0.070373 0.645416
O O6 0.484269 0.210473 0.682759
O O7 0.616627 0.047901 0.612477
O O8 0.306066 0.082577 0.024738
O O9 0.688462 0.718248 0.561166
O O10 0.844057 0.551413 0.540585
O O11 0.968536 0.657644 0.170431
O O12 0.472082 0.848045 0.572009
O O13 0.221573 0.732124 0.738719
O O14 0.774491 0.897752 0.415602
O O15 0.771610 0.058999 0.163437
O O16 0.965433 0.048912 0.304564
#
# Coordination Sequence:
#
# PCOD9117147 Si02
#       8
#     2   2   2   2   2   2   2   2
#     4  11  23  43  69 102 135 179 232 295 336 419
#     4  10  22  44  66  91 139 174 227 282 341 411
#     4  11  24  43  69 101 135 187 224 288 351 408
#     4   9  22  42  69  98 130 188 226 283 353 400
#     4  11  23  45  68 101 136 183 225 288 343 416
#     4  10  22  45  66  97 140 178 235 286 344 412
#     4  10  23  42  69  94 142 175 227 282 346 407
#     4  12  25  42  70 102 137 176 232 286 346 409
#
# _framework density 21.282613999999999
#
# number of rings (size 3 to 8) (size 9 to 14) (size 15 to 20)
#    0.000    1.500    2.500    2.250    5.250    0.000 
#    4.500    0.000    0.000    0.000    0.000    0.000 
#    0.000    0.000    0.000    0.000    0.000    0.000 
#
# Total GULP energy -89199.410760 kJ/mol
# GULP energy per Si atom -5574.963172 kJ/mol
# Density = 2.123417 g / cm^3
# Si number density = 21.282614 Si / 1000 Ang^3
#
#
#
# Elastic Constant Matrix: (Units=GPa)
#
#
# Indices 1 2 3 4 5 6 
#
# 1 60.3899 9.2993 38.9137 0.0000 -22.1322 0.0000
# 2 9.2993 46.8343 11.0159 0.0000 -1.1361 0.0000
# 3 38.9137 11.0159 115.3058 0.0000 -17.6242 0.0000
# 4 0.0000 0.0000 0.0000 23.7400 0.0000 -6.4730
# 5 -22.1322 -1.1361 -17.6242 0.0000 38.8737 0.0000
# 6 0.0000 0.0000 0.0000 -6.4730 0.0000 23.8877
#
#
#
# Elastic Compliance Matrix: (Units=1/GPa)
#
#
# Indices 1 2 3 4 5 6 
#
# 1 0.025461 -0.003241 -0.006535 0.000000 0.011439 0.000000
# 2 -0.003241 0.022259 -0.001306 0.000000 -0.001787 0.000000
# 3 -0.006535 -0.001306 0.011205 0.000000 0.001321 0.000000
# 4 0.000000 0.000000 0.000000 0.045484 0.000000 0.012325
# 5 0.011439 -0.001787 0.001321 0.000000 0.032783 0.000000
# 6 0.000000 0.000000 0.000000 0.012325 0.000000 0.045202
#
#
# Mechanical properties :
#
#
# Convention : Reuss Voigt Hill
#
# Bulk Modulus (GPa) = 27.20219 37.88754 32.54486
# Shear Modulus (GPa) = 23.06155 28.18703 25.62429
#
# Velocity S-wave (km/s) = 3.29536 3.64320 3.47364
# Velocity P-wave (km/s) = 5.22382 5.96137 5.60474
#
# Compressibility (1/GPa) = 0.03676175
#
# Stress axis : x y z
#
# Youngs Moduli (GPa) = 39.27582 44.92525 89.24884
#
# Poissons Ratio (x) = 0.14560 0.58321
# Poissons Ratio (y) = 0.12729 0.11655
# Poissons Ratio (z) = 0.25665 0.05867
#
# Static dielectric constant tensor:
#      x y z
#    x 1.778100 0.000000 0.037170 
#    y 0.000000 1.881400 0.000000 
#    z 0.037170 0.000000 1.759550 
# 
# From -- ./inp_files/1833.got.cif
#   From: 2010.05.17/outbox.cif.g08.bks.cpg/sg4_1_cif.got.tgz:1833.got - 2010.06.03 18:43:04.
