data_PCOD9117103
_publ_section_title
;
Structure prediction by ZEFSAII (Michael W. Deem and Ramdas Pophale) SiO2 
 PCOD9117103
Probable space group: P 21
;
_chemical_formula_sum "Si O2"
_cell_formula_units_Z 14
_cell_length_a 15.889067
_cell_length_b 8.131898
_cell_length_c 12.093905
_cell_angle_alpha 90.000000
_cell_angle_beta 157.719912
_cell_angle_gamma 90.000000
_cell_volume 592.448072
_symmetry_space_group_name_H-M "P 21"
_symmetry_group_IT_number 4
_symmetry_cell_setting 'monoclinic'
loop_
_space_group_symop_operation_xyz
x,y,z
-x,1/2+y,-z
loop_
_atom_site_type_symbol
_atom_site_label
_atom_site_fract_x
_atom_site_fract_y
_atom_site_fract_z
Si Si1 0.808372 0.588730 0.121360
Si Si2 0.982653 0.879863 0.444058
Si Si3 0.969046 0.235506 0.074732
Si Si4 0.303535 0.626310 0.046385
Si Si5 0.282709 0.924005 0.415169
Si Si6 0.229091 0.711801 0.562215
Si Si7 0.598827 0.917409 0.337489
O O1 0.940219 0.441485 0.343564
O O2 0.809727 0.729626 0.218816
O O3 0.968929 0.662691 0.224664
O O4 0.569277 0.529620 0.794746
O O5 0.195784 0.810306 0.635492
O O6 0.866499 0.028948 0.238250
O O7 0.164030 0.370119 0.326775
O O8 0.836043 0.212718 0.027001
O O9 0.802567 0.296825 0.778952
O O10 0.099041 0.067906 0.203399
O O11 0.477155 0.502160 0.315579
O O12 0.463346 0.747056 0.169906
O O13 0.302847 0.832948 0.556915
O O14 0.360469 0.539509 0.717010
#
# Coordination Sequence:
#
# PCOD9117103 Si02
#       7
#     2   2   2   2   2   2   2
#     4  10  22  43  69  98 135 184 221 287 352 407
#     4  10  22  45  69  98 143 176 229 288 350 407
#     4  11  24  44  67 102 137 179 228 291 334 429
#     4  11  24  45  67  99 139 186 229 289 339 420
#     4  11  24  43  69  99 138 179 233 278 359 400
#     4  10  23  44  65  99 137 174 229 297 323 425
#     4  11  23  42  68  99 135 180 231 276 347 406
#
# _framework density 23.630763000000002
#
# number of rings (size 3 to 8) (size 9 to 14) (size 15 to 20)
#    0.857    0.571    1.429    3.429    0.000    3.429 
#   10.286    0.000    0.000    0.000    0.000    0.000 
#    0.000    0.000    0.000    0.000    0.000    0.000 
#
# Total GULP energy -78131.066327 kJ/mol
# GULP energy per Si atom -5580.790452 kJ/mol
# Density = 2.357698 g / cm^3
# Si number density = 23.630763 Si / 1000 Ang^3
#
#
#
# Elastic Constant Matrix: (Units=GPa)
#
#
# Indices 1 2 3 4 5 6 
#
# 1 49.6425 15.8497 32.6952 0.0000 1.5591 0.0000
# 2 15.8497 83.7079 19.7404 0.0000 -1.8937 0.0000
# 3 32.6952 19.7404 100.2444 0.0000 5.2290 0.0000
# 4 0.0000 0.0000 0.0000 60.0376 0.0000 6.6831
# 5 1.5591 -1.8937 5.2290 0.0000 31.6074 0.0000
# 6 0.0000 0.0000 0.0000 6.6831 0.0000 44.7346
#
#
#
# Elastic Compliance Matrix: (Units=1/GPa)
#
#
# Indices 1 2 3 4 5 6 
#
# 1 0.026408 -0.003120 -0.007990 0.000000 -0.000168 0.000000
# 2 -0.003120 0.012940 -0.001593 0.000000 0.001193 0.000000
# 3 -0.007990 -0.001593 0.012992 0.000000 -0.001851 0.000000
# 4 0.000000 0.000000 0.000000 0.016938 0.000000 -0.002530
# 5 -0.000168 0.001193 -0.001851 0.000000 0.032024 0.000000
# 6 0.000000 0.000000 0.000000 -0.002530 0.000000 0.022732
#
#
# Mechanical properties :
#
#
# Convention : Reuss Voigt Hill
#
# Bulk Modulus (GPa) = 37.12760 41.12948 39.12854
# Shear Modulus (GPa) = 31.56251 38.29655 34.92953
#
# Velocity S-wave (km/s) = 3.65862 4.03006 3.84883
# Velocity P-wave (km/s) = 5.79595 6.25284 6.02873
#
# Compressibility (1/GPa) = 0.02693414
#
# Stress axis : x y z
#
# Youngs Moduli (GPa) = 37.86796 77.28204 76.97201
#
# Poissons Ratio (x) = 0.24110 0.61499
# Poissons Ratio (y) = 0.11814 0.12260
# Poissons Ratio (z) = 0.30256 0.12309
#
# Static dielectric constant tensor:
#      x y z
#    x 1.849760 0.000000 0.033570 
#    y 0.000000 1.996130 0.000000 
#    z 0.033570 0.000000 1.899560 
# 
# From -- ./inp_files/14292.got.cif
#   From: 2010.05.17/outbox.cif.g08.bks.cpg/sg4_8_cif.got.tgz:14292.got - 2010.06.03 18:43:04.
