data_PCOD9117577
_publ_section_title
;
Structure prediction by ZEFSAII (Michael W. Deem and Ramdas Pophale) SiO2 
 PCOD9117577
Probable space group: P 21
;
_chemical_formula_sum "Si O2"
_cell_formula_units_Z 14
_cell_length_a 9.346488
_cell_length_b 7.360272
_cell_length_c 8.647037
_cell_angle_alpha 90.000000
_cell_angle_beta 87.749735
_cell_angle_gamma 90.000000
_cell_volume 594.394252
_symmetry_space_group_name_H-M "P 21"
_symmetry_group_IT_number 4
_symmetry_cell_setting 'monoclinic'
loop_
_space_group_symop_operation_xyz
x,y,z
-x,1/2+y,-z
loop_
_atom_site_type_symbol
_atom_site_label
_atom_site_fract_x
_atom_site_fract_y
_atom_site_fract_z
Si Si1 0.265449 0.742890 0.310143
Si Si2 0.202001 0.025185 0.534913
Si Si3 0.131224 0.415825 0.439669
Si Si4 0.073228 0.888906 0.075926
Si Si5 0.688279 0.344636 0.158093
Si Si6 0.561211 0.054639 0.969045
Si Si7 0.187426 0.295066 0.086639
O O1 0.288736 0.937441 0.387621
O O2 0.230448 0.595437 0.444316
O O3 0.119398 0.767075 0.217438
O O4 0.380376 0.676265 0.179155
O O5 0.277530 0.936649 0.680432
O O6 0.035698 0.959630 0.523742
O O7 0.190809 0.243056 0.530861
O O8 0.147017 0.364736 0.258613
O O9 0.138238 0.087613 0.092029
O O10 0.158032 0.811020 0.925200
O O11 0.909113 0.884847 0.042670
O O12 0.597837 0.491490 0.062343
O O13 0.600097 0.159941 0.125605
O O14 0.655334 0.870462 0.953541
#
# Coordination Sequence:
#
# PCOD9117577 Si02
#       7
#     2   2   2   2   2   2   2
#     4  10  23  43  62  96 136 176 221 279 332 410
#     4  12  23  41  66  98 140 175 221 279 350 400
#     4  11  22  39  64 100 137 171 220 280 335 406
#     4  11  21  38  70  98 132 172 229 276 346 398
#     4  11  24  45  65  98 128 181 228 279 341 403
#     4  10  24  46  65  92 138 174 235 281 331 405
#     4  11  21  38  66 100 133 175 222 286 335 398
#
# _framework density 23.553391000000001
#
# number of rings (size 3 to 8) (size 9 to 14) (size 15 to 20)
#    0.000    1.143    4.286    3.429    0.000    0.000 
#   10.286    0.000    0.000    0.000    0.000    0.000 
#    0.000    0.000    0.000    0.000    0.000    0.000 
#
# Total GULP energy -78174.877001 kJ/mol
# GULP energy per Si atom -5583.919786 kJ/mol
# Density = 2.349978 g / cm^3
# Si number density = 23.553391 Si / 1000 Ang^3
#
#
#
# Elastic Constant Matrix: (Units=GPa)
#
#
# Indices 1 2 3 4 5 6 
#
# 1 68.4756 9.8775 2.8799 0.0000 3.6175 0.0000
# 2 9.8775 126.0105 20.6302 0.0000 -1.1669 0.0000
# 3 2.8799 20.6302 62.3083 0.0000 9.5968 0.0000
# 4 0.0000 0.0000 0.0000 37.6102 0.0000 4.0682
# 5 3.6175 -1.1669 9.5968 0.0000 14.1677 0.0000
# 6 0.0000 0.0000 0.0000 4.0682 0.0000 29.5482
#
#
#
# Elastic Compliance Matrix: (Units=1/GPa)
#
#
# Indices 1 2 3 4 5 6 
#
# 1 0.014993 -0.001275 0.000374 0.000000 -0.004187 0.000000
# 2 -0.001275 0.008605 -0.003293 0.000000 0.003265 0.000000
# 3 0.000374 -0.003293 0.019180 0.000000 -0.013359 0.000000
# 4 0.000000 0.000000 0.000000 0.026990 0.000000 -0.003716
# 5 -0.004187 0.003265 -0.013359 0.000000 0.080970 0.000000
# 6 0.000000 0.000000 0.000000 -0.003716 0.000000 0.034355
#
#
# Mechanical properties :
#
#
# Convention : Reuss Voigt Hill
#
# Bulk Modulus (GPa) = 29.07860 35.95217 32.51539
# Shear Modulus (GPa) = 24.39683 31.15901 27.77792
#
# Velocity S-wave (km/s) = 3.22189 3.64113 3.43791
# Velocity P-wave (km/s) = 5.11990 5.74233 5.44002
#
# Compressibility (1/GPa) = 0.03438955
#
# Stress axis : x y z
#
# Youngs Moduli (GPa) = 66.69713 116.20903 52.13828
#
# Poissons Ratio (x) = 0.14820 -0.01950
# Poissons Ratio (y) = 0.08506 0.17170
# Poissons Ratio (z) = -0.02495 0.38269
#
# Static dielectric constant tensor:
#      x y z
#    x 1.834830 0.000000 -0.013750 
#    y 0.000000 2.013390 0.000000 
#    z -0.013750 0.000000 1.891640 
# 
# From -- ./inp_files/5707.got.cif
#   From: 2010.05.17/outbox.cif.g08.bks.cpg/sg4_3_cif.got.tgz:5707.got - 2010.06.03 18:43:04.
