data_PCOD9117374
_publ_section_title
;
Structure prediction by ZEFSAII (Michael W. Deem and Ramdas Pophale) SiO2 
 PCOD9117374
Probable space group: P 21
;
_chemical_formula_sum "Si O2"
_cell_formula_units_Z 14
_cell_length_a 16.294956
_cell_length_b 5.179663
_cell_length_c 7.794564
_cell_angle_alpha 90.000000
_cell_angle_beta 119.829300
_cell_angle_gamma 90.000000
_cell_volume 570.718056
_symmetry_space_group_name_H-M "P 21"
_symmetry_group_IT_number 4
_symmetry_cell_setting 'monoclinic'
loop_
_space_group_symop_operation_xyz
x,y,z
-x,1/2+y,-z
loop_
_atom_site_type_symbol
_atom_site_label
_atom_site_fract_x
_atom_site_fract_y
_atom_site_fract_z
Si Si1 0.268852 0.198790 0.672382
Si Si2 0.095630 0.212662 0.251027
Si Si3 0.439761 0.701907 0.282649
Si Si4 0.648715 0.901747 0.560096
Si Si5 0.537736 0.395991 0.131726
Si Si6 0.885297 0.221680 0.971797
Si Si7 0.281793 0.042467 0.057257
O O1 0.164725 0.169827 0.483806
O O2 0.305923 0.417598 0.578963
O O3 0.353732 0.988125 0.725762
O O4 0.261286 0.221086 0.869305
O O5 0.120778 0.457800 0.149598
O O6 0.105959 0.952929 0.153845
O O7 0.984248 0.225863 0.177520
O O8 0.540289 0.819265 0.425993
O O9 0.367418 0.671764 0.364560
O O10 0.471559 0.432645 0.232456
O O11 0.376163 0.886905 0.102280
O O12 0.699230 0.712569 0.750888
O O13 0.514831 0.118109 0.034531
O O14 0.799476 0.325926 0.999622
#
# Coordination Sequence:
#
# PCOD9117374 Si02
#       7
#     2   2   2   2   2   2   2
#     4  11  24  43  70 103 143 181 238 290 358 413
#     4  10  22  48  72 107 134 189 228 301 357 427
#     4  11  23  39  68  95 147 190 241 281 358 415
#     4  11  23  42  64 100 139 191 233 290 344 427
#     4  11  24  43  63 102 144 186 230 290 341 419
#     4  10  23  45  78  98 144 179 240 288 365 425
#     4  12  23  44  67 105 137 188 234 296 349 428
#
# _framework density 24.530501000000001
#
# number of rings (size 3 to 8) (size 9 to 14) (size 15 to 20)
#    0.000    1.143    4.286    1.714    0.000    1.143 
#    2.571    4.286    0.000    0.000    0.000    0.000 
#    0.000    0.000    0.000    0.000    0.000    0.000 
#
# Total GULP energy -78117.443535 kJ/mol
# GULP energy per Si atom -5579.817395 kJ/mol
# Density = 2.447467 g / cm^3
# Si number density = 24.530501 Si / 1000 Ang^3
#
#
#
# Elastic Constant Matrix: (Units=GPa)
#
#
# Indices 1 2 3 4 5 6 
#
# 1 107.8143 21.4357 62.2990 0.0000 28.3470 0.0000
# 2 21.4357 84.1911 36.5431 0.0000 3.9202 0.0000
# 3 62.2990 36.5431 170.8943 0.0000 33.0758 0.0000
# 4 0.0000 0.0000 0.0000 35.1028 0.0000 -2.8029
# 5 28.3470 3.9202 33.0758 0.0000 45.6788 0.0000
# 6 0.0000 0.0000 0.0000 -2.8029 0.0000 38.4253
#
#
#
# Elastic Compliance Matrix: (Units=1/GPa)
#
#
# Indices 1 2 3 4 5 6 
#
# 1 0.012956 -0.001604 -0.003315 0.000000 -0.005502 0.000000
# 2 -0.001604 0.013335 -0.002603 0.000000 0.001735 0.000000
# 3 -0.003315 -0.002603 0.008345 0.000000 -0.003762 0.000000
# 4 0.000000 0.000000 0.000000 0.028655 0.000000 0.002090
# 5 -0.005502 0.001735 -0.003762 0.000000 0.027881 0.000000
# 6 0.000000 0.000000 0.000000 0.002090 0.000000 0.026177
#
#
# Mechanical properties :
#
#
# Convention : Reuss Voigt Hill
#
# Bulk Modulus (GPa) = 51.03946 67.05059 59.04503
# Shear Modulus (GPa) = 35.99105 40.01619 38.00362
#
# Velocity S-wave (km/s) = 3.83455 4.04330 3.94031
# Velocity P-wave (km/s) = 6.36056 7.01360 6.69505
#
# Compressibility (1/GPa) = 0.01959268
#
# Stress axis : x y z
#
# Youngs Moduli (GPa) = 77.18169 74.99091 119.83522
#
# Poissons Ratio (x) = 0.12025 0.39730
# Poissons Ratio (y) = 0.12377 0.31190
# Poissons Ratio (z) = 0.25589 0.19518
#
# Static dielectric constant tensor:
#      x y z
#    x 2.085890 0.000000 -0.129180 
#    y 0.000000 1.974050 0.000000 
#    z -0.129180 0.000000 2.176010 
# 
# From -- ./inp_files/9511.got.cif
#   From: 2010.05.17/outbox.cif.g08.bks.cpg/sg4_5_cif.got.tgz:9511.got - 2010.06.03 18:43:04.
