data_PCOD9117697
_publ_section_title
;
Structure prediction by ZEFSAII (Michael W. Deem and Ramdas Pophale) SiO2 
 PCOD9117697
Probable space group: P 21
;
_chemical_formula_sum "Si O2"
_cell_formula_units_Z 16
_cell_length_a 11.950963
_cell_length_b 11.936513
_cell_length_c 6.654528
_cell_angle_alpha 90.000000
_cell_angle_beta 130.184896
_cell_angle_gamma 90.000000
_cell_volume 725.223306
_symmetry_space_group_name_H-M "P 21"
_symmetry_group_IT_number 4
_symmetry_cell_setting 'monoclinic'
loop_
_space_group_symop_operation_xyz
x,y,z
-x,1/2+y,-z
loop_
_atom_site_type_symbol
_atom_site_label
_atom_site_fract_x
_atom_site_fract_y
_atom_site_fract_z
Si Si1 0.462044 0.872160 0.971391
Si Si2 0.040895 0.261149 0.764372
Si Si3 0.421491 0.529591 0.540345
Si Si4 0.353525 0.050021 0.550197
Si Si5 0.060243 0.167452 0.203637
Si Si6 0.728329 0.164034 0.285387
Si Si7 0.724576 0.724037 0.226684
Si Si8 0.814521 0.997059 0.056635
O O1 0.616135 0.825008 0.068600
O O2 0.499324 0.946594 0.209908
O O3 0.361157 0.766989 0.911089
O O4 0.383359 0.932731 0.692971
O O5 0.185931 0.190829 0.865907
O O6 0.088640 0.388748 0.774502
O O7 0.893648 0.209248 0.504098
O O8 0.022458 0.246965 0.978591
O O9 0.538818 0.571037 0.510573
O O10 0.345423 0.625200 0.589448
O O11 0.295246 0.472540 0.256092
O O12 0.186756 0.076300 0.296557
O O13 0.369260 0.132874 0.761229
O O14 0.139283 0.242547 0.464402
O O15 0.923369 0.095916 0.114160
O O16 0.730276 0.055361 0.144356
#
# Coordination Sequence:
#
# PCOD9117697 Si02
#       8
#     2   2   2   2   2   2   2   2
#     4  12  25  44  70 107 140 194 235 286 372 411
#     4  12  24  46  76  98 142 194 226 301 364 407
#     4  12  25  46  70 104 145 185 236 303 346 435
#     4  10  25  43  68 106 141 187 238 291 349 433
#     4  10  24  46  67 102 137 183 237 294 348 425
#     4  12  27  47  73 108 146 186 241 303 348 432
#     4  10  23  44  68  99 139 182 232 290 348 427
#     4  12  25  50  70 108 142 181 253 286 359 430
#
# _framework density 22.062169999999998
#
# number of rings (size 3 to 8) (size 9 to 14) (size 15 to 20)
#    0.750    0.000    2.500    5.250    3.500    2.000 
#    2.250    0.000    0.000    0.000    0.000    0.000 
#    0.000    0.000    0.000    0.000    0.000    0.000 
#
# Total GULP energy -89277.878878 kJ/mol
# GULP energy per Si atom -5579.867430 kJ/mol
# Density = 2.201196 g / cm^3
# Si number density = 22.062170 Si / 1000 Ang^3
#
#
#
# Elastic Constant Matrix: (Units=GPa)
#
#
# Indices 1 2 3 4 5 6 
#
# 1 100.7356 34.3982 -2.2681 0.0000 -15.6818 0.0000
# 2 34.3982 92.7748 32.5407 0.0000 -4.1833 0.0000
# 3 -2.2681 32.5407 77.9178 0.0000 -3.3785 0.0000
# 4 0.0000 0.0000 0.0000 34.0709 0.0000 3.0698
# 5 -15.6818 -4.1833 -3.3785 0.0000 26.9493 0.0000
# 6 0.0000 0.0000 0.0000 3.0698 0.0000 40.1898
#
#
#
# Elastic Compliance Matrix: (Units=1/GPa)
#
#
# Indices 1 2 3 4 5 6 
#
# 1 0.012992 -0.005551 0.003003 0.000000 0.007075 0.000000
# 2 -0.005551 0.015047 -0.006520 0.000000 -0.001712 0.000000
# 3 0.003003 -0.006520 0.015762 0.000000 0.002712 0.000000
# 4 0.000000 0.000000 0.000000 0.029554 0.000000 -0.002257
# 5 0.007075 -0.001712 0.002712 0.000000 0.041298 0.000000
# 6 0.000000 0.000000 0.000000 -0.002257 0.000000 0.025054
#
#
# Mechanical properties :
#
#
# Convention : Reuss Voigt Hill
#
# Bulk Modulus (GPa) = 38.96422 44.52999 41.74711
# Shear Modulus (GPa) = 30.04875 34.02583 32.03729
#
# Velocity S-wave (km/s) = 3.69454 3.93144 3.81483
# Velocity P-wave (km/s) = 5.99157 6.39030 6.19414
#
# Compressibility (1/GPa) = 0.02566457
#
# Stress axis : x y z
#
# Youngs Moduli (GPa) = 76.97333 66.46003 63.44429
#
# Poissons Ratio (x) = 0.36894 -0.19054
# Poissons Ratio (y) = 0.42730 0.41364
# Poissons Ratio (z) = -0.23117 0.43330
#
# Static dielectric constant tensor:
#      x y z
#    x 1.825200 0.000000 -0.002660 
#    y 0.000000 1.829990 0.000000 
#    z -0.002660 0.000000 1.811330 
# 
# From -- ./inp_files/3121.got.cif
#   From: 2010.05.17/outbox.cif.g08.bks.cpg/sg4_2_cif.got.tgz:3121.got - 2010.06.03 18:43:04.
