data_PCOD9117523
_publ_section_title
;
Structure prediction by ZEFSAII (Michael W. Deem and Ramdas Pophale) SiO2 
 PCOD9117523
Probable space group: P 21
;
_chemical_formula_sum "Si O2"
_cell_formula_units_Z 16
_cell_length_a 6.996795
_cell_length_b 15.239801
_cell_length_c 10.060095
_cell_angle_alpha 90.000000
_cell_angle_beta 43.095436
_cell_angle_gamma 90.000000
_cell_volume 732.889176
_symmetry_space_group_name_H-M "P 21"
_symmetry_group_IT_number 4
_symmetry_cell_setting 'monoclinic'
loop_
_space_group_symop_operation_xyz
x,y,z
-x,1/2+y,-z
loop_
_atom_site_type_symbol
_atom_site_label
_atom_site_fract_x
_atom_site_fract_y
_atom_site_fract_z
Si Si1 0.393718 0.056790 0.372595
Si Si2 0.265988 0.516777 0.557760
Si Si3 0.967195 0.804667 0.732194
Si Si4 0.049804 0.775070 0.396883
Si Si5 0.305553 0.120049 0.148893
Si Si6 0.593879 0.877923 0.132634
Si Si7 0.237680 0.580219 0.295533
Si Si8 0.370858 0.318687 0.598816
O O1 0.566375 0.072091 0.417660
O O2 0.400992 0.129712 0.253782
O O3 0.069759 0.040856 0.574803
O O4 0.520206 0.971537 0.233896
O O5 0.368394 0.532539 0.356267
O O6 0.304036 0.416455 0.579144
O O7 0.946806 0.550018 0.722095
O O8 0.817695 0.711929 0.838984
O O9 0.928818 0.818006 0.593083
O O10 0.299927 0.801150 0.585112
O O11 0.822631 0.874962 0.901436
O O12 0.307112 0.836291 0.222652
O O13 0.177066 0.680798 0.370018
O O14 0.830575 0.760722 0.390038
O O15 0.556506 0.085656 0.932013
O O16 0.685730 0.819704 0.214318
#
# Coordination Sequence:
#
# PCOD9117523 Si02
#       8
#     2   2   2   2   2   2   2   2
#     4  10  23  42  64  91 129 169 213 259 322 385
#     4  10  23  45  64  93 132 168 215 266 315 384
#     4  11  23  42  65  97 130 165 214 271 318 376
#     4  11  21  41  65  95 127 165 210 262 324 376
#     4  11  23  41  63  98 127 164 217 269 318 377
#     4  10  23  43  64  93 132 166 210 268 317 381
#     4  11  23  40  66  96 128 169 212 265 320 374
#     4  10  25  42  67  93 129 172 211 262 324 385
#
# _framework density 21.831405
#
# number of rings (size 3 to 8) (size 9 to 14) (size 15 to 20)
#    0.000    1.500    3.750    1.500    1.750    8.000 
#    2.250    0.000    0.000    0.000    0.000    0.000 
#    0.000    0.000    0.000    0.000    0.000    0.000 
#
# Total GULP energy -89430.365352 kJ/mol
# GULP energy per Si atom -5589.397834 kJ/mol
# Density = 2.178172 g / cm^3
# Si number density = 21.831405 Si / 1000 Ang^3
#
#
#
# Elastic Constant Matrix: (Units=GPa)
#
#
# Indices 1 2 3 4 5 6 
#
# 1 114.3574 -10.4360 27.2325 0.0000 10.7339 0.0000
# 2 -10.4360 39.4080 -14.3852 0.0000 -1.9269 0.0000
# 3 27.2325 -14.3852 119.6514 0.0000 9.2688 0.0000
# 4 0.0000 0.0000 0.0000 33.5964 0.0000 -1.2639
# 5 10.7339 -1.9269 9.2688 0.0000 13.5789 0.0000
# 6 0.0000 0.0000 0.0000 -1.2639 0.0000 32.0278
#
#
#
# Elastic Compliance Matrix: (Units=1/GPa)
#
#
# Indices 1 2 3 4 5 6 
#
# 1 0.009880 0.001738 -0.001535 0.000000 -0.006516 0.000000
# 2 0.001738 0.026882 0.002795 0.000000 0.000533 0.000000
# 3 -0.001535 0.002795 0.009416 0.000000 -0.004817 0.000000
# 4 0.000000 0.000000 0.000000 0.029809 0.000000 0.001176
# 5 -0.006516 0.000533 -0.004817 0.000000 0.082158 0.000000
# 6 0.000000 0.000000 0.000000 0.001176 0.000000 0.031269
#
#
# Mechanical properties :
#
#
# Convention : Reuss Voigt Hill
#
# Bulk Modulus (GPa) = 19.16676 30.91551 25.04114
# Shear Modulus (GPa) = 24.89896 33.90765 29.40330
#
# Velocity S-wave (km/s) = 3.38081 3.94529 3.67391
# Velocity P-wave (km/s) = 4.90289 5.91147 5.43065
#
# Compressibility (1/GPa) = 0.05217365
#
# Stress axis : x y z
#
# Youngs Moduli (GPa) = 101.21236 37.19952 106.19975
#
# Poissons Ratio (x) = -0.06463 0.16303
# Poissons Ratio (y) = -0.17586 -0.29684
# Poissons Ratio (z) = 0.15537 -0.10398
#
# Static dielectric constant tensor:
#      x y z
#    x 1.822140 0.000000 0.021280 
#    y 0.000000 1.882500 0.000000 
#    z 0.021280 0.000000 1.777790 
# 
# From -- ./inp_files/4957.got.cif
#   From: 2010.05.17/outbox.cif.g08.bks.cpg/sg4_3_cif.got.tgz:4957.got - 2010.06.03 18:43:04.
