data_PCOD9117159
_publ_section_title
;
Structure prediction by ZEFSAII (Michael W. Deem and Ramdas Pophale) SiO2 
 PCOD9117159
Probable space group: P 21
;
_chemical_formula_sum "Si O2"
_cell_formula_units_Z 14
_cell_length_a 5.522773
_cell_length_b 17.507922
_cell_length_c 5.977786
_cell_angle_alpha 90.000000
_cell_angle_beta 75.895534
_cell_angle_gamma 90.000000
_cell_volume 560.580625
_symmetry_space_group_name_H-M "P 21"
_symmetry_group_IT_number 4
_symmetry_cell_setting 'monoclinic'
loop_
_space_group_symop_operation_xyz
x,y,z
-x,1/2+y,-z
loop_
_atom_site_type_symbol
_atom_site_label
_atom_site_fract_x
_atom_site_fract_y
_atom_site_fract_z
Si Si1 0.597816 0.477010 0.859263
Si Si2 0.836420 0.218958 0.393999
Si Si3 0.317446 0.409212 0.554351
Si Si4 0.085452 0.493701 0.249829
Si Si5 0.911820 0.615648 0.979829
Si Si6 0.734846 0.363032 0.137823
Si Si7 0.266712 0.244968 0.679287
O O1 0.502956 0.467979 0.631112
O O2 0.352191 0.486997 0.068771
O O3 0.756301 0.550948 0.885816
O O4 0.697635 0.390974 0.893688
O O5 0.852437 0.286782 0.205867
O O6 0.553947 0.225410 0.548897
O O7 0.054827 0.228293 0.533368
O O8 0.876920 0.142642 0.240123
O O9 0.109239 0.463677 0.496249
O O10 0.466030 0.367929 0.320419
O O11 0.241860 0.336907 0.722134
O O12 0.995952 0.576420 0.193965
O O13 0.900114 0.433165 0.184475
O O14 0.774949 0.691938 0.094489
#
# Coordination Sequence:
#
# PCOD9117159 Si02
#       7
#     2   2   2   2   2   2   2
#     4  10  24  43  70 105 141 194 240 302 371 442
#     4  11  26  47  78 107 149 193 247 311 375 432
#     4  10  22  44  76  99 141 192 252 295 373 427
#     4  10  22  44  67 103 141 187 241 304 351 455
#     4  11  28  46  72 107 153 191 248 306 381 433
#     4   9  21  43  67 102 138 180 250 299 351 441
#     4  11  27  47  78 111 145 197 250 309 368 448
#
# _framework density 24.974108999999999
#
# number of rings (size 3 to 8) (size 9 to 14) (size 15 to 20)
#    0.000    1.714    1.429    0.000    6.000    9.143 
#    0.000    0.000    0.000    0.000    0.000    0.000 
#    0.000    0.000    0.000    0.000    0.000    0.000 
#
# Total GULP energy -78165.900720 kJ/mol
# GULP energy per Si atom -5583.278623 kJ/mol
# Density = 2.491727 g / cm^3
# Si number density = 24.974109 Si / 1000 Ang^3
#
#
#
# Elastic Constant Matrix: (Units=GPa)
#
#
# Indices 1 2 3 4 5 6 
#
# 1 101.0976 28.4493 20.0932 0.0000 1.6989 0.0000
# 2 28.4493 109.6949 26.3144 0.0000 -3.9873 0.0000
# 3 20.0932 26.3144 45.4714 0.0000 2.9449 0.0000
# 4 0.0000 0.0000 0.0000 33.6418 0.0000 -9.5811
# 5 1.6989 -3.9873 2.9449 0.0000 56.4941 0.0000
# 6 0.0000 0.0000 0.0000 -9.5811 0.0000 23.5034
#
#
#
# Elastic Compliance Matrix: (Units=1/GPa)
#
#
# Indices 1 2 3 4 5 6 
#
# 1 0.011212 -0.002014 -0.003771 0.000000 -0.000283 0.000000
# 2 -0.002014 0.011012 -0.005556 0.000000 0.001127 0.000000
# 3 -0.003771 -0.005556 0.026983 0.000000 -0.001685 0.000000
# 4 0.000000 0.000000 0.000000 0.033629 0.000000 0.013709
# 5 -0.000283 0.001127 -0.001685 0.000000 0.017877 0.000000
# 6 0.000000 0.000000 0.000000 0.013709 0.000000 0.048135
#
#
# Mechanical properties :
#
#
# Convention : Reuss Voigt Hill
#
# Bulk Modulus (GPa) = 37.69898 45.10866 41.40382
# Shear Modulus (GPa) = 27.72052 34.82167 31.27110
#
# Velocity S-wave (km/s) = 3.33524 3.73810 3.54240
# Velocity P-wave (km/s) = 5.47355 6.06074 5.77461
#
# Compressibility (1/GPa) = 0.02652592
#
# Stress axis : x y z
#
# Youngs Moduli (GPa) = 89.18779 90.80827 37.06088
#
# Poissons Ratio (x) = 0.18285 0.13976
# Poissons Ratio (y) = 0.17959 0.20591
# Poissons Ratio (z) = 0.33633 0.50454
#
# Static dielectric constant tensor:
#      x y z
#    x 2.022260 0.000000 -0.001100 
#    y 0.000000 1.955750 0.000000 
#    z -0.001100 0.000000 2.022750 
# 
# From -- ./inp_files/311.got.cif
#   From: 2010.05.17/outbox.cif.g08.bks.cpg/sg4_1_cif.got.tgz:311.got - 2010.06.03 18:43:04.
