data_PCOD9117349
_publ_section_title
;
Structure prediction by ZEFSAII (Michael W. Deem and Ramdas Pophale) SiO2 
 PCOD9117349
Probable space group: P 21
;
_chemical_formula_sum "Si O2"
_cell_formula_units_Z 14
_cell_length_a 11.847877
_cell_length_b 10.635815
_cell_length_c 8.549489
_cell_angle_alpha 90.000000
_cell_angle_beta 147.138405
_cell_angle_gamma 90.000000
_cell_volume 584.575342
_symmetry_space_group_name_H-M "P 21"
_symmetry_group_IT_number 4
_symmetry_cell_setting 'monoclinic'
loop_
_space_group_symop_operation_xyz
x,y,z
-x,1/2+y,-z
loop_
_atom_site_type_symbol
_atom_site_label
_atom_site_fract_x
_atom_site_fract_y
_atom_site_fract_z
Si Si1 0.416021 0.748010 0.195754
Si Si2 0.624192 0.531717 0.859291
Si Si3 0.890529 0.029395 0.211478
Si Si4 0.372908 0.229103 0.877827
Si Si5 0.010299 0.662088 0.382153
Si Si6 0.285989 0.887050 0.588224
Si Si7 0.566185 0.904575 0.629186
O O1 0.843659 0.596510 0.075307
O O2 0.330544 0.886071 0.048379
O O3 0.226324 0.652626 0.992324
O O4 0.548452 0.779132 0.504968
O O5 0.550196 0.616778 0.917175
O O6 0.458791 0.514340 0.528725
O O7 0.499918 0.354503 0.072614
O O8 0.876654 0.056284 0.381074
O O9 0.435856 0.204248 0.772953
O O10 0.763469 0.922240 0.969067
O O11 0.132322 0.234076 0.651168
O O12 0.868196 0.496962 0.536904
O O13 0.155399 0.760401 0.467048
O O14 0.363120 0.908304 0.502299
#
# Coordination Sequence:
#
# PCOD9117349 Si02
#       7
#     2   2   2   2   2   2   2
#     4  10  23  49  75 108 157 205 249 323 393 458
#     4   8  23  47  71 109 154 200 249 323 386 464
#     4  12  26  45  77 116 148 208 268 312 385 482
#     4  10  22  46  77 106 155 196 259 325 386 451
#     4  10  24  44  79 111 144 200 275 303 386 472
#     4  12  25  45  73 113 150 206 252 327 382 470
#     4  10  27  48  70 107 166 189 256 323 404 439
#
# _framework density 23.949010000000001
#
# number of rings (size 3 to 8) (size 9 to 14) (size 15 to 20)
#    1.714    0.000    1.429    1.714    4.000    2.286 
#    2.571    0.000    0.000    0.000    0.000    0.000 
#    0.000    0.000    0.000    0.000    0.000    0.000 
#
# Total GULP energy -78026.127065 kJ/mol
# GULP energy per Si atom -5573.294790 kJ/mol
# Density = 2.389450 g / cm^3
# Si number density = 23.949010 Si / 1000 Ang^3
#
#
#
# Elastic Constant Matrix: (Units=GPa)
#
#
# Indices 1 2 3 4 5 6 
#
# 1 89.5219 29.5526 10.5170 0.0000 2.2296 0.0000
# 2 29.5526 86.9558 30.9454 0.0000 3.0586 0.0000
# 3 10.5170 30.9454 106.2651 0.0000 -0.6764 0.0000
# 4 0.0000 0.0000 0.0000 56.4394 0.0000 0.7425
# 5 2.2296 3.0586 -0.6764 0.0000 36.4708 0.0000
# 6 0.0000 0.0000 0.0000 0.7425 0.0000 51.5240
#
#
#
# Elastic Compliance Matrix: (Units=1/GPa)
#
#
# Indices 1 2 3 4 5 6 
#
# 1 0.012588 -0.004261 -0.000008 0.000000 -0.000412 0.000000
# 2 -0.004261 0.014320 -0.003755 0.000000 -0.001010 0.000000
# 3 -0.000008 -0.003755 0.010508 0.000000 0.000510 0.000000
# 4 0.000000 0.000000 0.000000 0.017721 0.000000 -0.000255
# 5 -0.000412 -0.001010 0.000510 0.000000 0.027539 0.000000
# 6 0.000000 0.000000 0.000000 -0.000255 0.000000 0.019412
#
#
# Mechanical properties :
#
#
# Convention : Reuss Voigt Hill
#
# Bulk Modulus (GPa) = 46.79635 47.19698 46.99667
# Shear Modulus (GPa) = 39.91752 43.00203 41.45977
#
# Velocity S-wave (km/s) = 4.08704 4.24201 4.16525
# Velocity P-wave (km/s) = 6.46949 6.61384 6.54206
#
# Compressibility (1/GPa) = 0.02136919
#
# Stress axis : x y z
#
# Youngs Moduli (GPa) = 79.43922 69.83234 95.16678
#
# Poissons Ratio (x) = 0.29756 0.00073
# Poissons Ratio (y) = 0.33849 0.35734
# Poissons Ratio (z) = 0.00061 0.26221
#
# Static dielectric constant tensor:
#      x y z
#    x 1.900350 0.000000 -0.002810 
#    y 0.000000 2.012820 0.000000 
#    z -0.002810 0.000000 1.933390 
# 
# From -- ./inp_files/8382.got.cif
#   From: 2010.05.17/outbox.cif.g08.bks.cpg/sg4_5_cif.got.tgz:8382.got - 2010.06.03 18:43:04.
