data_PCOD9117759
_publ_section_title
;
Structure prediction by ZEFSAII (Michael W. Deem and Ramdas Pophale) SiO2 
 PCOD9117759
Probable space group: P 21
;
_chemical_formula_sum "Si O2"
_cell_formula_units_Z 14
_cell_length_a 9.229111
_cell_length_b 7.730494
_cell_length_c 16.878727
_cell_angle_alpha 90.000000
_cell_angle_beta 30.316702
_cell_angle_gamma 90.000000
_cell_volume 607.866670
_symmetry_space_group_name_H-M "P 21"
_symmetry_group_IT_number 4
_symmetry_cell_setting 'monoclinic'
loop_
_space_group_symop_operation_xyz
x,y,z
-x,1/2+y,-z
loop_
_atom_site_type_symbol
_atom_site_label
_atom_site_fract_x
_atom_site_fract_y
_atom_site_fract_z
Si Si1 0.869330 0.713350 0.979688
Si Si2 0.610208 0.437761 0.204141
Si Si3 0.605090 0.762927 0.851762
Si Si4 0.658680 0.358945 0.865322
Si Si5 0.683783 0.063844 0.333315
Si Si6 0.491713 0.954810 0.576157
Si Si7 0.923753 0.552486 0.348029
O O1 0.090844 0.853234 0.908177
O O2 0.069120 0.562720 0.847045
O O3 0.677351 0.622872 0.135930
O O4 0.652891 0.793531 0.018939
O O5 0.484082 0.312790 0.195910
O O6 0.429518 0.467284 0.369841
O O7 0.668869 0.560605 0.836409
O O8 0.365598 0.823666 0.028837
O O9 0.872469 0.888009 0.744172
O O10 0.888787 0.221357 0.721950
O O11 0.641378 0.266116 0.370927
O O12 0.266724 0.478509 0.604802
O O13 0.356856 0.014355 0.464727
O O14 0.232420 0.073313 0.664526
#
# Coordination Sequence:
#
# PCOD9117759 Si02
#       7
#     2   2   2   2   2   2   2
#     4  11  23  43  70 107 144 185 245 298 362 425
#     4  11  23  39  72 104 144 180 240 309 349 424
#     4  12  23  41  71 104 144 186 244 300 355 422
#     4  12  24  42  73 105 143 196 245 296 355 441
#     4   9  22  41  70  94 140 181 232 292 350 444
#     4   9  22  43  71 100 140 181 242 293 359 427
#     4  10  23  45  71 100 143 187 248 288 360 437
#
# _framework density 23.031365999999998
#
# number of rings (size 3 to 8) (size 9 to 14) (size 15 to 20)
#    0.857    0.571    2.857    2.571    2.000    4.571 
#    0.000    0.000   31.429    0.000    0.000    0.000 
#    0.000    0.000    0.000    0.000    0.000    0.000 
#
# Total GULP energy -78090.958872 kJ/mol
# GULP energy per Si atom -5577.925634 kJ/mol
# Density = 2.297895 g / cm^3
# Si number density = 23.031366 Si / 1000 Ang^3
#
#
#
# Elastic Constant Matrix: (Units=GPa)
#
#
# Indices 1 2 3 4 5 6 
#
# 1 88.9742 1.0532 6.6113 0.0000 8.4201 0.0000
# 2 1.0532 74.2930 12.4565 0.0000 6.0240 0.0000
# 3 6.6113 12.4565 37.9415 0.0000 -10.2955 0.0000
# 4 0.0000 0.0000 0.0000 40.0226 0.0000 -6.8290
# 5 8.4201 6.0240 -10.2955 0.0000 27.0748 0.0000
# 6 0.0000 0.0000 0.0000 -6.8290 0.0000 34.6268
#
#
#
# Elastic Compliance Matrix: (Units=1/GPa)
#
#
# Indices 1 2 3 4 5 6 
#
# 1 0.012028 0.000917 -0.003866 0.000000 -0.005415 0.000000
# 2 0.000917 0.015094 -0.006806 0.000000 -0.006231 0.000000
# 3 -0.003866 -0.006806 0.033454 0.000000 0.015438 0.000000
# 4 0.000000 0.000000 0.000000 0.025856 0.000000 0.005099
# 5 -0.005415 -0.006231 0.015438 0.000000 0.045875 0.000000
# 6 0.000000 0.000000 0.000000 0.005099 0.000000 0.029885
#
#
# Mechanical properties :
#
#
# Convention : Reuss Voigt Hill
#
# Bulk Modulus (GPa) = 24.35199 26.82786 25.58992
# Shear Modulus (GPa) = 25.58976 32.41737 29.00357
#
# Velocity S-wave (km/s) = 3.33691 3.75578 3.55252
# Velocity P-wave (km/s) = 5.04410 5.52101 5.28793
#
# Compressibility (1/GPa) = 0.04106441
#
# Stress axis : x y z
#
# Youngs Moduli (GPa) = 83.13885 66.25310 29.89220
#
# Poissons Ratio (x) = -0.06074 0.11557
# Poissons Ratio (y) = -0.07622 0.20345
# Poissons Ratio (z) = 0.32143 0.45092
#
# Static dielectric constant tensor:
#      x y z
#    x 1.900280 0.000000 0.000090 
#    y 0.000000 1.861470 0.000000 
#    z 0.000090 0.000000 1.948750 
# 
# From -- ./inp_files/14952.got.cif
#   From: 2010.05.17/outbox.cif.g08.bks.cpg/sg4_8_cif.got.tgz:14952.got - 2010.06.03 18:43:04.
