data_PCOD9117175
_publ_section_title
;
Structure prediction by ZEFSAII (Michael W. Deem and Ramdas Pophale) SiO2 
 PCOD9117175
Probable space group: P 21
;
_chemical_formula_sum "Si O2"
_cell_formula_units_Z 16
_cell_length_a 5.820799
_cell_length_b 11.695516
_cell_length_c 11.430828
_cell_angle_alpha 90.000000
_cell_angle_beta 122.554060
_cell_angle_gamma 90.000000
_cell_volume 655.914980
_symmetry_space_group_name_H-M "P 21"
_symmetry_group_IT_number 4
_symmetry_cell_setting 'monoclinic'
loop_
_space_group_symop_operation_xyz
x,y,z
-x,1/2+y,-z
loop_
_atom_site_type_symbol
_atom_site_label
_atom_site_fract_x
_atom_site_fract_y
_atom_site_fract_z
Si Si1 0.204379 0.735350 0.299524
Si Si2 0.441543 0.528820 0.723395
Si Si3 0.091197 0.922310 0.447047
Si Si4 0.296605 0.166484 0.416272
Si Si5 0.444099 0.673362 0.935876
Si Si6 0.752381 0.323931 0.281945
Si Si7 0.924402 0.519974 0.166562
Si Si8 0.836723 0.344601 0.954572
O O1 0.046844 0.830456 0.332070
O O2 0.506314 0.733821 0.438813
O O3 0.109390 0.765372 0.142060
O O4 0.139907 0.601190 0.286448
O O5 0.571324 0.624347 0.672463
O O6 0.315476 0.579057 0.811167
O O7 0.648531 0.436390 0.831871
O O8 0.204374 0.463240 0.590002
O O9 0.264547 0.852261 0.588094
O O10 0.229444 0.041406 0.451160
O O11 0.025370 0.246261 0.334066
O O12 0.505954 0.767738 0.853404
O O13 0.685026 0.603912 0.058621
O O14 0.288568 0.751005 0.988358
O O15 0.799855 0.441706 0.231331
O O16 0.005100 0.433580 0.082952
#
# Coordination Sequence:
#
# PCOD9117175 Si02
#       8
#     2   2   2   2   2   2   2   2
#     4  12  26  44  70 110 144 192 244 306 370 440
#     4  11  22  47  72 102 149 184 248 297 368 440
#     4  12  26  45  76 108 146 198 233 319 369 438
#     4  12  27  46  75 111 147 193 246 317 369 442
#     4  10  22  44  68  99 142 197 235 300 355 434
#     4  11  25  46  71 108 145 193 245 303 379 431
#     4  10  25  43  70 100 143 193 243 294 363 441
#     4  10  23  43  66 104 140 190 242 296 355 436
#
# _framework density 24.393405999999999
#
# number of rings (size 3 to 8) (size 9 to 14) (size 15 to 20)
#    0.000    1.000    2.500    3.000    5.250    5.000 
#    2.250    0.000    0.000    0.000    0.000    0.000 
#    0.000    0.000    0.000    0.000    0.000    0.000 
#
# Total GULP energy -89077.545442 kJ/mol
# GULP energy per Si atom -5567.346590 kJ/mol
# Density = 2.433789 g / cm^3
# Si number density = 24.393406 Si / 1000 Ang^3
#
#
#
# Elastic Constant Matrix: (Units=GPa)
#
#
# Indices 1 2 3 4 5 6 
#
# 1 28.0389 42.3324 23.0653 0.0000 -17.4292 0.0000
# 2 42.3324 147.0774 32.6530 0.0000 -11.6643 0.0000
# 3 23.0653 32.6530 67.0920 0.0000 -21.4992 0.0000
# 4 0.0000 0.0000 0.0000 49.6870 0.0000 0.6173
# 5 -17.4292 -11.6643 -21.4992 0.0000 40.8082 0.0000
# 6 0.0000 0.0000 0.0000 0.6173 0.0000 50.1648
#
#
#
# Elastic Compliance Matrix: (Units=1/GPa)
#
#
# Indices 1 2 3 4 5 6 
#
# 1 0.100727 -0.023619 -0.013849 0.000000 0.028973 0.000000
# 2 -0.023619 0.013164 -0.000377 0.000000 -0.006524 0.000000
# 3 -0.013849 -0.000377 0.021559 0.000000 0.005335 0.000000
# 4 0.000000 0.000000 0.000000 0.020129 0.000000 -0.000248
# 5 0.028973 -0.006524 0.005335 0.000000 0.037826 0.000000
# 6 0.000000 0.000000 0.000000 -0.000248 0.000000 0.019937
#
#
# Mechanical properties :
#
#
# Convention : Reuss Voigt Hill
#
# Bulk Modulus (GPa) = 16.73387 48.70106 32.71746
# Shear Modulus (GPa) = 16.18375 37.74251 26.96313
#
# Velocity S-wave (km/s) = 2.57854 3.93777 3.32828
# Velocity P-wave (km/s) = 3.96737 6.37831 5.31145
#
# Compressibility (1/GPa) = 0.05975905
#
# Stress axis : x y z
#
# Youngs Moduli (GPa) = 9.92786 75.96670 46.38378
#
# Poissons Ratio (x) = 1.79427 0.64236
# Poissons Ratio (y) = 0.23449 0.01750
# Poissons Ratio (z) = 0.13749 0.02866
#
# Static dielectric constant tensor:
#      x y z
#    x 2.050610 0.000000 -0.028430 
#    y 0.000000 1.989860 0.000000 
#    z -0.028430 0.000000 1.941110 
# 
# From -- ./inp_files/10556.got.cif
#   From: 2010.05.17/outbox.cif.g08.bks.cpg/sg4_6_cif.got.tgz:10556.got - 2010.06.03 18:43:04.
