data_PCOD9117437
_publ_section_title
;
Structure prediction by ZEFSAII (Michael W. Deem and Ramdas Pophale) SiO2 
 PCOD9117437
Probable space group: P 21
;
_chemical_formula_sum "Si O2"
_cell_formula_units_Z 16
_cell_length_a 10.536807
_cell_length_b 11.695515
_cell_length_c 6.742357
_cell_angle_alpha 90.000000
_cell_angle_beta 123.380617
_cell_angle_gamma 90.000000
_cell_volume 693.815983
_symmetry_space_group_name_H-M "P 21"
_symmetry_group_IT_number 4
_symmetry_cell_setting 'monoclinic'
loop_
_space_group_symop_operation_xyz
x,y,z
-x,1/2+y,-z
loop_
_atom_site_type_symbol
_atom_site_label
_atom_site_fract_x
_atom_site_fract_y
_atom_site_fract_z
Si Si1 0.981630 0.747830 0.206425
Si Si2 0.919306 0.046345 0.492045
Si Si3 0.616435 0.046502 0.037809
Si Si4 0.493403 0.436883 0.399681
Si Si5 0.734185 0.735516 0.724165
Si Si6 0.745249 0.823633 0.318495
Si Si7 0.802594 0.435725 0.414062
Si Si8 0.637468 0.526266 0.902941
O O1 0.836462 0.758612 0.227863
O O2 0.045905 0.621667 0.288473
O O3 0.105685 0.830888 0.409367
O O4 0.905275 0.774515 0.930994
O O5 0.775618 0.096442 0.247634
O O6 0.863609 0.920002 0.502281
O O7 0.065698 0.033015 0.476484
O O8 0.625816 0.910895 0.113498
O O9 0.473630 0.092608 0.037839
O O10 0.598190 0.039807 0.786909
O O11 0.391725 0.323740 0.302947
O O12 0.650388 0.439169 0.412863
O O13 0.531073 0.456780 0.660614
O O14 0.706389 0.741110 0.465174
O O15 0.715705 0.614596 0.818524
O O16 0.744274 0.447860 0.134482
#
# Coordination Sequence:
#
# PCOD9117437 Si02
#       8
#     2   2   2   2   2   2   2   2
#     4  11  22  42  66  92 125 179 210 265 330 390
#     4   9  19  42  64  89 128 163 215 263 319 383
#     4   9  20  43  63  83 130 169 204 270 316 380
#     4  11  22  41  63  92 127 171 208 268 323 378
#     4  12  23  41  69  92 127 177 220 259 343 384
#     4   9  21  39  64  89 126 170 214 270 312 394
#     4  10  23  40  63  94 129 162 215 271 313 387
#     4  11  24  40  62  99 130 163 218 278 312 392
#
# _framework density 23.060870999999999
#
# number of rings (size 3 to 8) (size 9 to 14) (size 15 to 20)
#    0.750    1.000    3.750    0.000    3.500    2.000 
#    2.250    2.500    0.000    0.000    0.000    0.000 
#    0.000    0.000    0.000    0.000    0.000    0.000 
#
# Total GULP energy -89104.255875 kJ/mol
# GULP energy per Si atom -5569.015992 kJ/mol
# Density = 2.300838 g / cm^3
# Si number density = 23.060871 Si / 1000 Ang^3
#
#
#
# Elastic Constant Matrix: (Units=GPa)
#
#
# Indices 1 2 3 4 5 6 
#
# 1 39.8869 -18.1497 12.9972 0.0000 14.5440 0.0000
# 2 -18.1497 39.7434 15.4537 0.0000 7.5783 0.0000
# 3 12.9972 15.4537 125.7677 0.0000 10.2046 0.0000
# 4 0.0000 0.0000 0.0000 34.1052 0.0000 5.0510
# 5 14.5440 7.5783 10.2046 0.0000 38.1303 0.0000
# 6 0.0000 0.0000 0.0000 5.0510 0.0000 20.5656
#
#
#
# Elastic Compliance Matrix: (Units=1/GPa)
#
#
# Indices 1 2 3 4 5 6 
#
# 1 0.048868 0.029282 -0.006811 0.000000 -0.022637 0.000000
# 2 0.029282 0.044740 -0.007049 0.000000 -0.018174 0.000000
# 3 -0.006811 -0.007049 0.009401 0.000000 0.001483 0.000000
# 4 0.000000 0.000000 0.000000 0.030428 0.000000 -0.007473
# 5 -0.022637 -0.018174 0.001483 0.000000 0.038075 0.000000
# 6 0.000000 0.000000 0.000000 -0.007473 0.000000 0.050460
#
#
# Mechanical properties :
#
#
# Convention : Reuss Voigt Hill
#
# Bulk Modulus (GPa) = 7.47093 25.11115 16.29104
# Shear Modulus (GPa) = 21.20915 31.56666 26.38790
#
# Velocity S-wave (km/s) = 3.03595 3.70380 3.38638
# Velocity P-wave (km/s) = 3.94158 5.40403 4.72967
#
# Compressibility (1/GPa) = 0.13385206
#
# Stress axis : x y z
#
# Youngs Moduli (GPa) = 20.46308 22.35144 106.37316
#
# Poissons Ratio (x) = -0.65449 0.72456
# Poissons Ratio (y) = -0.59919 0.74980
# Poissons Ratio (z) = 0.13938 0.15755
#
# Static dielectric constant tensor:
#      x y z
#    x 1.891650 0.000000 0.032290 
#    y 0.000000 1.894480 0.000000 
#    z 0.032290 0.000000 1.920580 
# 
# From -- ./inp_files/3183.got.cif
#   From: 2010.05.17/outbox.cif.g08.bks.cpg/sg4_2_cif.got.tgz:3183.got - 2010.06.03 18:43:04.
