data_PCOD9117692
_publ_section_title
;
Structure prediction by ZEFSAII (Michael W. Deem and Ramdas Pophale) SiO2 
 PCOD9117692
Probable space group: P 21
;
_chemical_formula_sum "Si O2"
_cell_formula_units_Z 16
_cell_length_a 5.509642
_cell_length_b 9.479780
_cell_length_c 11.592447
_cell_angle_alpha 90.000000
_cell_angle_beta 88.813600
_cell_angle_gamma 90.000000
_cell_volume 605.345958
_symmetry_space_group_name_H-M "P 21"
_symmetry_group_IT_number 4
_symmetry_cell_setting 'monoclinic'
loop_
_space_group_symop_operation_xyz
x,y,z
-x,1/2+y,-z
loop_
_atom_site_type_symbol
_atom_site_label
_atom_site_fract_x
_atom_site_fract_y
_atom_site_fract_z
Si Si1 0.445937 0.159620 0.937890
Si Si2 0.780471 0.392818 0.192231
Si Si3 0.158860 0.610862 0.222508
Si Si4 0.372058 0.265083 0.365117
Si Si5 0.925972 0.953543 0.454531
Si Si6 0.109020 0.142894 0.152062
Si Si7 0.724936 0.207565 0.552630
Si Si8 0.819729 0.875366 0.206761
O O1 0.721213 0.123378 0.903425
O O2 0.386420 0.309016 0.873467
O O3 0.317782 0.018889 0.886274
O O4 0.334109 0.169827 0.065088
O O5 0.574758 0.343696 0.283144
O O6 0.020777 0.465956 0.243098
O O7 0.894857 0.255565 0.131751
O O8 0.348667 0.650403 0.321040
O O9 0.967275 0.734929 0.234755
O O10 0.229490 0.372891 0.447769
O O11 0.210306 0.171422 0.280091
O O12 0.524814 0.181784 0.459292
O O13 0.782969 0.943888 0.333337
O O14 0.176927 0.866709 0.441813
O O15 0.946555 0.110117 0.505001
O O16 0.991474 0.988918 0.142721
#
# Coordination Sequence:
#
# PCOD9117692 Si02
#       8
#     2   2   2   2   2   2   2   2
#     4  11  24  45  72  94 128 179 224 275 335 391
#     4  11  24  45  67  96 133 172 224 275 326 394
#     4  10  23  44  68  97 130 173 225 271 330 398
#     4  12  25  40  67 100 135 177 216 267 338 400
#     4  11  23  42  67  97 133 172 217 270 330 397
#     4  12  26  44  67 100 136 173 223 274 329 398
#     4  11  23  41  66  95 133 171 216 274 328 394
#     4  10  24  43  66 101 136 169 221 282 330 388
#
# _framework density 26.431168
#
# number of rings (size 3 to 8) (size 9 to 14) (size 15 to 20)
#    0.000    1.000    0.000    6.750    0.000   11.000 
#    0.000    1.250    0.000    0.000    0.000    0.000 
#    0.000    0.000    0.000    0.000    0.000    0.000 
#
# Total GULP energy -89582.815441 kJ/mol
# GULP energy per Si atom -5598.925965 kJ/mol
# Density = 2.637101 g / cm^3
# Si number density = 26.431168 Si / 1000 Ang^3
#
#
#
# Elastic Constant Matrix: (Units=GPa)
#
#
# Indices 1 2 3 4 5 6 
#
# 1 55.6545 5.4420 16.8242 0.0000 -11.4412 0.0000
# 2 5.4420 99.4287 1.4732 0.0000 8.5275 0.0000
# 3 16.8242 1.4732 128.7797 0.0000 -12.2469 0.0000
# 4 0.0000 0.0000 0.0000 32.9912 0.0000 -5.3605
# 5 -11.4412 8.5275 -12.2469 0.0000 38.9762 0.0000
# 6 0.0000 0.0000 0.0000 -5.3605 0.0000 30.9225
#
#
#
# Elastic Compliance Matrix: (Units=1/GPa)
#
#
# Indices 1 2 3 4 5 6 
#
# 1 0.019874 -0.001531 -0.002054 0.000000 0.005524 0.000000
# 2 -0.001531 0.010382 -0.000183 0.000000 -0.002778 0.000000
# 3 -0.002054 -0.000183 0.008228 0.000000 0.002023 0.000000
# 4 0.000000 0.000000 0.000000 0.031190 0.000000 0.005407
# 5 0.005524 -0.002778 0.002023 0.000000 0.028522 0.000000
# 6 0.000000 0.000000 0.000000 0.005407 0.000000 0.033276
#
#
# Mechanical properties :
#
#
# Convention : Reuss Voigt Hill
#
# Bulk Modulus (GPa) = 32.31129 36.81575 34.56352
# Shear Modulus (GPa) = 33.48443 37.91955 35.70199
#
# Velocity S-wave (km/s) = 3.56315 3.79179 3.67925
# Velocity P-wave (km/s) = 5.40179 5.75581 5.58161
#
# Compressibility (1/GPa) = 0.03094894
#
# Stress axis : x y z
#
# Youngs Moduli (GPa) = 50.31690 96.31818 121.53729
#
# Poissons Ratio (x) = 0.14747 0.24959
# Poissons Ratio (y) = 0.07704 0.02224
# Poissons Ratio (z) = 0.10333 0.01762
#
# Static dielectric constant tensor:
#      x y z
#    x 2.142090 0.000000 0.063150 
#    y 0.000000 2.018110 0.000000 
#    z 0.063150 0.000000 2.088470 
# 
# From -- ./inp_files/2589.got.cif
#   From: 2010.05.17/outbox.cif.g08.bks.cpg/sg4_2_cif.got.tgz:2589.got - 2010.06.03 18:43:04.
