data_PCOD9117275
_publ_section_title
;
Structure prediction by ZEFSAII (Michael W. Deem and Ramdas Pophale) SiO2 
 PCOD9117275
Probable space group: P 21
;
_chemical_formula_sum "Si O2"
_cell_formula_units_Z 16
_cell_length_a 7.488109
_cell_length_b 8.771425
_cell_length_c 9.601081
_cell_angle_alpha 90.000000
_cell_angle_beta 85.706395
_cell_angle_gamma 90.000000
_cell_volume 628.842496
_symmetry_space_group_name_H-M "P 21"
_symmetry_group_IT_number 4
_symmetry_cell_setting 'monoclinic'
loop_
_space_group_symop_operation_xyz
x,y,z
-x,1/2+y,-z
loop_
_atom_site_type_symbol
_atom_site_label
_atom_site_fract_x
_atom_site_fract_y
_atom_site_fract_z
Si Si1 0.556445 0.016440 0.652395
Si Si2 0.113411 0.722890 0.405321
Si Si3 0.542430 0.740104 0.808775
Si Si4 0.866779 0.252568 0.102777
Si Si5 0.029439 0.546923 0.669179
Si Si6 0.365299 0.218087 0.876557
Si Si7 0.452432 0.464247 0.653410
Si Si8 0.000228 0.591183 0.135641
O O1 0.684236 0.158093 0.605262
O O2 0.410113 0.083216 0.765811
O O3 0.494010 0.939531 0.511517
O O4 0.645046 0.886810 0.743733
O O5 0.020278 0.680500 0.555123
O O6 0.025063 0.611958 0.296708
O O7 0.086854 0.897207 0.359397
O O8 0.327079 0.764962 0.813751
O O9 0.569998 0.605477 0.698581
O O10 0.578920 0.704915 0.967040
O O11 0.988717 0.133065 0.183018
O O12 0.947186 0.421720 0.095088
O O13 0.835002 0.164821 0.958325
O O14 0.236541 0.488529 0.652060
O O15 0.454373 0.357674 0.790196
O O16 0.152202 0.214835 0.893791
#
# Coordination Sequence:
#
# PCOD9117275 Si02
#       8
#     2   2   2   2   2   2   2   2
#     4  11  24  45  70 101 143 185 242 300 369 431
#     4  11  23  44  70 101 142 187 240 297 368 436
#     4  11  24  45  70 103 142 189 240 302 359 435
#     4  11  25  44  70 101 142 187 244 295 370 432
#     4  10  22  45  69 104 139 187 239 299 361 440
#     4  12  24  44  67 104 141 185 245 298 361 432
#     4  10  23  43  71  99 141 191 236 297 359 433
#     4  12  25  42  69  99 142 189 238 302 361 437
#
# _framework density 25.443573000000001
#
# number of rings (size 3 to 8) (size 9 to 14) (size 15 to 20)
#    0.000    1.000    2.500    3.750    3.500    0.000 
#    2.250    0.000    0.000    0.000    0.000    0.000 
#    0.000    0.000    0.000    0.000    0.000    0.000 
#
# Total GULP energy -89399.892212 kJ/mol
# GULP energy per Si atom -5587.493263 kJ/mol
# Density = 2.538566 g / cm^3
# Si number density = 25.443573 Si / 1000 Ang^3
#
#
#
# Elastic Constant Matrix: (Units=GPa)
#
#
# Indices 1 2 3 4 5 6 
#
# 1 38.8343 22.1477 13.8049 0.0000 0.8163 0.0000
# 2 22.1477 69.9725 8.9848 0.0000 -8.1796 0.0000
# 3 13.8049 8.9848 151.1103 0.0000 -0.3657 0.0000
# 4 0.0000 0.0000 0.0000 51.5426 0.0000 -0.7419
# 5 0.8163 -8.1796 -0.3657 0.0000 28.3698 0.0000
# 6 0.0000 0.0000 0.0000 -0.7419 0.0000 28.2893
#
#
#
# Elastic Compliance Matrix: (Units=1/GPa)
#
#
# Indices 1 2 3 4 5 6 
#
# 1 0.032667 -0.010503 -0.002370 0.000000 -0.003999 0.000000
# 2 -0.010503 0.018282 -0.000114 0.000000 0.005572 0.000000
# 3 -0.002370 -0.000114 0.006841 0.000000 0.000124 0.000000
# 4 0.000000 0.000000 0.000000 0.019409 0.000000 0.000509
# 5 -0.003999 0.005572 0.000124 0.000000 0.036972 0.000000
# 6 0.000000 0.000000 0.000000 0.000509 0.000000 0.035362
#
#
# Mechanical properties :
#
#
# Convention : Reuss Voigt Hill
#
# Bulk Modulus (GPa) = 31.42990 38.86576 35.14783
# Shear Modulus (GPa) = 26.86572 35.97234 31.41903
#
# Velocity S-wave (km/s) = 3.25298 3.76414 3.51786
# Velocity P-wave (km/s) = 5.14672 5.84809 5.50858
#
# Compressibility (1/GPa) = 0.03181683
#
# Stress axis : x y z
#
# Youngs Moduli (GPa) = 30.61224 54.69969 146.17250
#
# Poissons Ratio (x) = 0.57450 0.34636
# Poissons Ratio (y) = 0.32152 0.01666
# Poissons Ratio (z) = 0.07254 0.00624
#
# Static dielectric constant tensor:
#      x y z
#    x 2.049030 0.000000 -0.014340 
#    y 0.000000 2.042020 0.000000 
#    z -0.014340 0.000000 1.938710 
# 
# From -- ./inp_files/5819.got.cif
#   From: 2010.05.17/outbox.cif.g08.bks.cpg/sg4_3_cif.got.tgz:5819.got - 2010.06.03 18:43:04.
