data_PCOD9117789
_publ_section_title
;
Structure prediction by ZEFSAII (Michael W. Deem and Ramdas Pophale) SiO2 
 PCOD9117789
Probable space group: P 21
;
_chemical_formula_sum "Si O2"
_cell_formula_units_Z 14
_cell_length_a 12.220069
_cell_length_b 7.854280
_cell_length_c 9.926626
_cell_angle_alpha 90.000000
_cell_angle_beta 141.928314
_cell_angle_gamma 90.000000
_cell_volume 587.514058
_symmetry_space_group_name_H-M "P 21"
_symmetry_group_IT_number 4
_symmetry_cell_setting 'monoclinic'
loop_
_space_group_symop_operation_xyz
x,y,z
-x,1/2+y,-z
loop_
_atom_site_type_symbol
_atom_site_label
_atom_site_fract_x
_atom_site_fract_y
_atom_site_fract_z
Si Si1 0.783001 0.654980 0.021102
Si Si2 0.343306 0.779637 0.185242
Si Si3 0.851827 0.292102 0.730202
Si Si4 0.710389 0.631752 0.481371
Si Si5 0.742579 0.155970 0.184723
Si Si6 0.891168 0.788901 0.405915
Si Si7 0.431108 0.798344 0.751458
O O1 0.838692 0.662856 0.232711
O O2 0.949974 0.727675 0.100760
O O3 0.709746 0.473038 0.903510
O O4 0.612099 0.774999 0.847801
O O5 0.235979 0.737931 0.215511
O O6 0.554598 0.739482 0.402091
O O7 0.278140 0.675361 0.993234
O O8 0.822026 0.498071 0.681881
O O9 0.727430 0.217402 0.490620
O O10 0.828582 0.740651 0.495072
O O11 0.612490 0.496224 0.288581
O O12 0.572758 0.213181 0.106790
O O13 0.896820 0.284166 0.383531
O O14 0.808265 0.968743 0.285212
#
# Coordination Sequence:
#
# PCOD9117789 Si02
#       7
#     2   2   2   2   2   2   2
#     4  12  24  45  76 109 149 196 246 316 374 450
#     4  12  27  46  74 113 150 199 255 308 385 456
#     4  10  27  49  72 107 156 196 251 304 379 461
#     4  10  24  46  71 103 148 194 248 305 372 443
#     4  12  24  43  74 114 145 196 251 321 376 451
#     4  12  23  44  74 109 152 191 255 319 380 445
#     4  10  23  45  77 103 148 192 254 307 378 438
#
# _framework density 23.829215000000001
#
# number of rings (size 3 to 8) (size 9 to 14) (size 15 to 20)
#    0.857    0.000    1.429    6.000    2.000    3.429 
#    0.000    0.000    0.000    0.000    0.000    0.000 
#    0.000    0.000    0.000    0.000    0.000    0.000 
#
# Total GULP energy -78288.321341 kJ/mol
# GULP energy per Si atom -5592.022953 kJ/mol
# Density = 2.377498 g / cm^3
# Si number density = 23.829215 Si / 1000 Ang^3
#
#
#
# Elastic Constant Matrix: (Units=GPa)
#
#
# Indices 1 2 3 4 5 6 
#
# 1 198.4112 37.5320 39.2294 0.0000 -4.6613 0.0000
# 2 37.5320 98.0782 20.1295 0.0000 -0.0821 0.0000
# 3 39.2294 20.1295 39.1189 0.0000 -0.9729 0.0000
# 4 0.0000 0.0000 0.0000 33.8692 0.0000 8.7219
# 5 -4.6613 -0.0821 -0.9729 0.0000 45.2749 0.0000
# 6 0.0000 0.0000 0.0000 8.7219 0.0000 30.2898
#
#
#
# Elastic Compliance Matrix: (Units=1/GPa)
#
#
# Indices 1 2 3 4 5 6 
#
# 1 0.006438 -0.001276 -0.005786 0.000000 0.000536 0.000000
# 2 -0.001276 0.011653 -0.004722 0.000000 -0.000212 0.000000
# 3 -0.005786 -0.004722 0.033799 0.000000 0.000122 0.000000
# 4 0.000000 0.000000 0.000000 0.031890 0.000000 -0.009183
# 5 0.000536 -0.000212 0.000122 0.000000 0.022145 0.000000
# 6 0.000000 0.000000 0.000000 -0.009183 0.000000 0.035658
#
#
# Mechanical properties :
#
#
# Convention : Reuss Voigt Hill
#
# Bulk Modulus (GPa) = 35.30935 58.82112 47.06523
# Shear Modulus (GPa) = 28.63805 37.80127 33.21966
#
# Velocity S-wave (km/s) = 3.47047 3.98721 3.73778
# Velocity P-wave (km/s) = 5.55956 6.77755 6.19854
#
# Compressibility (1/GPa) = 0.02832111
#
# Stress axis : x y z
#
# Youngs Moduli (GPa) = 155.32724 85.81377 29.58666
#
# Poissons Ratio (x) = 0.10946 0.17120
# Poissons Ratio (y) = 0.19814 0.13972
# Poissons Ratio (z) = 0.89880 0.40525
#
# Static dielectric constant tensor:
#      x y z
#    x 1.874990 0.000000 0.026430 
#    y 0.000000 1.927310 0.000000 
#    z 0.026430 0.000000 1.954510 
# 
# From -- ./inp_files/8053.got.cif
#   From: 2010.05.17/outbox.cif.g08.bks.cpg/sg4_5_cif.got.tgz:8053.got - 2010.06.03 18:43:04.
