data_PCOD9117462
_publ_section_title
;
Structure prediction by ZEFSAII (Michael W. Deem and Ramdas Pophale) SiO2 
 PCOD9117462
Probable space group: P 21
;
_chemical_formula_sum "Si O2"
_cell_formula_units_Z 16
_cell_length_a 11.393472
_cell_length_b 11.561128
_cell_length_c 5.380084
_cell_angle_alpha 90.000000
_cell_angle_beta 80.717398
_cell_angle_gamma 90.000000
_cell_volume 699.391889
_symmetry_space_group_name_H-M "P 21"
_symmetry_group_IT_number 4
_symmetry_cell_setting 'monoclinic'
loop_
_space_group_symop_operation_xyz
x,y,z
-x,1/2+y,-z
loop_
_atom_site_type_symbol
_atom_site_label
_atom_site_fract_x
_atom_site_fract_y
_atom_site_fract_z
Si Si1 0.749889 0.811660 0.749683
Si Si2 0.028763 0.208300 0.163204
Si Si3 0.716328 0.430243 0.642849
Si Si4 0.598811 0.242829 0.378105
Si Si5 0.668526 0.067537 0.722013
Si Si6 0.424472 0.136240 0.079504
Si Si7 0.798838 0.254834 0.960576
Si Si8 0.862856 0.625431 0.384090
O O1 0.666730 0.736869 0.964800
O O2 0.777639 0.732176 0.498191
O O3 0.691033 0.932676 0.711329
O O4 0.881131 0.815855 0.825540
O O5 0.076418 0.143312 0.900548
O O6 0.045567 0.132925 0.409619
O O7 0.898446 0.248340 0.133769
O O8 0.614758 0.343829 0.572873
O O9 0.652988 0.523850 0.838844
O O10 0.785127 0.509381 0.420573
O O11 0.814663 0.350260 0.743049
O O12 0.667911 0.130529 0.457628
O O13 0.477575 0.193197 0.314635
O O14 0.673348 0.290588 0.122792
O O15 0.538314 0.101931 0.876890
O O16 0.769802 0.131585 0.847359
#
# Coordination Sequence:
#
# PCOD9117462 Si02
#       8
#     2   2   2   2   2   2   2   2
#     4   9  23  41  63  98 134 176 221 276 337 402
#     4  10  23  46  68 100 138 174 227 277 339 405
#     4  10  23  42  67  98 134 178 228 278 342 418
#     4  10  24  39  65  98 129 178 223 283 339 406
#     4  10  23  41  64  97 133 170 222 279 338 399
#     4  10  23  41  63 100 126 178 221 280 334 411
#     4  10  24  43  64  99 134 173 226 278 342 403
#     4   9  23  43  68 102 130 179 222 279 335 408
#
# _framework density 22.877016000000001
#
# number of rings (size 3 to 8) (size 9 to 14) (size 15 to 20)
#    0.750    1.500    0.000    0.000   12.250    5.000 
#    2.250    0.000    0.000    0.000    0.000    0.000 
#    0.000    0.000    0.000    0.000    0.000    0.000 
#
# Total GULP energy -89221.309981 kJ/mol
# GULP energy per Si atom -5576.331874 kJ/mol
# Density = 2.282495 g / cm^3
# Si number density = 22.877016 Si / 1000 Ang^3
#
#
#
# Elastic Constant Matrix: (Units=GPa)
#
#
# Indices 1 2 3 4 5 6 
#
# 1 67.0852 6.0751 -1.9704 0.0000 18.3101 0.0000
# 2 6.0751 123.3347 6.8438 0.0000 -1.1921 0.0000
# 3 -1.9704 6.8438 68.9692 0.0000 8.2039 0.0000
# 4 0.0000 0.0000 0.0000 9.3115 0.0000 3.9955
# 5 18.3101 -1.1921 8.2039 0.0000 26.5618 0.0000
# 6 0.0000 0.0000 0.0000 3.9955 0.0000 4.7095
#
#
#
# Elastic Compliance Matrix: (Units=1/GPa)
#
#
# Indices 1 2 3 4 5 6 
#
# 1 0.018832 -0.001188 0.002291 0.000000 -0.013742 0.000000
# 2 -0.001188 0.008238 -0.001031 0.000000 0.001507 0.000000
# 3 0.002291 -0.001031 0.015427 0.000000 -0.006390 0.000000
# 4 0.000000 0.000000 0.000000 0.168868 0.000000 -0.143267
# 5 -0.013742 0.001507 -0.006390 0.000000 0.049163 0.000000
# 6 0.000000 0.000000 0.000000 -0.143267 0.000000 0.333884
#
#
# Mechanical properties :
#
#
# Convention : Reuss Voigt Hill
#
# Bulk Modulus (GPa) = 23.45099 31.25400 27.35249
# Shear Modulus (GPa) = 8.21717 24.67926 16.44822
#
# Velocity S-wave (km/s) = 1.89728 3.28804 2.68430
# Velocity P-wave (km/s) = 3.88236 5.30154 4.64646
#
# Compressibility (1/GPa) = 0.04264212
#
# Stress axis : x y z
#
# Youngs Moduli (GPa) = 53.10088 121.38474 64.82130
#
# Poissons Ratio (x) = 0.14415 -0.14848
# Poissons Ratio (y) = 0.06306 0.06681
# Poissons Ratio (z) = -0.12163 0.12510
#
# Static dielectric constant tensor:
#      x y z
#    x 1.952420 0.000000 0.039960 
#    y 0.000000 1.801430 0.000000 
#    z 0.039960 0.000000 1.945390 
# 
# From -- ./inp_files/2991.got.cif
#   From: 2010.05.17/outbox.cif.g08.bks.cpg/sg4_2_cif.got.tgz:2991.got - 2010.06.03 18:43:04.
