data_PCOD9117840
_publ_section_title
;
Structure prediction by ZEFSAII (Michael W. Deem and Ramdas Pophale) SiO2 
 PCOD9117840
Probable space group: P 21
;
_chemical_formula_sum "Si O2"
_cell_formula_units_Z 16
_cell_length_a 13.742967
_cell_length_b 5.544812
_cell_length_c 8.253260
_cell_angle_alpha 90.000000
_cell_angle_beta 78.423165
_cell_angle_gamma 90.000000
_cell_volume 616.121928
_symmetry_space_group_name_H-M "P 21"
_symmetry_group_IT_number 4
_symmetry_cell_setting 'monoclinic'
loop_
_space_group_symop_operation_xyz
x,y,z
-x,1/2+y,-z
loop_
_atom_site_type_symbol
_atom_site_label
_atom_site_fract_x
_atom_site_fract_y
_atom_site_fract_z
Si Si1 0.869676 0.344650 0.962305
Si Si2 0.440854 0.888467 0.011232
Si Si3 0.581940 0.213652 0.316465
Si Si4 0.907446 0.716286 0.184043
Si Si5 0.630799 0.483944 0.615973
Si Si6 0.210584 0.226317 0.252706
Si Si7 0.726156 0.952861 0.063385
Si Si8 0.943588 0.966752 0.504984
O O1 0.860266 0.541101 0.820427
O O2 0.976705 0.224207 0.903090
O O3 0.874715 0.448156 0.144903
O O4 0.765889 0.207946 0.986440
O O5 0.383913 0.867367 0.201808
O O6 0.507328 0.125460 0.014028
O O7 0.406719 0.906742 0.833717
O O8 0.466123 0.152312 0.381741
O O9 0.642427 0.984995 0.224433
O O10 0.630292 0.303156 0.466134
O O11 0.828955 0.857977 0.101390
O O12 0.902309 0.849224 0.355286
O O13 0.733324 0.624357 0.610037
O O14 0.141964 0.447669 0.330926
O O15 0.293013 0.298461 0.090773
O O16 0.020408 0.744051 0.524763
#
# Coordination Sequence:
#
# PCOD9117840 Si02
#       8
#     2   2   2   2   2   2   2   2
#     4  11  22  46  73 106 147 199 260 313 401 469
#     4  10  23  46  80 110 151 207 261 325 404 477
#     4  11  26  48  79 112 156 206 270 331 411 482
#     4  11  24  41  76 105 149 198 253 322 384 482
#     4  11  26  49  77 113 158 205 268 341 402 484
#     4  11  27  48  74 115 154 206 261 331 402 486
#     4  11  26  47  76 111 148 205 265 322 402 488
#     4  12  28  47  75 112 157 204 258 327 402 478
#
# _framework density 25.968886000000001
#
# number of rings (size 3 to 8) (size 9 to 14) (size 15 to 20)
#    0.000    1.000    2.500    2.250   12.250    1.000 
#    6.750    0.000    0.000    0.000    0.000    0.000 
#    0.000    0.000    0.000    0.000    0.000    0.000 
#
# Total GULP energy -89347.147860 kJ/mol
# GULP energy per Si atom -5584.196741 kJ/mol
# Density = 2.590978 g / cm^3
# Si number density = 25.968886 Si / 1000 Ang^3
#
#
#
# Elastic Constant Matrix: (Units=GPa)
#
#
# Indices 1 2 3 4 5 6 
#
# 1 92.1294 19.3484 26.2613 0.0000 18.5477 0.0000
# 2 19.3484 52.4604 25.7401 0.0000 8.7868 0.0000
# 3 26.2613 25.7401 117.6969 0.0000 17.2118 0.0000
# 4 0.0000 0.0000 0.0000 48.2378 0.0000 5.8909
# 5 18.5477 8.7868 17.2118 0.0000 47.2337 0.0000
# 6 0.0000 0.0000 0.0000 5.8909 0.0000 32.7640
#
#
#
# Elastic Compliance Matrix: (Units=1/GPa)
#
#
# Indices 1 2 3 4 5 6 
#
# 1 0.012764 -0.003298 -0.001567 0.000000 -0.003828 0.000000
# 2 -0.003298 0.022466 -0.003967 0.000000 -0.001439 0.000000
# 3 -0.001567 -0.003967 0.010051 0.000000 -0.002309 0.000000
# 4 0.000000 0.000000 0.000000 0.021196 0.000000 -0.003811
# 5 -0.003828 -0.001439 -0.002309 0.000000 0.023784 0.000000
# 6 0.000000 0.000000 0.000000 -0.003811 0.000000 0.031207
#
#
# Mechanical properties :
#
#
# Convention : Reuss Voigt Hill
#
# Bulk Modulus (GPa) = 36.20866 44.99847 40.60356
# Shear Modulus (GPa) = 33.70712 38.37623 36.04168
#
# Velocity S-wave (km/s) = 3.60666 3.84836 3.72947
# Velocity P-wave (km/s) = 5.59619 6.09196 5.84933
#
# Compressibility (1/GPa) = 0.02761770
#
# Stress axis : x y z
#
# Youngs Moduli (GPa) = 78.34444 44.51238 99.48918
#
# Poissons Ratio (x) = 0.14679 0.15591
# Poissons Ratio (y) = 0.25835 0.39467
# Poissons Ratio (z) = 0.12277 0.17658
#
# Static dielectric constant tensor:
#      x y z
#    x 2.086550 0.000000 -0.009440 
#    y 0.000000 2.249070 0.000000 
#    z -0.009440 0.000000 2.018100 
# 
# From -- ./inp_files/8807.got.cif
#   From: 2010.05.17/outbox.cif.g08.bks.cpg/sg4_5_cif.got.tgz:8807.got - 2010.06.03 18:43:04.
