data_PCOD9117762
_publ_section_title
;
Structure prediction by ZEFSAII (Michael W. Deem and Ramdas Pophale) SiO2 
 PCOD9117762
Probable space group: P 21
;
_chemical_formula_sum "Si O2"
_cell_formula_units_Z 16
_cell_length_a 9.484655
_cell_length_b 5.550530
_cell_length_c 19.588312
_cell_angle_alpha 90.000000
_cell_angle_beta 144.043156
_cell_angle_gamma 90.000000
_cell_volume 605.509688
_symmetry_space_group_name_H-M "P 21"
_symmetry_group_IT_number 4
_symmetry_cell_setting 'monoclinic'
loop_
_space_group_symop_operation_xyz
x,y,z
-x,1/2+y,-z
loop_
_atom_site_type_symbol
_atom_site_label
_atom_site_fract_x
_atom_site_fract_y
_atom_site_fract_z
Si Si1 0.602235 0.077740 0.841778
Si Si2 0.887207 0.729848 0.016061
Si Si3 0.647301 0.359874 0.559756
Si Si4 0.461053 0.870172 0.052080
Si Si5 0.177581 0.770851 0.812445
Si Si6 0.832421 0.528489 0.766482
Si Si7 0.652662 0.924651 0.357612
Si Si8 0.021927 0.180980 0.402947
O O1 0.520190 0.162273 0.884224
O O2 0.435583 0.187101 0.718627
O O3 0.869832 0.174569 0.928476
O O4 0.671903 0.802014 0.880655
O O5 0.768416 0.514762 0.009740
O O6 0.969564 0.927636 0.103851
O O7 0.476566 0.601186 0.501893
O O8 0.776468 0.339833 0.683945
O O9 0.828593 0.460192 0.572918
O O10 0.713714 0.003984 0.157226
O O11 0.392453 0.861505 0.945219
O O12 0.945659 0.751359 0.770247
O O13 0.088332 0.838954 0.702481
O O14 0.584194 0.561780 0.708640
O O15 0.803284 0.837176 0.481535
O O16 0.815832 0.078818 0.371010
#
# Coordination Sequence:
#
# PCOD9117762 Si02
#       8
#     2   2   2   2   2   2   2   2
#     4  11  23  45  72 109 149 194 243 319 374 465
#     4  11  23  44  71 113 146 192 251 300 397 452
#     4  11  25  49  76 108 151 204 260 320 391 466
#     4  12  24  46  74 108 152 194 245 315 377 469
#     4  11  25  46  72 110 152 196 251 311 387 462
#     4  10  23  45  71 108 147 194 254 314 376 467
#     4  11  25  49  71 112 155 196 265 314 388 461
#     4  11  26  48  75 112 152 206 257 321 386 468
#
# _framework density 26.424018
#
# number of rings (size 3 to 8) (size 9 to 14) (size 15 to 20)
#    0.000    1.000    5.000    0.750    1.750    3.000 
#    2.250    1.250    0.000    0.000    0.000    0.000 
#    0.000    0.000    0.000    0.000    0.000    0.000 
#
# Total GULP energy -89520.792900 kJ/mol
# GULP energy per Si atom -5595.049556 kJ/mol
# Density = 2.636388 g / cm^3
# Si number density = 26.424018 Si / 1000 Ang^3
#
#
#
# Elastic Constant Matrix: (Units=GPa)
#
#
# Indices 1 2 3 4 5 6 
#
# 1 173.8870 31.4673 54.6869 0.0000 -6.0222 0.0000
# 2 31.4673 48.6717 44.7569 0.0000 -6.4783 0.0000
# 3 54.6869 44.7569 198.6741 0.0000 -25.9682 0.0000
# 4 0.0000 0.0000 0.0000 34.7674 0.0000 -4.5846
# 5 -6.0222 -6.4783 -25.9682 0.0000 53.0887 0.0000
# 6 0.0000 0.0000 0.0000 -4.5846 0.0000 27.4482
#
#
#
# Elastic Compliance Matrix: (Units=1/GPa)
#
#
# Indices 1 2 3 4 5 6 
#
# 1 0.006698 -0.003327 -0.001120 0.000000 -0.000194 0.000000
# 2 -0.003327 0.027572 -0.005240 0.000000 0.000424 0.000000
# 3 -0.001120 -0.005240 0.006861 0.000000 0.002589 0.000000
# 4 0.000000 0.000000 0.000000 0.029410 0.000000 0.004912
# 5 -0.000194 0.000424 0.002589 0.000000 0.020133 0.000000
# 6 0.000000 0.000000 0.000000 0.004912 0.000000 0.037253
#
#
# Mechanical properties :
#
#
# Convention : Reuss Voigt Hill
#
# Bulk Modulus (GPa) = 45.96151 75.89501 60.92826
# Shear Modulus (GPa) = 32.35156 42.41564 37.38360
#
# Velocity S-wave (km/s) = 3.50283 4.01083 3.76541
# Velocity P-wave (km/s) = 5.81303 7.08755 6.48169
#
# Compressibility (1/GPa) = 0.02175734
#
# Stress axis : x y z
#
# Youngs Moduli (GPa) = 149.29154 36.26900 145.76186
#
# Poissons Ratio (x) = 0.12066 0.16320
# Poissons Ratio (y) = 0.49666 0.76382
# Poissons Ratio (z) = 0.16715 0.19006
#
# Static dielectric constant tensor:
#      x y z
#    x 2.067960 0.000000 -0.028960 
#    y 0.000000 2.233560 0.000000 
#    z -0.028960 0.000000 2.101520 
# 
# From -- ./inp_files/14870.got.cif
#   From: 2010.05.17/outbox.cif.g08.bks.cpg/sg4_8_cif.got.tgz:14870.got - 2010.06.03 18:43:04.
