data_PCOD9117165
_publ_section_title
;
Structure prediction by ZEFSAII (Michael W. Deem and Ramdas Pophale) SiO2 
 PCOD9117165
Probable space group: P 21
;
_chemical_formula_sum "Si O2"
_cell_formula_units_Z 16
_cell_length_a 25.302245
_cell_length_b 5.171760
_cell_length_c 5.894001
_cell_angle_alpha 90.000000
_cell_angle_beta 118.264597
_cell_angle_gamma 90.000000
_cell_volume 679.313428
_symmetry_space_group_name_H-M "P 21"
_symmetry_group_IT_number 4
_symmetry_cell_setting 'monoclinic'
loop_
_space_group_symop_operation_xyz
x,y,z
-x,1/2+y,-z
loop_
_atom_site_type_symbol
_atom_site_label
_atom_site_fract_x
_atom_site_fract_y
_atom_site_fract_z
Si Si1 0.498138 0.412680 0.369110
Si Si2 0.126784 0.482228 0.489401
Si Si3 0.618223 0.445312 0.349463
Si Si4 0.127764 0.764423 0.001776
Si Si5 0.257660 0.883484 0.161995
Si Si6 0.255710 0.371717 0.856512
Si Si7 0.000916 0.295674 0.363985
Si Si8 0.621476 0.951652 0.135455
O O1 0.499669 0.716936 0.418007
O O2 0.559222 0.351285 0.360144
O O3 0.434796 0.351825 0.123652
O O4 0.126627 0.635529 0.738738
O O5 0.189048 0.325902 0.624985
O O6 0.063473 0.334775 0.363820
O O7 0.129876 0.615793 0.247977
O O8 0.683521 0.355964 0.567269
O O9 0.616269 0.755355 0.337547
O O10 0.614604 0.261402 0.121990
O O11 0.061354 0.888156 0.875870
O O12 0.191129 0.914468 0.132829
O O13 0.254329 0.634468 0.995919
O O14 0.269847 0.136041 0.044887
O O15 0.310892 0.393444 0.800759
O O16 0.004662 0.493206 0.585350
#
# Coordination Sequence:
#
# PCOD9117165 Si02
#       8
#     2   2   2   2   2   2   2   2
#     4  12  24  42  64  90 126 172 220 276 338 410
#     4  10  23  43  68  99 136 179 228 283 344 410
#     4  12  24  41  64  95 129 169 218 277 338 408
#     4  10  23  43  68  99 136 179 228 283 344 410
#     4  11  23  43  66  96 131 174 220 273 336 409
#     4  11  23  43  66  96 131 174 220 273 336 409
#     4  10  22  44  68 100 136 180 228 284 344 412
#     4  12  24  41  64  95 129 169 218 277 338 408
#
# _framework density 23.553191000000002
#
# number of rings (size 3 to 8) (size 9 to 14) (size 15 to 20)
#    0.000    1.000    0.000    6.750    0.000    6.000 
#    0.000   11.250    0.000    0.000    0.000    0.000 
#    0.000    0.000    0.000    0.000    0.000    0.000 
#
# Total GULP energy -89122.034191 kJ/mol
# GULP energy per Si atom -5570.127137 kJ/mol
# Density = 2.349958 g / cm^3
# Si number density = 23.553191 Si / 1000 Ang^3
#
#
#
# Elastic Constant Matrix: (Units=GPa)
#
#
# Indices 1 2 3 4 5 6 
#
# 1 148.2808 -5.7766 26.5580 0.0000 29.2807 0.0000
# 2 -5.7766 81.9782 -0.3951 0.0000 -8.6619 0.0000
# 3 26.5580 -0.3951 101.9770 0.0000 33.9174 0.0000
# 4 0.0000 0.0000 0.0000 34.4946 0.0000 -2.8711
# 5 29.2807 -8.6619 33.9174 0.0000 58.9933 0.0000
# 6 0.0000 0.0000 0.0000 -2.8711 0.0000 21.7911
#
#
#
# Elastic Compliance Matrix: (Units=1/GPa)
#
#
# Indices 1 2 3 4 5 6 
#
# 1 0.007544 0.000189 -0.000900 0.000000 -0.003199 0.000000
# 2 0.000189 0.012435 -0.000714 0.000000 0.002142 0.000000
# 3 -0.000900 -0.000714 0.012270 0.000000 -0.006713 0.000000
# 4 0.000000 0.000000 0.000000 0.029311 0.000000 0.003862
# 5 -0.003199 0.002142 -0.006713 0.000000 0.022713 0.000000
# 6 0.000000 0.000000 0.000000 0.003862 0.000000 0.046399
#
#
# Mechanical properties :
#
#
# Convention : Reuss Voigt Hill
#
# Bulk Modulus (GPa) = 34.01273 41.44539 37.72906
# Shear Modulus (GPa) = 34.88658 43.84580 39.36619
#
# Velocity S-wave (km/s) = 3.85279 4.31927 4.09268
# Velocity P-wave (km/s) = 5.85356 6.51993 6.19571
#
# Compressibility (1/GPa) = 0.02940076
#
# Stress axis : x y z
#
# Youngs Moduli (GPa) = 132.55077 80.42079 81.49682
#
# Poissons Ratio (x) = -0.01522 0.07334
# Poissons Ratio (y) = -0.02508 0.05815
# Poissons Ratio (z) = 0.11929 0.05738
#
# Static dielectric constant tensor:
#      x y z
#    x 1.956630 0.000000 0.038890 
#    y 0.000000 1.884510 0.000000 
#    z 0.038890 0.000000 1.995880 
# 
# From -- ./inp_files/4409.got.cif
#   From: 2010.05.17/outbox.cif.g08.bks.cpg/sg4_3_cif.got.tgz:4409.got - 2010.06.03 18:43:04.
