data_PCOD9117930
_publ_section_title
;
Structure prediction by ZEFSAII (Michael W. Deem and Ramdas Pophale) SiO2 
 PCOD9117930
Probable space group: P 21
;
_chemical_formula_sum "Si O2"
_cell_formula_units_Z 14
_cell_length_a 15.534411
_cell_length_b 8.089798
_cell_length_c 16.557608
_cell_angle_alpha 90.000000
_cell_angle_beta 163.037689
_cell_angle_gamma 90.000000
_cell_volume 607.057592
_symmetry_space_group_name_H-M "P 21"
_symmetry_group_IT_number 4
_symmetry_cell_setting 'monoclinic'
loop_
_space_group_symop_operation_xyz
x,y,z
-x,1/2+y,-z
loop_
_atom_site_type_symbol
_atom_site_label
_atom_site_fract_x
_atom_site_fract_y
_atom_site_fract_z
Si Si1 0.869349 0.645860 0.753175
Si Si2 0.514885 0.601579 0.283792
Si Si3 0.804236 0.239202 0.553831
Si Si4 0.655949 0.583262 0.237450
Si Si5 0.970382 0.939403 0.965799
Si Si6 0.205798 0.208027 0.068319
Si Si7 0.166692 0.337324 0.735901
O O1 0.623517 0.680178 0.465802
O O2 0.796846 0.503045 0.755263
O O3 0.162889 0.600728 0.967143
O O4 0.970622 0.800935 0.897319
O O5 0.654153 0.418500 0.408258
O O6 0.628341 0.670699 0.300323
O O7 0.521637 0.130398 0.327811
O O8 0.979465 0.218269 0.627948
O O9 0.037185 0.241801 0.834689
O O10 0.668221 0.721297 0.179568
O O11 0.944437 0.466857 0.494602
O O12 0.387730 0.454234 0.984663
O O13 0.975706 0.101087 0.914933
O O14 0.736403 0.861839 0.818787
#
# Coordination Sequence:
#
# PCOD9117930 Si02
#       7
#     2   2   2   2   2   2   2
#     4  11  23  40  62  90 127 167 219 263 325 377
#     4  11  21  41  66  90 126 172 211 258 330 400
#     4  11  21  41  66  90 126 172 211 258 330 400
#     4  11  24  45  73 101 136 177 227 276 345 413
#     4  10  24  40  62  92 126 172 218 276 314 386
#     4  11  23  40  62  90 127 167 219 263 325 377
#     4  11  24  45  73 101 136 177 227 276 345 413
#
# _framework density 23.062062000000001
#
# number of rings (size 3 to 8) (size 9 to 14) (size 15 to 20)
#    0.000    1.143    2.857    4.286    0.000    8.000 
#    7.714    0.000    0.000    0.000    0.000    0.000 
#    0.000    0.000    0.000    0.000    0.000    0.000 
#
# Total GULP energy -77986.481815 kJ/mol
# GULP energy per Si atom -5570.462987 kJ/mol
# Density = 2.300957 g / cm^3
# Si number density = 23.062062 Si / 1000 Ang^3
#
#
#
# Elastic Constant Matrix: (Units=GPa)
#
#
# Indices 1 2 3 4 5 6 
#
# 1 119.4405 20.0247 8.3460 0.0000 -19.7919 0.0000
# 2 20.0247 40.6337 5.7580 0.0000 -10.2113 0.0000
# 3 8.3460 5.7580 110.0843 0.0000 -7.6292 0.0000
# 4 0.0000 0.0000 0.0000 9.7113 0.0000 -5.5294
# 5 -19.7919 -10.2113 -7.6292 0.0000 31.3525 0.0000
# 6 0.0000 0.0000 0.0000 -5.5294 0.0000 29.1089
#
#
#
# Elastic Compliance Matrix: (Units=1/GPa)
#
#
# Indices 1 2 3 4 5 6 
#
# 1 0.009808 -0.003551 -0.000213 0.000000 0.004983 0.000000
# 2 -0.003551 0.028161 -0.000736 0.000000 0.006751 0.000000
# 3 -0.000213 -0.000736 0.009269 0.000000 0.001882 0.000000
# 4 0.000000 0.000000 0.000000 0.115461 0.000000 0.021933
# 5 0.004983 0.006751 0.001882 0.000000 0.037698 0.000000
# 6 0.000000 0.000000 0.000000 0.021933 0.000000 0.038520
#
#
# Mechanical properties :
#
#
# Convention : Reuss Voigt Hill
#
# Bulk Modulus (GPa) = 26.15123 37.60176 31.87649
# Shear Modulus (GPa) = 19.18188 29.76985 24.47586
#
# Velocity S-wave (km/s) = 2.88714 3.59675 3.26130
# Velocity P-wave (km/s) = 4.74112 5.79558 5.29467
#
# Compressibility (1/GPa) = 0.03823912
#
# Stress axis : x y z
#
# Youngs Moduli (GPa) = 101.95368 35.51013 107.88703
#
# Poissons Ratio (x) = 0.12610 0.02293
# Poissons Ratio (y) = 0.36206 0.07939
# Poissons Ratio (z) = 0.02167 0.02613
#
# Static dielectric constant tensor:
#      x y z
#    x 1.903680 0.000000 0.028820 
#    y 0.000000 1.953720 0.000000 
#    z 0.028820 0.000000 1.867580 
# 
# From -- ./inp_files/3491.got.cif
#   From: 2010.05.17/outbox.cif.g08.bks.cpg/sg4_2_cif.got.tgz:3491.got - 2010.06.03 18:43:04.
