data_PCOD9117135
_publ_section_title
;
Structure prediction by ZEFSAII (Michael W. Deem and Ramdas Pophale) SiO2 
 PCOD9117135
Probable space group: P 21
;
_chemical_formula_sum "Si O2"
_cell_formula_units_Z 16
_cell_length_a 7.200523
_cell_length_b 16.752187
_cell_length_c 6.172526
_cell_angle_alpha 90.000000
_cell_angle_beta 113.429019
_cell_angle_gamma 90.000000
_cell_volume 683.171614
_symmetry_space_group_name_H-M "P 21"
_symmetry_group_IT_number 4
_symmetry_cell_setting 'monoclinic'
loop_
_space_group_symop_operation_xyz
x,y,z
-x,1/2+y,-z
loop_
_atom_site_type_symbol
_atom_site_label
_atom_site_fract_x
_atom_site_fract_y
_atom_site_fract_z
Si Si1 0.151113 0.331810 0.704951
Si Si2 0.554108 0.707244 0.939540
Si Si3 0.177361 0.100764 0.259391
Si Si4 0.337540 0.432917 0.457124
Si Si5 0.989241 0.840177 0.917162
Si Si6 0.115084 0.712441 0.703570
Si Si7 0.306773 0.958597 0.057559
Si Si8 0.495015 0.558842 0.226046
O O1 0.202056 0.412996 0.603723
O O2 0.040055 0.264753 0.510007
O O3 0.342957 0.282868 0.894140
O O4 0.006216 0.356111 0.829672
O O5 0.709351 0.667897 0.839018
O O6 0.340359 0.723549 0.725080
O O7 0.480079 0.641526 0.084480
O O8 0.164961 0.027724 0.089494
O O9 0.327798 0.077744 0.522180
O O10 0.973198 0.125748 0.288461
O O11 0.238700 0.362573 0.263733
O O12 0.556252 0.428253 0.676438
O O13 0.334606 0.513014 0.309898
O O14 0.078706 0.753483 0.919132
O O15 0.156575 0.895303 0.883996
O O16 0.445237 0.995775 0.933415
#
# Coordination Sequence:
#
# PCOD9117135 Si02
#       8
#     2   2   2   2   2   2   2   2
#     4  11  23  43  65 100 140 167 229 282 323 407
#     4  11  23  42  69  95 137 181 220 279 342 387
#     4  10  22  44  64 100 135 168 229 276 319 413
#     4  10  23  40  66  96 129 173 221 273 331 392
#     4  11  24  42  68  97 134 173 223 272 332 397
#     4  11  24  41  67 100 128 181 220 269 340 394
#     4  10  23  43  65  94 131 177 216 276 334 389
#     4  10  22  45  66  94 138 172 222 281 331 393
#
# _framework density 23.420176999999999
#
# number of rings (size 3 to 8) (size 9 to 14) (size 15 to 20)
#    0.000    1.500    2.500    1.500    1.750    6.000 
#    6.750    0.000    0.000    0.000    0.000    0.000 
#    0.000    0.000    0.000    0.000    0.000    0.000 
#
# Total GULP energy -89070.237127 kJ/mol
# GULP energy per Si atom -5566.889820 kJ/mol
# Density = 2.336687 g / cm^3
# Si number density = 23.420177 Si / 1000 Ang^3
#
#
#
# Elastic Constant Matrix: (Units=GPa)
#
#
# Indices 1 2 3 4 5 6 
#
# 1 45.4341 -3.0006 8.1761 0.0000 11.0524 0.0000
# 2 -3.0006 37.4626 -2.4550 0.0000 -1.3129 0.0000
# 3 8.1761 -2.4550 58.6057 0.0000 -5.7342 0.0000
# 4 0.0000 0.0000 0.0000 28.2234 0.0000 -3.2742
# 5 11.0524 -1.3129 -5.7342 0.0000 29.6470 0.0000
# 6 0.0000 0.0000 0.0000 -3.2742 0.0000 25.9870
#
#
#
# Elastic Compliance Matrix: (Units=1/GPa)
#
#
# Indices 1 2 3 4 5 6 
#
# 1 0.025411 0.001381 -0.004493 0.000000 -0.010281 0.000000
# 2 0.001381 0.026901 0.001020 0.000000 0.000874 0.000000
# 3 -0.004493 0.001020 0.018246 0.000000 0.005249 0.000000
# 4 0.000000 0.000000 0.000000 0.035957 0.000000 0.004530
# 5 -0.010281 0.000874 0.005249 0.000000 0.038617 0.000000
# 6 0.000000 0.000000 0.000000 0.004530 0.000000 0.039052
#
#
# Mechanical properties :
#
#
# Convention : Reuss Voigt Hill
#
# Bulk Modulus (GPa) = 15.06647 16.32707 15.69677
# Shear Modulus (GPa) = 23.75368 26.02361 24.88864
#
# Velocity S-wave (km/s) = 3.18817 3.33703 3.26345
# Velocity P-wave (km/s) = 4.47210 4.67270 4.57350
#
# Compressibility (1/GPa) = 0.06637257
#
# Stress axis : x y z
#
# Youngs Moduli (GPa) = 39.35367 37.17293 54.80553
#
# Poissons Ratio (x) = -0.05132 0.24625
# Poissons Ratio (y) = -0.05433 -0.05589
# Poissons Ratio (z) = 0.17682 -0.03791
#
# Static dielectric constant tensor:
#      x y z
#    x 1.868000 0.000000 0.001830 
#    y 0.000000 2.000680 0.000000 
#    z 0.001830 0.000000 1.929280 
# 
# From -- ./inp_files/500.got.cif
#   From: 2010.05.17/outbox.cif.g08.bks.cpg/sg4_1_cif.got.tgz:500.got - 2010.06.03 18:43:04.
