data_PCOD9117679
_publ_section_title
;
Structure prediction by ZEFSAII (Michael W. Deem and Ramdas Pophale) SiO2 
 PCOD9117679
Probable space group: P 21
;
_chemical_formula_sum "Si O2"
_cell_formula_units_Z 16
_cell_length_a 13.019710
_cell_length_b 11.289414
_cell_length_c 7.446742
_cell_angle_alpha 90.000000
_cell_angle_beta 144.559307
_cell_angle_gamma 90.000000
_cell_volume 634.690698
_symmetry_space_group_name_H-M "P 21"
_symmetry_group_IT_number 4
_symmetry_cell_setting 'monoclinic'
loop_
_space_group_symop_operation_xyz
x,y,z
-x,1/2+y,-z
loop_
_atom_site_type_symbol
_atom_site_label
_atom_site_fract_x
_atom_site_fract_y
_atom_site_fract_z
Si Si1 0.971391 0.811950 0.274594
Si Si2 0.788109 0.154532 0.851019
Si Si3 0.915345 0.494526 0.832934
Si Si4 0.630414 0.907560 0.722875
Si Si5 0.014563 0.869076 0.725788
Si Si6 0.441321 0.034302 0.741814
Si Si7 0.327984 0.688654 0.704490
Si Si8 0.369598 0.298554 0.651185
O O1 0.002402 0.890083 0.497224
O O2 0.128859 0.716610 0.489211
O O3 0.757521 0.801162 0.973290
O O4 0.596108 0.066314 0.100675
O O5 0.673372 0.181699 0.512085
O O6 0.719124 0.039745 0.856770
O O7 0.839309 0.265207 0.042993
O O8 0.974375 0.111350 0.036867
O O9 0.750024 0.496612 0.462732
O O10 0.015185 0.380689 0.895285
O O11 0.911644 0.471019 0.039272
O O12 0.477307 0.936306 0.643575
O O13 0.589558 0.884003 0.457067
O O14 0.817289 0.829386 0.517532
O O15 0.384229 0.165220 0.586414
O O16 0.469043 0.785680 0.977551
#
# Coordination Sequence:
#
# PCOD9117679 Si02
#       8
#     2   2   2   2   2   2   2   2
#     4  11  25  43  71 102 138 186 234 284 357 419
#     4  11  21  44  70  97 139 185 230 294 345 425
#     4  11  24  45  70 102 141 186 239 286 352 424
#     4  11  24  44  72 103 140 185 241 288 353 425
#     4  12  23  46  70 102 142 191 227 295 355 417
#     4  10  25  44  67 103 142 186 234 290 354 416
#     4  10  23  44  67 101 144 180 232 294 350 415
#     4  10  23  46  65 102 144 181 239 295 344 419
#
# _framework density 25.209130999999999
#
# number of rings (size 3 to 8) (size 9 to 14) (size 15 to 20)
#    0.750    0.500    5.000    0.750    3.500    2.000 
#    2.250    0.000    0.000    0.000    0.000    0.000 
#    0.000    0.000    0.000    0.000    0.000    0.000 
#
# Total GULP energy -89183.263199 kJ/mol
# GULP energy per Si atom -5573.953950 kJ/mol
# Density = 2.515175 g / cm^3
# Si number density = 25.209131 Si / 1000 Ang^3
#
#
#
# Elastic Constant Matrix: (Units=GPa)
#
#
# Indices 1 2 3 4 5 6 
#
# 1 65.5055 7.8086 35.3212 0.0000 -21.6454 0.0000
# 2 7.8086 43.4944 19.9603 0.0000 9.6599 0.0000
# 3 35.3212 19.9603 136.9892 0.0000 -10.1316 0.0000
# 4 0.0000 0.0000 0.0000 51.1694 0.0000 -3.8820
# 5 -21.6454 9.6599 -10.1316 0.0000 41.3258 0.0000
# 6 0.0000 0.0000 0.0000 -3.8820 0.0000 28.0438
#
#
#
# Elastic Compliance Matrix: (Units=1/GPa)
#
#
# Indices 1 2 3 4 5 6 
#
# 1 0.021828 -0.004586 -0.004109 0.000000 0.011497 0.000000
# 2 -0.004586 0.027609 -0.003560 0.000000 -0.009729 0.000000
# 3 -0.004109 -0.003560 0.008943 0.000000 0.000872 0.000000
# 4 0.000000 0.000000 0.000000 0.019750 0.000000 0.002734
# 5 0.011497 -0.009729 0.000872 0.000000 0.032708 0.000000
# 6 0.000000 0.000000 0.000000 0.002734 0.000000 0.036037
#
#
# Mechanical properties :
#
#
# Convention : Reuss Voigt Hill
#
# Bulk Modulus (GPa) = 29.52623 41.35215 35.43919
# Shear Modulus (GPa) = 27.37100 36.30107 31.83603
#
# Velocity S-wave (km/s) = 3.29866 3.79885 3.55755
# Velocity P-wave (km/s) = 5.12310 5.97335 5.56449
#
# Compressibility (1/GPa) = 0.03386820
#
# Stress axis : x y z
#
# Youngs Moduli (GPa) = 45.81360 36.21983 111.82423
#
# Poissons Ratio (x) = 0.16612 0.45953
# Poissons Ratio (y) = 0.21012 0.39808
# Poissons Ratio (z) = 0.18827 0.12894
#
# Static dielectric constant tensor:
#      x y z
#    x 2.042650 0.000000 0.124090 
#    y 0.000000 2.095310 0.000000 
#    z 0.124090 0.000000 2.051300 
# 
# From -- ./inp_files/9312.got.cif
#   From: 2010.05.17/outbox.cif.g08.bks.cpg/sg4_5_cif.got.tgz:9312.got - 2010.06.03 18:43:04.
