data_PCOD9117837
_publ_section_title
;
Structure prediction by ZEFSAII (Michael W. Deem and Ramdas Pophale) SiO2 
 PCOD9117837
Probable space group: P 21
;
_chemical_formula_sum "Si O2"
_cell_formula_units_Z 16
_cell_length_a 11.490076
_cell_length_b 7.465386
_cell_length_c 11.829403
_cell_angle_alpha 90.000000
_cell_angle_beta 143.563275
_cell_angle_gamma 90.000000
_cell_volume 602.665986
_symmetry_space_group_name_H-M "P 21"
_symmetry_group_IT_number 4
_symmetry_cell_setting 'monoclinic'
loop_
_space_group_symop_operation_xyz
x,y,z
-x,1/2+y,-z
loop_
_atom_site_type_symbol
_atom_site_label
_atom_site_fract_x
_atom_site_fract_y
_atom_site_fract_z
Si Si1 0.894221 0.420040 0.077758
Si Si2 0.184893 0.815712 0.557151
Si Si3 0.279290 0.457873 0.535402
Si Si4 0.323197 0.730160 0.895015
Si Si5 0.130711 0.308605 0.049792
Si Si6 0.246673 0.328137 0.758132
Si Si7 0.454609 0.292625 0.465983
Si Si8 0.197629 0.958770 0.340905
O O1 0.736627 0.316400 0.031946
O O2 0.839159 0.615914 0.985693
O O3 0.082617 0.444336 0.306760
O O4 0.974900 0.310920 0.032220
O O5 0.317425 0.653597 0.616623
O O6 0.231791 0.850566 0.722889
O O7 0.204796 0.970182 0.481095
O O8 0.961770 0.746981 0.373479
O O9 0.253606 0.344617 0.628390
O O10 0.443393 0.394185 0.576549
O O11 0.250603 0.528236 0.815486
O O12 0.555179 0.730463 0.054205
O O13 0.021770 0.433725 0.873655
O O14 0.330789 0.377253 0.264439
O O15 0.679029 0.284167 0.603872
O O16 0.326925 0.116068 0.390088
#
# Coordination Sequence:
#
# PCOD9117837 Si02
#       8
#     2   2   2   2   2   2   2   2
#     4  11  23  48  75 105 151 191 251 302 371 436
#     4  11  25  47  71 108 145 196 250 304 368 441
#     4  10  23  46  75  95 148 192 238 306 364 433
#     4  11  28  47  74 111 147 199 245 310 371 440
#     4  11  25  45  74 105 146 196 241 307 371 437
#     4  11  27  46  75 110 147 194 250 297 374 443
#     4  11  27  45  70 111 142 198 249 306 376 442
#     4  12  26  44  72 105 150 192 250 304 375 444
#
# _framework density 26.548701999999999
#
# number of rings (size 3 to 8) (size 9 to 14) (size 15 to 20)
#    0.000    1.000    3.750    0.750    8.750    4.000 
#    0.000    0.000    0.000    0.000    0.000    0.000 
#    0.000    0.000    0.000    0.000    0.000    0.000 
#
# Total GULP energy -89623.613822 kJ/mol
# GULP energy per Si atom -5601.475864 kJ/mol
# Density = 2.648828 g / cm^3
# Si number density = 26.548702 Si / 1000 Ang^3
#
#
#
# Elastic Constant Matrix: (Units=GPa)
#
#
# Indices 1 2 3 4 5 6 
#
# 1 120.1948 23.0799 29.5649 0.0000 -16.5418 0.0000
# 2 23.0799 86.2418 14.0813 0.0000 -15.6616 0.0000
# 3 29.5649 14.0813 116.2840 0.0000 -13.4226 0.0000
# 4 0.0000 0.0000 0.0000 29.5871 0.0000 -5.5927
# 5 -16.5418 -15.6616 -13.4226 0.0000 45.0797 0.0000
# 6 0.0000 0.0000 0.0000 -5.5927 0.0000 43.6664
#
#
#
# Elastic Compliance Matrix: (Units=1/GPa)
#
#
# Indices 1 2 3 4 5 6 
#
# 1 0.009451 -0.001803 -0.001923 0.000000 0.002269 0.000000
# 2 -0.001803 0.012842 -0.000681 0.000000 0.003597 0.000000
# 3 -0.001923 -0.000681 0.009385 0.000000 0.001852 0.000000
# 4 0.000000 0.000000 0.000000 0.034637 0.000000 0.004436
# 5 0.002269 0.003597 0.001852 0.000000 0.024817 0.000000
# 6 0.000000 0.000000 0.000000 0.004436 0.000000 0.023469
#
#
# Mechanical properties :
#
#
# Convention : Reuss Voigt Hill
#
# Bulk Modulus (GPa) = 43.73765 50.68589 47.21177
# Shear Modulus (GPa) = 38.15700 40.73293 39.44496
#
# Velocity S-wave (km/s) = 3.79521 3.92123 3.85874
# Velocity P-wave (km/s) = 5.97621 6.29559 6.13798
#
# Compressibility (1/GPa) = 0.02286360
#
# Stress axis : x y z
#
# Youngs Moduli (GPa) = 105.80527 77.86697 106.55555
#
# Poissons Ratio (x) = 0.14042 0.20487
# Poissons Ratio (y) = 0.19080 0.07261
# Poissons Ratio (z) = 0.20343 0.05306
#
# Static dielectric constant tensor:
#      x y z
#    x 2.016190 0.000000 -0.020630 
#    y 0.000000 2.195240 0.000000 
#    z -0.020630 0.000000 2.060890 
# 
# From -- ./inp_files/12052.got.cif
#   From: 2010.05.17/outbox.cif.g08.bks.cpg/sg4_7_cif.got.tgz:12052.got - 2010.06.03 18:43:04.
