data_PCOD9117590
_publ_section_title
;
Structure prediction by ZEFSAII (Michael W. Deem and Ramdas Pophale) SiO2 
 PCOD9117590
Probable space group: P 21
;
_chemical_formula_sum "Si O2"
_cell_formula_units_Z 12
_cell_length_a 21.227909
_cell_length_b 5.024692
_cell_length_c 16.553250
_cell_angle_alpha 90.000000
_cell_angle_beta 18.735852
_cell_angle_gamma 90.000000
_cell_volume 567.130609
_symmetry_space_group_name_H-M "P 21"
_symmetry_group_IT_number 4
_symmetry_cell_setting 'monoclinic'
loop_
_space_group_symop_operation_xyz
x,y,z
-x,1/2+y,-z
loop_
_atom_site_type_symbol
_atom_site_label
_atom_site_fract_x
_atom_site_fract_y
_atom_site_fract_z
Si Si1 0.435389 0.539890 0.626973
Si Si2 0.005450 0.981160 0.783669
Si Si3 0.105463 0.742318 0.393913
Si Si4 0.873227 0.985994 0.456350
Si Si5 0.419247 0.004742 0.372287
Si Si6 0.536757 0.504442 0.135487
O O1 0.488042 0.323534 0.495642
O O2 0.542103 0.458485 0.580865
O O3 0.201950 0.546806 0.925117
O O4 0.052315 0.192354 0.655473
O O5 0.000386 0.689911 0.750621
O O6 0.192178 0.988588 0.618188
O O7 0.131102 0.592419 0.447742
O O8 0.040900 0.491813 0.417608
O O9 0.286163 0.893668 0.132639
O O10 0.652460 0.002153 0.691972
O O11 0.541168 0.793554 0.170386
O O12 0.496270 0.296199 0.256029
#
# Coordination Sequence:
#
# PCOD9117590 Si02
#       6
#     2   2   2   2   2   2
#     4  12  26  42  68 100 128 166 210 276 344 404
#     4  10  23  43  68  94 128 174 217 267 330 396
#     4  12  26  38  62 104 134 172 228 280 324 376
#     4  10  23  43  65  90 131 179 218 266 322 385
#     4  10  23  43  68  94 128 174 217 267 330 396
#     4  10  23  43  65  90 131 179 218 266 322 385
#
# _framework density 21.159148999999999
#
# number of rings (size 3 to 8) (size 9 to 14) (size 15 to 20)
#    0.000    1.333    0.000    4.000    7.000    6.667 
#    0.000    0.000    0.000    0.000    0.000    0.000 
#    0.000    0.000    0.000    0.000    0.000    0.000 
#
# Total GULP energy -67082.673258 kJ/mol
# GULP energy per Si atom -5590.222771 kJ/mol
# Density = 2.111099 g / cm^3
# Si number density = 21.159149 Si / 1000 Ang^3
#
#
#
# Elastic Constant Matrix: (Units=GPa)
#
#
# Indices 1 2 3 4 5 6 
#
# 1 113.9018 21.2902 15.5583 0.0000 18.5614 0.0000
# 2 21.2902 95.0057 7.7866 0.0000 -14.7813 0.0000
# 3 15.5583 7.7866 129.7180 0.0000 -15.6451 0.0000
# 4 0.0000 0.0000 0.0000 32.6392 0.0000 3.1390
# 5 18.5614 -14.7813 -15.6451 0.0000 11.7277 0.0000
# 6 0.0000 0.0000 0.0000 3.1390 0.0000 29.4938
#
#
#
# Elastic Compliance Matrix: (Units=1/GPa)
#
#
# Indices 1 2 3 4 5 6 
#
# 1 0.026689 -0.017458 -0.011800 0.000000 -0.079987 0.000000
# 2 -0.017458 0.024741 0.009179 0.000000 0.071060 0.000000
# 3 -0.011800 0.009179 0.014565 0.000000 0.049675 0.000000
# 4 0.000000 0.000000 0.000000 0.030955 0.000000 -0.003294
# 5 -0.079987 0.071060 0.049675 0.000000 0.367694 0.000000
# 6 0.000000 0.000000 0.000000 -0.003294 0.000000 0.034256
#
#
# Mechanical properties :
#
#
# Convention : Reuss Voigt Hill
#
# Bulk Modulus (GPa) = 38.70470 47.54395 43.12433
# Shear Modulus (GPa) = 9.12957 34.37151 21.75054
#
# Velocity S-wave (km/s) = 2.07944 4.03479 3.20964
# Velocity P-wave (km/s) = 4.90890 6.65015 5.84474
#
# Compressibility (1/GPa) = 0.02583665
#
# Stress axis : x y z
#
# Youngs Moduli (GPa) = 37.46836 40.41793 68.65968
#
# Poissons Ratio (x) = 0.70563 0.81020
# Poissons Ratio (y) = 0.65414 -0.63025
# Poissons Ratio (z) = 0.44213 -0.37101
#
# Static dielectric constant tensor:
#      x y z
#    x 1.779020 0.000000 -0.029040 
#    y 0.000000 1.706330 0.000000 
#    z -0.029040 0.000000 1.748520 
# 
# From -- ./inp_files/13490.got.cif
#   From: 2010.05.17/outbox.cif.g08.bks.cpg/sg4_7_cif.got.tgz:13490.got - 2010.06.03 18:43:04.
