data_PCOD9117750
_publ_section_title
;
Structure prediction by ZEFSAII (Michael W. Deem and Ramdas Pophale) SiO2 
 PCOD9117750
Probable space group: P 21
;
_chemical_formula_sum "Si O2"
_cell_formula_units_Z 12
_cell_length_a 7.936428
_cell_length_b 5.880835
_cell_length_c 17.283498
_cell_angle_alpha 90.000000
_cell_angle_beta 37.121110
_cell_angle_gamma 90.000000
_cell_volume 486.826594
_symmetry_space_group_name_H-M "P 21"
_symmetry_group_IT_number 4
_symmetry_cell_setting 'monoclinic'
loop_
_space_group_symop_operation_xyz
x,y,z
-x,1/2+y,-z
loop_
_atom_site_type_symbol
_atom_site_label
_atom_site_fract_x
_atom_site_fract_y
_atom_site_fract_z
Si Si1 0.531336 0.973550 0.771688
Si Si2 0.681207 0.286741 0.010879
Si Si3 0.921321 0.721570 0.362359
Si Si4 0.154830 0.167062 0.447220
Si Si5 0.847200 0.505066 0.221876
Si Si6 0.084725 0.103078 0.205724
O O1 0.285311 0.927100 0.922838
O O2 0.643393 0.731721 0.697193
O O3 0.776994 0.123104 0.719811
O O4 0.404308 0.083045 0.740324
O O5 0.349239 0.252702 0.132702
O O6 0.769217 0.420394 0.902575
O O7 0.872455 0.067780 0.928981
O O8 0.732994 0.670969 0.505508
O O9 0.835867 0.608089 0.312465
O O10 0.948186 0.984668 0.329368
O O11 0.975697 0.412001 0.513837
O O12 0.873389 0.239848 0.229959
#
# Coordination Sequence:
#
# PCOD9117750 Si02
#       6
#     2   2   2   2   2   2
#     4  11  24  44  67 102 133 180 232 289 347 419
#     4  11  21  37  64  92 133 178 218 279 340 423
#     4  10  23  45  68  91 138 178 223 293 346 420
#     4  10  23  47  75 103 134 187 235 287 356 416
#     4  11  25  41  63 102 133 177 235 277 353 417
#     4  11  20  40  65  92 131 182 219 277 352 407
#
# _framework density 24.649432999999998
#
# number of rings (size 3 to 8) (size 9 to 14) (size 15 to 20)
#    0.000    1.333    3.333    2.000    4.667    0.000 
#   18.000    0.000    0.000    0.000    0.000    0.000 
#    0.000    0.000    0.000    0.000    0.000    0.000 
#
# Total GULP energy -66904.629781 kJ/mol
# GULP energy per Si atom -5575.385815 kJ/mol
# Density = 2.459333 g / cm^3
# Si number density = 24.649433 Si / 1000 Ang^3
#
#
#
# Elastic Constant Matrix: (Units=GPa)
#
#
# Indices 1 2 3 4 5 6 
#
# 1 134.9868 16.4832 14.2760 0.0000 17.4848 0.0000
# 2 16.4832 62.1956 -2.1890 0.0000 -7.1231 0.0000
# 3 14.2760 -2.1890 68.6328 0.0000 15.0031 0.0000
# 4 0.0000 0.0000 0.0000 35.6667 0.0000 16.7673
# 5 17.4848 -7.1231 15.0031 0.0000 41.3098 0.0000
# 6 0.0000 0.0000 0.0000 16.7673 0.0000 16.4959
#
#
#
# Elastic Compliance Matrix: (Units=1/GPa)
#
#
# Indices 1 2 3 4 5 6 
#
# 1 0.008306 -0.002650 -0.001025 0.000000 -0.003600 0.000000
# 2 -0.002650 0.017248 0.000224 0.000000 0.004014 0.000000
# 3 -0.001025 0.000224 0.015954 0.000000 -0.005322 0.000000
# 4 0.000000 0.000000 0.000000 0.053696 0.000000 -0.054579
# 5 -0.003600 0.004014 -0.005322 0.000000 0.028356 0.000000
# 6 0.000000 0.000000 0.000000 -0.054579 0.000000 0.116098
#
#
# Mechanical properties :
#
#
# Convention : Reuss Voigt Hill
#
# Bulk Modulus (GPa) = 28.89670 35.88394 32.39032
# Shear Modulus (GPa) = 19.37256 34.51082 26.94169
#
# Velocity S-wave (km/s) = 2.80647 3.74580 3.30963
# Velocity P-wave (km/s) = 4.71702 5.77039 5.27009
#
# Compressibility (1/GPa) = 0.03460603
#
# Stress axis : x y z
#
# Youngs Moduli (GPa) = 120.38785 57.97708 62.68011
#
# Poissons Ratio (x) = 0.15363 0.06426
# Poissons Ratio (y) = 0.31901 -0.01403
# Poissons Ratio (z) = 0.12343 -0.01297
#
# Static dielectric constant tensor:
#      x y z
#    x 2.083670 0.000000 -0.028190 
#    y 0.000000 2.134720 0.000000 
#    z -0.028190 0.000000 1.925330 
# 
# From -- ./inp_files/7101.got.cif
#   From: 2010.05.17/outbox.cif.g08.bks.cpg/sg4_4_cif.got.tgz:7101.got - 2010.06.03 18:43:04.
