data_PCOD9117811
_publ_section_title
;
Structure prediction by ZEFSAII (Michael W. Deem and Ramdas Pophale) SiO2 
 PCOD9117811
Probable space group: P 21
;
_chemical_formula_sum "Si O2"
_cell_formula_units_Z 16
_cell_length_a 8.804803
_cell_length_b 9.555878
_cell_length_c 18.039404
_cell_angle_alpha 90.000000
_cell_angle_beta 25.234330
_cell_angle_gamma 90.000000
_cell_volume 647.067399
_symmetry_space_group_name_H-M "P 21"
_symmetry_group_IT_number 4
_symmetry_cell_setting 'monoclinic'
loop_
_space_group_symop_operation_xyz
x,y,z
-x,1/2+y,-z
loop_
_atom_site_type_symbol
_atom_site_label
_atom_site_fract_x
_atom_site_fract_y
_atom_site_fract_z
Si Si1 0.559179 0.743040 0.643663
Si Si2 0.955455 0.069407 0.024154
Si Si3 0.524038 0.428798 0.889362
Si Si4 0.624558 0.172156 0.931171
Si Si5 0.689618 0.984565 0.501293
Si Si6 0.799230 0.304598 0.000313
Si Si7 0.225442 0.034896 0.568063
Si Si8 0.998417 0.768652 0.586368
O O1 0.281356 0.655170 0.812911
O O2 0.596466 0.666252 0.549661
O O3 0.913518 0.743330 0.537889
O O4 0.487495 0.904718 0.656812
O O5 0.077504 0.199353 0.918279
O O6 0.725753 0.977969 0.067224
O O7 0.167295 0.958982 0.980523
O O8 0.401559 0.284227 0.982015
O O9 0.921898 0.416003 0.681473
O O10 0.540263 0.551037 0.944682
O O11 0.875813 0.089806 0.763800
O O12 0.831143 0.272980 0.899108
O O13 0.470902 0.971485 0.523070
O O14 0.760607 0.145465 0.488586
O O15 0.390681 0.263135 0.201820
O O16 0.151092 0.919685 0.538338
#
# Coordination Sequence:
#
# PCOD9117811 Si02
#       8
#     2   2   2   2   2   2   2   2
#     4  11  24  46  70 101 141 190 239 298 364 422
#     4  10  24  45  70 104 143 190 247 297 365 432
#     4  11  24  48  70 103 142 188 241 302 360 432
#     4  11  24  44  69 103 141 186 238 296 369 423
#     4  12  24  48  68 104 149 182 243 295 357 439
#     4  10  23  46  69 104 143 190 241 301 363 430
#     4  12  27  42  69 109 137 191 240 295 369 428
#     4  11  24  47  71 102 144 189 245 300 359 432
#
# _framework density 24.726944
#
# number of rings (size 3 to 8) (size 9 to 14) (size 15 to 20)
#    0.000    1.000    5.000    2.250    1.750    6.000 
#    2.250    0.000    0.000    0.000    0.000    0.000 
#    0.000    0.000    0.000    0.000    0.000    0.000 
#
# Total GULP energy -89517.194709 kJ/mol
# GULP energy per Si atom -5594.824669 kJ/mol
# Density = 2.467066 g / cm^3
# Si number density = 24.726944 Si / 1000 Ang^3
#
#
#
# Elastic Constant Matrix: (Units=GPa)
#
#
# Indices 1 2 3 4 5 6 
#
# 1 80.6030 26.9125 14.6359 0.0000 12.0328 0.0000
# 2 26.9125 118.9393 31.5061 0.0000 3.9566 0.0000
# 3 14.6359 31.5061 50.1190 0.0000 9.6565 0.0000
# 4 0.0000 0.0000 0.0000 30.9748 0.0000 10.0596
# 5 12.0328 3.9566 9.6565 0.0000 24.8936 0.0000
# 6 0.0000 0.0000 0.0000 10.0596 0.0000 62.5001
#
#
#
# Elastic Compliance Matrix: (Units=1/GPa)
#
#
# Indices 1 2 3 4 5 6 
#
# 1 0.014459 -0.002712 -0.001355 0.000000 -0.006032 0.000000
# 2 -0.002712 0.010616 -0.006278 0.000000 0.002059 0.000000
# 3 -0.001355 -0.006278 0.025913 0.000000 -0.008399 0.000000
# 4 0.000000 0.000000 0.000000 0.034065 0.000000 -0.005483
# 5 -0.006032 0.002059 -0.008399 0.000000 0.046017 0.000000
# 6 0.000000 0.000000 0.000000 -0.005483 0.000000 0.016882
#
#
# Mechanical properties :
#
#
# Convention : Reuss Voigt Hill
#
# Bulk Modulus (GPa) = 33.00666 43.97450 38.49058
# Shear Modulus (GPa) = 27.97329 35.44749 31.71039
#
# Velocity S-wave (km/s) = 3.36711 3.79034 3.58498
# Velocity P-wave (km/s) = 5.33798 6.08097 5.72155
#
# Compressibility (1/GPa) = 0.03029692
#
# Stress axis : x y z
#
# Youngs Moduli (GPa) = 69.16328 94.19909 38.59044
#
# Poissons Ratio (x) = 0.25546 0.05230
# Poissons Ratio (y) = 0.18756 0.24228
# Poissons Ratio (z) = 0.09373 0.59140
#
# Static dielectric constant tensor:
#      x y z
#    x 1.956990 0.000000 0.009770 
#    y 0.000000 1.957650 0.000000 
#    z 0.009770 0.000000 1.997810 
# 
# From -- ./inp_files/14966.got.cif
#   From: 2010.05.17/outbox.cif.g08.bks.cpg/sg4_8_cif.got.tgz:14966.got - 2010.06.03 18:43:04.
