data_PCOD9117779
_publ_section_title
;
Structure prediction by ZEFSAII (Michael W. Deem and Ramdas Pophale) SiO2 
 PCOD9117779
Probable space group: P 21
;
_chemical_formula_sum "Si O2"
_cell_formula_units_Z 14
_cell_length_a 12.545550
_cell_length_b 8.383225
_cell_length_c 5.978387
_cell_angle_alpha 90.000000
_cell_angle_beta 62.480692
_cell_angle_gamma 90.000000
_cell_volume 557.618995
_symmetry_space_group_name_H-M "P 21"
_symmetry_group_IT_number 4
_symmetry_cell_setting 'monoclinic'
loop_
_space_group_symop_operation_xyz
x,y,z
-x,1/2+y,-z
loop_
_atom_site_type_symbol
_atom_site_label
_atom_site_fract_x
_atom_site_fract_y
_atom_site_fract_z
Si Si1 0.181475 0.119490 0.710869
Si Si2 0.007385 0.907025 0.160777
Si Si3 0.212262 0.898362 0.292017
Si Si4 0.785654 0.095795 0.417923
Si Si5 0.411274 0.455736 0.120418
Si Si6 0.368390 0.717615 0.802802
Si Si7 0.570605 0.675977 0.252061
O O1 0.086978 0.266858 0.806270
O O2 0.301874 0.154250 0.741172
O O3 0.218115 0.062467 0.424351
O O4 0.104368 0.969052 0.885192
O O5 0.924198 0.059233 0.286200
O O6 0.081630 0.871251 0.312471
O O7 0.244154 0.761335 0.435698
O O8 0.300287 0.856999 0.001845
O O9 0.715337 0.963226 0.627928
O O10 0.735621 0.114506 0.219089
O O11 0.503502 0.518449 0.220013
O O12 0.420932 0.595938 0.930391
O O13 0.419984 0.297511 0.965364
O O14 0.472088 0.747023 0.521049
#
# Coordination Sequence:
#
# PCOD9117779 Si02
#       7
#     2   2   2   2   2   2   2
#     4  12  28  47  75 112 153 202 261 321 390 465
#     4  12  26  46  71 105 149 196 254 321 383 461
#     4  11  24  45  73 102 143 201 256 316 388 457
#     4  10  23  46  72 103 145 196 251 316 386 459
#     4  10  25  47  74 106 148 200 255 318 391 462
#     4  10  23  45  73 104 147 195 253 321 387 456
#     4  11  27  48  76 114 155 202 260 321 389 468
#
# _framework density 25.106746999999999
#
# number of rings (size 3 to 8) (size 9 to 14) (size 15 to 20)
#    0.000    1.143    0.000    4.286    0.000   19.429 
#    0.000    2.857    0.000    0.000    0.000    0.000 
#    0.000    0.000    0.000    0.000    0.000    0.000 
#
# Total GULP energy -78293.432029 kJ/mol
# GULP energy per Si atom -5592.388002 kJ/mol
# Density = 2.504960 g / cm^3
# Si number density = 25.106747 Si / 1000 Ang^3
#
#
#
# Elastic Constant Matrix: (Units=GPa)
#
#
# Indices 1 2 3 4 5 6 
#
# 1 181.1862 53.7836 65.2941 0.0000 4.2704 0.0000
# 2 53.7836 73.4742 54.3737 0.0000 -7.6333 0.0000
# 3 65.2941 54.3737 145.6120 0.0000 -12.7387 0.0000
# 4 0.0000 0.0000 0.0000 61.8342 0.0000 5.3712
# 5 4.2704 -7.6333 -12.7387 0.0000 42.6032 0.0000
# 6 0.0000 0.0000 0.0000 5.3712 0.0000 48.7734
#
#
#
# Elastic Compliance Matrix: (Units=1/GPa)
#
#
# Indices 1 2 3 4 5 6 
#
# 1 0.007552 -0.004291 -0.001969 0.000000 -0.002115 0.000000
# 2 -0.004291 0.021316 -0.005816 0.000000 0.002510 0.000000
# 3 -0.001969 -0.005816 0.010113 0.000000 0.002179 0.000000
# 4 0.000000 0.000000 0.000000 0.016328 0.000000 -0.001798
# 5 -0.002115 0.002510 0.002179 0.000000 0.024786 0.000000
# 6 0.000000 0.000000 0.000000 -0.001798 0.000000 0.020701
#
#
# Mechanical properties :
#
#
# Convention : Reuss Voigt Hill
#
# Bulk Modulus (GPa) = 67.43469 83.01946 75.22707
# Shear Modulus (GPa) = 38.49350 45.76355 42.12853
#
# Velocity S-wave (km/s) = 3.91985 4.27401 4.10075
# Velocity P-wave (km/s) = 6.88509 7.58252 7.24220
#
# Compressibility (1/GPa) = 0.01482916
#
# Stress axis : x y z
#
# Youngs Moduli (GPa) = 132.40861 46.91320 98.88143
#
# Poissons Ratio (x) = 0.20129 0.19473
# Poissons Ratio (y) = 0.56812 0.57510
# Poissons Ratio (z) = 0.26076 0.27285
#
# Static dielectric constant tensor:
#      x y z
#    x 1.946370 0.000000 -0.010090 
#    y 0.000000 2.024930 0.000000 
#    z -0.010090 0.000000 2.012520 
# 
# From -- ./inp_files/2374.got.cif
#   From: 2010.05.17/outbox.cif.g08.bks.cpg/sg4_2_cif.got.tgz:2374.got - 2010.06.03 18:43:04.
