data_PCOD9117173
_publ_section_title
;
Structure prediction by ZEFSAII (Michael W. Deem and Ramdas Pophale) SiO2 
 PCOD9117173
Probable space group: P 21
;
_chemical_formula_sum "Si O2"
_cell_formula_units_Z 14
_cell_length_a 11.099030
_cell_length_b 5.087687
_cell_length_c 9.805373
_cell_angle_alpha 90.000000
_cell_angle_beta 98.543495
_cell_angle_gamma 90.000000
_cell_volume 547.549501
_symmetry_space_group_name_H-M "P 21"
_symmetry_group_IT_number 4
_symmetry_cell_setting 'monoclinic'
loop_
_space_group_symop_operation_xyz
x,y,z
-x,1/2+y,-z
loop_
_atom_site_type_symbol
_atom_site_label
_atom_site_fract_x
_atom_site_fract_y
_atom_site_fract_z
Si Si1 0.289909 0.348300 0.677013
Si Si2 0.160679 0.006809 0.020989
Si Si3 0.928891 0.778113 0.525786
Si Si4 0.421663 0.629834 0.470199
Si Si5 0.097357 0.499924 0.174521
Si Si6 0.652639 0.175130 0.090804
Si Si7 0.476518 0.498565 0.202651
O O1 0.185733 0.185562 0.585084
O O2 0.322639 0.561190 0.565427
O O3 0.254433 0.493177 0.810786
O O4 0.409698 0.182652 0.735353
O O5 0.144905 0.786907 0.137593
O O6 0.167387 0.285959 0.094243
O O7 0.276769 0.930180 0.950003
O O8 0.042128 0.991811 0.904626
O O9 0.900918 0.902991 0.669216
O O10 0.012208 0.520040 0.548841
O O11 0.535545 0.431000 0.521396
O O12 0.386580 0.530297 0.314059
O O13 0.544421 0.227980 0.181180
O O14 0.587281 0.067190 0.947674
#
# Coordination Sequence:
#
# PCOD9117173 Si02
#       7
#     2   2   2   2   2   2   2
#     4  11  26  45  72 101 144 191 230 298 355 414
#     4  10  24  42  76  95 144 181 231 296 350 410
#     4  12  28  47  75 106 142 184 239 291 355 425
#     4  10  22  44  68  97 139 185 232 287 344 420
#     4  10  23  48  66 108 134 184 237 286 353 426
#     4  12  24  44  71 104 140 189 237 297 349 418
#     4  11  25  44  68 105 141 186 244 285 356 421
#
# _framework density 25.568463000000001
#
# number of rings (size 3 to 8) (size 9 to 14) (size 15 to 20)
#    0.000    1.143    2.857    1.714    8.000    1.143 
#   10.286    0.000    0.000    0.000    0.000    0.000 
#    0.000    0.000    0.000    0.000    0.000    0.000 
#
# Total GULP energy -78384.677324 kJ/mol
# GULP energy per Si atom -5598.905523 kJ/mol
# Density = 2.551027 g / cm^3
# Si number density = 25.568463 Si / 1000 Ang^3
#
#
#
# Elastic Constant Matrix: (Units=GPa)
#
#
# Indices 1 2 3 4 5 6 
#
# 1 61.7996 16.4492 25.7616 0.0000 8.5374 0.0000
# 2 16.4492 83.9665 19.6872 0.0000 2.7414 0.0000
# 3 25.7616 19.6872 168.4501 0.0000 7.2935 0.0000
# 4 0.0000 0.0000 0.0000 35.5810 0.0000 -8.7594
# 5 8.5374 2.7414 7.2935 0.0000 38.8152 0.0000
# 6 0.0000 0.0000 0.0000 -8.7594 0.0000 38.7005
#
#
#
# Elastic Compliance Matrix: (Units=1/GPa)
#
#
# Indices 1 2 3 4 5 6 
#
# 1 0.018405 -0.002950 -0.002323 0.000000 -0.003403 0.000000
# 2 -0.002950 0.012732 -0.001034 0.000000 -0.000056 0.000000
# 3 -0.002323 -0.001034 0.006440 0.000000 -0.000626 0.000000
# 4 0.000000 0.000000 0.000000 0.029763 0.000000 0.006737
# 5 -0.003403 -0.000056 -0.000626 0.000000 0.026633 0.000000
# 6 0.000000 0.000000 0.000000 0.006737 0.000000 0.027364
#
#
# Mechanical properties :
#
#
# Convention : Reuss Voigt Hill
#
# Bulk Modulus (GPa) = 40.06008 48.66803 44.36406
# Shear Modulus (GPa) = 35.14402 39.44056 37.29229
#
# Velocity S-wave (km/s) = 3.71146 3.93179 3.82321
# Velocity P-wave (km/s) = 5.83681 6.29981 6.07273
#
# Compressibility (1/GPa) = 0.02496251
#
# Stress axis : x y z
#
# Youngs Moduli (GPa) = 54.33348 78.54370 155.28706
#
# Poissons Ratio (x) = 0.23169 0.36067
# Poissons Ratio (y) = 0.16028 0.16063
# Poissons Ratio (z) = 0.12620 0.08125
#
# Static dielectric constant tensor:
#      x y z
#    x 2.060170 0.000000 -0.019600 
#    y 0.000000 2.002640 0.000000 
#    z -0.019600 0.000000 2.013170 
# 
# From -- ./inp_files/7096.got.cif
#   From: 2010.05.17/outbox.cif.g08.bks.cpg/sg4_4_cif.got.tgz:7096.got - 2010.06.03 18:43:04.
