data_PCOD9117089
_publ_section_title
;
Structure prediction by ZEFSAII (Michael W. Deem and Ramdas Pophale) SiO2 
 PCOD9117089
Probable space group: P 21
;
_chemical_formula_sum "Si O2"
_cell_formula_units_Z 14
_cell_length_a 15.789045
_cell_length_b 5.573370
_cell_length_c 8.362660
_cell_angle_alpha 90.000000
_cell_angle_beta 126.972896
_cell_angle_gamma 90.000000
_cell_volume 587.924464
_symmetry_space_group_name_H-M "P 21"
_symmetry_group_IT_number 4
_symmetry_cell_setting 'monoclinic'
loop_
_space_group_symop_operation_xyz
x,y,z
-x,1/2+y,-z
loop_
_atom_site_type_symbol
_atom_site_label
_atom_site_fract_x
_atom_site_fract_y
_atom_site_fract_z
Si Si1 0.954905 0.463890 0.510445
Si Si2 0.802126 0.393222 0.095735
Si Si3 0.391137 0.230185 0.215549
Si Si4 0.827768 0.089159 0.841924
Si Si5 0.039728 0.226681 0.911480
Si Si6 0.625681 0.006753 0.472130
Si Si7 0.564160 0.941195 0.060400
O O1 0.834546 0.401244 0.318053
O O2 0.981097 0.742125 0.503111
O O3 0.989996 0.416008 0.730378
O O4 0.904961 0.525674 0.134210
O O5 0.694993 0.531403 0.931923
O O6 0.801725 0.148363 0.996113
O O7 0.371585 0.329811 0.371311
O O8 0.510997 0.129455 0.353806
O O9 0.387928 0.415913 0.062697
O O10 0.939487 0.185260 0.908100
O O11 0.728767 0.167570 0.624760
O O12 0.859134 0.810854 0.871132
O O13 0.634741 0.914016 0.300812
O O14 0.486867 0.707658 0.987191
#
# Coordination Sequence:
#
# PCOD9117089 Si02
#       7
#     2   2   2   2   2   2   2
#     4  10  22  43  68  96 136 180 234 289 351 419
#     4  11  23  43  69 101 138 186 238 295 364 430
#     4  11  23  46  73 108 146 186 237 304 358 438
#     4  12  23  44  68 100 142 185 242 297 362 433
#     4  11  23  44  65  98 141 183 238 298 356 426
#     4  11  24  45  73 110 140 192 239 293 372 430
#     4  10  24  49  74 107 149 188 242 296 355 436
#
# _framework density 23.812581999999999
#
# number of rings (size 3 to 8) (size 9 to 14) (size 15 to 20)
#    0.000    1.143    4.286    1.714    0.000    2.286 
#   28.286    0.000    0.000    0.000    0.000    0.000 
#    0.000    0.000    0.000    0.000    0.000    0.000 
#
# Total GULP energy -77976.033736 kJ/mol
# GULP energy per Si atom -5569.716695 kJ/mol
# Density = 2.375838 g / cm^3
# Si number density = 23.812582 Si / 1000 Ang^3
#
#
#
# Elastic Constant Matrix: (Units=GPa)
#
#
# Indices 1 2 3 4 5 6 
#
# 1 83.8329 18.4308 56.4751 0.0000 24.2945 0.0000
# 2 18.4308 43.8293 16.2206 0.0000 5.9785 0.0000
# 3 56.4751 16.2206 164.2905 0.0000 5.3718 0.0000
# 4 0.0000 0.0000 0.0000 38.2690 0.0000 -2.4617
# 5 24.2945 5.9785 5.3718 0.0000 39.8321 0.0000
# 6 0.0000 0.0000 0.0000 -2.4617 0.0000 37.2519
#
#
#
# Elastic Compliance Matrix: (Units=1/GPa)
#
#
# Indices 1 2 3 4 5 6 
#
# 1 0.020238 -0.004767 -0.006133 0.000000 -0.010801 0.000000
# 2 -0.004767 0.025231 -0.000827 0.000000 -0.000768 0.000000
# 3 -0.006133 -0.000827 0.008186 0.000000 0.002761 0.000000
# 4 0.000000 0.000000 0.000000 0.026242 0.000000 0.001734
# 5 -0.010801 -0.000768 0.002761 0.000000 0.031436 0.000000
# 6 0.000000 0.000000 0.000000 0.001734 0.000000 0.026959
#
#
# Mechanical properties :
#
#
# Convention : Reuss Voigt Hill
#
# Bulk Modulus (GPa) = 33.11174 52.68951 42.90062
# Shear Modulus (GPa) = 29.10087 36.45901 32.77994
#
# Velocity S-wave (km/s) = 3.49962 3.91715 3.71425
# Velocity P-wave (km/s) = 5.50137 6.52944 6.03733
#
# Compressibility (1/GPa) = 0.03020077
#
# Stress axis : x y z
#
# Youngs Moduli (GPa) = 49.41098 39.63313 122.15308
#
# Poissons Ratio (x) = 0.18895 0.74918
# Poissons Ratio (y) = 0.23556 0.10105
# Poissons Ratio (z) = 0.30304 0.03279
#
# Static dielectric constant tensor:
#      x y z
#    x 2.022620 0.000000 -0.019160 
#    y 0.000000 2.051930 0.000000 
#    z -0.019160 0.000000 1.949360 
# 
# From -- ./inp_files/7067.got.cif
#   From: 2010.05.17/outbox.cif.g08.bks.cpg/sg4_4_cif.got.tgz:7067.got - 2010.06.03 18:43:04.
