data_PCOD9117545
_publ_section_title
;
Structure prediction by ZEFSAII (Michael W. Deem and Ramdas Pophale) SiO2 
 PCOD9117545
Probable space group: P 21
;
_chemical_formula_sum "Si O2"
_cell_formula_units_Z 12
_cell_length_a 19.472481
_cell_length_b 5.212636
_cell_length_c 11.211636
_cell_angle_alpha 90.000000
_cell_angle_beta 20.380397
_cell_angle_gamma 90.000000
_cell_volume 396.314976
_symmetry_space_group_name_H-M "P 21"
_symmetry_group_IT_number 4
_symmetry_cell_setting 'monoclinic'
loop_
_space_group_symop_operation_xyz
x,y,z
-x,1/2+y,-z
loop_
_atom_site_type_symbol
_atom_site_label
_atom_site_fract_x
_atom_site_fract_y
_atom_site_fract_z
Si Si1 0.425937 0.632180 0.189112
Si Si2 0.425937 0.776025 0.689112
Si Si3 0.751282 0.835244 0.798547
Si Si4 0.248719 0.072961 0.701453
Si Si5 0.091036 0.264754 0.711370
Si Si6 0.908964 0.643451 0.788630
O O1 0.200867 0.541067 0.557480
O O2 0.524730 0.370004 0.978050
O O3 0.528400 0.734315 0.143085
O O4 0.524731 0.038200 0.478049
O O5 0.528400 0.673890 0.643085
O O6 0.200868 0.867138 0.057480
O O7 0.822532 0.790925 0.816639
O O8 0.857092 0.107590 0.600516
O O9 0.845750 0.693119 0.525940
O O10 0.177468 0.117279 0.683361
O O11 0.142908 0.800615 0.899484
O O12 0.154250 0.215086 0.974060
#
# Coordination Sequence:
#
# PCOD9117545 Si02
#       6
#     2   2   2   2   2   2
#     4  10  23  44  71 102 137 178 227 282 339 402
#     4  10  23  44  71 102 137 178 227 282 339 402
#     4  10  23  43  66 100 137 179 228 280 340 404
#     4  10  23  43  66 100 137 179 228 280 340 404
#     4  10  23  42  68 100 137 180 228 282 340 404
#     4  10  23  42  68 100 137 180 228 282 340 404
#
# _framework density 30.278946000000001
#
# number of rings (size 3 to 8) (size 9 to 14) (size 15 to 20)
#    0.000    2.000    0.000    1.000    0.000   16.000 
#    0.000   30.000    0.000    0.000    0.000    0.000 
#    0.000    0.000    0.000    0.000    0.000    0.000 
#
# Total GULP energy -66969.497340 kJ/mol
# GULP energy per Si atom -5580.791445 kJ/mol
# Density = 3.021003 g / cm^3
# Si number density = 30.278946 Si / 1000 Ang^3
#
#
#
# Elastic Constant Matrix: (Units=GPa)
#
#
# Indices 1 2 3 4 5 6 
#
# 1 136.6632 16.9047 12.8112 0.0000 38.9063 0.0000
# 2 16.9047 143.9367 17.8938 0.0000 2.5250 0.0000
# 3 12.8112 17.8938 144.4874 0.0000 -17.4780 0.0000
# 4 0.0000 0.0000 0.0000 57.1067 0.0000 8.3700
# 5 38.9063 2.5250 -17.4780 0.0000 54.8950 0.0000
# 6 0.0000 0.0000 0.0000 8.3700 0.0000 74.3014
#
#
#
# Elastic Compliance Matrix: (Units=1/GPa)
#
#
# Indices 1 2 3 4 5 6 
#
# 1 0.009658 -0.000801 -0.001644 0.000000 -0.007331 0.000000
# 2 -0.000801 0.007143 -0.000816 0.000000 -0.000021 0.000000
# 3 -0.001644 -0.000816 0.007606 0.000000 0.003624 0.000000
# 4 0.000000 0.000000 0.000000 0.017805 0.000000 -0.002006
# 5 -0.007331 -0.000021 0.003624 0.000000 0.024567 0.000000
# 6 0.000000 0.000000 0.000000 -0.002006 0.000000 0.013685
#
#
# Mechanical properties :
#
#
# Convention : Reuss Voigt Hill
#
# Bulk Modulus (GPa) = 55.91358 57.81186 56.86272
# Shear Modulus (GPa) = 53.79317 62.42580 58.10948
#
# Velocity S-wave (km/s) = 4.21953 4.54551 4.38555
# Velocity P-wave (km/s) = 6.49965 6.83253 6.66817
#
# Compressibility (1/GPa) = 0.01788474
#
# Stress axis : x y z
#
# Youngs Moduli (GPa) = 103.54539 139.98897 131.47035
#
# Poissons Ratio (x) = 0.11217 0.21613
# Poissons Ratio (y) = 0.08297 0.10729
# Poissons Ratio (z) = 0.17022 0.11425
#
# Static dielectric constant tensor:
#      x y z
#    x 2.359030 0.000000 -0.065300 
#    y 0.000000 2.338120 0.000000 
#    z -0.065300 0.000000 2.569950 
# 
# From -- ./inp_files/13000.got.cif
#   From: 2010.05.17/outbox.cif.g08.bks.cpg/sg4_7_cif.got.tgz:13000.got - 2010.06.03 18:43:04.
