data_PCOD9117296
_publ_section_title
;
Structure prediction by ZEFSAII (Michael W. Deem and Ramdas Pophale) SiO2 
 PCOD9117296
Probable space group: P 21
;
_chemical_formula_sum "Si O2"
_cell_formula_units_Z 16
_cell_length_a 13.853925
_cell_length_b 6.243674
_cell_length_c 9.565073
_cell_angle_alpha 90.000000
_cell_angle_beta 71.572598
_cell_angle_gamma 90.000000
_cell_volume 784.949395
_symmetry_space_group_name_H-M "P 21"
_symmetry_group_IT_number 4
_symmetry_cell_setting 'monoclinic'
loop_
_space_group_symop_operation_xyz
x,y,z
-x,1/2+y,-z
loop_
_atom_site_type_symbol
_atom_site_label
_atom_site_fract_x
_atom_site_fract_y
_atom_site_fract_z
Si Si1 0.360593 0.500000 0.972213
Si Si2 0.040393 0.672013 0.946819
Si Si3 0.561449 0.756908 0.320362
Si Si4 0.162918 0.976036 0.383713
Si Si5 0.508201 0.363008 0.147427
Si Si6 0.006991 0.310572 0.333892
Si Si7 0.379625 0.075230 0.416664
Si Si8 0.161125 0.637590 0.148733
O O1 0.369510 0.395821 0.816288
O O2 0.386402 0.749085 0.939354
O O3 0.450603 0.420251 0.031570
O O4 0.254854 0.473361 0.099765
O O5 0.035121 0.686991 0.782558
O O6 0.140369 0.690851 0.996360
O O7 0.008626 0.415151 0.990767
O O8 0.531040 0.555860 0.240090
O O9 0.455421 0.874900 0.404648
O O10 0.617333 0.700896 0.438312
O O11 0.266663 0.022724 0.418208
O O12 0.186519 0.835182 0.236067
O O13 0.085166 0.849380 0.519301
O O14 0.098100 0.181001 0.365017
O O15 0.435692 0.205193 0.267967
O O16 0.058937 0.530173 0.256465
#
# Coordination Sequence:
#
# PCOD9117296 Si02
#       8
#     2   2   2   2   2   2   2   2
#     4  11  24  40  67 100 131 179 228 282 354 421
#     4  10  22  45  72  97 140 187 230 303 358 414
#     4  11  23  46  65 101 139 171 232 286 344 432
#     4  12  24  44  70  99 134 187 234 291 356 433
#     4  11  22  42  66  96 137 173 225 288 344 424
#     4  11  24  46  67 100 138 178 246 293 350 432
#     4  11  25  43  71  97 138 184 222 287 357 419
#     4  11  24  44  68  98 135 181 233 296 357 427
#
# _framework density 20.383479000000001
#
# number of rings (size 3 to 8) (size 9 to 14) (size 15 to 20)
#    0.000    1.000    5.000    1.500    1.750    2.000 
#   11.250    0.000    0.000    0.000    0.000    0.000 
#    0.000    0.000    0.000    0.000    0.000    0.000 
#
# Total GULP energy -89167.822852 kJ/mol
# GULP energy per Si atom -5572.988928 kJ/mol
# Density = 2.033709 g / cm^3
# Si number density = 20.383479 Si / 1000 Ang^3
#
#
#
# Elastic Constant Matrix: (Units=GPa)
#
#
# Indices 1 2 3 4 5 6 
#
# 1 109.9689 20.2211 31.1727 0.0000 8.6824 0.0000
# 2 20.2211 53.3201 2.9099 0.0000 2.3370 0.0000
# 3 31.1727 2.9099 49.9069 0.0000 0.1633 0.0000
# 4 0.0000 0.0000 0.0000 36.2596 0.0000 11.3625
# 5 8.6824 2.3370 0.1633 0.0000 38.5113 0.0000
# 6 0.0000 0.0000 0.0000 11.3625 0.0000 22.3468
#
#
#
# Elastic Compliance Matrix: (Units=1/GPa)
#
#
# Indices 1 2 3 4 5 6 
#
# 1 0.012114 -0.004087 -0.007320 0.000000 -0.002452 0.000000
# 2 -0.004087 0.020243 0.001374 0.000000 -0.000313 0.000000
# 3 -0.007320 0.001374 0.024525 0.000000 0.001463 0.000000
# 4 0.000000 0.000000 0.000000 0.032806 0.000000 -0.016681
# 5 -0.002452 -0.000313 0.001463 0.000000 0.026532 0.000000
# 6 0.000000 0.000000 0.000000 -0.016681 0.000000 0.053231
#
#
# Mechanical properties :
#
#
# Convention : Reuss Voigt Hill
#
# Bulk Modulus (GPa) = 27.16318 35.75595 31.45957
# Shear Modulus (GPa) = 24.77839 30.01637 27.39738
#
# Velocity S-wave (km/s) = 3.49034 3.84159 3.67017
# Velocity P-wave (km/s) = 5.44044 6.10383 5.78166
#
# Compressibility (1/GPa) = 0.03681453
#
# Stress axis : x y z
#
# Youngs Moduli (GPa) = 82.55191 49.39892 40.77531
#
# Poissons Ratio (x) = 0.20189 0.29848
# Poissons Ratio (y) = 0.33739 -0.05601
# Poissons Ratio (z) = 0.60428 -0.06785
#
# Static dielectric constant tensor:
#      x y z
#    x 1.696690 0.000000 -0.001930 
#    y 0.000000 1.807940 0.000000 
#    z -0.001930 0.000000 1.706530 
# 
# From -- ./inp_files/7419.got.cif
#   From: 2010.05.17/outbox.cif.g08.bks.cpg/sg4_4_cif.got.tgz:7419.got - 2010.06.03 18:43:04.
