data_PCOD9117661
_publ_section_title
;
Structure prediction by ZEFSAII (Michael W. Deem and Ramdas Pophale) SiO2 
 PCOD9117661
Probable space group: P 21
;
_chemical_formula_sum "Si O2"
_cell_formula_units_Z 14
_cell_length_a 6.209262
_cell_length_b 5.266801
_cell_length_c 25.080568
_cell_angle_alpha 90.000000
_cell_angle_beta 137.420852
_cell_angle_gamma 90.000000
_cell_volume 554.959655
_symmetry_space_group_name_H-M "P 21"
_symmetry_group_IT_number 4
_symmetry_cell_setting 'monoclinic'
loop_
_space_group_symop_operation_xyz
x,y,z
-x,1/2+y,-z
loop_
_atom_site_type_symbol
_atom_site_label
_atom_site_fract_x
_atom_site_fract_y
_atom_site_fract_z
Si Si1 0.942372 0.764480 0.956622
Si Si2 0.260112 0.955076 0.231080
Si Si3 0.777907 0.352712 0.191291
Si Si4 0.674791 0.368913 0.283549
Si Si5 0.971360 0.581052 0.125497
Si Si6 0.311591 0.170362 0.613020
Si Si7 0.353476 0.960085 0.501881
O O1 0.574317 0.738252 0.872666
O O2 0.126195 0.909193 0.941397
O O3 0.049366 0.491511 0.997592
O O4 0.049759 0.877658 0.140478
O O5 0.378200 0.787973 0.302330
O O6 0.588303 0.073736 0.269381
O O7 0.037761 0.158238 0.218825
O O8 0.870829 0.437173 0.267323
O O9 0.768860 0.557043 0.142261
O O10 0.333710 0.500074 0.207567
O O11 0.784586 0.455423 0.361140
O O12 0.394215 0.063077 0.570009
O O13 0.016369 0.366570 0.561874
O O14 0.543867 0.701157 0.517482
#
# Coordination Sequence:
#
# PCOD9117661 Si02
#       7
#     2   2   2   2   2   2   2
#     4  11  27  44  74 103 149 197 242 302 381 448
#     4  10  23  43  78 103 151 188 253 319 381 434
#     4  10  23  44  73 107 142 192 255 306 378 457
#     4   9  22  43  70 103 142 190 238 315 376 435
#     4   9  22  43  66 102 140 182 245 306 357 451
#     4  11  27  52  72 113 158 200 267 332 379 478
#     4  12  30  51  81 113 164 217 262 324 408 479
#
# _framework density 25.227062
#
# number of rings (size 3 to 8) (size 9 to 14) (size 15 to 20)
#    0.000    1.714    0.000    0.857   14.000    8.000 
#    0.000    0.000    0.000    0.000    0.000    0.000 
#    0.000    0.000    0.000    0.000    0.000    0.000 
#
# Total GULP energy -77977.126668 kJ/mol
# GULP energy per Si atom -5569.794762 kJ/mol
# Density = 2.516964 g / cm^3
# Si number density = 25.227062 Si / 1000 Ang^3
#
#
#
# Elastic Constant Matrix: (Units=GPa)
#
#
# Indices 1 2 3 4 5 6 
#
# 1 115.5601 28.8289 35.2627 0.0000 -32.4899 0.0000
# 2 28.8289 74.2329 24.5370 0.0000 -15.3121 0.0000
# 3 35.2627 24.5370 82.1088 0.0000 -28.0763 0.0000
# 4 0.0000 0.0000 0.0000 50.2860 0.0000 -0.8631
# 5 -32.4899 -15.3121 -28.0763 0.0000 53.8106 0.0000
# 6 0.0000 0.0000 0.0000 -0.8631 0.0000 41.5866
#
#
#
# Elastic Compliance Matrix: (Units=1/GPa)
#
#
# Indices 1 2 3 4 5 6 
#
# 1 0.011427 -0.002620 -0.002459 0.000000 0.004871 0.000000
# 2 -0.002620 0.015795 -0.003163 0.000000 0.001262 0.000000
# 3 -0.002459 -0.003163 0.016267 0.000000 0.006103 0.000000
# 4 0.000000 0.000000 0.000000 0.019893 0.000000 0.000413
# 5 0.004871 0.001262 0.006103 0.000000 0.025068 0.000000
# 6 0.000000 0.000000 0.000000 0.000413 0.000000 0.024055
#
#
# Mechanical properties :
#
#
# Convention : Reuss Voigt Hill
#
# Bulk Modulus (GPa) = 37.03170 49.90656 43.46913
# Shear Modulus (GPa) = 36.23438 41.35484 38.79461
#
# Velocity S-wave (km/s) = 3.79401 4.05323 3.92576
# Velocity P-wave (km/s) = 5.82270 6.45993 6.14958
#
# Compressibility (1/GPa) = 0.02700389
#
# Stress axis : x y z
#
# Youngs Moduli (GPa) = 87.51249 63.31286 61.47406
#
# Poissons Ratio (x) = 0.16590 0.15116
# Poissons Ratio (y) = 0.22931 0.19445
# Poissons Ratio (z) = 0.21518 0.20027
#
# Static dielectric constant tensor:
#      x y z
#    x 2.068700 0.000000 -0.017050 
#    y 0.000000 2.521020 0.000000 
#    z -0.017050 0.000000 2.055990 
# 
# From -- ./inp_files/15286.got.cif
#   From: 2010.05.17/outbox.cif.g08.bks.cpg/sg4_8_cif.got.tgz:15286.got - 2010.06.03 18:43:04.
