data_PCOD9117684
_publ_section_title
;
Structure prediction by ZEFSAII (Michael W. Deem and Ramdas Pophale) SiO2 
 PCOD9117684
Probable space group: P 21
;
_chemical_formula_sum "Si O2"
_cell_formula_units_Z 16
_cell_length_a 9.039420
_cell_length_b 13.647481
_cell_length_c 6.936997
_cell_angle_alpha 90.000000
_cell_angle_beta 49.964493
_cell_angle_gamma 90.000000
_cell_volume 655.228171
_symmetry_space_group_name_H-M "P 21"
_symmetry_group_IT_number 4
_symmetry_cell_setting 'monoclinic'
loop_
_space_group_symop_operation_xyz
x,y,z
-x,1/2+y,-z
loop_
_atom_site_type_symbol
_atom_site_label
_atom_site_fract_x
_atom_site_fract_y
_atom_site_fract_z
Si Si1 0.771992 0.281850 0.448026
Si Si2 0.462346 0.260393 0.412192
Si Si3 0.475849 0.186140 0.971805
Si Si4 0.949412 0.489376 0.286343
Si Si5 0.358562 0.492981 0.003417
Si Si6 0.749822 0.935853 0.502233
Si Si7 0.052876 0.099115 0.308925
Si Si8 0.419081 0.038291 0.548579
O O1 0.667326 0.296357 0.327589
O O2 0.584629 0.258871 0.736756
O O3 0.890861 0.379536 0.399371
O O4 0.912177 0.188293 0.361502
O O5 0.282010 0.334449 0.586404
O O6 0.439221 0.153704 0.520158
O O7 0.466187 0.240311 0.183125
O O8 0.612913 0.094356 0.907425
O O9 0.729970 0.638615 0.916322
O O10 0.803563 0.516377 0.239740
O O11 0.167978 0.494372 0.033919
O O12 0.933610 0.569387 0.472934
O O13 0.301290 0.421896 0.226689
O O14 0.529851 0.490288 0.705130
O O15 0.944859 0.999227 0.327153
O O16 0.568832 0.997284 0.573042
#
# Coordination Sequence:
#
# PCOD9117684 Si02
#       8
#     2   2   2   2   2   2   2   2
#     4  12  25  47  69 102 146 178 239 301 347 412
#     4  11  24  42  73 103 133 187 236 294 343 420
#     4  11  24  46  74  96 144 184 233 289 360 413
#     4  11  23  41  74 100 135 185 229 287 358 409
#     4  10  23  44  67  95 133 187 221 284 349 416
#     4  11  23  44  69 100 142 179 241 286 348 422
#     4  11  24  44  70 102 136 191 227 290 351 424
#     4  11  22  46  68  96 145 179 228 297 348 412
#
# _framework density 24.418975
#
# number of rings (size 3 to 8) (size 9 to 14) (size 15 to 20)
#    0.000    1.000    7.500    0.000    5.250    0.000 
#    4.500    3.750    0.000    0.000    0.000    0.000 
#    0.000    0.000    0.000    0.000    0.000    0.000 
#
# Total GULP energy -89304.869728 kJ/mol
# GULP energy per Si atom -5581.554358 kJ/mol
# Density = 2.436340 g / cm^3
# Si number density = 24.418975 Si / 1000 Ang^3
#
#
#
# Elastic Constant Matrix: (Units=GPa)
#
#
# Indices 1 2 3 4 5 6 
#
# 1 162.1358 32.8598 36.3467 0.0000 -18.6632 0.0000
# 2 32.8598 57.3952 2.4684 0.0000 -7.2015 0.0000
# 3 36.3467 2.4684 59.2046 0.0000 -7.2618 0.0000
# 4 0.0000 0.0000 0.0000 27.0752 0.0000 -5.0832
# 5 -18.6632 -7.2015 -7.2618 0.0000 38.4368 0.0000
# 6 0.0000 0.0000 0.0000 -5.0832 0.0000 50.0112
#
#
#
# Elastic Compliance Matrix: (Units=1/GPa)
#
#
# Indices 1 2 3 4 5 6 
#
# 1 0.008354 -0.004284 -0.004659 0.000000 0.002373 0.000000
# 2 -0.004284 0.020047 0.002047 0.000000 0.002062 0.000000
# 3 -0.004659 0.002047 0.019896 0.000000 0.001880 0.000000
# 4 0.000000 0.000000 0.000000 0.037653 0.000000 0.003827
# 5 0.002373 0.002062 0.001880 0.000000 0.027911 0.000000
# 6 0.000000 0.000000 0.000000 0.003827 0.000000 0.020384
#
#
# Mechanical properties :
#
#
# Convention : Reuss Voigt Hill
#
# Bulk Modulus (GPa) = 28.98141 46.89838 37.93989
# Shear Modulus (GPa) = 31.34072 36.90870 34.12471
#
# Velocity S-wave (km/s) = 3.58642 3.89199 3.74233
# Velocity P-wave (km/s) = 5.38926 6.28046 5.85185
#
# Compressibility (1/GPa) = 0.03450488
#
# Stress axis : x y z
#
# Youngs Moduli (GPa) = 119.71016 49.88355 50.26166
#
# Poissons Ratio (x) = 0.21372 0.23415
# Poissons Ratio (y) = 0.51289 -0.10291
# Poissons Ratio (z) = 0.55769 -0.10213
#
# Static dielectric constant tensor:
#      x y z
#    x 1.962390 0.000000 0.041560 
#    y 0.000000 2.009220 0.000000 
#    z 0.041560 0.000000 1.962210 
# 
# From -- ./inp_files/6419.got.cif
#   From: 2010.05.17/outbox.cif.g08.bks.cpg/sg4_4_cif.got.tgz:6419.got - 2010.06.03 18:43:04.
