data_PCOD9117526
_publ_section_title
;
Structure prediction by ZEFSAII (Michael W. Deem and Ramdas Pophale) SiO2 
 PCOD9117526
Probable space group: P 21
;
_chemical_formula_sum "Si O2"
_cell_formula_units_Z 16
_cell_length_a 11.785742
_cell_length_b 5.650634
_cell_length_c 29.118336
_cell_angle_alpha 90.000000
_cell_angle_beta 157.774687
_cell_angle_gamma 90.000000
_cell_volume 733.498724
_symmetry_space_group_name_H-M "P 21"
_symmetry_group_IT_number 4
_symmetry_cell_setting 'monoclinic'
loop_
_space_group_symop_operation_xyz
x,y,z
-x,1/2+y,-z
loop_
_atom_site_type_symbol
_atom_site_label
_atom_site_fract_x
_atom_site_fract_y
_atom_site_fract_z
Si Si1 0.602400 0.324290 0.651193
Si Si2 0.693109 0.218934 0.123306
Si Si3 0.602503 0.221938 0.979261
Si Si4 0.815722 0.174405 0.563827
Si Si5 0.769179 0.565892 0.798722
Si Si6 0.710116 0.445171 0.401799
Si Si7 0.708788 0.793374 0.329024
Si Si8 0.762475 0.955775 0.638747
O O1 0.373689 0.511911 0.542757
O O2 0.830053 0.396348 0.777578
O O3 0.398679 0.135829 0.602173
O O4 0.777144 0.182402 0.677333
O O5 0.556970 0.469361 0.090659
O O6 0.043125 0.245537 0.266582
O O7 0.558156 0.972474 0.091495
O O8 0.648934 0.226042 0.051912
O O9 0.928802 0.204498 0.077826
O O10 0.876403 0.018121 0.631114
O O11 0.584456 0.378119 0.492744
O O12 0.112745 0.280228 0.651498
O O13 0.599356 0.431375 0.776528
O O14 0.519771 0.731971 0.682387
O O15 0.673050 0.530854 0.335696
O O16 0.046777 0.390234 0.542495
#
# Coordination Sequence:
#
# PCOD9117526 Si02
#       8
#     2   2   2   2   2   2   2   2
#     4  11  21  35  60  89 134 174 217 264 329 412
#     4  10  24  40  66  96 137 169 231 280 345 397
#     4  10  23  42  64  98 130 176 221 288 346 409
#     4  12  24  40  59  93 136 179 226 259 339 414
#     4  11  23  36  64  91 137 170 217 281 346 402
#     4  11  19  33  55  88 127 168 204 271 334 391
#     4  11  21  34  56  94 129 173 219 265 331 414
#     4  12  25  40  64  93 136 183 219 280 326 419
#
# _framework density 21.81326
#
# number of rings (size 3 to 8) (size 9 to 14) (size 15 to 20)
#    0.000    1.000    5.000    2.250   10.500    0.000 
#    0.000    0.000    0.000    0.000    3.250    0.000 
#    0.000    0.000    0.000    0.000    0.000    0.000 
#
# Total GULP energy -89334.225654 kJ/mol
# GULP energy per Si atom -5583.389103 kJ/mol
# Density = 2.176361 g / cm^3
# Si number density = 21.813260 Si / 1000 Ang^3
#
#
#
# Elastic Constant Matrix: (Units=GPa)
#
#
# Indices 1 2 3 4 5 6 
#
# 1 100.3277 29.1643 23.1322 0.0000 15.7177 0.0000
# 2 29.1643 82.8600 22.8650 0.0000 11.0551 0.0001
# 3 23.1322 22.8650 51.5410 -0.0002 17.7668 0.0006
# 4 0.0000 0.0000 -0.0002 25.2340 -0.0001 13.6628
# 5 15.7177 11.0551 17.7668 -0.0001 22.0836 0.0000
# 6 0.0000 0.0001 0.0006 13.6628 0.0000 24.0146
#
#
#
# Elastic Compliance Matrix: (Units=1/GPa)
#
#
# Indices 1 2 3 4 5 6 
#
# 1 0.012194 -0.002937 -0.002332 0.000000 -0.005333 0.000000
# 2 -0.002937 0.014580 -0.004642 0.000000 -0.001474 0.000000
# 3 -0.002332 -0.004642 0.029245 0.000001 -0.019545 -0.000001
# 4 0.000000 0.000000 0.000001 0.057271 0.000000 -0.032584
# 5 -0.005333 -0.001474 -0.019545 0.000000 0.065541 0.000001
# 6 0.000000 0.000000 -0.000001 -0.032584 0.000001 0.060180
#
#
# Mechanical properties :
#
#
# Convention : Reuss Voigt Hill
#
# Bulk Modulus (GPa) = 27.62555 42.78351 35.20453
# Shear Modulus (GPa) = 18.45712 24.90425 21.68068
#
# Velocity S-wave (km/s) = 2.91201 3.38257 3.15607
# Velocity P-wave (km/s) = 4.89882 5.90863 5.42726
#
# Compressibility (1/GPa) = 0.03619838
#
# Stress axis : x y z
#
# Youngs Moduli (GPa) = 82.00634 68.58789 34.19359
#
# Poissons Ratio (x) = 0.20145 0.07973
# Poissons Ratio (y) = 0.24086 0.15872
# Poissons Ratio (z) = 0.19121 0.31837
#
# Static dielectric constant tensor:
#      x y z
#    x 1.820290 0.000000 0.039080 
#    y 0.000000 1.918520 0.000000 
#    z 0.039080 0.000000 1.811800 
# 
# From -- ./inp_files/11508.got.cif
#   From: 2010.05.17/outbox.cif.g08.bks.cpg/sg4_6_cif.got.tgz:11508.got - 2010.06.03 18:43:04.
