data_PCOD9117939
_publ_section_title
;
Structure prediction by ZEFSAII (Michael W. Deem and Ramdas Pophale) SiO2 
 PCOD9117939
Probable space group: P 21
;
_chemical_formula_sum "Si O2"
_cell_formula_units_Z 14
_cell_length_a 9.828828
_cell_length_b 7.816331
_cell_length_c 8.899098
_cell_angle_alpha 90.000000
_cell_angle_beta 87.649478
_cell_angle_gamma 90.000000
_cell_volume 683.101291
_symmetry_space_group_name_H-M "P 21"
_symmetry_group_IT_number 4
_symmetry_cell_setting 'monoclinic'
loop_
_space_group_symop_operation_xyz
x,y,z
-x,1/2+y,-z
loop_
_atom_site_type_symbol
_atom_site_label
_atom_site_fract_x
_atom_site_fract_y
_atom_site_fract_z
Si Si1 0.284072 0.994070 0.569626
Si Si2 0.505241 0.905609 0.791222
Si Si3 0.676657 0.370674 0.748270
Si Si4 0.770267 0.733757 0.684249
Si Si5 0.960881 0.387104 0.206911
Si Si6 0.431000 0.524811 0.893726
Si Si7 0.834055 0.128870 0.972630
O O1 0.418413 0.987521 0.663428
O O2 0.296189 0.856776 0.431332
O O3 0.156023 0.957365 0.680036
O O4 0.263443 0.171280 0.481965
O O5 0.661692 0.875313 0.738434
O O6 0.447787 0.714609 0.826025
O O7 0.496974 0.007382 0.947065
O O8 0.739848 0.559875 0.780283
O O9 0.515784 0.394383 0.786954
O O10 0.747113 0.234399 0.852412
O O11 0.922969 0.791746 0.702027
O O12 0.892822 0.259550 0.091429
O O13 0.043437 0.531136 0.112653
O O14 0.271730 0.502385 0.936757
#
# Coordination Sequence:
#
# PCOD9117939 Si02
#       7
#     2   2   2   2   2   2   2
#     4  10  24  41  65  93 139 166 211 276 334 397
#     4  11  21  44  67  97 128 174 221 278 328 384
#     4   9  22  41  65  95 135 168 221 275 324 387
#     4   9  23  42  63  95 133 172 220 271 322 403
#     4  12  24  43  69  97 136 174 223 264 342 393
#     4  11  20  41  68  97 128 165 229 273 322 381
#     4  12  24  42  69 100 129 185 217 279 324 399
#
# _framework density 20.494765000000001
#
# number of rings (size 3 to 8) (size 9 to 14) (size 15 to 20)
#    0.857    0.571    4.286    0.857    2.000    2.286 
#    0.000    1.429    0.000    0.000    0.000    0.000 
#    0.000    0.000    0.000    0.000    0.000    0.000 
#
# Total GULP energy -78140.006908 kJ/mol
# GULP energy per Si atom -5581.429065 kJ/mol
# Density = 2.044812 g / cm^3
# Si number density = 20.494765 Si / 1000 Ang^3
#
#
#
# Elastic Constant Matrix: (Units=GPa)
#
#
# Indices 1 2 3 4 5 6 
#
# 1 108.8503 32.7794 41.2953 0.0000 -21.6563 0.0000
# 2 32.7794 45.8381 25.5365 0.0000 -1.4153 0.0000
# 3 41.2953 25.5365 96.4506 0.0000 -6.1248 0.0000
# 4 0.0000 0.0000 0.0000 38.9497 0.0000 1.7254
# 5 -21.6563 -1.4153 -6.1248 0.0000 26.8479 0.0000
# 6 0.0000 0.0000 0.0000 1.7254 0.0000 21.5757
#
#
#
# Elastic Compliance Matrix: (Units=1/GPa)
#
#
# Indices 1 2 3 4 5 6 
#
# 1 0.015362 -0.008647 -0.003582 0.000000 0.011118 0.000000
# 2 -0.008647 0.030458 -0.004772 0.000000 -0.006458 0.000000
# 3 -0.003582 -0.004772 0.013156 0.000000 -0.000139 0.000000
# 4 0.000000 0.000000 0.000000 0.025765 0.000000 -0.002060
# 5 0.011118 -0.006458 -0.000139 0.000000 0.045843 0.000000
# 6 0.000000 0.000000 0.000000 -0.002060 0.000000 0.046513
#
#
# Mechanical properties :
#
#
# Convention : Reuss Voigt Hill
#
# Bulk Modulus (GPa) = 40.04006 50.04016 45.04011
# Shear Modulus (GPa) = 22.78688 27.57650 25.18169
#
# Velocity S-wave (km/s) = 3.33804 3.67214 3.50907
# Velocity P-wave (km/s) = 5.86821 6.51525 6.20018
#
# Compressibility (1/GPa) = 0.02497499
#
# Stress axis : x y z
#
# Youngs Moduli (GPa) = 65.09697 32.83158 76.00972
#
# Poissons Ratio (x) = 0.28388 0.27225
# Poissons Ratio (y) = 0.56287 0.36274
# Poissons Ratio (z) = 0.23316 0.15668
#
# Static dielectric constant tensor:
#      x y z
#    x 1.719620 0.000000 -0.024740 
#    y 0.000000 1.754830 0.000000 
#    z -0.024740 0.000000 1.714360 
# 
# From -- ./inp_files/5715.got.cif
#   From: 2010.05.17/outbox.cif.g08.bks.cpg/sg4_3_cif.got.tgz:5715.got - 2010.06.03 18:43:04.
