data_PCOD9117420
_publ_section_title
;
Structure prediction by ZEFSAII (Michael W. Deem and Ramdas Pophale) SiO2 
 PCOD9117420
Probable space group: P 21
;
_chemical_formula_sum "Si O2"
_cell_formula_units_Z 14
_cell_length_a 6.970047
_cell_length_b 10.205277
_cell_length_c 11.598584
_cell_angle_alpha 90.000000
_cell_angle_beta 55.640028
_cell_angle_gamma 90.000000
_cell_volume 681.062172
_symmetry_space_group_name_H-M "P 21"
_symmetry_group_IT_number 4
_symmetry_cell_setting 'monoclinic'
loop_
_space_group_symop_operation_xyz
x,y,z
-x,1/2+y,-z
loop_
_atom_site_type_symbol
_atom_site_label
_atom_site_fract_x
_atom_site_fract_y
_atom_site_fract_z
Si Si1 0.881754 0.864700 0.457964
Si Si2 0.444289 0.554315 0.296624
Si Si3 0.317009 0.799856 0.184499
Si Si4 0.981491 0.719298 0.643831
Si Si5 0.567190 0.543530 0.720950
Si Si6 0.500117 0.156273 0.484278
Si Si7 0.507916 0.303488 0.133484
O O1 0.765961 0.989771 0.558131
O O2 0.029456 0.798913 0.510989
O O3 0.051308 0.847661 0.292415
O O4 0.168486 0.090869 0.340732
O O5 0.363040 0.660784 0.230619
O O6 0.574419 0.622113 0.360076
O O7 0.561572 0.433265 0.189343
O O8 0.468954 0.909462 0.200424
O O9 0.383374 0.800384 0.028795
O O10 0.776785 0.797833 0.779933
O O11 0.228243 0.694317 0.616061
O O12 0.338960 0.271533 0.491398
O O13 0.534159 0.538056 0.595319
O O14 0.430631 0.669320 0.818771
#
# Coordination Sequence:
#
# PCOD9117420 Si02
#       7
#     2   2   2   2   2   2   2
#     4  10  23  39  63  97 128 166 216 266 319 375
#     4  11  23  39  67  97 125 171 220 264 318 383
#     4  12  22  40  70  94 131 173 215 260 333 393
#     4   8  18  42  63  87 127 167 208 264 317 378
#     4   9  22  39  66  93 125 171 206 272 321 370
#     4  11  20  40  67  97 125 163 221 269 313 379
#     4   9  22  45  64  89 135 175 206 263 333 386
#
# _framework density 20.556125000000002
#
# number of rings (size 3 to 8) (size 9 to 14) (size 15 to 20)
#    0.857    1.143    2.857    1.714    4.000    0.000 
#    2.571    1.429    3.143    0.000    0.000    0.000 
#    0.000    0.000    0.000    0.000    0.000    0.000 
#
# Total GULP energy -77942.307126 kJ/mol
# GULP energy per Si atom -5567.307652 kJ/mol
# Density = 2.050934 g / cm^3
# Si number density = 20.556125 Si / 1000 Ang^3
#
#
#
# Elastic Constant Matrix: (Units=GPa)
#
#
# Indices 1 2 3 4 5 6 
#
# 1 69.7084 4.1092 17.0947 0.0000 7.8509 0.0000
# 2 4.1092 86.6425 19.6191 0.0000 12.6488 0.0000
# 3 17.0947 19.6191 149.4505 0.0000 13.9151 0.0000
# 4 0.0000 0.0000 0.0000 25.9618 0.0000 11.4429
# 5 7.8509 12.6488 13.9151 0.0000 23.6014 0.0000
# 6 0.0000 0.0000 0.0000 11.4429 0.0000 11.6769
#
#
#
# Elastic Compliance Matrix: (Units=1/GPa)
#
#
# Indices 1 2 3 4 5 6 
#
# 1 0.015156 0.000225 -0.001357 0.000000 -0.004362 0.000000
# 2 0.000225 0.012691 -0.001113 0.000000 -0.006221 0.000000
# 3 -0.001357 -0.001113 0.007295 0.000000 -0.003254 0.000000
# 4 0.000000 0.000000 0.000000 0.067805 0.000000 -0.066446
# 5 -0.004362 -0.006221 -0.003254 0.000000 0.049073 0.000000
# 6 0.000000 0.000000 0.000000 -0.066446 0.000000 0.150754
#
#
# Mechanical properties :
#
#
# Convention : Reuss Voigt Hill
#
# Bulk Modulus (GPa) = 32.62210 43.04970 37.83590
# Shear Modulus (GPa) = 15.74891 29.91325 22.83108
#
# Velocity S-wave (km/s) = 2.77093 3.81885 3.33629
# Velocity P-wave (km/s) = 5.11289 6.35868 5.76951
#
# Compressibility (1/GPa) = 0.03065407
#
# Stress axis : x y z
#
# Youngs Moduli (GPa) = 65.97920 78.79563 137.07282
#
# Poissons Ratio (x) = -0.01775 0.18601
# Poissons Ratio (y) = -0.01487 0.15251
# Poissons Ratio (z) = 0.08954 0.08767
#
# Static dielectric constant tensor:
#      x y z
#    x 1.773500 0.000000 -0.013480 
#    y 0.000000 1.885960 0.000000 
#    z -0.013480 0.000000 1.717930 
# 
# From -- ./inp_files/11013.got.cif
#   From: 2010.05.17/outbox.cif.g08.bks.cpg/sg4_6_cif.got.tgz:11013.got - 2010.06.03 18:43:04.
