data_PCOD9117141
_publ_section_title
;
Structure prediction by ZEFSAII (Michael W. Deem and Ramdas Pophale) SiO2 
 PCOD9117141
Probable space group: P 21
;
_chemical_formula_sum "Si O2"
_cell_formula_units_Z 16
_cell_length_a 9.549755
_cell_length_b 8.566502
_cell_length_c 11.084685
_cell_angle_alpha 90.000000
_cell_angle_beta 47.715706
_cell_angle_gamma 90.000000
_cell_volume 670.876477
_symmetry_space_group_name_H-M "P 21"
_symmetry_group_IT_number 4
_symmetry_cell_setting 'monoclinic'
loop_
_space_group_symop_operation_xyz
x,y,z
-x,1/2+y,-z
loop_
_atom_site_type_symbol
_atom_site_label
_atom_site_fract_x
_atom_site_fract_y
_atom_site_fract_z
Si Si1 0.882452 0.574100 0.200884
Si Si2 0.933754 0.868113 0.712315
Si Si3 0.505564 0.779905 0.966793
Si Si4 0.971797 0.568048 0.546155
Si Si5 0.170394 0.392696 0.624229
Si Si6 0.557050 0.478496 0.793218
Si Si7 0.758687 0.080139 0.180918
Si Si8 0.438683 0.906073 0.745382
O O1 0.848592 0.722857 0.305814
O O2 0.700379 0.538013 0.224552
O O3 0.939757 0.425998 0.250905
O O4 0.062970 0.599427 0.010401
O O5 0.728964 0.801784 0.864644
O O6 0.021984 0.732125 0.577842
O O7 0.910907 0.016096 0.637283
O O8 0.472625 0.606438 0.936431
O O9 0.451293 0.888166 0.882982
O O10 0.407503 0.827072 0.147418
O O11 0.002172 0.441187 0.633580
O O12 0.751000 0.557661 0.636283
O O13 0.176289 0.514395 0.730047
O O14 0.356739 0.414057 0.434485
O O15 0.399094 0.462467 0.783013
O O16 0.652155 0.243801 0.247337
#
# Coordination Sequence:
#
# PCOD9117141 Si02
#       8
#     2   2   2   2   2   2   2   2
#     4  12  26  43  72  97 134 182 222 282 337 399
#     4  11  23  44  67  99 135 171 224 272 333 396
#     4  10  22  44  65  96 133 167 221 272 333 393
#     4  11  25  42  69 100 134 176 220 275 329 405
#     4  12  26  45  69  99 135 180 225 277 341 398
#     4  10  24  40  69  96 133 172 215 277 328 398
#     4  11  25  46  67  99 135 175 229 277 334 404
#     4  11  25  46  68  96 137 177 224 282 331 405
#
# _framework density 23.849397
#
# number of rings (size 3 to 8) (size 9 to 14) (size 15 to 20)
#    0.000    1.000    2.500    3.000   10.500    2.000 
#    0.000    0.000    0.000    0.000    0.000    0.000 
#    0.000    0.000    0.000    0.000    0.000    0.000 
#
# Total GULP energy -89582.886529 kJ/mol
# GULP energy per Si atom -5598.930408 kJ/mol
# Density = 2.379511 g / cm^3
# Si number density = 23.849397 Si / 1000 Ang^3
#
#
#
# Elastic Constant Matrix: (Units=GPa)
#
#
# Indices 1 2 3 4 5 6 
#
# 1 100.8696 -6.1157 8.5447 0.0000 -3.2222 0.0000
# 2 -6.1157 40.0891 -8.1136 0.0000 -3.8198 0.0000
# 3 8.5447 -8.1136 55.7989 0.0000 -8.9163 0.0000
# 4 0.0000 0.0000 0.0000 36.2553 0.0000 7.4522
# 5 -3.2222 -3.8198 -8.9163 0.0000 29.5698 0.0000
# 6 0.0000 0.0000 0.0000 7.4522 0.0000 39.7842
#
#
#
# Elastic Compliance Matrix: (Units=1/GPa)
#
#
# Indices 1 2 3 4 5 6 
#
# 1 0.010129 0.001390 -0.001202 0.000000 0.000921 0.000000
# 2 0.001390 0.026521 0.004429 0.000000 0.004913 0.000000
# 3 -0.001202 0.004429 0.019773 0.000000 0.006403 0.000000
# 4 0.000000 0.000000 0.000000 0.028687 0.000000 -0.005373
# 5 0.000921 0.004913 0.006403 0.000000 0.036484 0.000000
# 6 0.000000 0.000000 0.000000 -0.005373 0.000000 0.026142
#
#
# Mechanical properties :
#
#
# Convention : Reuss Voigt Hill
#
# Bulk Modulus (GPa) = 15.23100 20.59871 17.91486
# Shear Modulus (GPa) = 31.17437 34.61801 32.89619
#
# Velocity S-wave (km/s) = 3.61935 3.81402 3.71796
# Velocity P-wave (km/s) = 4.88533 5.29636 5.09499
#
# Compressibility (1/GPa) = 0.06565557
#
# Stress axis : x y z
#
# Youngs Moduli (GPa) = 98.72368 37.70623 50.57476
#
# Poissons Ratio (x) = -0.05240 0.06079
# Poissons Ratio (y) = -0.13720 -0.22397
# Poissons Ratio (z) = 0.11866 -0.16698
#
# Static dielectric constant tensor:
#      x y z
#    x 1.903490 0.000000 -0.020280 
#    y 0.000000 1.952150 0.000000 
#    z -0.020280 0.000000 1.894870 
# 
# From -- ./inp_files/5383.got.cif
#   From: 2010.05.17/outbox.cif.g08.bks.cpg/sg4_3_cif.got.tgz:5383.got - 2010.06.03 18:43:04.
