data_PCOD9117702
_publ_section_title
;
Structure prediction by ZEFSAII (Michael W. Deem and Ramdas Pophale) SiO2 
 PCOD9117702
Probable space group: P 21
;
_chemical_formula_sum "Si O2"
_cell_formula_units_Z 16
_cell_length_a 10.816814
_cell_length_b 10.521562
_cell_length_c 6.569570
_cell_angle_alpha 90.000000
_cell_angle_beta 92.038257
_cell_angle_gamma 90.000000
_cell_volume 747.208254
_symmetry_space_group_name_H-M "P 21"
_symmetry_group_IT_number 4
_symmetry_cell_setting 'monoclinic'
loop_
_space_group_symop_operation_xyz
x,y,z
-x,1/2+y,-z
loop_
_atom_site_type_symbol
_atom_site_label
_atom_site_fract_x
_atom_site_fract_y
_atom_site_fract_z
Si Si1 0.453731 0.136580 0.387964
Si Si2 0.664703 0.087538 0.130672
Si Si3 0.975499 0.407979 0.930432
Si Si4 0.194163 0.022736 0.415250
Si Si5 0.157367 0.801629 0.700790
Si Si6 0.011884 0.195260 0.612498
Si Si7 0.621068 0.905020 0.464380
Si Si8 0.809649 0.011631 0.771495
O O1 0.533454 0.148987 0.185243
O O2 0.317641 0.083823 0.338077
O O3 0.441664 0.269030 0.506932
O O4 0.528376 0.023382 0.507441
O O5 0.764915 0.176623 0.247568
O O6 0.662088 0.948493 0.239431
O O7 0.704156 0.079095 0.900668
O O8 0.909540 0.498918 0.762554
O O9 0.018933 0.286427 0.804942
O O10 0.092318 0.461313 0.057512
O O11 0.871879 0.369853 0.088986
O O12 0.132183 0.113749 0.578874
O O13 0.220758 0.891312 0.535982
O O14 0.024402 0.772742 0.591312
O O15 0.892974 0.106199 0.644039
O O16 0.739196 0.914813 0.619853
#
# Coordination Sequence:
#
# PCOD9117702 Si02
#       8
#     2   2   2   2   2   2   2   2
#     4  10  24  48  69  97 135 188 234 287 345 413
#     4  10  23  44  69  95 133 182 230 286 344 411
#     4  11  26  39  68 105 140 180 232 285 359 425
#     4  11  25  41  67 101 139 179 232 295 341 420
#     4  11  21  44  67  96 141 181 228 288 360 416
#     4  11  23  38  66  99 140 181 220 290 353 417
#     4  10  25  47  70  96 135 180 238 289 344 415
#     4  12  23  43  66 103 131 183 228 284 356 409
#
# _framework density 21.413039000000001
#
# number of rings (size 3 to 8) (size 9 to 14) (size 15 to 20)
#    0.750    0.500    3.750    1.500    3.500    0.000 
#    6.750    0.000    0.000    0.000    0.000    0.000 
#    0.000    0.000    0.000    0.000    0.000    0.000 
#
# Total GULP energy -89300.335324 kJ/mol
# GULP energy per Si atom -5581.270958 kJ/mol
# Density = 2.136430 g / cm^3
# Si number density = 21.413039 Si / 1000 Ang^3
#
#
#
# Elastic Constant Matrix: (Units=GPa)
#
#
# Indices 1 2 3 4 5 6 
#
# 1 83.9692 18.5288 21.3964 0.0000 -10.1488 0.0000
# 2 18.5288 62.4046 -4.4758 0.0000 10.4335 0.0000
# 3 21.3964 -4.4758 45.6074 0.0000 1.8442 0.0000
# 4 0.0000 0.0000 0.0000 18.9775 0.0000 -6.1873
# 5 -10.1488 10.4335 1.8442 0.0000 28.7708 0.0000
# 6 0.0000 0.0000 0.0000 -6.1873 0.0000 24.5982
#
#
#
# Elastic Compliance Matrix: (Units=1/GPa)
#
#
# Indices 1 2 3 4 5 6 
#
# 1 0.016895 -0.007191 -0.009002 0.000000 0.009144 0.000000
# 2 -0.007191 0.020290 0.005780 0.000000 -0.010265 0.000000
# 3 -0.009002 0.005780 0.027000 0.000000 -0.007002 0.000000
# 4 0.000000 0.000000 0.000000 0.057401 0.000000 0.014438
# 5 0.009144 -0.010265 -0.007002 0.000000 0.042154 0.000000
# 6 0.000000 0.000000 0.000000 0.014438 0.000000 0.044285
#
#
# Mechanical properties :
#
#
# Convention : Reuss Voigt Hill
#
# Bulk Modulus (GPa) = 23.06282 29.20888 26.13585
# Shear Modulus (GPa) = 20.55043 24.90475 22.72759
#
# Velocity S-wave (km/s) = 3.10129 3.41407 3.26143
# Velocity P-wave (km/s) = 4.85982 5.40477 5.13952
#
# Compressibility (1/GPa) = 0.04335984
#
# Stress axis : x y z
#
# Youngs Moduli (GPa) = 59.18989 49.28465 37.03749
#
# Poissons Ratio (x) = 0.35439 0.33339
# Poissons Ratio (y) = 0.42562 -0.21407
# Poissons Ratio (z) = 0.53280 -0.28486
#
# Static dielectric constant tensor:
#      x y z
#    x 1.782830 0.000000 -0.023510 
#    y 0.000000 1.813730 0.000000 
#    z -0.023510 0.000000 1.786760 
# 
# From -- ./inp_files/2961.got.cif
#   From: 2010.05.17/outbox.cif.g08.bks.cpg/sg4_2_cif.got.tgz:2961.got - 2010.06.03 18:43:04.
