data_PCOD9117360
_publ_section_title
;
Structure prediction by ZEFSAII (Michael W. Deem and Ramdas Pophale) SiO2 
 PCOD9117360
Probable space group: P 21
;
_chemical_formula_sum "Si O2"
_cell_formula_units_Z 14
_cell_length_a 5.152441
_cell_length_b 9.152675
_cell_length_c 13.863149
_cell_angle_alpha 90.000000
_cell_angle_beta 129.309345
_cell_angle_gamma 90.000000
_cell_volume 505.843607
_symmetry_space_group_name_H-M "P 21"
_symmetry_group_IT_number 4
_symmetry_cell_setting 'monoclinic'
loop_
_space_group_symop_operation_xyz
x,y,z
-x,1/2+y,-z
loop_
_atom_site_type_symbol
_atom_site_label
_atom_site_fract_x
_atom_site_fract_y
_atom_site_fract_z
Si Si1 0.401907 0.910030 0.234675
Si Si2 0.625222 0.653106 0.169797
Si Si3 0.611036 0.698864 0.670928
Si Si4 0.411944 0.234124 0.552940
Si Si5 0.343163 0.744698 0.909322
Si Si6 0.904417 0.930929 0.947728
Si Si7 0.170813 0.965235 0.621936
O O1 0.639734 0.810866 0.223336
O O2 0.330703 0.807733 0.310868
O O3 0.535605 0.064146 0.303293
O O4 0.090358 0.947776 0.093651
O O5 0.267891 0.582499 0.120802
O O6 0.869317 0.539852 0.281465
O O7 0.560875 0.656506 0.040445
O O8 0.491295 0.690687 0.532115
O O9 0.017440 0.682443 0.776635
O O10 0.481698 0.853498 0.679838
O O11 0.246930 0.097357 0.567703
O O12 0.140828 0.362766 0.474362
O O13 0.612314 0.814286 0.902007
O O14 0.166029 0.865172 0.935256
#
# Coordination Sequence:
#
# PCOD9117360 Si02
#       7
#     2   2   2   2   2   2   2
#     4  10  24  46  68 111 149 195 263 314 387 461
#     4  10  22  47  71 111 146 201 246 323 383 457
#     4  12  23  45  73 106 146 200 250 326 380 467
#     4  11  25  47  70 109 142 209 251 321 381 463
#     4  11  25  44  76 111 152 195 254 309 394 451
#     4  11  23  48  72 112 150 199 248 320 378 462
#     4  11  24  47  74 102 153 193 262 317 387 457
#
# _framework density 27.676538000000001
#
# number of rings (size 3 to 8) (size 9 to 14) (size 15 to 20)
#    0.000    1.143    2.857    2.571    0.000    2.286 
#   30.857    0.000    0.000    0.000    0.000    0.000 
#    0.000    0.000    0.000    0.000    0.000    0.000 
#
# Total GULP energy -78484.500707 kJ/mol
# GULP energy per Si atom -5606.035765 kJ/mol
# Density = 2.761354 g / cm^3
# Si number density = 27.676538 Si / 1000 Ang^3
#
#
#
# Elastic Constant Matrix: (Units=GPa)
#
#
# Indices 1 2 3 4 5 6 
#
# 1 93.8708 40.7256 32.9722 0.0000 -1.6905 0.0000
# 2 40.7256 162.5325 51.9955 0.0000 0.3540 0.0000
# 3 32.9722 51.9955 173.9881 0.0000 -26.4193 0.0000
# 4 0.0000 0.0000 0.0000 65.7969 0.0000 -14.9283
# 5 -1.6905 0.3540 -26.4193 0.0000 34.8746 0.0000
# 6 0.0000 0.0000 0.0000 -14.9283 0.0000 29.8189
#
#
#
# Elastic Compliance Matrix: (Units=1/GPa)
#
#
# Indices 1 2 3 4 5 6 
#
# 1 0.012337 -0.002555 -0.001672 0.000000 -0.000643 0.000000
# 2 -0.002555 0.007436 -0.001998 0.000000 -0.001713 0.000000
# 3 -0.001672 -0.001998 0.007517 0.000000 0.005634 0.000000
# 4 0.000000 0.000000 0.000000 0.017146 0.000000 0.008584
# 5 -0.000643 -0.001713 0.005634 0.000000 0.032928 0.000000
# 6 0.000000 0.000000 0.000000 0.008584 0.000000 0.037833
#
#
# Mechanical properties :
#
#
# Convention : Reuss Voigt Hill
#
# Bulk Modulus (GPa) = 67.38698 75.75313 71.57005
# Shear Modulus (GPa) = 37.70919 46.41129 42.06024
#
# Velocity S-wave (km/s) = 3.69521 4.09946 3.90257
# Velocity P-wave (km/s) = 6.52740 7.05959 6.79870
#
# Compressibility (1/GPa) = 0.01483966
#
# Stress axis : x y z
#
# Youngs Moduli (GPa) = 81.05601 134.48558 133.03289
#
# Poissons Ratio (x) = 0.34361 0.22243
# Poissons Ratio (y) = 0.20710 0.26581
# Poissons Ratio (z) = 0.13553 0.26871
#
# Static dielectric constant tensor:
#      x y z
#    x 2.085750 0.000000 0.013200 
#    y 0.000000 2.124450 0.000000 
#    z 0.013200 0.000000 2.276830 
# 
# From -- ./inp_files/3382.got.cif
#   From: 2010.05.17/outbox.cif.g08.bks.cpg/sg4_2_cif.got.tgz:3382.got - 2010.06.03 18:43:04.
