data_PCOD9117913
_publ_section_title
;
Structure prediction by ZEFSAII (Michael W. Deem and Ramdas Pophale) SiO2 
 PCOD9117913
Probable space group: P 21
;
_chemical_formula_sum "Si O2"
_cell_formula_units_Z 14
_cell_length_a 4.846286
_cell_length_b 10.972709
_cell_length_c 10.052549
_cell_angle_alpha 90.000000
_cell_angle_beta 102.289421
_cell_angle_gamma 90.000000
_cell_volume 522.313677
_symmetry_space_group_name_H-M "P 21"
_symmetry_group_IT_number 4
_symmetry_cell_setting 'monoclinic'
loop_
_space_group_symop_operation_xyz
x,y,z
-x,1/2+y,-z
loop_
_atom_site_type_symbol
_atom_site_label
_atom_site_fract_x
_atom_site_fract_y
_atom_site_fract_z
Si Si1 0.481259 0.829910 0.000936
Si Si2 0.211905 0.749428 0.710526
Si Si3 0.011040 0.572391 0.286280
Si Si4 0.499343 0.731083 0.296234
Si Si5 0.224639 0.075970 0.013516
Si Si6 0.453910 0.404476 0.471029
Si Si7 0.715048 0.588247 0.693202
O O1 0.433307 0.792159 0.148573
O O2 0.476037 0.978242 0.004940
O O3 0.252714 0.801674 0.862750
O O4 0.707432 0.722056 0.985416
O O5 0.358215 0.839038 0.621327
O O6 0.407719 0.629850 0.712330
O O7 0.818431 0.967446 0.622974
O O8 0.697192 0.613415 0.293286
O O9 0.207066 0.689581 0.330858
O O10 0.999994 0.553494 0.126171
O O11 0.638072 0.822043 0.413594
O O12 0.136618 0.044752 0.155270
O O13 0.661482 0.499068 0.567515
O O14 0.103250 0.202421 0.337497
#
# Coordination Sequence:
#
# PCOD9117913 Si02
#       7
#     2   2   2   2   2   2   2
#     4  10  23  50  84 120 155 217 275 348 402 499
#     4  11  28  47  78 117 159 206 278 339 412 490
#     4  11  28  48  79 117 161 209 276 342 411 493
#     4  11  26  53  77 117 158 216 274 337 415 498
#     4  10  23  52  84 123 162 216 282 345 416 491
#     4  12  28  51  81 115 169 217 271 343 426 506
#     4  11  26  53  77 113 160 215 268 342 414 495
#
# _framework density 26.803815
#
# number of rings (size 3 to 8) (size 9 to 14) (size 15 to 20)
#    0.000    1.143    1.429    1.714    6.000    8.000 
#    5.143    0.000    0.000    0.000    0.000    0.000 
#    0.000    0.000    0.000    0.000    0.000    0.000 
#
# Total GULP energy -78339.493320 kJ/mol
# GULP energy per Si atom -5595.678094 kJ/mol
# Density = 2.674281 g / cm^3
# Si number density = 26.803815 Si / 1000 Ang^3
#
#
#
# Elastic Constant Matrix: (Units=GPa)
#
#
# Indices 1 2 3 4 5 6 
#
# 1 103.8670 40.7630 29.5443 0.0000 -4.8907 0.0000
# 2 40.7630 108.7958 89.3246 0.0000 1.9173 0.0000
# 3 29.5443 89.3246 197.0954 0.0000 10.3706 0.0000
# 4 0.0000 0.0000 0.0000 49.9279 0.0000 4.3778
# 5 -4.8907 1.9173 10.3706 0.0000 25.7103 0.0000
# 6 0.0000 0.0000 0.0000 4.3778 0.0000 28.5035
#
#
#
# Elastic Compliance Matrix: (Units=1/GPa)
#
#
# Indices 1 2 3 4 5 6 
#
# 1 0.011450 -0.004489 0.000190 0.000000 0.002436 0.000000
# 2 -0.004489 0.016464 -0.006824 0.000000 0.000671 0.000000
# 3 0.000190 -0.006824 0.008285 0.000000 -0.002797 0.000000
# 4 0.000000 0.000000 0.000000 0.020302 0.000000 -0.003118
# 5 0.002436 0.000671 -0.002797 0.000000 0.040436 0.000000
# 6 0.000000 0.000000 0.000000 -0.003118 0.000000 0.035562
#
#
# Mechanical properties :
#
#
# Convention : Reuss Voigt Hill
#
# Bulk Modulus (GPa) = 71.66790 81.00245 76.33518
# Shear Modulus (GPa) = 31.36796 37.50342 34.43569
#
# Velocity S-wave (km/s) = 3.42465 3.74462 3.58820
# Velocity P-wave (km/s) = 6.51411 6.99874 6.76077
#
# Compressibility (1/GPa) = 0.01395325
#
# Stress axis : x y z
#
# Youngs Moduli (GPa) = 87.33567 60.73701 120.69776
#
# Poissons Ratio (x) = 0.27264 -0.02291
# Poissons Ratio (y) = 0.39204 0.82367
# Poissons Ratio (z) = -0.01658 0.41448
#
# Static dielectric constant tensor:
#      x y z
#    x 2.030740 0.000000 0.014120 
#    y 0.000000 2.229490 0.000000 
#    z 0.014120 0.000000 2.050460 
# 
# From -- ./inp_files/10476.got.cif
#   From: 2010.05.17/outbox.cif.g08.bks.cpg/sg4_6_cif.got.tgz:10476.got - 2010.06.03 18:43:04.
