data_PCOD9117436
_publ_section_title
;
Structure prediction by ZEFSAII (Michael W. Deem and Ramdas Pophale) SiO2 
 PCOD9117436
Probable space group: P 21
;
_chemical_formula_sum "Si O2"
_cell_formula_units_Z 16
_cell_length_a 9.639188
_cell_length_b 7.975463
_cell_length_c 9.273255
_cell_angle_alpha 90.000000
_cell_angle_beta 117.209156
_cell_angle_gamma 90.000000
_cell_volume 634.012767
_symmetry_space_group_name_H-M "P 21"
_symmetry_group_IT_number 4
_symmetry_cell_setting 'monoclinic'
loop_
_space_group_symop_operation_xyz
x,y,z
-x,1/2+y,-z
loop_
_atom_site_type_symbol
_atom_site_label
_atom_site_fract_x
_atom_site_fract_y
_atom_site_fract_z
Si Si1 0.646645 0.827290 0.896519
Si Si2 0.849445 0.276383 0.584670
Si Si3 0.470441 0.328009 0.707617
Si Si4 0.040329 0.731427 0.798153
Si Si5 0.528437 0.465307 0.439270
Si Si6 0.000675 0.873046 0.072131
Si Si7 0.385477 0.679566 0.955044
Si Si8 0.871782 0.905380 0.467516
O O1 0.608280 0.868788 0.711926
O O2 0.614362 0.999574 0.968539
O O3 0.522092 0.699220 0.903815
O O4 0.828372 0.792298 0.003485
O O5 0.688220 0.369654 0.477834
O O6 0.877084 0.274878 0.769969
O O7 0.991296 0.381962 0.582616
O O8 0.861334 0.090074 0.528861
O O9 0.508765 0.461159 0.601726
O O10 0.580673 0.306279 0.896372
O O11 0.294575 0.358562 0.677032
O O12 0.471075 0.152204 0.621381
O O13 0.006604 0.560009 0.867326
O O14 0.916740 0.780295 0.618964
O O15 0.042880 0.869543 0.925067
O O16 0.213433 0.716824 0.813594
#
# Coordination Sequence:
#
# PCOD9117436 Si02
#       8
#     2   2   2   2   2   2   2   2
#     4  10  23  40  61  89 121 155 199 248 301 364
#     4  12  25  42  63  91 125 165 211 260 311 370
#     4  11  23  41  64  93 125 161 204 254 310 373
#     4  11  23  41  64  93 125 161 204 254 310 373
#     4  11  23  41  64  93 125 161 204 254 310 373
#     4  11  23  41  64  93 125 161 204 254 310 373
#     4  10  23  40  61  89 121 155 199 248 301 364
#     4  12  25  42  63  91 125 165 211 260 311 370
#
# _framework density 25.236087000000001
#
# number of rings (size 3 to 8) (size 9 to 14) (size 15 to 20)
#    0.000    1.000    0.000    6.750    0.000   10.000 
#    0.000    0.000    0.000    0.000    0.000    0.000 
#    0.000    0.000    0.000    0.000    0.000    0.000 
#
# Total GULP energy -89784.920743 kJ/mol
# GULP energy per Si atom -5611.557546 kJ/mol
# Density = 2.517865 g / cm^3
# Si number density = 25.236087 Si / 1000 Ang^3
#
#
#
# Elastic Constant Matrix: (Units=GPa)
#
#
# Indices 1 2 3 4 5 6 
#
# 1 81.9414 17.0456 -0.2563 0.0000 4.0002 0.0000
# 2 17.0456 71.2388 1.7343 0.0000 5.5771 0.0000
# 3 -0.2563 1.7343 86.8001 0.0000 -3.0713 0.0000
# 4 0.0000 0.0000 0.0000 33.5467 0.0000 -10.7372
# 5 4.0002 5.5771 -3.0713 0.0000 43.7684 0.0000
# 6 0.0000 0.0000 0.0000 -10.7372 0.0000 37.2217
#
#
#
# Elastic Compliance Matrix: (Units=1/GPa)
#
#
# Indices 1 2 3 4 5 6 
#
# 1 0.012871 -0.003020 0.000071 0.000000 -0.000787 0.000000
# 2 -0.003020 0.014898 -0.000365 0.000000 -0.001648 0.000000
# 3 0.000071 -0.000365 0.011558 0.000000 0.000851 0.000000
# 4 0.000000 0.000000 0.000000 0.032841 0.000000 0.009474
# 5 -0.000787 -0.001648 0.000851 0.000000 0.023189 0.000000
# 6 0.000000 0.000000 0.000000 0.009474 0.000000 0.029599
#
#
# Mechanical properties :
#
#
# Convention : Reuss Voigt Hill
#
# Bulk Modulus (GPa) = 30.58248 30.78083 30.68166
# Shear Modulus (GPa) = 35.09168 37.67113 36.38140
#
# Velocity S-wave (km/s) = 3.73303 3.86780 3.80102
# Velocity P-wave (km/s) = 5.54307 5.67187 5.60784
#
# Compressibility (1/GPa) = 0.03269846
#
# Stress axis : x y z
#
# Youngs Moduli (GPa) = 77.69620 67.12424 86.51762
#
# Poissons Ratio (x) = 0.20270 -0.00610
# Poissons Ratio (y) = 0.23462 0.03157
# Poissons Ratio (z) = -0.00548 0.02449
#
# Static dielectric constant tensor:
#      x y z
#    x 1.959850 0.000000 -0.037720 
#    y 0.000000 1.986250 0.000000 
#    z -0.037720 0.000000 1.953110 
# 
# From -- ./inp_files/5420.got.cif
#   From: 2010.05.17/outbox.cif.g08.bks.cpg/sg4_3_cif.got.tgz:5420.got - 2010.06.03 18:43:04.
