data_PCOD9117094
_publ_section_title
;
Structure prediction by ZEFSAII (Michael W. Deem and Ramdas Pophale) SiO2 
 PCOD9117094
Probable space group: P 21
;
_chemical_formula_sum "Si O2"
_cell_formula_units_Z 14
_cell_length_a 5.500025
_cell_length_b 12.935908
_cell_length_c 8.042336
_cell_angle_alpha 90.000000
_cell_angle_beta 86.320672
_cell_angle_gamma 90.000000
_cell_volume 571.015266
_symmetry_space_group_name_H-M "P 21"
_symmetry_group_IT_number 4
_symmetry_cell_setting 'monoclinic'
loop_
_space_group_symop_operation_xyz
x,y,z
-x,1/2+y,-z
loop_
_atom_site_type_symbol
_atom_site_label
_atom_site_fract_x
_atom_site_fract_y
_atom_site_fract_z
Si Si1 0.234150 0.395170 0.659729
Si Si2 0.118344 0.807974 0.606065
Si Si3 0.183592 0.914080 0.131025
Si Si4 0.347622 0.003668 0.481163
Si Si5 0.429712 0.093582 0.958546
Si Si6 0.487723 0.190935 0.620013
Si Si7 0.902519 0.204748 0.042079
O O1 0.365417 0.487543 0.558700
O O2 0.402276 0.298833 0.703438
O O3 0.084017 0.337416 0.520490
O O4 0.104603 0.435014 0.831571
O O5 0.298888 0.727431 0.509283
O O6 0.048170 0.762948 0.786077
O O7 0.255381 0.919062 0.616176
O O8 0.254344 0.961982 0.307960
O O9 0.168484 0.793286 0.089700
O O10 0.354652 0.976280 0.000703
O O11 0.295804 0.121787 0.522972
O O12 0.533240 0.113416 0.769855
O O13 0.650913 0.137900 0.062041
O O14 0.160398 0.148989 0.986718
#
# Coordination Sequence:
#
# PCOD9117094 Si02
#       7
#     2   2   2   2   2   2   2
#     4  10  22  43  68  99 139 191 231 314 359 428
#     4  10  24  41  69 101 138 188 237 300 359 439
#     4  11  25  46  70 106 150 188 248 309 369 430
#     4  10  23  42  70 100 139 190 247 295 370 435
#     4  12  28  45  76 107 146 198 243 299 378 435
#     4  11  23  45  69 102 143 189 246 295 365 439
#     4  12  27  48  72 111 147 192 244 308 368 436
#
# _framework density 24.517731999999999
#
# number of rings (size 3 to 8) (size 9 to 14) (size 15 to 20)
#    0.000    1.143    1.429    4.286   10.000    1.143 
#    2.571    0.000    0.000    0.000    0.000    0.000 
#    0.000    0.000    0.000    0.000    0.000    0.000 
#
# Total GULP energy -78013.345232 kJ/mol
# GULP energy per Si atom -5572.381802 kJ/mol
# Density = 2.446193 g / cm^3
# Si number density = 24.517732 Si / 1000 Ang^3
#
#
#
# Elastic Constant Matrix: (Units=GPa)
#
#
# Indices 1 2 3 4 5 6 
#
# 1 75.7833 30.4854 0.1236 0.0000 1.9615 0.0000
# 2 30.4854 97.8604 -13.0064 0.0000 -6.0105 0.0000
# 3 0.1236 -13.0064 59.2306 0.0000 5.3083 0.0000
# 4 0.0000 0.0000 0.0000 34.9290 0.0000 -2.6463
# 5 1.9615 -6.0105 5.3083 0.0000 31.7045 0.0000
# 6 0.0000 0.0000 0.0000 -2.6463 0.0000 25.9980
#
#
#
# Elastic Compliance Matrix: (Units=1/GPa)
#
#
# Indices 1 2 3 4 5 6 
#
# 1 0.015247 -0.004985 -0.000972 0.000000 -0.001726 0.000000
# 2 -0.004985 0.012240 0.002500 0.000000 0.002210 0.000000
# 3 -0.000972 0.002500 0.017651 0.000000 -0.002421 0.000000
# 4 0.000000 0.000000 0.000000 0.028852 0.000000 0.002937
# 5 -0.001726 0.002210 -0.002421 0.000000 0.032472 0.000000
# 6 0.000000 0.000000 0.000000 0.002937 0.000000 0.038763
#
#
# Mechanical properties :
#
#
# Convention : Reuss Voigt Hill
#
# Bulk Modulus (GPa) = 26.16132 29.78661 27.97396
# Shear Modulus (GPa) = 30.32502 32.87776 31.60139
#
# Velocity S-wave (km/s) = 3.52072 3.66591 3.59405
# Velocity P-wave (km/s) = 5.21736 5.48579 5.35326
#
# Compressibility (1/GPa) = 0.03822437
#
# Stress axis : x y z
#
# Youngs Moduli (GPa) = 65.58652 81.70234 56.65351
#
# Poissons Ratio (x) = 0.40728 0.05505
# Poissons Ratio (y) = 0.32694 -0.14163
# Poissons Ratio (z) = 0.06374 -0.20426
#
# Static dielectric constant tensor:
#      x y z
#    x 2.287740 0.000000 -0.010840 
#    y 0.000000 1.954880 0.000000 
#    z -0.010840 0.000000 1.985360 
# 
# From -- ./inp_files/1176.got.cif
#   From: 2010.05.17/outbox.cif.g08.bks.cpg/sg4_1_cif.got.tgz:1176.got - 2010.06.03 18:43:04.
