data_PCOD9117232
_publ_section_title
;
Structure prediction by ZEFSAII (Michael W. Deem and Ramdas Pophale) SiO2 
 PCOD9117232
Probable space group: P 21
;
_chemical_formula_sum "Si O2"
_cell_formula_units_Z 16
_cell_length_a 5.136984
_cell_length_b 9.676973
_cell_length_c 12.825213
_cell_angle_alpha 90.000000
_cell_angle_beta 104.171860
_cell_angle_gamma 90.000000
_cell_volume 618.143885
_symmetry_space_group_name_H-M "P 21"
_symmetry_group_IT_number 4
_symmetry_cell_setting 'monoclinic'
loop_
_space_group_symop_operation_xyz
x,y,z
-x,1/2+y,-z
loop_
_atom_site_type_symbol
_atom_site_label
_atom_site_fract_x
_atom_site_fract_y
_atom_site_fract_z
Si Si1 0.625916 0.126510 0.377288
Si Si2 0.459648 0.739834 0.019022
Si Si3 0.998975 0.885895 0.087356
Si Si4 0.549298 0.874502 0.510579
Si Si5 0.810498 0.215881 0.694066
Si Si6 0.978702 0.301714 0.303451
Si Si7 0.357215 0.067670 0.762125
Si Si8 0.725468 0.652046 0.840035
O O1 0.583015 0.286037 0.408118
O O2 0.431483 0.075566 0.267971
O O3 0.898224 0.148052 0.338779
O O4 0.570408 0.031389 0.470966
O O5 0.172453 0.804339 0.017818
O O6 0.557541 0.629124 0.116664
O O7 0.684786 0.859589 0.051017
O O8 0.513016 0.687894 0.908236
O O9 0.109239 0.815100 0.202982
O O10 0.064727 0.046217 0.090527
O O11 0.381524 0.799907 0.402142
O O12 0.853785 0.854709 0.580075
O O13 0.621092 0.092169 0.718259
O O14 0.102206 0.155419 0.689771
O O15 0.143971 0.275533 0.213194
O O16 0.756072 0.413609 0.248107
#
# Coordination Sequence:
#
# PCOD9117232 Si02
#       8
#     2   2   2   2   2   2   2   2
#     4  11  27  46  71 103 148 188 249 305 364 439
#     4  10  25  43  75 103 140 196 229 296 358 430
#     4  10  23  46  69 107 140 187 242 286 357 430
#     4  11  25  45  69 103 139 197 239 302 370 428
#     4  10  22  44  75  98 140 186 244 287 355 429
#     4  11  28  42  69 107 145 187 241 303 363 427
#     4  10  24  45  69 106 142 188 236 297 351 437
#     4  11  26  45  69 107 142 187 238 304 358 430
#
# _framework density 25.883942999999999
#
# number of rings (size 3 to 8) (size 9 to 14) (size 15 to 20)
#    0.000    1.500    1.250    0.750   14.000    2.000 
#    2.250    0.000    0.000    0.000    0.000    0.000 
#    0.000    0.000    0.000    0.000    0.000    0.000 
#
# Total GULP energy -89305.072282 kJ/mol
# GULP energy per Si atom -5581.567018 kJ/mol
# Density = 2.582503 g / cm^3
# Si number density = 25.883943 Si / 1000 Ang^3
#
#
#
# Elastic Constant Matrix: (Units=GPa)
#
#
# Indices 1 2 3 4 5 6 
#
# 1 35.9005 17.2378 11.3165 0.0000 12.4176 0.0000
# 2 17.2378 96.0963 38.1457 0.0000 -0.3017 0.0000
# 3 11.3165 38.1457 102.4763 0.0000 4.0085 0.0000
# 4 0.0000 0.0000 0.0000 30.9389 0.0000 15.4621
# 5 12.4176 -0.3017 4.0085 0.0000 32.8843 0.0000
# 6 0.0000 0.0000 0.0000 15.4621 0.0000 27.9955
#
#
#
# Elastic Compliance Matrix: (Units=1/GPa)
#
#
# Indices 1 2 3 4 5 6 
#
# 1 0.035739 -0.005978 -0.001197 0.000000 -0.013404 0.000000
# 2 -0.005978 0.013225 -0.004377 0.000000 0.002912 0.000000
# 3 -0.001197 -0.004377 0.011559 0.000000 -0.000997 0.000000
# 4 0.000000 0.000000 0.000000 0.044645 0.000000 -0.024658
# 5 -0.013404 0.002912 -0.000997 0.000000 0.035620 0.000000
# 6 0.000000 0.000000 0.000000 -0.024658 0.000000 0.049339
#
#
# Mechanical properties :
#
#
# Convention : Reuss Voigt Hill
#
# Bulk Modulus (GPa) = 26.72408 40.87480 33.79944
# Shear Modulus (GPa) = 22.15315 29.54862 25.85088
#
# Velocity S-wave (km/s) = 2.92869 3.38239 3.16369
# Velocity P-wave (km/s) = 4.66726 5.57494 5.14117
#
# Compressibility (1/GPa) = 0.03741944
#
# Stress axis : x y z
#
# Youngs Moduli (GPa) = 27.98079 75.61456 86.51480
#
# Poissons Ratio (x) = 0.45200 0.10358
# Poissons Ratio (y) = 0.16726 0.37864
# Poissons Ratio (z) = 0.03350 0.33094
#
# Static dielectric constant tensor:
#      x y z
#    x 2.157860 0.000000 -0.015290 
#    y 0.000000 2.062500 0.000000 
#    z -0.015290 0.000000 1.994850 
# 
# From -- ./inp_files/2636.got.cif
#   From: 2010.05.17/outbox.cif.g08.bks.cpg/sg4_2_cif.got.tgz:2636.got - 2010.06.03 18:43:04.
