data_PCOD9117570
_publ_section_title
;
Structure prediction by ZEFSAII (Michael W. Deem and Ramdas Pophale) SiO2 
 PCOD9117570
Probable space group: P 21
;
_chemical_formula_sum "Si O2"
_cell_formula_units_Z 14
_cell_length_a 10.117405
_cell_length_b 13.087785
_cell_length_c 4.855942
_cell_angle_alpha 90.000000
_cell_angle_beta 114.912655
_cell_angle_gamma 90.000000
_cell_volume 583.166544
_symmetry_space_group_name_H-M "P 21"
_symmetry_group_IT_number 4
_symmetry_cell_setting 'monoclinic'
loop_
_space_group_symop_operation_xyz
x,y,z
-x,1/2+y,-z
loop_
_atom_site_type_symbol
_atom_site_label
_atom_site_fract_x
_atom_site_fract_y
_atom_site_fract_z
Si Si1 0.294363 0.114780 0.796861
Si Si2 0.557967 0.202834 0.719219
Si Si3 0.626328 0.305116 0.280633
Si Si4 0.888748 0.792671 0.119890
Si Si5 0.062493 0.425223 0.308667
Si Si6 0.842547 0.153018 0.682567
Si Si7 0.228474 0.986015 0.261580
O O1 0.445255 0.129889 0.768447
O O2 0.228261 0.221535 0.834860
O O3 0.188238 0.065176 0.470863
O O4 0.305238 0.044353 0.076385
O O5 0.515500 0.244266 0.382186
O O6 0.715218 0.151453 0.800481
O O7 0.572835 0.303025 0.925228
O O8 0.765579 0.229098 0.398691
O O9 0.676293 0.405183 0.482369
O O10 0.947509 0.868897 0.408949
O O11 0.010611 0.713045 0.115617
O O12 0.839444 0.859194 0.816114
O O13 0.120868 0.540270 0.385397
O O14 0.908448 0.433503 0.010304
#
# Coordination Sequence:
#
# PCOD9117570 Si02
#       7
#     2   2   2   2   2   2   2
#     4  12  26  47  68 105 143 179 228 293 346 397
#     4  10  24  46  67  95 142 180 224 282 340 407
#     4  10  23  42  72  96 134 184 231 270 339 422
#     4  12  27  43  73  99 141 176 232 289 349 398
#     4  12  26  44  69 109 132 181 234 284 347 413
#     4  10  26  43  72  95 145 180 227 288 343 413
#     4  12  24  43  75 103 135 186 232 278 346 428
#
# _framework density 24.006864
#
# number of rings (size 3 to 8) (size 9 to 14) (size 15 to 20)
#    0.857    0.000    2.857    3.429    6.000    0.000 
#    7.714    0.000    0.000    0.000    0.000    0.000 
#    0.000    0.000    0.000    0.000    0.000    0.000 
#
# Total GULP energy -78216.356921 kJ/mol
# GULP energy per Si atom -5586.882637 kJ/mol
# Density = 2.395222 g / cm^3
# Si number density = 24.006864 Si / 1000 Ang^3
#
#
#
# Elastic Constant Matrix: (Units=GPa)
#
#
# Indices 1 2 3 4 5 6 
#
# 1 109.3488 51.5565 26.1957 0.0000 -17.3143 0.0000
# 2 51.5565 140.0137 26.7333 0.0000 -8.2297 0.0000
# 3 26.1957 26.7333 78.8455 0.0000 -10.1617 0.0000
# 4 0.0000 0.0000 0.0000 38.2382 0.0000 -11.0751
# 5 -17.3143 -8.2297 -10.1617 0.0000 24.5360 0.0000
# 6 0.0000 0.0000 0.0000 -11.0751 0.0000 33.2476
#
#
#
# Elastic Compliance Matrix: (Units=1/GPa)
#
#
# Indices 1 2 3 4 5 6 
#
# 1 0.012486 -0.003824 -0.001988 0.000000 0.006705 0.000000
# 2 -0.003824 0.008866 -0.001796 0.000000 -0.000469 0.000000
# 3 -0.001988 -0.001796 0.014466 0.000000 0.003986 0.000000
# 4 0.000000 0.000000 0.000000 0.028944 0.000000 0.009642
# 5 0.006705 -0.000469 0.003986 0.000000 0.046982 0.000000
# 6 0.000000 0.000000 0.000000 0.009642 0.000000 0.033289
#
#
# Mechanical properties :
#
#
# Convention : Reuss Voigt Hill
#
# Bulk Modulus (GPa) = 48.53760 59.68657 54.11208
# Shear Modulus (GPa) = 29.91950 34.11920 32.01935
#
# Velocity S-wave (km/s) = 3.53411 3.77401 3.65603
# Velocity P-wave (km/s) = 6.07580 6.62624 6.35698
#
# Compressibility (1/GPa) = 0.02060258
#
# Stress axis : x y z
#
# Youngs Moduli (GPa) = 80.09078 112.79567 69.12741
#
# Poissons Ratio (x) = 0.43133 0.13740
# Poissons Ratio (y) = 0.30627 0.12414
# Poissons Ratio (z) = 0.15919 0.20257
#
# Static dielectric constant tensor:
#      x y z
#    x 1.983120 0.000000 0.056890 
#    y 0.000000 1.949990 0.000000 
#    z 0.056890 0.000000 1.919070 
# 
# From -- ./inp_files/2857.got.cif
#   From: 2010.05.17/outbox.cif.g08.bks.cpg/sg4_2_cif.got.tgz:2857.got - 2010.06.03 18:43:04.
