data_PCOD9117195
_publ_section_title
;
Structure prediction by ZEFSAII (Michael W. Deem and Ramdas Pophale) SiO2 
 PCOD9117195
Probable space group: P 21
;
_chemical_formula_sum "Si O2"
_cell_formula_units_Z 16
_cell_length_a 13.332801
_cell_length_b 9.998613
_cell_length_c 7.070719
_cell_angle_alpha 90.000000
_cell_angle_beta 139.002690
_cell_angle_gamma 90.000000
_cell_volume 618.363995
_symmetry_space_group_name_H-M "P 21"
_symmetry_group_IT_number 4
_symmetry_cell_setting 'monoclinic'
loop_
_space_group_symop_operation_xyz
x,y,z
-x,1/2+y,-z
loop_
_atom_site_type_symbol
_atom_site_label
_atom_site_fract_x
_atom_site_fract_y
_atom_site_fract_z
Si Si1 0.199166 0.082090 0.948204
Si Si2 0.153242 0.582090 0.628910
Si Si3 0.416114 0.934450 0.750944
Si Si4 0.209144 0.582090 0.256284
Si Si5 0.863376 0.582090 0.696325
Si Si6 0.669494 0.874925 0.855895
Si Si7 0.583887 0.729732 0.249060
Si Si8 0.330506 0.789255 0.144106
O O1 0.807078 0.082090 0.539961
O O2 0.289398 0.220357 0.046947
O O3 0.162894 0.082090 0.118006
O O4 0.289398 0.943823 0.046947
O O5 0.040762 0.582090 0.923477
O O6 0.968173 0.582090 0.386638
O O7 0.227983 0.456104 0.842812
O O8 0.227984 0.708076 0.842813
O O9 0.233700 0.951909 0.505267
O O10 0.494412 0.912644 0.658769
O O11 0.466768 0.082091 0.884858
O O12 0.500001 0.832092 0.000004
O O13 0.713124 0.949800 0.721609
O O14 0.286875 0.714380 0.278390
O O15 0.766301 0.712272 0.494736
O O16 0.505589 0.751537 0.341234
#
# Coordination Sequence:
#
# PCOD9117195 Si02
#       8
#     2   2   2   2   2   2   2   2
#     4  11  25  40  69 103 142 177 231 292 341 411
#     4  10  22  44  71 101 138 188 227 285 354 395
#     4  10  23  45  67  99 136 180 232 279 345 404
#     4  10  22  46  74  96 146 176 230 290 336 418
#     4   9  23  44  66 104 134 183 230 283 357 396
#     4  11  24  46  69 107 134 183 237 278 345 414
#     4  10  23  45  67  99 136 180 232 279 345 404
#     4  11  24  46  69 107 134 183 237 278 345 414
#
# _framework density 25.874725999999999
#
# number of rings (size 3 to 8) (size 9 to 14) (size 15 to 20)
#    0.750    1.000    2.500    0.750    1.750   13.000 
#    0.000    3.750    0.000    0.000    0.000    0.000 
#    0.000    0.000    0.000    0.000    0.000    0.000 
#
# Total GULP energy -89523.057593 kJ/mol
# GULP energy per Si atom -5595.191100 kJ/mol
# Density = 2.581583 g / cm^3
# Si number density = 25.874726 Si / 1000 Ang^3
#
#
#
# Elastic Constant Matrix: (Units=GPa)
#
#
# Indices 1 2 3 4 5 6 
#
# 1 85.5057 32.5335 21.4746 0.0000 6.8856 0.0000
# 2 32.5335 220.3235 51.9680 0.0000 15.4179 0.0000
# 3 21.4746 51.9680 130.4133 0.0000 28.0599 0.0000
# 4 0.0000 0.0000 0.0000 47.9257 0.0000 -4.6956
# 5 6.8856 15.4179 28.0599 0.0000 64.6955 0.0000
# 6 0.0000 0.0000 0.0000 -4.6956 0.0000 39.9591
#
#
#
# Elastic Compliance Matrix: (Units=1/GPa)
#
#
# Indices 1 2 3 4 5 6 
#
# 1 0.012652 -0.001512 -0.001399 0.000000 -0.000379 0.000000
# 2 -0.001512 0.005198 -0.001754 0.000000 -0.000317 0.000000
# 3 -0.001399 -0.001754 0.009348 0.000000 -0.003487 0.000000
# 4 0.000000 0.000000 0.000000 0.021109 0.000000 0.002480
# 5 -0.000379 -0.000317 -0.003487 0.000000 0.017085 0.000000
# 6 0.000000 0.000000 0.000000 0.002480 0.000000 0.025317
#
#
# Mechanical properties :
#
#
# Convention : Reuss Voigt Hill
#
# Bulk Modulus (GPa) = 55.96752 72.02164 63.99458
# Shear Modulus (GPa) = 47.17185 52.53383 49.85284
#
# Velocity S-wave (km/s) = 4.27439 4.51079 4.39418
# Velocity P-wave (km/s) = 6.78511 7.41787 7.10853
#
# Compressibility (1/GPa) = 0.01786750
#
# Stress axis : x y z
#
# Youngs Moduli (GPa) = 79.03713 192.38390 106.97798
#
# Poissons Ratio (x) = 0.29082 0.14970
# Poissons Ratio (y) = 0.11948 0.18766
# Poissons Ratio (z) = 0.11060 0.33748
#
# Static dielectric constant tensor:
#      x y z
#    x 2.132310 0.000000 -0.060660 
#    y 0.000000 2.031050 0.000000 
#    z -0.060660 0.000000 2.111470 
# 
# From -- ./inp_files/8221.got.cif
#   From: 2010.05.17/outbox.cif.g08.bks.cpg/sg4_5_cif.got.tgz:8221.got - 2010.06.03 18:43:04.
