data_PCOD9117663
_publ_section_title
;
Structure prediction by ZEFSAII (Michael W. Deem and Ramdas Pophale) SiO2 
 PCOD9117663
Probable space group: P 21
;
_chemical_formula_sum "Si O2"
_cell_formula_units_Z 16
_cell_length_a 9.190874
_cell_length_b 13.226577
_cell_length_c 8.759609
_cell_angle_alpha 90.000000
_cell_angle_beta 147.720224
_cell_angle_gamma 90.000000
_cell_volume 568.688096
_symmetry_space_group_name_H-M "P 21"
_symmetry_group_IT_number 4
_symmetry_cell_setting 'monoclinic'
loop_
_space_group_symop_operation_xyz
x,y,z
-x,1/2+y,-z
loop_
_atom_site_type_symbol
_atom_site_label
_atom_site_fract_x
_atom_site_fract_y
_atom_site_fract_z
Si Si1 0.281742 0.467650 0.279419
Si Si2 0.348920 0.239681 0.349833
Si Si3 0.360714 0.155054 0.693539
Si Si4 0.929771 0.243512 0.709601
Si Si5 0.291744 0.012510 0.105239
Si Si6 0.715383 0.089025 0.268353
Si Si7 0.721098 0.438760 0.402051
Si Si8 0.424470 0.372591 0.839651
O O1 0.470643 0.528038 0.562720
O O2 0.465002 0.459847 0.289872
O O3 0.252632 0.352289 0.307006
O O4 0.984526 0.513533 0.043310
O O5 0.351061 0.175350 0.505047
O O6 0.655047 0.246688 0.563698
O O7 0.164043 0.215211 0.037734
O O8 0.290207 0.264518 0.699917
O O9 0.185333 0.052706 0.556318
O O10 0.643444 0.128529 0.034375
O O11 0.869333 0.166558 0.516232
O O12 0.941856 0.361519 0.666892
O O13 0.399616 0.078718 0.057759
O O14 0.348511 0.899154 0.087674
O O15 0.221761 0.469069 0.652029
O O16 0.584452 0.381398 0.139770
#
# Coordination Sequence:
#
# PCOD9117663 Si02
#       8
#     2   2   2   2   2   2   2   2
#     4  11  22  46  74 107 151 191 252 309 381 446
#     4  11  25  44  75 106 149 192 252 308 378 445
#     4  11  21  47  78 113 153 204 262 311 387 461
#     4  11  24  49  70 111 148 196 246 318 379 447
#     4  10  23  44  76 105 143 200 241 313 374 453
#     4   9  22  44  78 105 152 198 254 308 385 452
#     4  10  23  43  79 114 154 202 257 325 375 464
#     4   9  20  45  76 107 154 197 260 312 385 456
#
# _framework density 28.134930000000001
#
# number of rings (size 3 to 8) (size 9 to 14) (size 15 to 20)
#    0.750    1.000    2.500    1.500    1.750    1.000 
#    4.500    7.500    0.000    0.000    0.000    0.000 
#    0.000    0.000    0.000    0.000    0.000    0.000 
#
# Total GULP energy -89499.574177 kJ/mol
# GULP energy per Si atom -5593.723386 kJ/mol
# Density = 2.807089 g / cm^3
# Si number density = 28.134930 Si / 1000 Ang^3
#
#
#
# Elastic Constant Matrix: (Units=GPa)
#
#
# Indices 1 2 3 4 5 6 
#
# 1 49.6382 50.0967 19.2515 0.0000 -23.7912 0.0000
# 2 50.0967 199.3495 45.5282 0.0000 -22.6493 0.0000
# 3 19.2515 45.5282 118.1122 0.0000 -15.7717 0.0000
# 4 0.0000 0.0000 0.0000 38.0121 0.0000 -14.7532
# 5 -23.7912 -22.6493 -15.7717 0.0000 56.7552 0.0000
# 6 0.0000 0.0000 0.0000 -14.7532 0.0000 53.1167
#
#
#
# Elastic Compliance Matrix: (Units=1/GPa)
#
#
# Indices 1 2 3 4 5 6 
#
# 1 0.032436 -0.006650 -0.001311 0.000000 0.010579 0.000000
# 2 -0.006650 0.007020 -0.001683 0.000000 -0.000454 0.000000
# 3 -0.001311 -0.001683 0.009519 0.000000 0.001424 0.000000
# 4 0.000000 0.000000 0.000000 0.029486 0.000000 0.008190
# 5 0.010579 -0.000454 0.001424 0.000000 0.022269 0.000000
# 6 0.000000 0.000000 0.000000 0.008190 0.000000 0.021101
#
#
# Mechanical properties :
#
#
# Convention : Reuss Voigt Hill
#
# Bulk Modulus (GPa) = 33.68375 66.31696 50.00036
# Shear Modulus (GPa) = 33.10958 46.39170 39.75064
#
# Velocity S-wave (km/s) = 3.43419 4.06507 3.76288
# Velocity P-wave (km/s) = 5.26528 6.75687 6.05716
#
# Compressibility (1/GPa) = 0.02968790
#
# Stress axis : x y z
#
# Youngs Moduli (GPa) = 30.83027 142.44617 105.05290
#
# Poissons Ratio (x) = 0.94724 0.13772
# Poissons Ratio (y) = 0.20502 0.17678
# Poissons Ratio (z) = 0.04042 0.23970
#
# Static dielectric constant tensor:
#      x y z
#    x 2.289590 0.000000 0.024210 
#    y 0.000000 2.359190 0.000000 
#    z 0.024210 0.000000 2.134650 
# 
# From -- ./inp_files/6912.got.cif
#   From: 2010.05.17/outbox.cif.g08.bks.cpg/sg4_4_cif.got.tgz:6912.got - 2010.06.03 18:43:04.
