data_PCOD9117593
_publ_section_title
;
Structure prediction by ZEFSAII (Michael W. Deem and Ramdas Pophale) SiO2 
 PCOD9117593
Probable space group: P 21
;
_chemical_formula_sum "Si O2"
_cell_formula_units_Z 12
_cell_length_a 12.352721
_cell_length_b 5.013236
_cell_length_c 13.181927
_cell_angle_alpha 90.000000
_cell_angle_beta 143.716394
_cell_angle_gamma 90.000000
_cell_volume 483.083098
_symmetry_space_group_name_H-M "P 21"
_symmetry_group_IT_number 4
_symmetry_cell_setting 'monoclinic'
loop_
_space_group_symop_operation_xyz
x,y,z
-x,1/2+y,-z
loop_
_atom_site_type_symbol
_atom_site_label
_atom_site_fract_x
_atom_site_fract_y
_atom_site_fract_z
Si Si1 0.002961 0.314380 0.431183
Si Si2 0.362735 0.333390 0.561730
Si Si3 0.608842 0.207197 0.111873
Si Si4 0.100697 0.133700 0.952365
Si Si5 0.127928 0.132615 0.214872
Si Si6 0.482995 0.336316 0.230219
O O1 0.816801 0.230735 0.232971
O O2 0.977948 0.604900 0.461987
O O3 0.179718 0.308817 0.492651
O O4 0.304688 0.232935 0.407605
O O5 0.439050 0.629344 0.628849
O O6 0.511078 0.131572 0.721285
O O7 0.610822 0.307627 0.229163
O O8 0.472775 0.410855 0.952974
O O9 0.142081 0.150784 0.104308
O O10 0.285520 0.239488 0.043190
O O11 0.935379 0.336403 0.804542
O O12 0.033852 0.838841 0.879377
#
# Coordination Sequence:
#
# PCOD9117593 Si02
#       6
#     2   2   2   2   2   2
#     4  12  23  44  62  87 129 164 200 254 303 365
#     4  12  24  41  65  93 123 166 206 248 310 366
#     4  12  26  41  62  92 124 164 206 252 307 359
#     4  10  23  43  65  92 128 157 203 260 301 368
#     4  10  23  43  66  93 121 165 205 246 316 366
#     4  12  25  42  62  95 127 158 208 258 303 360
#
# _framework density 24.840447000000001
#
# number of rings (size 3 to 8) (size 9 to 14) (size 15 to 20)
#    0.000    0.667    3.333    4.000    4.667    1.333 
#    0.000    0.000    0.000    0.000    0.000    0.000 
#    0.000    0.000    0.000    0.000    0.000    0.000 
#
# Total GULP energy -67261.566875 kJ/mol
# GULP energy per Si atom -5605.130573 kJ/mol
# Density = 2.478391 g / cm^3
# Si number density = 24.840447 Si / 1000 Ang^3
#
#
#
# Elastic Constant Matrix: (Units=GPa)
#
#
# Indices 1 2 3 4 5 6 
#
# 1 41.7621 9.8470 -1.1046 0.0000 6.1524 0.0000
# 2 9.8470 70.5264 -4.3176 0.0000 0.5300 0.0000
# 3 -1.1046 -4.3176 64.5296 0.0000 0.4526 0.0000
# 4 0.0000 0.0000 0.0000 42.9156 0.0000 3.1910
# 5 6.1524 0.5300 0.4526 0.0000 45.7936 0.0000
# 6 0.0000 0.0000 0.0000 3.1910 0.0000 20.2377
#
#
#
# Elastic Compliance Matrix: (Units=1/GPa)
#
#
# Indices 1 2 3 4 5 6 
#
# 1 0.025268 -0.003489 0.000223 0.000000 -0.003357 0.000000
# 2 -0.003489 0.014721 0.000923 0.000000 0.000289 0.000000
# 3 0.000223 0.000923 0.015564 0.000000 -0.000194 0.000000
# 4 0.000000 0.000000 0.000000 0.023578 0.000000 -0.003718
# 5 -0.003357 0.000289 -0.000194 0.000000 0.022287 0.000000
# 6 0.000000 0.000000 0.000000 -0.003718 0.000000 0.049999
#
#
# Mechanical properties :
#
#
# Convention : Reuss Voigt Hill
#
# Bulk Modulus (GPa) = 19.65954 20.62975 20.14465
# Shear Modulus (GPa) = 28.89203 33.28225 31.08714
#
# Velocity S-wave (km/s) = 3.41413 3.66436 3.54145
# Velocity P-wave (km/s) = 4.84492 5.12116 4.98495
#
# Compressibility (1/GPa) = 0.05086588
#
# Stress axis : x y z
#
# Youngs Moduli (GPa) = 39.57533 67.93202 64.25209
#
# Poissons Ratio (x) = 0.23702 -0.01430
# Poissons Ratio (y) = 0.13808 -0.05932
# Poissons Ratio (z) = -0.00881 -0.06271
#
# Static dielectric constant tensor:
#      x y z
#    x 1.951310 0.000000 -0.012420 
#    y 0.000000 1.895690 0.000000 
#    z -0.012420 0.000000 1.969180 
# 
# From -- ./inp_files/13066.got.cif
#   From: 2010.05.17/outbox.cif.g08.bks.cpg/sg4_7_cif.got.tgz:13066.got - 2010.06.03 18:43:04.
