data_PCOD9117190
_publ_section_title
;
Structure prediction by ZEFSAII (Michael W. Deem and Ramdas Pophale) SiO2 
 PCOD9117190
Probable space group: P 21
;
_chemical_formula_sum "Si O2"
_cell_formula_units_Z 16
_cell_length_a 15.453677
_cell_length_b 7.317746
_cell_length_c 11.531462
_cell_angle_alpha 90.000000
_cell_angle_beta 29.114279
_cell_angle_gamma 90.000000
_cell_volume 634.488563
_symmetry_space_group_name_H-M "P 21"
_symmetry_group_IT_number 4
_symmetry_cell_setting 'monoclinic'
loop_
_space_group_symop_operation_xyz
x,y,z
-x,1/2+y,-z
loop_
_atom_site_type_symbol
_atom_site_label
_atom_site_fract_x
_atom_site_fract_y
_atom_site_fract_z
Si Si1 0.378445 0.615150 0.898341
Si Si2 0.382236 0.181769 0.571036
Si Si3 0.822506 0.476678 0.624678
Si Si4 0.474349 0.476957 0.154265
Si Si5 0.029715 0.623826 0.162550
Si Si6 0.984133 0.766874 0.982112
Si Si7 0.165506 0.545300 0.364071
Si Si8 0.372369 0.604930 0.504116
O O1 0.539389 0.558488 0.625195
O O2 0.448008 0.790925 0.885082
O O3 0.219763 0.667424 0.996183
O O4 0.277525 0.500888 0.115189
O O5 0.368700 0.388253 0.538612
O O6 0.512291 0.184860 0.527055
O O7 0.184677 0.134258 0.843472
O O8 0.822582 0.257647 0.613543
O O9 0.900016 0.574111 0.420243
O O10 0.961460 0.509038 0.568759
O O11 0.622658 0.537806 0.888089
O O12 0.278507 0.448775 0.331362
O O13 0.461691 0.619134 0.274159
O O14 0.044744 0.442450 0.064830
O O15 0.976563 0.776984 0.131961
O O16 0.176944 0.687991 0.728808
#
# Coordination Sequence:
#
# PCOD9117190 Si02
#       8
#     2   2   2   2   2   2   2   2
#     4   9  21  45  66  97 144 180 233 290 342 412
#     4  11  23  42  66  96 138 187 226 294 351 403
#     4  10  24  46  68 105 143 187 231 295 347 411
#     4  10  23  43  71 102 137 187 236 284 346 421
#     4  11  24  45  71 102 146 180 236 293 349 418
#     4  12  24  43  68 104 135 187 233 282 355 420
#     4  10  22  44  70 103 140 187 239 282 348 418
#     4  11  25  44  64 103 139 179 242 288 346 417
#
# _framework density 25.217161999999998
#
# number of rings (size 3 to 8) (size 9 to 14) (size 15 to 20)
#    0.000    1.500    2.500    0.750    3.500    4.000 
#   11.250    2.500    0.000    0.000    0.000    0.000 
#    0.000    0.000    0.000    0.000    0.000    0.000 
#
# Total GULP energy -89519.351893 kJ/mol
# GULP energy per Si atom -5594.959493 kJ/mol
# Density = 2.515977 g / cm^3
# Si number density = 25.217162 Si / 1000 Ang^3
#
#
#
# Elastic Constant Matrix: (Units=GPa)
#
#
# Indices 1 2 3 4 5 6 
#
# 1 105.6265 24.5584 28.6472 0.0000 3.5941 0.0000
# 2 24.5584 68.1483 11.8715 0.0000 -1.1256 0.0000
# 3 28.6472 11.8715 118.9738 0.0000 0.3791 0.0000
# 4 0.0000 0.0000 0.0000 30.8897 0.0000 -3.6801
# 5 3.5941 -1.1256 0.3791 0.0000 25.5597 0.0000
# 6 0.0000 0.0000 0.0000 -3.6801 0.0000 39.2517
#
#
#
# Elastic Compliance Matrix: (Units=1/GPa)
#
#
# Indices 1 2 3 4 5 6 
#
# 1 0.010976 -0.003586 -0.002280 0.000000 -0.001668 0.000000
# 2 -0.003586 0.016117 -0.000749 0.000000 0.001225 0.000000
# 3 -0.002280 -0.000749 0.009028 0.000000 0.000154 0.000000
# 4 0.000000 0.000000 0.000000 0.032739 0.000000 0.003069
# 5 -0.001668 0.001225 0.000154 0.000000 0.039410 0.000000
# 6 0.000000 0.000000 0.000000 0.003069 0.000000 0.025764
#
#
# Mechanical properties :
#
#
# Convention : Reuss Voigt Hill
#
# Bulk Modulus (GPa) = 43.68209 46.98921 45.33565
# Shear Modulus (GPa) = 32.28012 34.31833 33.29923
#
# Velocity S-wave (km/s) = 3.58171 3.69306 3.63781
# Velocity P-wave (km/s) = 5.87068 6.07117 5.97177
#
# Compressibility (1/GPa) = 0.02289268
#
# Stress axis : x y z
#
# Youngs Moduli (GPa) = 91.10724 62.04731 110.76207
#
# Poissons Ratio (x) = 0.22249 0.25251
# Poissons Ratio (y) = 0.32669 0.08292
# Poissons Ratio (z) = 0.20770 0.04645
#
# Static dielectric constant tensor:
#      x y z
#    x 1.954750 0.000000 0.022100 
#    y 0.000000 2.042610 0.000000 
#    z 0.022100 0.000000 2.038080 
# 
# From -- ./inp_files/12563.got.cif
#   From: 2010.05.17/outbox.cif.g08.bks.cpg/sg4_7_cif.got.tgz:12563.got - 2010.06.03 18:43:04.
