data_PCOD9117776
_publ_section_title
;
Structure prediction by ZEFSAII (Michael W. Deem and Ramdas Pophale) SiO2 
 PCOD9117776
Probable space group: P 21
;
_chemical_formula_sum "Si O2"
_cell_formula_units_Z 16
_cell_length_a 5.177174
_cell_length_b 8.248851
_cell_length_c 15.995669
_cell_angle_alpha 90.000000
_cell_angle_beta 92.200248
_cell_angle_gamma 90.000000
_cell_volume 682.603212
_symmetry_space_group_name_H-M "P 21"
_symmetry_group_IT_number 4
_symmetry_cell_setting 'monoclinic'
loop_
_space_group_symop_operation_xyz
x,y,z
-x,1/2+y,-z
loop_
_atom_site_type_symbol
_atom_site_label
_atom_site_fract_x
_atom_site_fract_y
_atom_site_fract_z
Si Si1 0.372184 0.673270 0.872998
Si Si2 0.770546 0.930493 0.842977
Si Si3 0.838655 0.153211 0.463483
Si Si4 0.590469 0.640829 0.265863
Si Si5 0.071039 0.666122 0.027657
Si Si6 0.343118 0.281634 0.552950
Si Si7 0.127357 0.794452 0.717648
Si Si8 0.592511 0.821367 0.101335
O O1 0.535601 0.837963 0.886184
O O2 0.311681 0.678108 0.773884
O O3 0.506018 0.505171 0.897368
O O4 0.118925 0.659707 0.929230
O O5 0.886922 0.807016 0.777122
O O6 0.670076 0.071591 0.779427
O O7 0.964846 0.008280 0.913103
O O8 0.590472 0.248214 0.497282
O O9 0.911968 0.227819 0.374501
O O10 0.093805 0.174748 0.523230
O O11 0.751425 0.966854 0.454530
O O12 0.571567 0.731451 0.352962
O O13 0.757371 0.477071 0.281195
O O14 0.681510 0.761853 0.194229
O O15 0.354762 0.720328 0.062386
O O16 0.841956 0.785546 0.048584
#
# Coordination Sequence:
#
# PCOD9117776 Si02
#       8
#     2   2   2   2   2   2   2   2
#     4  11  26  40  70  99 140 185 241 296 358 423
#     4  10  24  45  69 101 141 195 232 301 355 429
#     4  12  28  48  75 110 150 184 244 292 360 424
#     4  10  23  45  72  99 144 185 242 284 368 416
#     4  11  25  44  68  99 142 182 242 291 361 420
#     4  12  27  49  76 111 142 195 233 301 350 434
#     4  11  24  45  71 102 145 191 236 295 361 423
#     4  11  25  44  67 103 134 185 234 302 349 427
#
# _framework density 23.439679000000002
#
# number of rings (size 3 to 8) (size 9 to 14) (size 15 to 20)
#    0.000    1.000    1.250    3.750   12.250    0.000 
#    2.250    0.000    0.000    0.000    0.000    0.000 
#    0.000    0.000    0.000    0.000    0.000    0.000 
#
# Total GULP energy -89420.940150 kJ/mol
# GULP energy per Si atom -5588.808759 kJ/mol
# Density = 2.338633 g / cm^3
# Si number density = 23.439679 Si / 1000 Ang^3
#
#
#
# Elastic Constant Matrix: (Units=GPa)
#
#
# Indices 1 2 3 4 5 6 
#
# 1 68.8920 11.2382 36.2783 0.0000 -10.8262 0.0000
# 2 11.2382 89.2797 36.5806 0.0000 -1.0815 0.0000
# 3 36.2783 36.5806 155.9277 0.0000 1.2683 0.0000
# 4 0.0000 0.0000 0.0000 39.6416 0.0000 0.3545
# 5 -10.8262 -1.0815 1.2683 0.0000 33.7736 0.0000
# 6 0.0000 0.0000 0.0000 0.3545 0.0000 29.7696
#
#
#
# Elastic Compliance Matrix: (Units=1/GPa)
#
#
# Indices 1 2 3 4 5 6 
#
# 1 0.017629 -0.000497 -0.004032 0.000000 0.005787 0.000000
# 2 -0.000497 0.012415 -0.002800 0.000000 0.000343 0.000000
# 3 -0.004032 -0.002800 0.008022 0.000000 -0.001683 0.000000
# 4 0.000000 0.000000 0.000000 0.025229 0.000000 -0.000300
# 5 0.005787 0.000343 -0.001683 0.000000 0.031538 0.000000
# 6 0.000000 0.000000 0.000000 -0.000300 0.000000 0.033595
#
#
# Mechanical properties :
#
#
# Convention : Reuss Voigt Hill
#
# Bulk Modulus (GPa) = 42.71999 53.58818 48.15409
# Shear Modulus (GPa) = 33.13731 35.97044 34.55388
#
# Velocity S-wave (km/s) = 3.76404 3.92164 3.84365
# Velocity P-wave (km/s) = 6.09555 6.58920 6.34717
#
# Compressibility (1/GPa) = 0.02340824
#
# Stress axis : x y z
#
# Youngs Moduli (GPa) = 56.72410 80.55056 124.65975
#
# Poissons Ratio (x) = 0.04003 0.50264
# Poissons Ratio (y) = 0.02819 0.34900
# Poissons Ratio (z) = 0.22872 0.22551
#
# Static dielectric constant tensor:
#      x y z
#    x 1.911790 0.000000 -0.020150 
#    y 0.000000 1.963130 0.000000 
#    z -0.020150 0.000000 1.857640 
# 
# From -- ./inp_files/4033.got.cif
#   From: 2010.05.17/outbox.cif.g08.bks.cpg/sg4_3_cif.got.tgz:4033.got - 2010.06.03 18:43:04.
