data_PCOD9117666
_publ_section_title
;
Structure prediction by ZEFSAII (Michael W. Deem and Ramdas Pophale) SiO2 
 PCOD9117666
Probable space group: P 21
;
_chemical_formula_sum "Si O2"
_cell_formula_units_Z 16
_cell_length_a 5.122040
_cell_length_b 8.709711
_cell_length_c 16.286957
_cell_angle_alpha 90.000000
_cell_angle_beta 120.857411
_cell_angle_gamma 90.000000
_cell_volume 623.734606
_symmetry_space_group_name_H-M "P 21"
_symmetry_group_IT_number 4
_symmetry_cell_setting 'monoclinic'
loop_
_space_group_symop_operation_xyz
x,y,z
-x,1/2+y,-z
loop_
_atom_site_type_symbol
_atom_site_label
_atom_site_fract_x
_atom_site_fract_y
_atom_site_fract_z
Si Si1 0.298306 0.354150 0.046509
Si Si2 0.831726 0.769647 0.804286
Si Si3 0.637812 0.179284 0.487320
Si Si4 0.550277 0.985036 0.251678
Si Si5 0.119878 0.815164 0.309828
Si Si6 0.072301 0.361899 0.432982
Si Si7 0.854372 0.506202 0.236857
Si Si8 0.369857 0.556364 0.907377
O O1 0.081568 0.315390 0.087731
O O2 0.396669 0.187745 0.028495
O O3 0.570803 0.439182 0.140880
O O4 0.235815 0.460047 0.959649
O O5 0.534021 0.664390 0.749668
O O6 0.854010 0.923267 0.756816
O O7 0.096066 0.651821 0.822052
O O8 0.698362 0.223455 0.591813
O O9 0.294727 0.241302 0.422053
O O10 0.868615 0.273925 0.466780
O O11 0.716258 0.998417 0.493536
O O12 0.336751 0.886393 0.276386
O O13 0.898502 0.936620 0.318356
O O14 0.486231 0.961366 0.143998
O O15 0.894751 0.686678 0.236355
O O16 0.865645 0.451116 0.332850
#
# Coordination Sequence:
#
# PCOD9117666 Si02
#       8
#     2   2   2   2   2   2   2   2
#     4  10  24  43  68  98 140 183 233 282 346 405
#     4  10  23  44  66 102 139 184 234 280 352 407
#     4  11  25  46  70 107 136 189 229 296 344 427
#     4  11  23  44  68 102 138 182 227 293 337 418
#     4  11  25  44  73 101 141 174 240 279 360 409
#     4  11  25  47  72 103 147 179 240 284 358 416
#     4  10  26  44  67 104 138 189 225 293 346 422
#     4  10  23  44  64 101 139 180 234 283 339 412
#
# _framework density 25.651935999999999
#
# number of rings (size 3 to 8) (size 9 to 14) (size 15 to 20)
#    0.000    1.500    1.250    1.500    5.250    9.000 
#    4.500    0.000    0.000    0.000    0.000    0.000 
#    0.000    0.000    0.000    0.000    0.000    0.000 
#
# Total GULP energy -89539.588959 kJ/mol
# GULP energy per Si atom -5596.224310 kJ/mol
# Density = 2.559355 g / cm^3
# Si number density = 25.651936 Si / 1000 Ang^3
#
#
#
# Elastic Constant Matrix: (Units=GPa)
#
#
# Indices 1 2 3 4 5 6 
#
# 1 127.4474 45.7059 21.0428 0.0000 -32.7625 0.0000
# 2 45.7059 132.1893 37.2737 0.0000 -25.1405 0.0000
# 3 21.0428 37.2737 59.0428 0.0000 -17.1395 0.0000
# 4 0.0000 0.0000 0.0000 44.9737 0.0000 -8.3359
# 5 -32.7625 -25.1405 -17.1395 0.0000 34.8891 0.0000
# 6 0.0000 0.0000 0.0000 -8.3359 0.0000 39.1477
#
#
#
# Elastic Compliance Matrix: (Units=1/GPa)
#
#
# Indices 1 2 3 4 5 6 
#
# 1 0.010822 -0.002090 -0.000029 0.000000 0.008642 0.000000
# 2 -0.002090 0.010227 -0.004831 0.000000 0.003033 0.000000
# 3 -0.000029 -0.004831 0.022135 0.000000 0.007366 0.000000
# 4 0.000000 0.000000 0.000000 0.023149 0.000000 0.004929
# 5 0.008642 0.003033 0.007366 0.000000 0.042582 0.000000
# 6 0.000000 0.000000 0.000000 0.004929 0.000000 0.026594
#
#
# Mechanical properties :
#
#
# Convention : Reuss Voigt Hill
#
# Bulk Modulus (GPa) = 34.14725 58.52493 46.33609
# Shear Modulus (GPa) = 31.41301 38.11257 34.76279
#
# Velocity S-wave (km/s) = 3.50321 3.85873 3.68526
# Velocity P-wave (km/s) = 5.45013 6.53587 6.01754
#
# Compressibility (1/GPa) = 0.02928494
#
# Stress axis : x y z
#
# Youngs Moduli (GPa) = 92.40092 97.78434 45.17737
#
# Poissons Ratio (x) = 0.20439 0.00130
# Poissons Ratio (y) = 0.19314 0.21823
# Poissons Ratio (z) = 0.00266 0.47236
#
# Static dielectric constant tensor:
#      x y z
#    x 2.050780 0.000000 0.043210 
#    y 0.000000 1.984430 0.000000 
#    z 0.043210 0.000000 2.072300 
# 
# From -- ./inp_files/13233.got.cif
#   From: 2010.05.17/outbox.cif.g08.bks.cpg/sg4_7_cif.got.tgz:13233.got - 2010.06.03 18:43:04.
