data_PCOD9117864
_publ_section_title
;
Structure prediction by ZEFSAII (Michael W. Deem and Ramdas Pophale) SiO2 
 PCOD9117864
Probable space group: P 21
;
_chemical_formula_sum "Si O2"
_cell_formula_units_Z 14
_cell_length_a 5.515398
_cell_length_b 17.367314
_cell_length_c 5.225423
_cell_angle_alpha 90.000000
_cell_angle_beta 86.727249
_cell_angle_gamma 90.000000
_cell_volume 499.714658
_symmetry_space_group_name_H-M "P 21"
_symmetry_group_IT_number 4
_symmetry_cell_setting 'monoclinic'
loop_
_space_group_symop_operation_xyz
x,y,z
-x,1/2+y,-z
loop_
_atom_site_type_symbol
_atom_site_label
_atom_site_fract_x
_atom_site_fract_y
_atom_site_fract_z
Si Si1 0.949976 0.142250 0.846564
Si Si2 0.293336 0.495927 0.268825
Si Si3 0.419355 0.266959 0.463553
Si Si4 0.434074 0.382026 0.873572
Si Si5 0.079713 0.747821 0.662241
Si Si6 0.064695 0.954015 0.324899
Si Si7 0.340499 0.089312 0.460010
O O1 0.760499 0.072626 0.890423
O O2 0.954613 0.195068 0.090726
O O3 0.891265 0.196531 0.600241
O O4 0.200355 0.104444 0.736416
O O5 0.448191 0.428626 0.138094
O O6 0.435544 0.533503 0.499918
O O7 0.039242 0.462125 0.381901
O O8 0.410815 0.294820 0.760598
O O9 0.670505 0.292876 0.324177
O O10 0.413733 0.176140 0.393176
O O11 0.166328 0.295297 0.360761
O O12 0.695210 0.404869 0.735889
O O13 0.170296 0.419175 0.804141
O O14 0.158981 0.042831 0.284083
#
# Coordination Sequence:
#
# PCOD9117864 Si02
#       7
#     2   2   2   2   2   2   2
#     4  10  25  42  77 114 144 199 257 325 380 456
#     4  11  25  45  78 108 148 203 259 329 380 483
#     4  11  26  49  70 111 155 197 260 326 396 462
#     4  12  28  48  76 107 155 206 256 325 406 467
#     4  11  25  48  74 109 154 196 258 318 391 458
#     4  11  26  49  72 110 146 199 261 316 393 474
#     4  10  23  47  75 111 146 200 259 333 374 476
#
# _framework density 28.015993000000002
#
# number of rings (size 3 to 8) (size 9 to 14) (size 15 to 20)
#    0.000    1.143    2.857    0.857   14.000    0.000 
#   12.857    0.000    0.000    0.000    0.000    0.000 
#    0.000    0.000    0.000    0.000    0.000    0.000 
#
# Total GULP energy -78221.440007 kJ/mol
# GULP energy per Si atom -5587.245715 kJ/mol
# Density = 2.795223 g / cm^3
# Si number density = 28.015993 Si / 1000 Ang^3
#
#
#
# Elastic Constant Matrix: (Units=GPa)
#
#
# Indices 1 2 3 4 5 6 
#
# 1 201.1264 46.8184 17.5068 0.0000 -11.7254 0.0000
# 2 46.8184 135.9107 24.3791 0.0000 2.8264 0.0000
# 3 17.5068 24.3791 78.3937 0.0000 4.8633 0.0000
# 4 0.0000 0.0000 0.0000 45.9578 0.0000 8.2905
# 5 -11.7254 2.8264 4.8633 0.0000 31.1083 0.0000
# 6 0.0000 0.0000 0.0000 8.2905 0.0000 36.9285
#
#
#
# Elastic Compliance Matrix: (Units=1/GPa)
#
#
# Indices 1 2 3 4 5 6 
#
# 1 0.005612 -0.001834 -0.000833 0.000000 0.002412 0.000000
# 2 -0.001834 0.008395 -0.002132 0.000000 -0.001121 0.000000
# 3 -0.000833 -0.002132 0.013746 0.000000 -0.002269 0.000000
# 4 0.000000 0.000000 0.000000 0.022677 0.000000 -0.005091
# 5 0.002412 -0.001121 -0.002269 0.000000 0.033511 0.000000
# 6 0.000000 0.000000 0.000000 -0.005091 0.000000 0.028222
#
#
# Mechanical properties :
#
#
# Convention : Reuss Voigt Hill
#
# Bulk Modulus (GPa) = 55.07681 65.87105 60.47393
# Shear Modulus (GPa) = 39.11966 44.58069 41.85017
#
# Velocity S-wave (km/s) = 3.74081 3.99339 3.86916
# Velocity P-wave (km/s) = 6.19354 6.69521 6.44925
#
# Compressibility (1/GPa) = 0.01815646
#
# Stress axis : x y z
#
# Youngs Moduli (GPa) = 178.18903 119.11508 72.74982
#
# Poissons Ratio (x) = 0.21846 0.06057
# Poissons Ratio (y) = 0.32681 0.15508
# Poissons Ratio (z) = 0.14835 0.25391
#
# Static dielectric constant tensor:
#      x y z
#    x 2.236040 0.000000 0.068090 
#    y 0.000000 2.167700 0.000000 
#    z 0.068090 0.000000 2.284040 
# 
# From -- ./inp_files/412.got.cif
#   From: 2010.05.17/outbox.cif.g08.bks.cpg/sg4_1_cif.got.tgz:412.got - 2010.06.03 18:43:04.
