data_PCOD9117137
_publ_section_title
;
Structure prediction by ZEFSAII (Michael W. Deem and Ramdas Pophale) SiO2 
 PCOD9117137
Probable space group: P 21
;
_chemical_formula_sum "Si O2"
_cell_formula_units_Z 14
_cell_length_a 7.709067
_cell_length_b 11.488733
_cell_length_c 10.876338
_cell_angle_alpha 90.000000
_cell_angle_beta 40.510489
_cell_angle_gamma 90.000000
_cell_volume 625.740320
_symmetry_space_group_name_H-M "P 21"
_symmetry_group_IT_number 4
_symmetry_cell_setting 'monoclinic'
loop_
_space_group_symop_operation_xyz
x,y,z
-x,1/2+y,-z
loop_
_atom_site_type_symbol
_atom_site_label
_atom_site_fract_x
_atom_site_fract_y
_atom_site_fract_z
Si Si1 0.743703 0.510770 0.114117
Si Si2 0.680207 0.367873 0.757270
Si Si3 0.467939 0.794739 0.898367
Si Si4 0.526236 0.489046 0.489669
Si Si5 0.962071 0.541131 0.751965
Si Si6 0.356080 0.557323 0.832048
Si Si7 0.082412 0.797144 0.614251
O O1 0.676005 0.374537 0.126899
O O2 0.585713 0.542083 0.323326
O O3 0.722273 0.549252 0.981601
O O4 0.040848 0.557142 0.979406
O O5 0.409405 0.429924 0.860745
O O6 0.782253 0.290157 0.592459
O O7 0.865236 0.481759 0.679145
O O8 0.666049 0.309361 0.896507
O O9 0.444124 0.662455 0.869829
O O10 0.775456 0.832735 0.753269
O O11 0.209976 0.458214 0.658706
O O12 0.525254 0.566413 0.614017
O O13 0.739964 0.387324 0.402443
O O14 0.069895 0.670456 0.680143
#
# Coordination Sequence:
#
# PCOD9117137 Si02
#       7
#     2   2   2   2   2   2   2
#     4  10  23  41  65  94 131 167 211 260 318 377
#     4  10  22  44  66  96 130 164 216 266 312 380
#     4  11  23  42  71  92 128 173 211 260 323 375
#     4  10  23  41  65  94 131 167 211 260 318 377
#     4  10  22  44  64  98 131 162 216 269 307 383
#     4  10  22  44  64  98 131 162 216 269 307 383
#     4  11  23  42  71  92 128 173 211 260 323 375
#
# _framework density 22.3735
#
# number of rings (size 3 to 8) (size 9 to 14) (size 15 to 20)
#    0.000    1.714    1.429    1.714    4.000    2.286 
#   12.857    0.000    0.000    0.000    0.000    0.000 
#    0.000    0.000    0.000    0.000    0.000    0.000 
#
# Total GULP energy -77988.941326 kJ/mol
# GULP energy per Si atom -5570.638666 kJ/mol
# Density = 2.232258 g / cm^3
# Si number density = 22.373500 Si / 1000 Ang^3
#
#
#
# Elastic Constant Matrix: (Units=GPa)
#
#
# Indices 1 2 3 4 5 6 
#
# 1 65.5986 13.6523 19.6404 0.0000 11.0647 0.0000
# 2 13.6523 66.0518 38.8540 0.0000 4.9795 0.0000
# 3 19.6404 38.8540 120.2832 0.0000 36.4457 0.0000
# 4 0.0000 0.0000 0.0000 25.6072 0.0000 -0.9512
# 5 11.0647 4.9795 36.4457 0.0000 38.1176 0.0000
# 6 0.0000 0.0000 0.0000 -0.9512 0.0000 32.4543
#
#
#
# Elastic Compliance Matrix: (Units=1/GPa)
#
#
# Indices 1 2 3 4 5 6 
#
# 1 0.016666 -0.002764 -0.000664 0.000000 -0.003841 0.000000
# 2 -0.002764 0.019765 -0.007594 0.000000 0.005481 0.000000
# 3 -0.000664 -0.007594 0.014805 0.000000 -0.012971 0.000000
# 4 0.000000 0.000000 0.000000 0.039094 0.000000 0.001146
# 5 -0.003841 0.005481 -0.012971 0.000000 0.039036 0.000000
# 6 0.000000 0.000000 0.000000 0.001146 0.000000 0.030846
#
#
# Mechanical properties :
#
#
# Convention : Reuss Voigt Hill
#
# Bulk Modulus (GPa) = 34.25684 44.02523 39.14104
# Shear Modulus (GPa) = 26.04321 31.22160 28.63241
#
# Velocity S-wave (km/s) = 3.41548 3.73965 3.58124
# Velocity P-wave (km/s) = 5.55865 6.19409 5.88495
#
# Compressibility (1/GPa) = 0.02919125
#
# Stress axis : x y z
#
# Youngs Moduli (GPa) = 60.00089 50.59507 67.54273
#
# Poissons Ratio (x) = 0.13986 0.04488
# Poissons Ratio (y) = 0.16586 0.51291
# Poissons Ratio (z) = 0.03987 0.38421
#
# Static dielectric constant tensor:
#      x y z
#    x 1.928910 0.000000 0.006360 
#    y 0.000000 1.840860 0.000000 
#    z 0.006360 0.000000 1.862810 
# 
# From -- ./inp_files/8139.got.cif
#   From: 2010.05.17/outbox.cif.g08.bks.cpg/sg4_5_cif.got.tgz:8139.got - 2010.06.03 18:43:04.
