data_PCOD9117682
_publ_section_title
;
Structure prediction by ZEFSAII (Michael W. Deem and Ramdas Pophale) SiO2 
 PCOD9117682
Probable space group: P 21
;
_chemical_formula_sum "Si O2"
_cell_formula_units_Z 16
_cell_length_a 4.886593
_cell_length_b 22.564414
_cell_length_c 5.551216
_cell_angle_alpha 90.000000
_cell_angle_beta 93.632052
_cell_angle_gamma 90.000000
_cell_volume 610.864902
_symmetry_space_group_name_H-M "P 21"
_symmetry_group_IT_number 4
_symmetry_cell_setting 'monoclinic'
loop_
_space_group_symop_operation_xyz
x,y,z
-x,1/2+y,-z
loop_
_atom_site_type_symbol
_atom_site_label
_atom_site_fract_x
_atom_site_fract_y
_atom_site_fract_z
Si Si1 0.451437 0.521120 0.125948
Si Si2 0.895051 0.881331 0.370829
Si Si3 0.167644 0.253805 0.819486
Si Si4 0.615661 0.998678 0.376991
Si Si5 0.220660 0.673715 0.499945
Si Si6 0.773859 0.398269 0.113812
Si Si7 0.251090 0.091554 0.526895
Si Si8 0.678970 0.270575 0.114930
O O1 0.290245 0.525538 0.870096
O O2 0.263885 0.518759 0.356948
O O3 0.600952 0.457891 0.119531
O O4 0.684742 0.570000 0.194279
O O5 0.051396 0.893001 0.630154
O O6 0.825570 0.811654 0.350273
O O7 0.060533 0.895952 0.131228
O O8 0.646146 0.928220 0.364142
O O9 0.987381 0.200006 0.711223
O O10 0.473911 0.239340 0.915824
O O11 0.990927 0.272682 0.041665
O O12 0.317820 0.029472 0.393052
O O13 0.496831 0.637248 0.486074
O O14 0.312780 0.731928 0.648359
O O15 0.009659 0.624921 0.591012
O O16 0.587650 0.338788 0.116096
#
# Coordination Sequence:
#
# PCOD9117682 Si02
#       8
#     2   2   2   2   2   2   2   2
#     4  10  23  44  67 108 141 196 238 307 366 440
#     4  11  23  42  73 114 149 191 239 309 381 452
#     4  11  25  45  74 110 145 194 242 309 376 444
#     4  10  23  44  67 108 141 196 238 307 366 440
#     4  12  24  52  68 110 142 202 252 306 362 440
#     4  11  23  42  73 114 149 191 239 309 381 452
#     4  10  28  42  76 100 148 200 252 300 364 434
#     4  11  25  45  74 110 145 194 242 309 376 444
#
# _framework density 26.192367999999998
#
# number of rings (size 3 to 8) (size 9 to 14) (size 15 to 20)
#    0.750    0.500    1.250    3.750    1.750    5.000 
#    2.250    0.000    0.000    0.000    0.000    0.000 
#    0.000    0.000    0.000    0.000    0.000    0.000 
#
# Total GULP energy -89340.844108 kJ/mol
# GULP energy per Si atom -5583.802757 kJ/mol
# Density = 2.613275 g / cm^3
# Si number density = 26.192368 Si / 1000 Ang^3
#
#
#
# Elastic Constant Matrix: (Units=GPa)
#
#
# Indices 1 2 3 4 5 6 
#
# 1 108.5373 27.5033 30.9971 0.0000 14.9695 0.0000
# 2 27.5033 87.7188 -7.0876 0.0000 -3.8192 0.0000
# 3 30.9971 -7.0876 135.9496 0.0000 0.1252 0.0000
# 4 0.0000 0.0000 0.0000 29.7361 0.0000 -4.6942
# 5 14.9695 -3.8192 0.1252 0.0000 30.1132 0.0000
# 6 0.0000 0.0000 0.0000 -4.6942 0.0000 46.0726
#
#
#
# Elastic Compliance Matrix: (Units=1/GPa)
#
#
# Indices 1 2 3 4 5 6 
#
# 1 0.012050 -0.004302 -0.002966 0.000000 -0.006524 0.000000
# 2 -0.004302 0.013048 0.001658 0.000000 0.003786 0.000000
# 3 -0.002966 0.001658 0.008117 0.000000 0.001651 0.000000
# 4 0.000000 0.000000 0.000000 0.034179 0.000000 0.003482
# 5 -0.006524 0.003786 0.001651 0.000000 0.036924 0.000000
# 6 0.000000 0.000000 0.000000 0.003482 0.000000 0.022060
#
#
# Mechanical properties :
#
#
# Convention : Reuss Voigt Hill
#
# Bulk Modulus (GPa) = 45.46585 48.33682 46.90134
# Shear Modulus (GPa) = 34.49962 39.90392 37.20177
#
# Velocity S-wave (km/s) = 3.63321 3.90743 3.77281
# Velocity P-wave (km/s) = 5.91578 6.23313 6.07653
#
# Compressibility (1/GPa) = 0.02199453
#
# Stress axis : x y z
#
# Youngs Moduli (GPa) = 82.98592 76.64212 123.20172
#
# Poissons Ratio (x) = 0.32971 0.36539
# Poissons Ratio (y) = 0.35700 -0.20422
# Poissons Ratio (z) = 0.24612 -0.12704
#
# Static dielectric constant tensor:
#      x y z
#    x 2.043430 0.000000 -0.041930 
#    y 0.000000 2.112160 0.000000 
#    z -0.041930 0.000000 2.138130 
# 
# From -- ./inp_files/773.got.cif
#   From: 2010.05.17/outbox.cif.g08.bks.cpg/sg4_1_cif.got.tgz:773.got - 2010.06.03 18:43:04.
