data_PCOD9117565
_publ_section_title
;
Structure prediction by ZEFSAII (Michael W. Deem and Ramdas Pophale) SiO2 
 PCOD9117565
Probable space group: P 21
;
_chemical_formula_sum "Si O2"
_cell_formula_units_Z 16
_cell_length_a 9.438212
_cell_length_b 5.417246
_cell_length_c 28.084996
_cell_angle_alpha 90.000000
_cell_angle_beta 27.034155
_cell_angle_gamma 90.000000
_cell_volume 652.675250
_symmetry_space_group_name_H-M "P 21"
_symmetry_group_IT_number 4
_symmetry_cell_setting 'monoclinic'
loop_
_space_group_symop_operation_xyz
x,y,z
-x,1/2+y,-z
loop_
_atom_site_type_symbol
_atom_site_label
_atom_site_fract_x
_atom_site_fract_y
_atom_site_fract_z
Si Si1 0.495652 0.271820 0.125705
Si Si2 0.790924 0.744251 0.379513
Si Si3 0.645705 0.280070 0.239014
Si Si4 0.183302 0.448848 0.453161
Si Si5 0.602009 0.250314 0.410712
Si Si6 0.646257 0.475909 0.742862
Si Si7 0.328020 0.194723 0.069398
Si Si8 0.173958 0.100749 0.906575
O O1 0.335860 0.257858 0.123015
O O2 0.637615 0.528351 0.102229
O O3 0.315708 0.163211 0.224792
O O4 0.810869 0.110561 0.024288
O O5 0.823669 0.488906 0.342152
O O6 0.499873 0.727229 0.503132
O O7 0.085632 0.782550 0.325850
O O8 0.729127 0.976003 0.363218
O O9 0.477299 0.445701 0.328701
O O10 0.739633 0.419990 0.162385
O O11 0.967996 0.169723 0.161653
O O12 0.373658 0.094532 0.302625
O O13 0.320911 0.337731 0.461233
O O14 0.054680 0.729503 0.492112
O O15 0.306299 0.358906 0.849731
O O16 0.489667 0.437449 0.996445
#
# Coordination Sequence:
#
# PCOD9117565 Si02
#       8
#     2   2   2   2   2   2   2   2
#     4  11  24  42  68 101 140 188 236 291 357 425
#     4  10  23  42  70  99 136 177 229 298 354 414
#     4  11  28  46  72 107 147 195 248 302 369 448
#     4  12  28  48  76 105 148 198 246 305 371 442
#     4  10  23  45  67 101 138 176 232 295 357 423
#     4  11  25  42  74  99 138 187 244 294 356 431
#     4  12  28  47  72 106 151 195 239 303 371 434
#     4  11  23  44  69 102 140 186 244 296 353 437
#
# _framework density 24.514486999999999
#
# number of rings (size 3 to 8) (size 9 to 14) (size 15 to 20)
#    0.000    1.000    2.500    2.250   12.250    1.000 
#    0.000    0.000    0.000    0.000    0.000    0.000 
#    0.000    0.000    0.000    0.000    0.000    0.000 
#
# Total GULP energy -89390.763664 kJ/mol
# GULP energy per Si atom -5586.922729 kJ/mol
# Density = 2.445869 g / cm^3
# Si number density = 24.514487 Si / 1000 Ang^3
#
#
#
# Elastic Constant Matrix: (Units=GPa)
#
#
# Indices 1 2 3 4 5 6 
#
# 1 123.2223 18.9153 -7.0537 0.0000 -7.1955 0.0000
# 2 18.9153 109.4190 11.9798 0.0000 -5.2607 0.0000
# 3 -7.0537 11.9798 50.4669 0.0000 -6.7250 0.0001
# 4 0.0000 0.0000 0.0000 32.9577 0.0000 -9.5847
# 5 -7.1955 -5.2607 -6.7250 0.0000 34.1391 0.0000
# 6 0.0000 0.0000 0.0001 -9.5847 0.0000 29.3641
#
#
#
# Elastic Compliance Matrix: (Units=1/GPa)
#
#
# Indices 1 2 3 4 5 6 
#
# 1 0.008577 -0.001591 0.001833 0.000000 0.001924 0.000000
# 2 -0.001591 0.009714 -0.002437 0.000000 0.000681 0.000000
# 3 0.001833 -0.002437 0.021208 0.000000 0.004188 0.000000
# 4 0.000000 0.000000 0.000000 0.033524 0.000000 0.010943
# 5 0.001924 0.000681 0.004188 0.000000 0.030627 0.000000
# 6 0.000000 0.000000 0.000000 0.010943 0.000000 0.037627
#
#
# Mechanical properties :
#
#
# Convention : Reuss Voigt Hill
#
# Bulk Modulus (GPa) = 28.48396 36.75456 32.61926
# Shear Modulus (GPa) = 31.77212 36.57663 34.17438
#
# Velocity S-wave (km/s) = 3.60398 3.86689 3.73775
# Velocity P-wave (km/s) = 5.38170 5.91292 5.65355
#
# Compressibility (1/GPa) = 0.03510748
#
# Stress axis : x y z
#
# Youngs Moduli (GPa) = 116.59272 102.94610 47.15237
#
# Poissons Ratio (x) = 0.16377 -0.08642
# Poissons Ratio (y) = 0.18548 0.11493
# Poissons Ratio (z) = -0.21369 0.25092
#
# Static dielectric constant tensor:
#      x y z
#    x 1.929170 0.000000 -0.019700 
#    y 0.000000 2.016800 0.000000 
#    z -0.019700 0.000000 1.968590 
# 
# From -- ./inp_files/7353.got.cif
#   From: 2010.05.17/outbox.cif.g08.bks.cpg/sg4_4_cif.got.tgz:7353.got - 2010.06.03 18:43:04.
