data_PCOD9117210
_publ_section_title
;
Structure prediction by ZEFSAII (Michael W. Deem and Ramdas Pophale) SiO2 
 PCOD9117210
Probable space group: P 21
;
_chemical_formula_sum "Si O2"
_cell_formula_units_Z 12
_cell_length_a 9.702328
_cell_length_b 11.037527
_cell_length_c 10.391026
_cell_angle_alpha 90.000000
_cell_angle_beta 152.398315
_cell_angle_gamma 90.000000
_cell_volume 515.571825
_symmetry_space_group_name_H-M "P 21"
_symmetry_group_IT_number 4
_symmetry_cell_setting 'monoclinic'
loop_
_space_group_symop_operation_xyz
x,y,z
-x,1/2+y,-z
loop_
_atom_site_type_symbol
_atom_site_label
_atom_site_fract_x
_atom_site_fract_y
_atom_site_fract_z
Si Si1 0.366489 0.036020 0.516720
Si Si2 0.679165 0.452331 0.813267
Si Si3 0.276915 0.808802 0.622794
Si Si4 0.687117 0.714898 0.182789
Si Si5 0.186091 0.690930 0.983413
Si Si6 0.920083 0.066059 0.646203
O O1 0.346990 0.984154 0.357533
O O2 0.685985 0.090711 0.813719
O O3 0.300953 0.932000 0.565769
O O4 0.127372 0.144449 0.327828
O O5 0.811891 0.319864 0.946398
O O6 0.342562 0.469671 0.588570
O O7 0.891709 0.539441 0.071599
O O8 0.973197 0.795875 0.454094
O O9 0.241077 0.697368 0.491509
O O10 0.547503 0.776851 0.940162
O O11 0.428922 0.699434 0.070784
O O12 0.835877 0.586112 0.264907
#
# Coordination Sequence:
#
# PCOD9117210 Si02
#       6
#     2   2   2   2   2   2
#     4  12  28  44  71  98 145 180 227 286 334 419
#     4  12  26  44  71  96 143 181 223 287 330 419
#     4  10  22  45  70 101 130 184 220 275 353 398
#     4  10  22  44  72 103 136 168 234 279 342 414
#     4  12  28  46  66 111 131 181 235 284 342 396
#     4  10  22  45  70  99 129 184 223 273 351 396
#
# _framework density 23.275127999999999
#
# number of rings (size 3 to 8) (size 9 to 14) (size 15 to 20)
#    1.000    0.000    1.667    4.000    4.667    4.000 
#    0.000    0.000    0.000    0.000    0.000    0.000 
#    0.000    0.000    0.000    0.000    0.000    0.000 
#
# Total GULP energy -67109.322832 kJ/mol
# GULP energy per Si atom -5592.443569 kJ/mol
# Density = 2.322215 g / cm^3
# Si number density = 23.275128 Si / 1000 Ang^3
#
#
#
# Elastic Constant Matrix: (Units=GPa)
#
#
# Indices 1 2 3 4 5 6 
#
# 1 31.3286 50.8820 -11.1437 0.0000 14.1260 0.0000
# 2 50.8820 26.4422 8.4482 0.0000 -45.4621 0.0000
# 3 -11.1437 8.4482 105.7572 0.0000 2.5032 0.0000
# 4 0.0000 0.0000 0.0000 -16.2782 0.0000 -26.6363
# 5 14.1260 -45.4621 2.5032 0.0000 13.2321 0.0000
# 6 0.0000 0.0000 0.0000 -26.6363 0.0000 20.6432
#
#
#
# Elastic Compliance Matrix: (Units=1/GPa)
#
#
# Indices 1 2 3 4 5 6 
#
# 1 0.010821 0.008301 0.000076 0.000000 0.016953 0.000000
# 2 0.008301 -0.001179 0.001280 0.000000 -0.013154 0.000000
# 3 0.000076 0.001280 0.009301 0.000000 0.002558 0.000000
# 4 0.000000 0.000000 0.000000 -0.019744 0.000000 -0.025476
# 5 0.016953 -0.013154 0.002558 0.000000 0.011799 0.000000
# 6 0.000000 0.000000 0.000000 -0.025476 0.000000 0.015569
#
#
# Mechanical properties :
#
#
# Convention : Reuss Voigt Hill
#
# Bulk Modulus (GPa) = 26.13931 28.87790 27.50860
# Shear Modulus (GPa) = 249.92997 11.20885 130.56941
#
# Velocity S-wave (km/s) = 10.37371 2.19687 7.49800
# Velocity P-wave (km/s) = 12.43946 4.34386 9.31690
#
# Compressibility (1/GPa) = 0.03825656
#
# Stress axis : x y z
#
# Youngs Moduli (GPa) = 92.41345 -848.34171 107.51748
#
# Poissons Ratio (x) = 7.04190 -0.00816
# Poissons Ratio (y) = -0.76710 -0.13764
# Poissons Ratio (z) = -0.00701 1.08601
#
# Static dielectric constant tensor:
#      x y z
#    x 1.919170 0.000000 0.015350 
#    y 0.000000 1.871510 0.000000 
#    z 0.015350 0.000000 1.806560 
# 
# From -- ./inp_files/12058.got.cif
#   From: 2010.05.17/outbox.cif.g08.bks.cpg/sg4_7_cif.got.tgz:12058.got - 2010.06.03 18:43:04.
