data_PCOD9117344
_publ_section_title
;
Structure prediction by ZEFSAII (Michael W. Deem and Ramdas Pophale) SiO2 
 PCOD9117344
Probable space group: P 21
;
_chemical_formula_sum "Si O2"
_cell_formula_units_Z 16
_cell_length_a 11.647946
_cell_length_b 7.948484
_cell_length_c 11.912990
_cell_angle_alpha 90.000000
_cell_angle_beta 142.347685
_cell_angle_gamma 90.000000
_cell_volume 673.755055
_symmetry_space_group_name_H-M "P 21"
_symmetry_group_IT_number 4
_symmetry_cell_setting 'monoclinic'
loop_
_space_group_symop_operation_xyz
x,y,z
-x,1/2+y,-z
loop_
_atom_site_type_symbol
_atom_site_label
_atom_site_fract_x
_atom_site_fract_y
_atom_site_fract_z
Si Si1 0.816771 0.343640 0.833471
Si Si2 0.793574 0.418818 0.563045
Si Si3 0.463813 0.348504 0.144178
Si Si4 0.739135 0.908711 0.379227
Si Si5 0.588709 0.766572 0.469604
Si Si6 0.440919 0.715572 0.014415
Si Si7 0.058101 0.634992 0.632637
Si Si8 0.771983 0.737319 0.836247
O O1 0.830260 0.327699 0.708648
O O2 0.631032 0.244213 0.725682
O O3 0.772676 0.535426 0.833621
O O4 0.017713 0.290363 0.035363
O O5 0.649206 0.334012 0.365319
O O6 0.694426 0.594826 0.521932
O O7 0.982374 0.476955 0.645969
O O8 0.470479 0.228025 0.041405
O O9 0.292473 0.309345 0.094491
O O10 0.465443 0.536082 0.093527
O O11 0.681441 0.911009 0.464555
O O12 0.882224 0.752800 0.473120
O O13 0.844730 0.061121 0.402618
O O14 0.548505 0.855443 0.168808
O O15 0.627246 0.801665 0.629484
O O16 0.217966 0.736202 0.823863
#
# Coordination Sequence:
#
# PCOD9117344 Si02
#       8
#     2   2   2   2   2   2   2   2
#     4  11  25  44  72 108 146 191 244 291 361 436
#     4  10  22  46  73  95 143 197 231 304 357 421
#     4  12  24  48  71 104 147 189 244 297 366 428
#     4  11  25  43  67 101 140 190 236 296 358 428
#     4  10  23  45  70 103 141 189 240 296 365 420
#     4  12  25  43  72 100 144 186 237 298 363 424
#     4  11  23  43  66 100 135 187 239 284 361 422
#     4  11  27  46  73 109 142 195 243 298 365 429
#
# _framework density 23.747502000000001
#
# number of rings (size 3 to 8) (size 9 to 14) (size 15 to 20)
#    0.000    1.000    5.000    1.500    3.500    3.000 
#    2.250    0.000    0.000    0.000    0.000    0.000 
#    0.000    0.000    0.000    0.000    0.000    0.000 
#
# Total GULP energy -89566.105595 kJ/mol
# GULP energy per Si atom -5597.881600 kJ/mol
# Density = 2.369345 g / cm^3
# Si number density = 23.747502 Si / 1000 Ang^3
#
#
#
# Elastic Constant Matrix: (Units=GPa)
#
#
# Indices 1 2 3 4 5 6 
#
# 1 105.9520 4.4478 1.4705 0.0000 -4.8095 0.0000
# 2 4.4478 33.5741 -11.8512 0.0000 -14.6009 0.0000
# 3 1.4705 -11.8512 61.0744 0.0000 3.2763 0.0000
# 4 0.0000 0.0000 0.0000 23.2442 0.0000 -0.3764
# 5 -4.8095 -14.6009 3.2763 0.0000 41.3810 0.0000
# 6 0.0000 0.0000 0.0000 -0.3764 0.0000 27.6893
#
#
#
# Elastic Compliance Matrix: (Units=1/GPa)
#
#
# Indices 1 2 3 4 5 6 
#
# 1 0.009526 -0.001104 -0.000484 0.000000 0.000756 0.000000
# 2 -0.001104 0.037805 0.006682 0.000000 0.012682 0.000000
# 3 -0.000484 0.006682 0.017633 0.000000 0.000905 0.000000
# 4 0.000000 0.000000 0.000000 0.043031 0.000000 0.000585
# 5 0.000756 0.012682 0.000905 0.000000 0.028656 0.000000
# 6 0.000000 0.000000 0.000000 0.000585 0.000000 0.036123
#
#
# Mechanical properties :
#
#
# Convention : Reuss Voigt Hill
#
# Bulk Modulus (GPa) = 13.30641 20.97050 17.13845
# Shear Modulus (GPa) = 26.64719 32.23179 29.43949
#
# Velocity S-wave (km/s) = 3.35342 3.68811 3.52474
# Velocity P-wave (km/s) = 4.53975 5.19481 4.87829
#
# Compressibility (1/GPa) = 0.07515175
#
# Stress axis : x y z
#
# Youngs Moduli (GPa) = 104.98005 26.45154 56.71112
#
# Poissons Ratio (x) = 0.02920 0.02746
# Poissons Ratio (y) = 0.11591 -0.37895
# Poissons Ratio (z) = 0.05083 -0.17675
#
# Static dielectric constant tensor:
#      x y z
#    x 1.891600 0.000000 -0.028860 
#    y 0.000000 1.910620 0.000000 
#    z -0.028860 0.000000 1.893210 
# 
# From -- ./inp_files/12153.got.cif
#   From: 2010.05.17/outbox.cif.g08.bks.cpg/sg4_7_cif.got.tgz:12153.got - 2010.06.03 18:43:04.
