data_PCOD9117340
_publ_section_title
;
Structure prediction by ZEFSAII (Michael W. Deem and Ramdas Pophale) SiO2 
 PCOD9117340
Probable space group: P 21
;
_chemical_formula_sum "Si O2"
_cell_formula_units_Z 16
_cell_length_a 16.494320
_cell_length_b 5.742947
_cell_length_c 12.588481
_cell_angle_alpha 90.000000
_cell_angle_beta 33.023024
_cell_angle_gamma 90.000000
_cell_volume 649.860193
_symmetry_space_group_name_H-M "P 21"
_symmetry_group_IT_number 4
_symmetry_cell_setting 'monoclinic'
loop_
_space_group_symop_operation_xyz
x,y,z
-x,1/2+y,-z
loop_
_atom_site_type_symbol
_atom_site_label
_atom_site_fract_x
_atom_site_fract_y
_atom_site_fract_z
Si Si1 0.258943 0.843940 0.904956
Si Si2 0.585854 0.724319 0.803290
Si Si3 0.513972 0.115842 0.710482
Si Si4 0.688138 0.008280 0.956304
Si Si5 0.003820 0.018378 0.319305
Si Si6 0.212454 0.880436 0.553966
Si Si7 0.975950 0.102178 0.970294
Si Si8 0.854742 0.738322 0.638539
O O1 0.283210 0.683392 0.980013
O O2 0.185704 0.681279 0.896215
O O3 0.120703 0.005397 0.095532
O O4 0.414899 0.983369 0.729356
O O5 0.671463 0.533241 0.639059
O O6 0.679656 0.718984 0.807032
O O7 0.568293 0.946204 0.746338
O O8 0.420625 0.637837 0.005488
O O9 0.669742 0.232642 0.503448
O O10 0.395679 0.294713 0.893149
O O11 0.843641 0.962660 0.727942
O O12 0.883107 0.210487 0.417820
O O13 0.088265 0.058867 0.338475
O O14 0.917500 0.787784 0.452972
O O15 0.097033 0.035077 0.747192
O O16 0.032223 0.349020 0.961013
#
# Coordination Sequence:
#
# PCOD9117340 Si02
#       8
#     2   2   2   2   2   2   2   2
#     4  11  24  47  74 102 146 192 247 298 391 453
#     4  10  23  38  64  95 141 196 243 299 353 432
#     4  10  22  46  72 100 140 212 240 298 374 454
#     4  10  23  38  64  95 141 196 243 299 353 432
#     4  12  23  39  68 104 148 204 242 313 357 430
#     4  11  24  47  74 102 146 192 247 298 391 453
#     4  12  29  49  86 118 146 182 246 325 395 478
#     4  12  22  34  58 100 146 188 258 302 346 404
#
# _framework density 24.620681999999999
#
# number of rings (size 3 to 8) (size 9 to 14) (size 15 to 20)
#    0.000    1.000    2.500    3.750    5.250    0.000 
#    0.000    0.000    8.250    0.000    0.000    0.000 
#    0.000    0.000    0.000    0.000    0.000    0.000 
#
# Total GULP energy -89200.751286 kJ/mol
# GULP energy per Si atom -5575.046955 kJ/mol
# Density = 2.456464 g / cm^3
# Si number density = 24.620682 Si / 1000 Ang^3
#
#
#
# Elastic Constant Matrix: (Units=GPa)
#
#
# Indices 1 2 3 4 5 6 
#
# 1 90.9975 32.8560 29.6955 0.0000 -23.6197 0.0000
# 2 32.8560 84.2685 23.5766 0.0000 -8.8888 0.0000
# 3 29.6955 23.5766 37.3651 0.0000 -3.0533 0.0000
# 4 0.0000 0.0000 0.0000 30.7542 0.0000 2.4564
# 5 -23.6197 -8.8888 -3.0533 0.0000 35.0276 0.0000
# 6 0.0000 0.0000 0.0000 2.4564 0.0000 40.6324
#
#
#
# Elastic Compliance Matrix: (Units=1/GPa)
#
#
# Indices 1 2 3 4 5 6 
#
# 1 0.018851 -0.002738 -0.012360 0.000000 0.010939 0.000000
# 2 -0.002738 0.015104 -0.007244 0.000000 0.001355 0.000000
# 3 -0.012360 -0.007244 0.040614 0.000000 -0.006632 0.000000
# 4 0.000000 0.000000 0.000000 0.032674 0.000000 -0.001975
# 5 0.010939 0.001355 -0.006632 0.000000 0.035691 0.000000
# 6 0.000000 0.000000 0.000000 -0.001975 0.000000 0.024730
#
#
# Mechanical properties :
#
#
# Convention : Reuss Voigt Hill
#
# Bulk Modulus (GPa) = 33.46026 42.76526 38.11276
# Shear Modulus (GPa) = 22.49119 29.71636 26.10378
#
# Velocity S-wave (km/s) = 3.02571 3.47791 3.25966
# Velocity P-wave (km/s) = 5.08196 5.79096 5.44801
#
# Compressibility (1/GPa) = 0.02988620
#
# Stress axis : x y z
#
# Youngs Moduli (GPa) = 53.04819 66.20819 24.62179
#
# Poissons Ratio (x) = 0.18127 0.30433
# Poissons Ratio (y) = 0.14524 0.17835
# Poissons Ratio (z) = 0.65568 0.47958
#
# Static dielectric constant tensor:
#      x y z
#    x 2.104280 0.000000 -0.008030 
#    y 0.000000 2.250960 0.000000 
#    z -0.008030 0.000000 1.952140 
# 
# From -- ./inp_files/14253.got.cif
#   From: 2010.05.17/outbox.cif.g08.bks.cpg/sg4_8_cif.got.tgz:14253.got - 2010.06.03 18:43:04.
