data_PCOD9117460
_publ_section_title
;
Structure prediction by ZEFSAII (Michael W. Deem and Ramdas Pophale) SiO2 
 PCOD9117460
Probable space group: P 21
;
_chemical_formula_sum "Si O2"
_cell_formula_units_Z 16
_cell_length_a 7.800810
_cell_length_b 9.378804
_cell_length_c 11.269775
_cell_angle_alpha 90.000000
_cell_angle_beta 64.970820
_cell_angle_gamma 90.000000
_cell_volume 747.093418
_symmetry_space_group_name_H-M "P 21"
_symmetry_group_IT_number 4
_symmetry_cell_setting 'monoclinic'
loop_
_space_group_symop_operation_xyz
x,y,z
-x,1/2+y,-z
loop_
_atom_site_type_symbol
_atom_site_label
_atom_site_fract_x
_atom_site_fract_y
_atom_site_fract_z
Si Si1 0.472075 0.702090 0.391949
Si Si2 0.042301 0.742082 0.474784
Si Si3 0.166432 0.612831 0.197840
Si Si4 0.307412 0.408150 0.515973
Si Si5 0.102352 0.327633 0.085354
Si Si6 0.146090 0.886369 0.052674
Si Si7 0.035574 0.585531 0.724417
Si Si8 0.607884 0.629343 0.115773
O O1 0.267454 0.778640 0.426656
O O2 0.421549 0.534949 0.420797
O O3 0.565513 0.777513 0.477840
O O4 0.625106 0.698131 0.241299
O O5 0.045611 0.659388 0.347732
O O6 0.995256 0.652565 0.607147
O O7 0.875780 0.857271 0.505413
O O8 0.119604 0.454790 0.171743
O O9 0.153368 0.724095 0.092960
O O10 0.385593 0.619753 0.166137
O O11 0.221897 0.490947 0.655009
O O12 0.957122 0.212175 0.182484
O O13 0.291821 0.238235 0.004160
O O14 0.030911 0.393056 0.983553
O O15 0.119751 0.975991 0.181273
O O16 0.305260 0.972931 0.933353
#
# Coordination Sequence:
#
# PCOD9117460 Si02
#       8
#     2   2   2   2   2   2   2   2
#     4  10  25  43  70 101 138 179 232 284 348 410
#     4  10  24  42  72  94 139 177 222 286 342 401
#     4  11  22  41  66  94 130 180 219 282 343 395
#     4  11  23  46  67 101 139 180 228 287 343 413
#     4  11  24  39  69  97 129 182 228 271 344 407
#     4  11  22  41  65  94 129 177 225 275 334 404
#     4  10  23  41  67  97 133 175 226 275 343 410
#     4  10  23  41  60  94 135 168 224 284 331 408
#
# _framework density 21.416329999999999
#
# number of rings (size 3 to 8) (size 9 to 14) (size 15 to 20)
#    0.000    1.500    1.250    3.000    7.000    4.000 
#    0.000    0.000    2.750    0.000    0.000    0.000 
#    0.000    0.000    0.000    0.000    0.000    0.000 
#
# Total GULP energy -89209.587610 kJ/mol
# GULP energy per Si atom -5575.599226 kJ/mol
# Density = 2.136759 g / cm^3
# Si number density = 21.416330 Si / 1000 Ang^3
#
#
#
# Elastic Constant Matrix: (Units=GPa)
#
#
# Indices 1 2 3 4 5 6 
#
# 1 42.7762 19.7959 22.8310 0.0000 2.5502 0.0000
# 2 19.7959 94.7946 30.5681 0.0000 -1.3117 0.0000
# 3 22.8310 30.5681 74.7041 0.0000 2.0938 0.0000
# 4 0.0000 0.0000 0.0000 23.3179 0.0000 -5.4909
# 5 2.5502 -1.3117 2.0938 0.0000 20.4793 0.0000
# 6 0.0000 0.0000 0.0000 -5.4909 0.0000 36.9874
#
#
#
# Elastic Compliance Matrix: (Units=1/GPa)
#
#
# Indices 1 2 3 4 5 6 
#
# 1 0.029209 -0.003793 -0.007287 0.000000 -0.003135 0.000000
# 2 -0.003793 0.012679 -0.004077 0.000000 0.001701 0.000000
# 3 -0.007287 -0.004077 0.017313 0.000000 -0.001124 0.000000
# 4 0.000000 0.000000 0.000000 0.044439 0.000000 0.006597
# 5 -0.003135 0.001701 -0.001124 0.000000 0.049444 0.000000
# 6 0.000000 0.000000 0.000000 0.006597 0.000000 0.028016
#
#
# Mechanical properties :
#
#
# Convention : Reuss Voigt Hill
#
# Bulk Modulus (GPa) = 34.61685 39.85166 37.23426
# Shear Modulus (GPa) = 22.62008 25.42892 24.02450
#
# Velocity S-wave (km/s) = 3.25346 3.44955 3.35294
# Velocity P-wave (km/s) = 5.50565 5.87489 5.69326
#
# Compressibility (1/GPa) = 0.02888766
#
# Stress axis : x y z
#
# Youngs Moduli (GPa) = 34.23597 78.86808 57.76095
#
# Poissons Ratio (x) = 0.29917 0.42089
# Poissons Ratio (y) = 0.12987 0.23547
# Poissons Ratio (z) = 0.24947 0.32152
#
# Static dielectric constant tensor:
#      x y z
#    x 1.772850 0.000000 0.017780 
#    y 0.000000 1.816010 0.000000 
#    z 0.017780 0.000000 1.867540 
# 
# From -- ./inp_files/10853.got.cif
#   From: 2010.05.17/outbox.cif.g08.bks.cpg/sg4_6_cif.got.tgz:10853.got - 2010.06.03 18:43:04.
