data_PCOD9117764
_publ_section_title
;
Structure prediction by ZEFSAII (Michael W. Deem and Ramdas Pophale) SiO2 
 PCOD9117764
Probable space group: P 21
;
_chemical_formula_sum "Si O2"
_cell_formula_units_Z 16
_cell_length_a 11.766391
_cell_length_b 5.661950
_cell_length_c 20.956042
_cell_angle_alpha 90.000000
_cell_angle_beta 30.867163
_cell_angle_gamma 90.000000
_cell_volume 716.271629
_symmetry_space_group_name_H-M "P 21"
_symmetry_group_IT_number 4
_symmetry_cell_setting 'monoclinic'
loop_
_space_group_symop_operation_xyz
x,y,z
-x,1/2+y,-z
loop_
_atom_site_type_symbol
_atom_site_label
_atom_site_fract_x
_atom_site_fract_y
_atom_site_fract_z
Si Si1 0.845483 0.339370 0.878163
Si Si2 0.083159 0.672302 0.430236
Si Si3 0.563680 0.473580 0.200215
Si Si4 0.981919 0.385350 0.673110
Si Si5 0.560675 0.625936 0.845347
Si Si6 0.479642 0.417356 0.473541
Si Si7 0.828691 0.541308 0.202253
Si Si8 0.756034 0.732548 0.997587
O O1 0.893212 0.275934 0.782524
O O2 0.814955 0.618548 0.901925
O O3 0.063064 0.271530 0.815523
O O4 0.612741 0.244184 0.020519
O O5 0.344483 0.630665 0.310222
O O6 0.980970 0.424628 0.506018
O O7 0.027305 0.711856 0.382794
O O8 0.479817 0.230670 0.206222
O O9 0.682334 0.518613 0.209747
O O10 0.741712 0.548672 0.061298
O O11 0.819141 0.608078 0.736788
O O12 0.236879 0.453533 0.560116
O O13 0.479046 0.357201 0.889612
O O14 0.479979 0.157429 0.505299
O O15 0.678446 0.416549 0.327321
O O16 0.055644 0.412647 0.076110
#
# Coordination Sequence:
#
# PCOD9117764 Si02
#       8
#     2   2   2   2   2   2   2   2
#     4  10  24  46  72 114 146 195 254 313 398 456
#     4  12  28  52  74 113 151 207 262 318 389 457
#     4  11  25  45  73 108 150 199 255 311 384 458
#     4  12  25  49  78 107 155 201 248 332 379 480
#     4  10  24  44  70 114 147 196 247 314 388 464
#     4  12  28  52  73 108 149 198 255 309 382 455
#     4  11  25  45  73 104 149 198 250 319 373 463
#     4  10  23  45  71 110 149 188 253 306 389 459
#
# _framework density 22.337893000000001
#
# number of rings (size 3 to 8) (size 9 to 14) (size 15 to 20)
#    0.000    1.000    2.500    2.250    7.000    3.000 
#    6.750    0.000    0.000    0.000    0.000    0.000 
#    0.000    0.000    0.000    0.000    0.000    0.000 
#
# Total GULP energy -89150.503625 kJ/mol
# GULP energy per Si atom -5571.906477 kJ/mol
# Density = 2.228705 g / cm^3
# Si number density = 22.337893 Si / 1000 Ang^3
#
#
#
# Elastic Constant Matrix: (Units=GPa)
#
#
# Indices 1 2 3 4 5 6 
#
# 1 118.0522 41.0885 32.7660 0.0000 -1.7801 0.0000
# 2 41.0885 77.5250 18.5593 0.0000 13.3123 0.0000
# 3 32.7660 18.5593 77.8062 0.0000 -0.8708 0.0000
# 4 0.0000 0.0000 0.0000 36.3018 0.0000 -1.4927
# 5 -1.7801 13.3123 -0.8708 0.0000 52.1244 0.0000
# 6 0.0000 0.0000 0.0000 -1.4927 0.0000 21.8306
#
#
#
# Elastic Compliance Matrix: (Units=1/GPa)
#
#
# Indices 1 2 3 4 5 6 
#
# 1 0.011370 -0.005496 -0.003458 0.000000 0.001734 0.000000
# 2 -0.005496 0.017026 -0.001798 0.000000 -0.004566 0.000000
# 3 -0.003458 -0.001798 0.014744 0.000000 0.000587 0.000000
# 4 0.000000 0.000000 0.000000 0.027625 0.000000 0.001889
# 5 0.001734 -0.004566 0.000587 0.000000 0.020420 0.000000
# 6 0.000000 0.000000 0.000000 0.001889 0.000000 0.045936
#
#
# Mechanical properties :
#
#
# Convention : Reuss Voigt Hill
#
# Bulk Modulus (GPa) = 46.21740 50.91235 48.56488
# Shear Modulus (GPa) = 30.15021 34.11600 32.13310
#
# Velocity S-wave (km/s) = 3.67786 3.91227 3.79687
# Velocity P-wave (km/s) = 6.22660 6.57641 6.40390
#
# Compressibility (1/GPa) = 0.02163687
#
# Stress axis : x y z
#
# Youngs Moduli (GPa) = 87.95437 58.73218 67.82432
#
# Poissons Ratio (x) = 0.32279 0.23451
# Poissons Ratio (y) = 0.48339 0.12195
# Poissons Ratio (z) = 0.30411 0.10560
#
# Static dielectric constant tensor:
#      x y z
#    x 1.895630 0.000000 0.032750 
#    y 0.000000 1.951950 0.000000 
#    z 0.032750 0.000000 1.810490 
# 
# From -- ./inp_files/11597.got.cif
#   From: 2010.05.17/outbox.cif.g08.bks.cpg/sg4_6_cif.got.tgz:11597.got - 2010.06.03 18:43:04.
