data_PCOD9117620
_publ_section_title
;
Structure prediction by ZEFSAII (Michael W. Deem and Ramdas Pophale) SiO2 
 PCOD9117620
Probable space group: P 21
;
_chemical_formula_sum "Si O2"
_cell_formula_units_Z 14
_cell_length_a 9.896728
_cell_length_b 7.371494
_cell_length_c 13.715849
_cell_angle_alpha 90.000000
_cell_angle_beta 146.718933
_cell_angle_gamma 90.000000
_cell_volume 549.087667
_symmetry_space_group_name_H-M "P 21"
_symmetry_group_IT_number 4
_symmetry_cell_setting 'monoclinic'
loop_
_space_group_symop_operation_xyz
x,y,z
-x,1/2+y,-z
loop_
_atom_site_type_symbol
_atom_site_label
_atom_site_fract_x
_atom_site_fract_y
_atom_site_fract_z
Si Si1 0.889521 0.553550 0.159946
Si Si2 0.452128 0.718521 0.976594
Si Si3 0.745238 0.506893 0.500761
Si Si4 0.168535 0.994169 0.222270
Si Si5 0.825813 0.903721 0.846861
Si Si6 0.780535 0.912323 0.291976
Si Si7 0.697421 0.929962 0.455675
O O1 0.736051 0.380518 0.111861
O O2 0.000573 0.521045 0.120600
O O3 0.127608 0.554956 0.373168
O O4 0.684539 0.711167 0.041519
O O5 0.295304 0.551069 0.840921
O O6 0.624411 0.728205 0.178162
O O7 0.825213 0.461244 0.659414
O O8 0.456486 0.465131 0.317970
O O9 0.784932 0.721425 0.508240
O O10 0.926591 0.401824 0.536890
O O11 0.165142 0.208144 0.198299
O O12 0.426541 0.925050 0.336049
O O13 0.949620 0.912280 0.026844
O O14 0.696408 0.990946 0.343630
#
# Coordination Sequence:
#
# PCOD9117620 Si02
#       7
#     2   2   2   2   2   2   2
#     4  11  23  47  70 106 150 189 242 307 354 438
#     4  10  23  43  69 101 146 188 242 293 359 425
#     4  12  26  49  73 109 149 193 245 305 363 440
#     4  12  25  48  76 105 144 197 239 302 369 436
#     4  12  27  47  76 107 148 192 249 300 369 434
#     4  11  26  45  72 108 145 195 243 307 365 433
#     4  12  26  47  74 104 152 188 248 300 369 432
#
# _framework density 25.496839000000001
#
# number of rings (size 3 to 8) (size 9 to 14) (size 15 to 20)
#    0.000    0.571    4.286    2.571    4.000    4.571 
#    5.143    0.000    0.000    0.000    0.000    0.000 
#    0.000    0.000    0.000    0.000    0.000    0.000 
#
# Total GULP energy -78310.106208 kJ/mol
# GULP energy per Si atom -5593.579015 kJ/mol
# Density = 2.543881 g / cm^3
# Si number density = 25.496839 Si / 1000 Ang^3
#
#
#
# Elastic Constant Matrix: (Units=GPa)
#
#
# Indices 1 2 3 4 5 6 
#
# 1 71.7322 1.6002 32.5394 0.0000 16.1038 0.0000
# 2 1.6002 81.5280 13.0300 0.0000 -5.8153 0.0000
# 3 32.5394 13.0300 121.9461 0.0000 28.3629 0.0000
# 4 0.0000 0.0000 0.0000 37.4741 0.0000 6.3028
# 5 16.1038 -5.8153 28.3629 0.0000 32.5106 0.0000
# 6 0.0000 0.0000 0.0000 6.3028 0.0000 35.6496
#
#
#
# Elastic Compliance Matrix: (Units=1/GPa)
#
#
# Indices 1 2 3 4 5 6 
#
# 1 0.016605 -0.000223 -0.003117 0.000000 -0.005546 0.000000
# 2 -0.000223 0.012970 -0.002373 0.000000 0.004501 0.000000
# 3 -0.003117 -0.002373 0.011323 0.000000 -0.008759 0.000000
# 4 0.000000 0.000000 0.000000 0.027503 0.000000 -0.004862
# 5 -0.005546 0.004501 -0.008759 0.000000 0.041953 0.000000
# 6 0.000000 0.000000 0.000000 -0.004862 0.000000 0.028911
#
#
# Mechanical properties :
#
#
# Convention : Reuss Voigt Hill
#
# Bulk Modulus (GPa) = 33.93183 41.06062 37.49623
# Shear Modulus (GPa) = 31.14982 36.32931 33.73956
#
# Velocity S-wave (km/s) = 3.49909 3.77882 3.64164
# Velocity P-wave (km/s) = 5.44628 5.93114 5.69388
#
# Compressibility (1/GPa) = 0.02947085
#
# Stress axis : x y z
#
# Youngs Moduli (GPa) = 60.22405 77.09827 88.31724
#
# Poissons Ratio (x) = 0.01722 0.27529
# Poissons Ratio (y) = 0.01345 0.20960
# Poissons Ratio (z) = 0.18772 0.18297
#
# Static dielectric constant tensor:
#      x y z
#    x 1.946400 0.000000 0.019080 
#    y 0.000000 2.157120 0.000000 
#    z 0.019080 0.000000 2.018000 
# 
# From -- ./inp_files/7470.got.cif
#   From: 2010.05.17/outbox.cif.g08.bks.cpg/sg4_4_cif.got.tgz:7470.got - 2010.06.03 18:43:04.
