data_PCOD9117339
_publ_section_title
;
Structure prediction by ZEFSAII (Michael W. Deem and Ramdas Pophale) SiO2 
 PCOD9117339
Probable space group: P 21
;
_chemical_formula_sum "Si O2"
_cell_formula_units_Z 14
_cell_length_a 12.291945
_cell_length_b 8.713648
_cell_length_c 5.017641
_cell_angle_alpha 90.000000
_cell_angle_beta 93.520547
_cell_angle_gamma 90.000000
_cell_volume 536.413685
_symmetry_space_group_name_H-M "P 21"
_symmetry_group_IT_number 4
_symmetry_cell_setting 'monoclinic'
loop_
_space_group_symop_operation_xyz
x,y,z
-x,1/2+y,-z
loop_
_atom_site_type_symbol
_atom_site_label
_atom_site_fract_x
_atom_site_fract_y
_atom_site_fract_z
Si Si1 0.349504 0.002290 0.133491
Si Si2 0.063433 0.000001 0.533573
Si Si3 0.535487 0.617923 0.336742
Si Si4 0.646534 0.939731 0.424973
Si Si5 0.817876 0.751380 0.789269
Si Si6 0.150610 0.826228 0.051172
Si Si7 0.140797 0.500122 0.823727
O O1 0.381618 0.033884 0.443589
O O2 0.258284 0.132156 0.063474
O O3 0.447067 0.040662 0.947711
O O4 0.282318 0.849090 0.065663
O O5 0.097390 0.943094 0.828181
O O6 0.935479 0.002925 0.448279
O O7 0.116019 0.157138 0.424752
O O8 0.114607 0.874818 0.339116
O O9 0.566114 0.797971 0.334139
O O10 0.420499 0.575462 0.448382
O O11 0.730669 0.862813 0.641886
O O12 0.730349 0.995086 0.214968
O O13 0.885786 0.849290 0.008907
O O14 0.117106 0.655665 0.975172
#
# Coordination Sequence:
#
# PCOD9117339 Si02
#       7
#     2   2   2   2   2   2   2
#     4  10  22  46  71  97 145 185 242 290 378 416
#     4  11  27  47  75 104 155 195 242 296 388 428
#     4  11  25  45  71 102 138 195 231 308 355 433
#     4  11  27  45  72 106 148 186 250 296 370 427
#     4  10  24  48  72 105 148 196 239 308 363 446
#     4  11  26  46  72 111 141 196 244 312 356 454
#     4  12  27  43  75 109 149 191 254 304 358 452
#
# _framework density 26.099259
#
# number of rings (size 3 to 8) (size 9 to 14) (size 15 to 20)
#    0.000    1.143    1.429    3.429   12.000    1.143 
#    0.000    0.000    0.000    0.000    0.000    0.000 
#    0.000    0.000    0.000    0.000    0.000    0.000 
#
# Total GULP energy -78478.111298 kJ/mol
# GULP energy per Si atom -5605.579378 kJ/mol
# Density = 2.603986 g / cm^3
# Si number density = 26.099259 Si / 1000 Ang^3
#
#
#
# Elastic Constant Matrix: (Units=GPa)
#
#
# Indices 1 2 3 4 5 6 
#
# 1 118.6235 41.5386 0.3116 0.0000 -23.8176 0.0000
# 2 41.5386 86.7546 17.1224 0.0000 8.1041 0.0000
# 3 0.3116 17.1224 64.4244 0.0000 -3.8030 0.0000
# 4 0.0000 0.0000 0.0000 38.0844 0.0000 -0.3560
# 5 -23.8176 8.1041 -3.8030 0.0000 40.2621 0.0000
# 6 0.0000 0.0000 0.0000 -0.3560 0.0000 48.5354
#
#
#
# Elastic Compliance Matrix: (Units=1/GPa)
#
#
# Indices 1 2 3 4 5 6 
#
# 1 0.012978 -0.007592 0.002512 0.000000 0.009443 0.000000
# 2 -0.007592 0.016921 -0.004954 0.000000 -0.008365 0.000000
# 3 0.002512 -0.004954 0.017068 0.000000 0.004096 0.000000
# 4 0.000000 0.000000 0.000000 0.026259 0.000000 0.000193
# 5 0.009443 -0.008365 0.004096 0.000000 0.032494 0.000000
# 6 0.000000 0.000000 0.000000 0.000193 0.000000 0.020605
#
#
# Mechanical properties :
#
#
# Convention : Reuss Voigt Hill
#
# Bulk Modulus (GPa) = 37.17502 43.08309 40.12905
# Shear Modulus (GPa) = 32.18357 39.43171 35.80764
#
# Velocity S-wave (km/s) = 3.51539 3.89116 3.70804
# Velocity P-wave (km/s) = 5.54544 6.06065 5.80876
#
# Compressibility (1/GPa) = 0.02689978
#
# Stress axis : x y z
#
# Youngs Moduli (GPa) = 77.05501 59.09849 58.58783
#
# Poissons Ratio (x) = 0.44866 -0.14719
# Poissons Ratio (y) = 0.58498 0.29026
# Poissons Ratio (z) = -0.19359 0.29279
#
# Static dielectric constant tensor:
#      x y z
#    x 2.066550 0.000000 0.003150 
#    y 0.000000 2.055660 0.000000 
#    z 0.003150 0.000000 1.985990 
# 
# From -- ./inp_files/2662.got.cif
#   From: 2010.05.17/outbox.cif.g08.bks.cpg/sg4_2_cif.got.tgz:2662.got - 2010.06.03 18:43:04.
