data_PCOD9117875
_publ_section_title
;
Structure prediction by ZEFSAII (Michael W. Deem and Ramdas Pophale) SiO2 
 PCOD9117875
Probable space group: P 21
;
_chemical_formula_sum "Si O2"
_cell_formula_units_Z 16
_cell_length_a 17.204871
_cell_length_b 10.039301
_cell_length_c 11.584774
_cell_angle_alpha 90.000000
_cell_angle_beta 20.940054
_cell_angle_gamma 90.000000
_cell_volume 715.131753
_symmetry_space_group_name_H-M "P 21"
_symmetry_group_IT_number 4
_symmetry_cell_setting 'monoclinic'
loop_
_space_group_symop_operation_xyz
x,y,z
-x,1/2+y,-z
loop_
_atom_site_type_symbol
_atom_site_label
_atom_site_fract_x
_atom_site_fract_y
_atom_site_fract_z
Si Si1 0.854741 0.386800 0.241174
Si Si2 0.485359 0.661352 0.307441
Si Si3 0.736521 0.401868 0.906784
Si Si4 0.804609 0.912090 0.848821
Si Si5 0.206237 0.541476 0.888249
Si Si6 0.556769 0.793723 0.852984
Si Si7 0.047780 0.834655 0.149269
Si Si8 0.530878 0.508200 0.852882
O O1 0.734961 0.242156 0.426718
O O2 0.694734 0.494293 0.519314
O O3 0.871968 0.401479 0.079986
O O4 0.082798 0.426573 0.984945
O O5 0.413196 0.596067 0.529895
O O6 0.598271 0.537714 0.087196
O O7 0.670012 0.774923 0.048313
O O8 0.820927 0.376545 0.919134
O O9 0.945025 0.395293 0.533431
O O10 0.565029 0.293342 0.100180
O O11 0.763856 0.985492 0.025573
O O12 0.702401 0.991779 0.882802
O O13 0.068306 0.676375 0.098413
O O14 0.566217 0.641082 0.874900
O O15 0.792620 0.858941 0.518182
O O16 0.428753 0.881734 0.122040
#
# Coordination Sequence:
#
# PCOD9117875 Si02
#       8
#     2   2   2   2   2   2   2   2
#     4  10  23  48  71 104 147 193 247 317 377 450
#     4  10  27  45  71 113 147 195 260 311 379 468
#     4  12  27  46  75 108 151 200 251 313 388 448
#     4  11  26  47  72 108 150 197 256 316 386 454
#     4  11  23  48  74 102 151 197 252 316 387 445
#     4  12  26  46  76 108 144 196 250 313 388 455
#     4  11  25  48  72 106 145 195 254 310 375 466
#     4  11  25  46  73 105 149 191 248 316 378 458
#
# _framework density 22.373498000000001
#
# number of rings (size 3 to 8) (size 9 to 14) (size 15 to 20)
#    0.000    1.000    2.500    2.250   12.250    0.000 
#    9.000    0.000    0.000    0.000    0.000    0.000 
#    0.000    0.000    0.000    0.000    0.000    0.000 
#
# Total GULP energy -89316.117488 kJ/mol
# GULP energy per Si atom -5582.257343 kJ/mol
# Density = 2.232258 g / cm^3
# Si number density = 22.373498 Si / 1000 Ang^3
#
#
#
# Elastic Constant Matrix: (Units=GPa)
#
#
# Indices 1 2 3 4 5 6 
#
# 1 133.5240 35.9078 45.7104 0.0000 3.8446 0.0000
# 2 35.9078 103.9473 35.7692 0.0000 20.4745 0.0000
# 3 45.7104 35.7692 84.3986 0.0000 17.8269 0.0000
# 4 0.0000 0.0000 0.0000 27.9677 0.0000 2.0854
# 5 3.8446 20.4745 17.8269 0.0000 23.3374 0.0000
# 6 0.0000 0.0000 0.0000 2.0854 0.0000 33.1094
#
#
#
# Elastic Compliance Matrix: (Units=1/GPa)
#
#
# Indices 1 2 3 4 5 6 
#
# 1 0.009816 -0.002491 -0.005224 0.000000 0.004559 0.000000
# 2 -0.002491 0.013092 -0.002218 0.000000 -0.009381 0.000000
# 3 -0.005224 -0.002218 0.017915 0.000000 -0.010879 0.000000
# 4 0.000000 0.000000 0.000000 0.035924 0.000000 -0.002263
# 5 0.004559 -0.009381 -0.010879 0.000000 0.058640 0.000000
# 6 0.000000 0.000000 0.000000 -0.002263 0.000000 0.030345
#
#
# Mechanical properties :
#
#
# Convention : Reuss Voigt Hill
#
# Bulk Modulus (GPa) = 47.71348 61.84940 54.78144
# Shear Modulus (GPa) = 25.96273 30.51507 28.23890
#
# Velocity S-wave (km/s) = 3.41019 3.69710 3.55654
# Velocity P-wave (km/s) = 6.07273 6.77708 6.43455
#
# Compressibility (1/GPa) = 0.02095844
#
# Stress axis : x y z
#
# Youngs Moduli (GPa) = 101.87199 76.38341 55.81815
#
# Poissons Ratio (x) = 0.19030 0.29157
# Poissons Ratio (y) = 0.25381 0.12378
# Poissons Ratio (z) = 0.53213 0.16938
#
# Static dielectric constant tensor:
#      x y z
#    x 1.844810 0.000000 -0.019900 
#    y 0.000000 1.877120 0.000000 
#    z -0.019900 0.000000 1.861210 
# 
# From -- ./inp_files/12905.got.cif
#   From: 2010.05.17/outbox.cif.g08.bks.cpg/sg4_7_cif.got.tgz:12905.got - 2010.06.03 18:43:04.
