data_PCOD9117817
_publ_section_title
;
Structure prediction by ZEFSAII (Michael W. Deem and Ramdas Pophale) SiO2 
 PCOD9117817
Probable space group: P 21
;
_chemical_formula_sum "Si O2"
_cell_formula_units_Z 14
_cell_length_a 12.067023
_cell_length_b 8.189457
_cell_length_c 9.404871
_cell_angle_alpha 90.000000
_cell_angle_beta 142.285541
_cell_angle_gamma 90.000000
_cell_volume 568.545886
_symmetry_space_group_name_H-M "P 21"
_symmetry_group_IT_number 4
_symmetry_cell_setting 'monoclinic'
loop_
_space_group_symop_operation_xyz
x,y,z
-x,1/2+y,-z
loop_
_atom_site_type_symbol
_atom_site_label
_atom_site_fract_x
_atom_site_fract_y
_atom_site_fract_z
Si Si1 0.824358 0.046790 0.934053
Si Si2 0.686180 0.097484 0.491502
Si Si3 0.662990 0.376479 0.905650
Si Si4 0.121689 0.109680 0.448706
Si Si5 0.409887 0.325818 0.115168
Si Si6 0.007705 0.479955 0.384050
Si Si7 0.502367 0.139346 0.941950
O O1 0.809345 0.053254 0.750718
O O2 0.718429 0.213759 0.874170
O O3 0.730283 0.887325 0.908535
O O4 0.021644 0.055638 0.204737
O O5 0.590758 0.274302 0.385675
O O6 0.517821 0.968880 0.327625
O O7 0.819707 0.083584 0.492011
O O8 0.619529 0.294331 0.014822
O O9 0.836717 0.492578 0.102635
O O10 0.336908 0.115198 0.664527
O O11 0.064958 0.293795 0.424475
O O12 0.052176 0.011407 0.515632
O O13 0.392048 0.474516 0.983826
O O14 0.416582 0.176406 0.007513
#
# Coordination Sequence:
#
# PCOD9117817 Si02
#       7
#     2   2   2   2   2   2   2
#     4  10  25  45  68 101 146 182 235 284 353 422
#     4  12  24  47  68 102 140 193 226 285 357 423
#     4  10  23  46  69  97 139 181 235 291 348 413
#     4  11  23  43  65 104 134 177 229 297 343 412
#     4  11  24  41  72 100 140 188 237 291 350 422
#     4  11  25  42  71 101 137 175 241 288 345 416
#     4  11  22  42  71 103 134 184 235 298 354 400
#
# _framework density 24.624222
#
# number of rings (size 3 to 8) (size 9 to 14) (size 15 to 20)
#    0.000    1.143    1.429    4.286    8.000    0.000 
#   10.286    0.000    0.000    0.000    0.000    0.000 
#    0.000    0.000    0.000    0.000    0.000    0.000 
#
# Total GULP energy -78199.877458 kJ/mol
# GULP energy per Si atom -5585.705533 kJ/mol
# Density = 2.456818 g / cm^3
# Si number density = 24.624222 Si / 1000 Ang^3
#
#
#
# Elastic Constant Matrix: (Units=GPa)
#
#
# Indices 1 2 3 4 5 6 
#
# 1 38.2515 5.5929 20.0826 0.0000 1.5538 0.0000
# 2 5.5929 42.0667 -9.9686 0.0000 -2.8288 0.0000
# 3 20.0826 -9.9686 118.0610 0.0000 -5.9051 0.0000
# 4 0.0000 0.0000 0.0000 30.9926 0.0000 -1.0605
# 5 1.5538 -2.8288 -5.9051 0.0000 43.0692 0.0000
# 6 0.0000 0.0000 0.0000 -1.0605 0.0000 20.2756
#
#
#
# Elastic Compliance Matrix: (Units=1/GPa)
#
#
# Indices 1 2 3 4 5 6 
#
# 1 0.030018 -0.005486 -0.005680 0.000000 -0.002222 0.000000
# 2 -0.005486 0.025413 0.003194 0.000000 0.002305 0.000000
# 3 -0.005680 0.003194 0.009794 0.000000 0.001758 0.000000
# 4 0.000000 0.000000 0.000000 0.032324 0.000000 0.001691
# 5 -0.002222 0.002305 0.001758 0.000000 0.023691 0.000000
# 6 0.000000 0.000000 0.000000 0.001691 0.000000 0.049409
#
#
# Mechanical properties :
#
#
# Convention : Reuss Voigt Hill
#
# Bulk Modulus (GPa) = 20.29235 25.53255 22.91245
# Shear Modulus (GPa) = 24.62811 31.04563 27.83687
#
# Velocity S-wave (km/s) = 3.16596 3.55459 3.36589
# Velocity P-wave (km/s) = 4.65006 5.21903 4.94274
#
# Compressibility (1/GPa) = 0.04927965
#
# Stress axis : x y z
#
# Youngs Moduli (GPa) = 33.31383 39.34962 102.10234
#
# Poissons Ratio (x) = 0.21589 0.57999
# Poissons Ratio (y) = 0.18277 -0.32615
# Poissons Ratio (z) = 0.18924 -0.12570
#
# Static dielectric constant tensor:
#      x y z
#    x 2.010530 0.000000 0.024910 
#    y 0.000000 2.039090 0.000000 
#    z 0.024910 0.000000 2.054320 
# 
# From -- ./inp_files/7925.got.cif
#   From: 2010.05.17/outbox.cif.g08.bks.cpg/sg4_4_cif.got.tgz:7925.got - 2010.06.03 18:43:04.
