data_PCOD9117337
_publ_section_title
;
Structure prediction by ZEFSAII (Michael W. Deem and Ramdas Pophale) SiO2 
 PCOD9117337
Probable space group: P 21
;
_chemical_formula_sum "Si O2"
_cell_formula_units_Z 16
_cell_length_a 11.477705
_cell_length_b 11.239231
_cell_length_c 8.178789
_cell_angle_alpha 90.000000
_cell_angle_beta 142.455865
_cell_angle_gamma 90.000000
_cell_volume 642.929596
_symmetry_space_group_name_H-M "P 21"
_symmetry_group_IT_number 4
_symmetry_cell_setting 'monoclinic'
loop_
_space_group_symop_operation_xyz
x,y,z
-x,1/2+y,-z
loop_
_atom_site_type_symbol
_atom_site_label
_atom_site_fract_x
_atom_site_fract_y
_atom_site_fract_z
Si Si1 0.522485 0.682150 0.662498
Si Si2 0.613706 0.106503 0.833509
Si Si3 0.989138 0.570285 0.895252
Si Si4 0.261751 0.836421 0.856575
Si Si5 0.651521 0.405116 0.404757
Si Si6 0.201782 0.533963 0.474130
Si Si7 0.847223 0.768447 0.532207
Si Si8 0.172052 0.104237 0.785085
O O1 0.499311 0.620031 0.463166
O O2 0.433891 0.813543 0.559403
O O3 0.386569 0.610948 0.638299
O O4 0.735399 0.683335 0.969353
O O5 0.511411 0.001767 0.816206
O O6 0.613157 0.234461 0.919260
O O7 0.827981 0.070331 0.021735
O O8 0.837698 0.470605 0.678880
O O9 0.892393 0.698735 0.750462
O O10 0.070437 0.546610 0.164966
O O11 0.294674 0.837507 0.700397
O O12 0.047636 0.804225 0.672110
O O13 0.269604 0.975161 0.913530
O O14 0.253124 0.395521 0.558600
O O15 0.056177 0.582727 0.450754
O O16 0.773447 0.669451 0.322725
#
# Coordination Sequence:
#
# PCOD9117337 Si02
#       8
#     2   2   2   2   2   2   2   2
#     4  11  27  44  70 108 136 186 239 283 354 421
#     4  10  26  48  69 103 143 180 232 293 352 418
#     4  10  23  45  71 104 136 184 230 282 354 417
#     4  10  24  44  73  97 144 180 232 292 344 427
#     4  12  25  44  71 104 139 186 231 284 355 424
#     4  10  24  45  75  98 142 183 234 291 352 427
#     4  10  22  46  71 104 141 183 230 291 360 415
#     4  11  23  46  68 104 141 184 232 294 351 415
#
# _framework density 24.886084
#
# number of rings (size 3 to 8) (size 9 to 14) (size 15 to 20)
#    0.000    1.500    1.250    1.500   10.500    4.000 
#    6.750    1.250    0.000    0.000    0.000    0.000 
#    0.000    0.000    0.000    0.000    0.000    0.000 
#
# Total GULP energy -89612.907828 kJ/mol
# GULP energy per Si atom -5600.806739 kJ/mol
# Density = 2.482944 g / cm^3
# Si number density = 24.886084 Si / 1000 Ang^3
#
#
#
# Elastic Constant Matrix: (Units=GPa)
#
#
# Indices 1 2 3 4 5 6 
#
# 1 78.3670 40.3399 3.9462 0.0000 8.2071 0.0000
# 2 40.3399 144.7448 17.1176 0.0000 7.9757 0.0000
# 3 3.9462 17.1176 35.4388 0.0000 12.7239 0.0000
# 4 0.0000 0.0000 0.0000 35.3615 0.0000 4.4325
# 5 8.2071 7.9757 12.7239 0.0000 34.2822 0.0000
# 6 0.0000 0.0000 0.0000 4.4325 0.0000 39.0401
#
#
#
# Elastic Compliance Matrix: (Units=1/GPa)
#
#
# Indices 1 2 3 4 5 6 
#
# 1 0.015203 -0.004238 0.001508 0.000000 -0.003213 0.000000
# 2 -0.004238 0.008515 -0.003800 0.000000 0.000444 0.000000
# 3 0.001508 -0.003800 0.034263 0.000000 -0.012194 0.000000
# 4 0.000000 0.000000 0.000000 0.028688 0.000000 -0.003257
# 5 -0.003213 0.000444 -0.012194 0.000000 0.034361 0.000000
# 6 0.000000 0.000000 0.000000 -0.003257 0.000000 0.025985
#
#
# Mechanical properties :
#
#
# Convention : Reuss Voigt Hill
#
# Bulk Modulus (GPa) = 22.26197 42.37312 32.31755
# Shear Modulus (GPa) = 28.56342 34.87987 31.72164
#
# Velocity S-wave (km/s) = 3.39155 3.74783 3.57413
# Velocity P-wave (km/s) = 4.92968 5.98265 5.48151
#
# Compressibility (1/GPa) = 0.04491965
#
# Stress axis : x y z
#
# Youngs Moduli (GPa) = 65.77787 117.44198 29.18561
#
# Poissons Ratio (x) = 0.49774 -0.04401
# Poissons Ratio (y) = 0.27878 0.11092
# Poissons Ratio (z) = -0.09919 0.44632
#
# Static dielectric constant tensor:
#      x y z
#    x 1.978730 0.000000 0.015110 
#    y 0.000000 1.985770 0.000000 
#    z 0.015110 0.000000 1.953700 
# 
# From -- ./inp_files/8476.got.cif
#   From: 2010.05.17/outbox.cif.g08.bks.cpg/sg4_5_cif.got.tgz:8476.got - 2010.06.03 18:43:04.
