data_PCOD9117300
_publ_section_title
;
Structure prediction by ZEFSAII (Michael W. Deem and Ramdas Pophale) SiO2 
 PCOD9117300
Probable space group: P 21
;
_chemical_formula_sum "Si O2"
_cell_formula_units_Z 16
_cell_length_a 21.879861
_cell_length_b 5.381727
_cell_length_c 18.780720
_cell_angle_alpha 90.000000
_cell_angle_beta 18.203034
_cell_angle_gamma 90.000000
_cell_volume 690.826424
_symmetry_space_group_name_H-M "P 21"
_symmetry_group_IT_number 4
_symmetry_cell_setting 'monoclinic'
loop_
_space_group_symop_operation_xyz
x,y,z
-x,1/2+y,-z
loop_
_atom_site_type_symbol
_atom_site_label
_atom_site_fract_x
_atom_site_fract_y
_atom_site_fract_z
Si Si1 0.592918 0.994420 0.366910
Si Si2 0.220192 0.258028 0.207349
Si Si3 0.260687 0.291972 0.937142
Si Si4 0.115094 0.113790 0.619509
Si Si5 0.992644 0.763922 0.414415
Si Si6 0.562098 0.240725 0.730172
Si Si7 0.915011 0.012809 0.257249
Si Si8 0.923517 0.177411 0.094937
O O1 0.504863 0.751862 0.502047
O O2 0.616877 0.945526 0.256704
O O3 0.804938 0.022975 0.167258
O O4 0.132762 0.522943 0.275533
O O5 0.180454 0.250431 0.335654
O O6 0.100063 0.024527 0.309096
O O7 0.439939 0.209648 0.937342
O O8 0.404654 0.215239 0.840896
O O9 0.074769 0.436108 0.174726
O O10 0.137833 0.083029 0.030323
O O11 0.090035 0.219719 0.727608
O O12 0.083175 0.262864 0.582035
O O13 0.331811 0.004956 0.379783
O O14 0.751319 0.082021 0.497483
O O15 0.847884 0.134106 0.258577
O O16 0.902303 0.467152 0.097438
#
# Coordination Sequence:
#
# PCOD9117300 Si02
#       8
#     2   2   2   2   2   2   2   2
#     4  12  27  44  69 102 132 180 234 288 347 413
#     4  10  22  45  74 102 143 189 230 283 347 414
#     4  11  24  47  69  94 144 183 227 290 350 414
#     4  11  25  42  72 105 138 186 235 285 350 413
#     4  10  22  45  73 103 142 191 230 279 351 416
#     4  11  25  43  69 107 137 183 234 287 341 418
#     4  11  26  43  69 101 137 188 231 291 352 415
#     4  12  25  47  71  96 139 182 231 287 354 417
#
# _framework density 23.160668000000001
#
# number of rings (size 3 to 8) (size 9 to 14) (size 15 to 20)
#    0.000    1.000    2.500    3.000    8.750    1.000 
#    2.250    0.000    0.000    0.000    0.000    0.000 
#    0.000    0.000    0.000    0.000    0.000    0.000 
#
# Total GULP energy -89147.236761 kJ/mol
# GULP energy per Si atom -5571.702298 kJ/mol
# Density = 2.310795 g / cm^3
# Si number density = 23.160668 Si / 1000 Ang^3
#
#
#
# Elastic Constant Matrix: (Units=GPa)
#
#
# Indices 1 2 3 4 5 6 
#
# 1 55.7180 19.3921 24.3665 0.0000 11.9048 0.0000
# 2 19.3921 77.0229 19.9927 0.0000 9.7917 0.0000
# 3 24.3665 19.9927 102.0450 0.0000 18.9888 0.0000
# 4 0.0000 0.0000 0.0000 24.5048 0.0000 3.9125
# 5 11.9048 9.7917 18.9888 0.0000 31.9254 0.0000
# 6 0.0000 0.0000 0.0000 3.9125 0.0000 25.0947
#
#
#
# Elastic Compliance Matrix: (Units=1/GPa)
#
#
# Indices 1 2 3 4 5 6 
#
# 1 0.021921 -0.003981 -0.003554 0.000000 -0.004839 0.000000
# 2 -0.003981 0.014649 -0.001529 0.000000 -0.002099 0.000000
# 3 -0.003554 -0.001529 0.011935 0.000000 -0.005305 0.000000
# 4 0.000000 0.000000 0.000000 0.041850 0.000000 -0.006525
# 5 -0.004839 -0.002099 -0.005305 0.000000 0.036926 0.000000
# 6 0.000000 0.000000 0.000000 -0.006525 0.000000 0.040866
#
#
# Mechanical properties :
#
#
# Convention : Reuss Voigt Hill
#
# Bulk Modulus (GPa) = 32.91938 40.25426 36.58682
# Shear Modulus (GPa) = 25.45797 27.70731 26.58264
#
# Velocity S-wave (km/s) = 3.31900 3.46252 3.39152
# Velocity P-wave (km/s) = 5.37885 5.77958 5.58281
#
# Compressibility (1/GPa) = 0.03037725
#
# Stress axis : x y z
#
# Youngs Moduli (GPa) = 45.61758 68.26296 83.78862
#
# Poissons Ratio (x) = 0.27179 0.29777
# Poissons Ratio (y) = 0.18162 0.12809
# Poissons Ratio (z) = 0.16212 0.10436
#
# Static dielectric constant tensor:
#      x y z
#    x 1.911170 0.000000 -0.058450 
#    y 0.000000 2.183470 0.000000 
#    z -0.058450 0.000000 1.988370 
# 
# From -- ./inp_files/15373.got.cif
#   From: 2010.05.17/outbox.cif.g08.bks.cpg/sg4_8_cif.got.tgz:15373.got - 2010.06.03 18:43:04.
