data_PCOD9117802
_publ_section_title
;
Structure prediction by ZEFSAII (Michael W. Deem and Ramdas Pophale) SiO2 
 PCOD9117802
Probable space group: P 21
;
_chemical_formula_sum "Si O2"
_cell_formula_units_Z 16
_cell_length_a 17.458031
_cell_length_b 5.560598
_cell_length_c 17.809187
_cell_angle_alpha 90.000000
_cell_angle_beta 157.073533
_cell_angle_gamma 90.000000
_cell_volume 673.478034
_symmetry_space_group_name_H-M "P 21"
_symmetry_group_IT_number 4
_symmetry_cell_setting 'monoclinic'
loop_
_space_group_symop_operation_xyz
x,y,z
-x,1/2+y,-z
loop_
_atom_site_type_symbol
_atom_site_label
_atom_site_fract_x
_atom_site_fract_y
_atom_site_fract_z
Si Si1 0.666593 0.507790 0.371535
Si Si2 0.321579 0.513977 0.657851
Si Si3 0.708423 0.233690 0.719905
Si Si4 0.779204 0.554064 0.035523
Si Si5 0.122023 0.503443 0.626304
Si Si6 0.249516 0.549095 0.913252
Si Si7 0.029399 0.385880 0.127588
Si Si8 0.345309 0.072100 0.470100
O O1 0.779837 0.267434 0.452048
O O2 0.612723 0.473810 0.409776
O O3 0.765809 0.768159 0.453553
O O4 0.481087 0.534760 0.147270
O O5 0.303339 0.497172 0.730902
O O6 0.539140 0.542531 0.818147
O O7 0.531403 0.235514 0.618557
O O8 0.656147 0.397303 0.602282
O O9 0.782749 0.995783 0.745215
O O10 0.894027 0.303063 0.937650
O O11 0.820358 0.307217 0.118119
O O12 0.893383 0.544134 0.059475
O O13 0.831160 0.808399 0.119691
O O14 0.205109 0.526650 0.785290
O O15 0.005412 0.248649 0.506584
O O16 0.130747 0.189387 0.272236
#
# Coordination Sequence:
#
# PCOD9117802 Si02
#       8
#     2   2   2   2   2   2   2   2
#     4  10  24  43  74 102 142 189 246 302 371 448
#     4  10  23  46  68 105 141 191 245 296 374 449
#     4  12  26  48  72 106 148 198 258 316 390 456
#     4  10  24  43  74 102 142 189 246 302 371 448
#     4  12  26  44  72 106 152 194 246 310 368 452
#     4  10  23  46  68 105 141 191 245 296 374 449
#     4  12  27  46  73 107 148 199 255 318 383 461
#     4  12  27  46  73 107 148 199 255 318 383 461
#
# _framework density 23.757269000000001
#
# number of rings (size 3 to 8) (size 9 to 14) (size 15 to 20)
#    0.000    1.000    2.500    3.000    3.500   11.000 
#    0.000    0.000    0.000    0.000    0.000    0.000 
#    0.000    0.000    0.000    0.000    0.000    0.000 
#
# Total GULP energy -89292.847998 kJ/mol
# GULP energy per Si atom -5580.803000 kJ/mol
# Density = 2.370320 g / cm^3
# Si number density = 23.757269 Si / 1000 Ang^3
#
#
#
# Elastic Constant Matrix: (Units=GPa)
#
#
# Indices 1 2 3 4 5 6 
#
# 1 132.1284 21.5406 14.8739 0.0000 -6.3815 0.0000
# 2 21.5406 157.0241 10.8933 0.0000 -14.6371 0.0000
# 3 14.8739 10.8933 34.3600 0.0000 71.1547 0.0000
# 4 0.0000 0.0000 0.0000 13.2250 0.0000 -9.2581
# 5 -6.3815 -14.6371 71.1547 0.0000 -79.1568 0.0000
# 6 0.0000 0.0000 0.0000 -9.2581 0.0000 41.2528
#
#
#
# Elastic Compliance Matrix: (Units=1/GPa)
#
#
# Indices 1 2 3 4 5 6 
#
# 1 0.007782 -0.001118 -0.000749 0.000000 -0.001094 0.000000
# 2 -0.001118 0.006423 0.000252 0.000000 -0.000871 0.000000
# 3 -0.000749 0.000252 0.010246 0.000000 0.009224 0.000000
# 4 0.000000 0.000000 0.000000 0.089708 0.000000 0.020133
# 5 -0.001094 -0.000871 0.009224 0.000000 -0.004092 0.000000
# 6 0.000000 0.000000 0.000000 0.020133 0.000000 0.028759
#
#
# Mechanical properties :
#
#
# Convention : Reuss Voigt Hill
#
# Bulk Modulus (GPa) = 47.12150 46.45868 46.79009
# Shear Modulus (GPa) = 33.52793 13.47786 23.50290
#
# Velocity S-wave (km/s) = 3.76076 2.38442 3.14871
# Velocity P-wave (km/s) = 6.22378 5.21331 5.74082
#
# Compressibility (1/GPa) = 0.02122173
#
# Stress axis : x y z
#
# Youngs Moduli (GPa) = 128.50060 155.68874 97.59800
#
# Poissons Ratio (x) = 0.17399 0.07310
# Poissons Ratio (y) = 0.14361 -0.02457
# Poissons Ratio (z) = 0.09624 -0.03920
#
# Static dielectric constant tensor:
#      x y z
#    x 1.873970 0.000000 0.012910 
#    y 0.000000 2.122200 0.000000 
#    z 0.012910 0.000000 1.817710 
# 
# From -- ./inp_files/14117.got.cif
#   From: 2010.05.17/outbox.cif.g08.bks.cpg/sg4_8_cif.got.tgz:14117.got - 2010.06.03 18:43:04.
