data_PCOD9117936
_publ_section_title
;
Structure prediction by ZEFSAII (Michael W. Deem and Ramdas Pophale) SiO2 
 PCOD9117936
Probable space group: P 21
;
_chemical_formula_sum "Si O2"
_cell_formula_units_Z 14
_cell_length_a 12.682856
_cell_length_b 8.605667
_cell_length_c 5.081101
_cell_angle_alpha 90.000000
_cell_angle_beta 100.071990
_cell_angle_gamma 90.000000
_cell_volume 546.027247
_symmetry_space_group_name_H-M "P 21"
_symmetry_group_IT_number 4
_symmetry_cell_setting 'monoclinic'
loop_
_space_group_symop_operation_xyz
x,y,z
-x,1/2+y,-z
loop_
_atom_site_type_symbol
_atom_site_label
_atom_site_fract_x
_atom_site_fract_y
_atom_site_fract_z
Si Si1 0.489259 0.902860 0.970030
Si Si2 0.522422 0.671967 0.375980
Si Si3 0.690805 0.756863 0.769728
Si Si4 0.319680 0.698013 0.641357
Si Si5 0.910265 0.295191 0.684558
Si Si6 0.983596 0.101703 0.231172
Si Si7 0.215303 0.390874 0.711650
O O1 0.582406 0.847351 0.811117
O O2 0.375448 0.824300 0.851844
O O3 0.475986 0.081173 0.898584
O O4 0.525800 0.847784 0.269686
O O5 0.628042 0.622298 0.584049
O O6 0.411371 0.657661 0.473458
O O7 0.764837 0.837544 0.579263
O O8 0.756827 0.755601 0.068142
O O9 0.211477 0.752465 0.450191
O O10 0.290752 0.541982 0.785788
O O11 0.978795 0.225268 0.467166
O O12 0.916642 0.481955 0.738721
O O13 0.950462 0.196469 0.955707
O O14 0.895874 0.969579 0.262518
#
# Coordination Sequence:
#
# PCOD9117936 Si02
#       7
#     2   2   2   2   2   2   2
#     4  11  23  40  66 100 141 184 235 281 336 412
#     4  11  24  41  65 102 141 191 227 288 337 423
#     4  11  22  39  65  94 136 171 238 275 332 407
#     4  10  24  40  72  95 143 187 234 277 359 417
#     4  11  25  49  74 108 140 190 235 303 362 431
#     4  11  25  46  79 105 142 183 244 295 364 428
#     4  11  21  43  69  98 129 190 227 281 348 428
#
# _framework density 25.639745999999999
#
# number of rings (size 3 to 8) (size 9 to 14) (size 15 to 20)
#    0.000    1.143    2.857    3.429    4.000    1.143 
#    5.143    0.000    0.000    0.000    0.000    0.000 
#    0.000    0.000    0.000    0.000    0.000    0.000 
#
# Total GULP energy -78222.406646 kJ/mol
# GULP energy per Si atom -5587.314760 kJ/mol
# Density = 2.558139 g / cm^3
# Si number density = 25.639746 Si / 1000 Ang^3
#
#
#
# Elastic Constant Matrix: (Units=GPa)
#
#
# Indices 1 2 3 4 5 6 
#
# 1 44.6309 7.5622 14.8277 0.0000 -1.0141 0.0000
# 2 7.5622 61.9232 26.5462 0.0000 14.2123 0.0000
# 3 14.8277 26.5462 165.3733 0.0000 -2.1359 0.0000
# 4 0.0000 0.0000 0.0000 46.9285 0.0000 8.1391
# 5 -1.0141 14.2123 -2.1359 0.0000 26.8535 0.0000
# 6 0.0000 0.0000 0.0000 8.1391 0.0000 38.0265
#
#
#
# Elastic Compliance Matrix: (Units=1/GPa)
#
#
# Indices 1 2 3 4 5 6 
#
# 1 0.023452 -0.002652 -0.001649 0.000000 0.002158 0.000000
# 2 -0.002652 0.020395 -0.003180 0.000000 -0.011147 0.000000
# 3 -0.001649 -0.003180 0.006733 0.000000 0.002156 0.000000
# 4 0.000000 0.000000 0.000000 0.022131 0.000000 -0.004737
# 5 0.002158 -0.011147 0.002156 0.000000 0.043392 0.000000
# 6 0.000000 0.000000 0.000000 -0.004737 0.000000 0.027311
#
#
# Mechanical properties :
#
#
# Convention : Reuss Voigt Hill
#
# Bulk Modulus (GPa) = 28.07648 41.08883 34.58265
# Shear Modulus (GPa) = 29.36879 37.22781 33.29830
#
# Velocity S-wave (km/s) = 3.38811 3.81459 3.60766
# Velocity P-wave (km/s) = 5.12639 5.95497 5.55615
#
# Compressibility (1/GPa) = 0.03561700
#
# Stress axis : x y z
#
# Youngs Moduli (GPa) = 42.63964 49.03265 148.52019
#
# Poissons Ratio (x) = 0.13006 0.24493
# Poissons Ratio (y) = 0.11310 0.47229
# Poissons Ratio (z) = 0.07032 0.15592
#
# Static dielectric constant tensor:
#      x y z
#    x 2.124860 0.000000 0.031120 
#    y 0.000000 2.069880 0.000000 
#    z 0.031120 0.000000 2.013140 
# 
# From -- ./inp_files/2491.got.cif
#   From: 2010.05.17/outbox.cif.g08.bks.cpg/sg4_2_cif.got.tgz:2491.got - 2010.06.03 18:43:04.
