data_PCOD9117334
_publ_section_title
;
Structure prediction by ZEFSAII (Michael W. Deem and Ramdas Pophale) SiO2 
 PCOD9117334
Probable space group: P 21
;
_chemical_formula_sum "Si O2"
_cell_formula_units_Z 14
_cell_length_a 10.982038
_cell_length_b 8.915188
_cell_length_c 5.590873
_cell_angle_alpha 90.000000
_cell_angle_beta 81.817269
_cell_angle_gamma 90.000000
_cell_volume 541.812397
_symmetry_space_group_name_H-M "P 21"
_symmetry_group_IT_number 4
_symmetry_cell_setting 'monoclinic'
loop_
_space_group_symop_operation_xyz
x,y,z
-x,1/2+y,-z
loop_
_atom_site_type_symbol
_atom_site_label
_atom_site_fract_x
_atom_site_fract_y
_atom_site_fract_z
Si Si1 0.146661 0.284180 0.817091
Si Si2 0.116364 0.758062 0.200243
Si Si3 0.639429 0.837010 0.916081
Si Si4 0.243893 0.553856 0.510838
Si Si5 0.805255 0.515867 0.517790
Si Si6 0.557532 0.521250 0.875210
Si Si7 0.688195 0.320629 0.205736
O O1 0.242325 0.254336 0.002928
O O2 0.179687 0.452871 0.731407
O O3 0.170566 0.182779 0.574522
O O4 0.006645 0.247446 0.918070
O O5 0.131488 0.632665 0.399230
O O6 0.113445 0.923332 0.320601
O O7 0.246833 0.739905 0.033929
O O8 0.568857 0.935684 0.134989
O O9 0.680797 0.944006 0.688582
O O10 0.547126 0.699587 0.886298
O O11 0.327905 0.690560 0.591231
O O12 0.665962 0.497512 0.656406
O O13 0.801176 0.420069 0.277197
O O14 0.597941 0.446232 0.118434
#
# Coordination Sequence:
#
# PCOD9117334 Si02
#       7
#     2   2   2   2   2   2   2
#     4  12  24  45  71 110 143 190 244 298 370 433
#     4  10  24  43  75 104 148 189 238 302 362 440
#     4  12  28  46  73 106 148 190 251 305 362 437
#     4  11  25  46  70 112 144 187 247 298 367 442
#     4  10  22  46  71 102 140 189 238 297 367 428
#     4  11  26  49  70 103 147 190 248 316 353 433
#     4  10  23  47  72 101 142 195 236 296 373 421
#
# _framework density 25.839202
#
# number of rings (size 3 to 8) (size 9 to 14) (size 15 to 20)
#    0.000    1.143    2.857    1.714    8.000    5.714 
#    0.000    0.000    0.000    0.000    0.000    0.000 
#    0.000    0.000    0.000    0.000    0.000    0.000 
#
# Total GULP energy -78218.048424 kJ/mol
# GULP energy per Si atom -5587.003459 kJ/mol
# Density = 2.578039 g / cm^3
# Si number density = 25.839202 Si / 1000 Ang^3
#
#
#
# Elastic Constant Matrix: (Units=GPa)
#
#
# Indices 1 2 3 4 5 6 
#
# 1 75.7616 14.3941 3.8618 0.0000 1.8786 0.0000
# 2 14.3941 149.0428 14.4420 0.0000 -5.0470 0.0000
# 3 3.8618 14.4420 41.0649 0.0000 -1.0357 0.0000
# 4 0.0000 0.0000 0.0000 55.6169 0.0000 -2.6182
# 5 1.8786 -5.0470 -1.0357 0.0000 30.4955 0.0000
# 6 0.0000 0.0000 0.0000 -2.6182 0.0000 30.5360
#
#
#
# Elastic Compliance Matrix: (Units=1/GPa)
#
#
# Indices 1 2 3 4 5 6 
#
# 1 0.013508 -0.001258 -0.000855 0.000000 -0.001069 0.000000
# 2 -0.001258 0.007098 -0.002348 0.000000 0.001172 0.000000
# 3 -0.000855 -0.002348 0.025271 0.000000 0.000522 0.000000
# 4 0.000000 0.000000 0.000000 0.018053 0.000000 0.001548
# 5 -0.001069 0.001172 0.000522 0.000000 0.033069 0.000000
# 6 0.000000 0.000000 0.000000 0.001548 0.000000 0.032881
#
#
# Mechanical properties :
#
#
# Convention : Reuss Voigt Hill
#
# Bulk Modulus (GPa) = 27.05986 36.80723 31.93354
# Shear Modulus (GPa) = 33.08578 38.87444 35.98011
#
# Velocity S-wave (km/s) = 3.58222 3.88296 3.73562
# Velocity P-wave (km/s) = 5.25403 5.86335 5.56703
#
# Compressibility (1/GPa) = 0.03695511
#
# Stress axis : x y z
#
# Youngs Moduli (GPa) = 74.02807 140.87993 39.57070
#
# Poissons Ratio (x) = 0.17722 0.03383
# Poissons Ratio (y) = 0.09313 0.09293
# Poissons Ratio (z) = 0.06329 0.33085
#
# Static dielectric constant tensor:
#      x y z
#    x 2.044330 0.000000 0.018890 
#    y 0.000000 2.024170 0.000000 
#    z 0.018890 0.000000 2.013870 
# 
# From -- ./inp_files/2557.got.cif
#   From: 2010.05.17/outbox.cif.g08.bks.cpg/sg4_2_cif.got.tgz:2557.got - 2010.06.03 18:43:04.
