data_PCOD9117850
_publ_section_title
;
Structure prediction by ZEFSAII (Michael W. Deem and Ramdas Pophale) SiO2 
 PCOD9117850
Probable space group: P 21
;
_chemical_formula_sum "Si O2"
_cell_formula_units_Z 16
_cell_length_a 20.785201
_cell_length_b 5.040994
_cell_length_c 9.142161
_cell_angle_alpha 90.000000
_cell_angle_beta 141.060175
_cell_angle_gamma 90.000000
_cell_volume 602.042587
_symmetry_space_group_name_H-M "P 21"
_symmetry_group_IT_number 4
_symmetry_cell_setting 'monoclinic'
loop_
_space_group_symop_operation_xyz
x,y,z
-x,1/2+y,-z
loop_
_atom_site_type_symbol
_atom_site_label
_atom_site_fract_x
_atom_site_fract_y
_atom_site_fract_z
Si Si1 0.146738 0.702340 0.138363
Si Si2 0.262909 0.076655 0.758247
Si Si3 0.939908 0.416851 0.719013
Si Si4 0.548567 0.285695 0.639353
Si Si5 0.057835 0.515230 0.539377
Si Si6 0.550882 0.970398 0.920216
Si Si7 0.767731 0.240731 0.004520
Si Si8 0.353577 0.710591 0.653290
O O1 0.178935 0.851469 0.046759
O O2 0.254209 0.595764 0.395948
O O3 0.095803 0.866452 0.178602
O O4 0.057536 0.502293 0.934124
O O5 0.307768 0.895089 0.703676
O O6 0.145692 0.123320 0.495125
O O7 0.244750 0.931999 0.879607
O O8 0.347224 0.301368 0.934896
O O9 0.933778 0.156714 0.604065
O O10 0.464339 0.091031 0.421781
O O11 0.550933 0.225973 0.815850
O O12 0.653315 0.169023 0.760852
O O13 0.999103 0.244868 0.465278
O O14 0.167286 0.501663 0.812474
O O15 0.436366 0.858987 0.700080
O O16 0.572457 0.011208 0.129674
#
# Coordination Sequence:
#
# PCOD9117850 Si02
#       8
#     2   2   2   2   2   2   2   2
#     4  11  25  46  69 112 149 199 253 323 388 457
#     4  10  23  47  69 107 144 210 249 318 373 465
#     4  10  25  45  73 106 159 194 262 314 392 457
#     4  12  28  49  78 115 159 201 253 327 388 453
#     4  11  25  48  79 109 147 203 256 313 381 453
#     4  12  24  45  79 105 153 196 261 305 394 462
#     4  11  24  48  73 108 154 198 264 310 387 453
#     4  11  24  44  74 106 147 197 248 308 383 462
#
# _framework density 26.576191000000001
#
# number of rings (size 3 to 8) (size 9 to 14) (size 15 to 20)
#    0.000    1.000    3.750    1.500    3.500    4.000 
#    0.000    0.000    0.000    0.000    0.000    0.000 
#    0.000    0.000    0.000    0.000    0.000    0.000 
#
# Total GULP energy -89531.936511 kJ/mol
# GULP energy per Si atom -5595.746032 kJ/mol
# Density = 2.651570 g / cm^3
# Si number density = 26.576191 Si / 1000 Ang^3
#
#
#
# Elastic Constant Matrix: (Units=GPa)
#
#
# Indices 1 2 3 4 5 6 
#
# 1 168.4499 15.3033 33.4853 0.0000 -4.8181 0.0000
# 2 15.3033 58.6143 22.9984 0.0000 8.6757 0.0000
# 3 33.4853 22.9984 165.6691 0.0000 18.4944 0.0000
# 4 0.0000 0.0000 0.0000 29.2587 0.0000 4.7337
# 5 -4.8181 8.6757 18.4944 0.0000 56.6733 0.0000
# 6 0.0000 0.0000 0.0000 4.7337 0.0000 40.7350
#
#
#
# Elastic Compliance Matrix: (Units=1/GPa)
#
#
# Indices 1 2 3 4 5 6 
#
# 1 0.006334 -0.001344 -0.001221 0.000000 0.001143 0.000000
# 2 -0.001344 0.018554 -0.002049 0.000000 -0.002286 0.000000
# 3 -0.001221 -0.002049 0.006791 0.000000 -0.002006 0.000000
# 4 0.000000 0.000000 0.000000 0.034833 0.000000 -0.004048
# 5 0.001143 -0.002286 -0.002006 0.000000 0.018747 0.000000
# 6 0.000000 0.000000 0.000000 -0.004048 0.000000 0.025019
#
#
# Mechanical properties :
#
#
# Convention : Reuss Voigt Hill
#
# Bulk Modulus (GPa) = 44.54050 59.58971 52.06510
# Shear Modulus (GPa) = 39.37332 46.72981 43.05157
#
# Velocity S-wave (km/s) = 3.85324 4.19780 4.02920
# Velocity P-wave (km/s) = 6.04917 6.77984 6.42490
#
# Compressibility (1/GPa) = 0.02245148
#
# Stress axis : x y z
#
# Youngs Moduli (GPa) = 157.87786 53.89748 147.24514
#
# Poissons Ratio (x) = 0.07242 0.17983
# Poissons Ratio (y) = 0.21213 0.30169
# Poissons Ratio (z) = 0.19281 0.11043
#
# Static dielectric constant tensor:
#      x y z
#    x 2.098910 0.000000 0.039590 
#    y 0.000000 2.109270 0.000000 
#    z 0.039590 0.000000 2.141950 
# 
# From -- ./inp_files/9770.got.cif
#   From: 2010.05.17/outbox.cif.g08.bks.cpg/sg4_5_cif.got.tgz:9770.got - 2010.06.03 18:43:04.
