data_PCOD9117931
_publ_section_title
;
Structure prediction by ZEFSAII (Michael W. Deem and Ramdas Pophale) SiO2 
 PCOD9117931
Probable space group: P 21
;
_chemical_formula_sum "Si O2"
_cell_formula_units_Z 14
_cell_length_a 6.731672
_cell_length_b 19.349774
_cell_length_c 7.103053
_cell_angle_alpha 90.000000
_cell_angle_beta 135.871903
_cell_angle_gamma 90.000000
_cell_volume 644.196533
_symmetry_space_group_name_H-M "P 21"
_symmetry_group_IT_number 4
_symmetry_cell_setting 'monoclinic'
loop_
_space_group_symop_operation_xyz
x,y,z
-x,1/2+y,-z
loop_
_atom_site_type_symbol
_atom_site_label
_atom_site_fract_x
_atom_site_fract_y
_atom_site_fract_z
Si Si1 0.525196 0.795260 0.357973
Si Si2 0.838445 0.243634 0.560695
Si Si3 0.861445 0.993444 0.957899
Si Si4 0.059113 0.099368 0.791597
Si Si5 0.921137 0.377586 0.181866
Si Si6 0.188362 0.985721 0.573199
Si Si7 0.544576 0.716108 0.030781
O O1 0.353466 0.787414 0.432657
O O2 0.840452 0.819918 0.618473
O O3 0.504639 0.723710 0.226127
O O4 0.360221 0.848875 0.111427
O O5 0.711689 0.243899 0.266511
O O6 0.839618 0.162583 0.619293
O O7 0.170161 0.262390 0.806380
O O8 0.014987 0.982205 0.261629
O O9 0.932789 0.931018 0.864286
O O10 0.521809 0.999208 0.756793
O O11 0.996383 0.059494 0.941192
O O12 0.059564 0.046028 0.618995
O O13 0.358835 0.140848 0.974935
O O14 0.844024 0.417063 0.321782
#
# Coordination Sequence:
#
# PCOD9117931 Si02
#       7
#     2   2   2   2   2   2   2
#     4  12  24  42  68  90 132 168 202 260 318 362
#     4  10  24  40  62  96 130 162 206 253 309 379
#     4  11  25  43  69  90 125 170 205 268 314 356
#     4   9  26  40  66  98 128 153 224 248 312 389
#     4  11  26  44  62  98 124 161 226 252 298 391
#     4  11  25  43  69  90 125 170 205 268 314 356
#     4  10  24  40  62  96 130 162 206 253 309 379
#
# _framework density 21.732496999999999
#
# number of rings (size 3 to 8) (size 9 to 14) (size 15 to 20)
#    0.857    0.571    0.000    3.429    6.000    9.143 
#    0.000    0.000    0.000    0.000    0.000    0.000 
#    0.000    0.000    0.000    0.000    0.000    0.000 
#
# Total GULP energy -78183.447280 kJ/mol
# GULP energy per Si atom -5584.531949 kJ/mol
# Density = 2.168303 g / cm^3
# Si number density = 21.732497 Si / 1000 Ang^3
#
#
#
# Elastic Constant Matrix: (Units=GPa)
#
#
# Indices 1 2 3 4 5 6 
#
# 1 81.2950 23.1088 30.3291 0.0000 -7.6271 0.0000
# 2 23.1088 40.7709 20.1440 0.0000 -0.5680 0.0000
# 3 30.3291 20.1440 125.9608 0.0000 -3.7866 0.0000
# 4 0.0000 0.0000 0.0000 20.5017 0.0000 0.9926
# 5 -7.6271 -0.5680 -3.7866 0.0000 34.0882 0.0000
# 6 0.0000 0.0000 0.0000 0.9926 0.0000 37.2863
#
#
#
# Elastic Compliance Matrix: (Units=1/GPa)
#
#
# Indices 1 2 3 4 5 6 
#
# 1 0.015679 -0.007627 -0.002462 0.000000 0.003108 0.000000
# 2 -0.007627 0.030342 -0.003062 0.000000 -0.001541 0.000000
# 3 -0.002462 -0.003062 0.009034 0.000000 0.000402 0.000000
# 4 0.000000 0.000000 0.000000 0.048839 0.000000 -0.001300
# 5 0.003108 -0.001541 0.000402 0.000000 0.030050 0.000000
# 6 0.000000 0.000000 0.000000 -0.001300 0.000000 0.026854
#
#
# Mechanical properties :
#
#
# Convention : Reuss Voigt Hill
#
# Bulk Modulus (GPa) = 34.78056 43.91007 39.34531
# Shear Modulus (GPa) = 25.42144 30.00490 27.71317
#
# Velocity S-wave (km/s) = 3.42386 3.71974 3.57486
# Velocity P-wave (km/s) = 5.62753 6.22071 5.93154
#
# Compressibility (1/GPa) = 0.02875170
#
# Stress axis : x y z
#
# Youngs Moduli (GPa) = 63.77946 32.95787 110.69800
#
# Poissons Ratio (x) = 0.25137 0.27255
# Poissons Ratio (y) = 0.48645 0.33898
# Poissons Ratio (z) = 0.15703 0.10092
#
# Static dielectric constant tensor:
#      x y z
#    x 1.797370 0.000000 -0.002900 
#    y 0.000000 1.837550 0.000000 
#    z -0.002900 0.000000 1.728780 
# 
# From -- ./inp_files/563.got.cif
#   From: 2010.05.17/outbox.cif.g08.bks.cpg/sg4_1_cif.got.tgz:563.got - 2010.06.03 18:43:04.
