data_PCOD9117280
_publ_section_title
;
Structure prediction by ZEFSAII (Michael W. Deem and Ramdas Pophale) SiO2 
 PCOD9117280
Probable space group: P 21
;
_chemical_formula_sum "Si O2"
_cell_formula_units_Z 16
_cell_length_a 9.706438
_cell_length_b 12.511122
_cell_length_c 8.623037
_cell_angle_alpha 90.000000
_cell_angle_beta 38.338834
_cell_angle_gamma 90.000000
_cell_volume 649.569662
_symmetry_space_group_name_H-M "P 21"
_symmetry_group_IT_number 4
_symmetry_cell_setting 'monoclinic'
loop_
_space_group_symop_operation_xyz
x,y,z
-x,1/2+y,-z
loop_
_atom_site_type_symbol
_atom_site_label
_atom_site_fract_x
_atom_site_fract_y
_atom_site_fract_z
Si Si1 0.401554 0.933730 0.055574
Si Si2 0.915326 0.493928 0.917072
Si Si3 0.158963 0.704992 0.268420
Si Si4 0.157784 0.698194 0.614512
Si Si5 0.243496 0.341005 0.439465
Si Si6 0.903029 0.866859 0.985714
Si Si7 0.440861 0.549431 0.800467
Si Si8 0.575295 0.726056 0.460095
O O1 0.275618 0.821042 0.178599
O O2 0.304533 0.997242 0.993112
O O3 0.391664 0.003597 0.218387
O O4 0.653124 0.898100 0.799475
O O5 0.031246 0.607947 0.824224
O O6 0.088365 0.423406 0.664899
O O7 0.910102 0.431363 0.083337
O O8 0.184463 0.656449 0.416905
O O9 0.903142 0.735550 0.461778
O O10 0.276804 0.632614 0.035299
O O11 0.385098 0.726883 0.499419
O O12 0.009592 0.805339 0.747869
O O13 0.444773 0.305671 0.374770
O O14 0.796217 0.773210 0.186632
O O15 0.709233 0.950851 0.123469
O O16 0.559116 0.610023 0.554138
#
# Coordination Sequence:
#
# PCOD9117280 Si02
#       8
#     2   2   2   2   2   2   2   2
#     4  11  23  44  69 105 144 188 239 292 361 437
#     4  10  24  42  68 102 137 191 235 297 365 414
#     4  11  26  45  73 107 145 184 240 302 364 436
#     4  12  25  46  68 105 146 185 240 302 357 440
#     4  10  22  45  70 101 144 184 239 301 353 439
#     4  11  26  48  72 104 144 190 246 300 360 438
#     4  12  25  48  74 106 145 194 242 300 369 427
#     4  11  25  46  72 102 145 190 247 296 357 433
#
# _framework density 24.631691
#
# number of rings (size 3 to 8) (size 9 to 14) (size 15 to 20)
#    0.000    1.000    2.500    3.000    5.250    4.000 
#    6.750    0.000    0.000    0.000    0.000    0.000 
#    0.000    0.000    0.000    0.000    0.000    0.000 
#
# Total GULP energy -89517.116810 kJ/mol
# GULP energy per Si atom -5594.819801 kJ/mol
# Density = 2.457563 g / cm^3
# Si number density = 24.631691 Si / 1000 Ang^3
#
#
#
# Elastic Constant Matrix: (Units=GPa)
#
#
# Indices 1 2 3 4 5 6 
#
# 1 110.6263 28.2900 12.2302 0.0000 -9.6327 0.0000
# 2 28.2900 94.4315 34.5933 0.0000 -3.2037 0.0000
# 3 12.2302 34.5933 56.3559 0.0000 11.3714 0.0000
# 4 0.0000 0.0000 0.0000 42.3585 0.0000 6.6405
# 5 -9.6327 -3.2037 11.3714 0.0000 26.7918 0.0000
# 6 0.0000 0.0000 0.0000 6.6405 0.0000 46.6945
#
#
#
# Elastic Compliance Matrix: (Units=1/GPa)
#
#
# Indices 1 2 3 4 5 6 
#
# 1 0.010163 -0.002321 -0.001599 0.000000 0.004055 0.000000
# 2 -0.002321 0.015031 -0.009752 0.000000 0.005102 0.000000
# 3 -0.001599 -0.009752 0.026717 0.000000 -0.013081 0.000000
# 4 0.000000 0.000000 0.000000 0.024146 0.000000 -0.003434
# 5 0.004055 0.005102 -0.013081 0.000000 0.044945 0.000000
# 6 0.000000 0.000000 0.000000 -0.003434 0.000000 0.021904
#
#
# Mechanical properties :
#
#
# Convention : Reuss Voigt Hill
#
# Bulk Modulus (GPa) = 40.70657 45.73785 43.22221
# Shear Modulus (GPa) = 28.02080 35.58896 31.80488
#
# Velocity S-wave (km/s) = 3.37648 3.80523 3.59725
# Velocity P-wave (km/s) = 5.63585 6.15755 5.90247
#
# Compressibility (1/GPa) = 0.02456606
#
# Stress axis : x y z
#
# Youngs Moduli (GPa) = 98.39696 66.53050 37.42951
#
# Poissons Ratio (x) = 0.15444 0.05984
# Poissons Ratio (y) = 0.22842 0.36501
# Poissons Ratio (z) = 0.15732 0.64881
#
# Static dielectric constant tensor:
#      x y z
#    x 1.989480 0.000000 -0.009660 
#    y 0.000000 1.937630 0.000000 
#    z -0.009660 0.000000 1.924910 
# 
# From -- ./inp_files/4630.got.cif
#   From: 2010.05.17/outbox.cif.g08.bks.cpg/sg4_3_cif.got.tgz:4630.got - 2010.06.03 18:43:04.
