data_PCOD9117581
_publ_section_title
;
Structure prediction by ZEFSAII (Michael W. Deem and Ramdas Pophale) SiO2 
 PCOD9117581
Probable space group: P 21
;
_chemical_formula_sum "Si O2"
_cell_formula_units_Z 14
_cell_length_a 8.462967
_cell_length_b 7.453204
_cell_length_c 8.189506
_cell_angle_alpha 90.000000
_cell_angle_beta 82.469772
_cell_angle_gamma 90.000000
_cell_volume 512.108166
_symmetry_space_group_name_H-M "P 21"
_symmetry_group_IT_number 4
_symmetry_cell_setting 'monoclinic'
loop_
_space_group_symop_operation_xyz
x,y,z
-x,1/2+y,-z
loop_
_atom_site_type_symbol
_atom_site_label
_atom_site_fract_x
_atom_site_fract_y
_atom_site_fract_z
Si Si1 0.067677 0.210550 0.353264
Si Si2 0.157093 0.549009 0.124309
Si Si3 0.903033 0.859857 0.207952
Si Si4 0.378338 0.123394 0.186599
Si Si5 0.347445 0.842344 0.936861
Si Si6 0.733928 0.273935 0.418890
Si Si7 0.409546 0.410071 0.610757
O O1 0.911704 0.286850 0.470416
O O2 0.127169 0.392929 0.257734
O O3 0.247055 0.132582 0.347404
O O4 0.984793 0.037562 0.277212
O O5 0.303926 0.685827 0.073484
O O6 0.018117 0.693865 0.169794
O O7 0.142876 0.437540 0.960411
O O8 0.741747 0.790751 0.319497
O O9 0.312849 0.028103 0.032985
O O10 0.517916 0.994910 0.233792
O O11 0.468093 0.308063 0.134282
O O12 0.252331 0.815446 0.778905
O O13 0.566942 0.361746 0.492476
O O14 0.681742 0.070863 0.464767
#
# Coordination Sequence:
#
# PCOD9117581 Si02
#       7
#     2   2   2   2   2   2   2
#     4  11  23  39  66  94 134 172 220 281 327 400
#     4  12  20  37  64 102 129 171 217 276 337 374
#     4  11  21  38  64  97 132 169 223 277 321 404
#     4  11  23  41  63 101 140 164 220 290 338 387
#     4  11  22  40  65  99 135 173 223 275 338 394
#     4  10  23  43  64  91 125 181 224 262 329 408
#     4  10  24  44  64  96 135 172 223 275 330 403
#
# _framework density 27.337975
#
# number of rings (size 3 to 8) (size 9 to 14) (size 15 to 20)
#    0.000    1.143    7.143    0.857    2.000    1.143 
#    0.000    7.143    0.000    0.000    0.000    0.000 
#    0.000    0.000    0.000    0.000    0.000    0.000 
#
# Total GULP energy -78106.338105 kJ/mol
# GULP energy per Si atom -5579.024150 kJ/mol
# Density = 2.727575 g / cm^3
# Si number density = 27.337975 Si / 1000 Ang^3
#
#
#
# Elastic Constant Matrix: (Units=GPa)
#
#
# Indices 1 2 3 4 5 6 
#
# 1 131.5862 28.6901 62.0396 0.0000 -67.2109 0.0000
# 2 28.6901 78.5054 37.1029 0.0000 -1.0070 0.0000
# 3 62.0396 37.1029 110.5586 0.0000 -38.1877 0.0000
# 4 0.0000 0.0000 0.0000 48.4755 0.0000 -23.0723
# 5 -67.2109 -1.0070 -38.1877 0.0000 59.5775 0.0000
# 6 0.0000 0.0000 0.0000 -23.0723 0.0000 44.7451
#
#
#
# Elastic Compliance Matrix: (Units=1/GPa)
#
#
# Indices 1 2 3 4 5 6 
#
# 1 0.021958 -0.006800 -0.001956 0.000000 0.023402 0.000000
# 2 -0.006800 0.017967 -0.006112 0.000000 -0.011285 0.000000
# 3 -0.001956 -0.006112 0.014636 0.000000 0.007071 0.000000
# 4 0.000000 0.000000 0.000000 0.027338 0.000000 0.014097
# 5 0.023402 -0.011285 0.007071 0.000000 0.047527 0.000000
# 6 0.000000 0.000000 0.000000 0.014097 0.000000 0.029618
#
#
# Mechanical properties :
#
#
# Convention : Reuss Voigt Hill
#
# Bulk Modulus (GPa) = 40.28164 64.03503 52.15834
# Shear Modulus (GPa) = 25.37370 43.41413 34.39392
#
# Velocity S-wave (km/s) = 3.04986 3.98936 3.55082
# Velocity P-wave (km/s) = 5.21237 6.68538 5.99430
#
# Compressibility (1/GPa) = 0.02482521
#
# Stress axis : x y z
#
# Youngs Moduli (GPa) = 45.54205 55.65849 68.32360
#
# Poissons Ratio (x) = 0.37847 0.13366
# Poissons Ratio (y) = 0.30968 0.41757
# Poissons Ratio (z) = 0.08909 0.34017
#
# Static dielectric constant tensor:
#      x y z
#    x 2.182670 0.000000 0.031870 
#    y 0.000000 2.245000 0.000000 
#    z 0.031870 0.000000 2.228050 
# 
# From -- ./inp_files/5770.got.cif
#   From: 2010.05.17/outbox.cif.g08.bks.cpg/sg4_3_cif.got.tgz:5770.got - 2010.06.03 18:43:04.
