data_PCOD9117638
_publ_section_title
;
Structure prediction by ZEFSAII (Michael W. Deem and Ramdas Pophale) SiO2 
 PCOD9117638
Probable space group: P 21
;
_chemical_formula_sum "Si O2"
_cell_formula_units_Z 16
_cell_length_a 11.484903
_cell_length_b 9.258102
_cell_length_c 8.278142
_cell_angle_alpha 90.000000
_cell_angle_beta 136.607847
_cell_angle_gamma 90.000000
_cell_volume 604.687948
_symmetry_space_group_name_H-M "P 21"
_symmetry_group_IT_number 4
_symmetry_cell_setting 'monoclinic'
loop_
_space_group_symop_operation_xyz
x,y,z
-x,1/2+y,-z
loop_
_atom_site_type_symbol
_atom_site_label
_atom_site_fract_x
_atom_site_fract_y
_atom_site_fract_z
Si Si1 0.464912 0.128510 0.543708
Si Si2 0.686140 0.326659 0.583651
Si Si3 0.305075 0.123426 0.024272
Si Si4 0.347338 0.639536 0.772443
Si Si5 0.135833 0.421020 0.756548
Si Si6 0.857673 0.775773 0.691516
Si Si7 0.028026 0.510158 0.981025
Si Si8 0.861464 0.352597 0.257260
O O1 0.631640 0.225220 0.680055
O O2 0.330162 0.214617 0.518434
O O3 0.453162 0.958252 0.577184
O O4 0.386041 0.137543 0.282398
O O5 0.697889 0.222407 0.439920
O O6 0.860397 0.411696 0.785975
O O7 0.205199 0.263265 0.866443
O O8 0.188137 0.984103 0.904979
O O9 0.457745 0.099944 0.051893
O O10 0.241209 0.500996 0.722683
O O11 0.296831 0.754413 0.858721
O O12 0.137980 0.500693 0.929506
O O13 0.942566 0.416562 0.501653
O O14 0.951649 0.669822 0.915502
O O15 0.978888 0.770335 0.659410
O O16 0.862621 0.936505 0.768599
#
# Coordination Sequence:
#
# PCOD9117638 Si02
#       8
#     2   2   2   2   2   2   2   2
#     4  10  23  45  67 103 143 191 232 292 362 427
#     4  10  23  43  70  99 145 183 238 294 355 433
#     4  11  25  45  68 102 142 185 241 295 358 429
#     4  11  24  45  68 101 140 187 235 296 357 425
#     4  12  24  44  70 102 140 184 237 290 356 420
#     4  11  24  41  68  98 138 178 237 290 349 425
#     4  11  23  43  67 101 137 182 235 291 352 423
#     4  12  24  42  70 104 135 186 239 292 353 424
#
# _framework density 26.459928999999999
#
# number of rings (size 3 to 8) (size 9 to 14) (size 15 to 20)
#    0.000    1.000    3.750    3.000    0.000    3.000 
#    0.000    2.500    0.000    0.000    0.000    0.000 
#    0.000    0.000    0.000    0.000    0.000    0.000 
#
# Total GULP energy -89643.566968 kJ/mol
# GULP energy per Si atom -5602.722935 kJ/mol
# Density = 2.639971 g / cm^3
# Si number density = 26.459929 Si / 1000 Ang^3
#
#
#
# Elastic Constant Matrix: (Units=GPa)
#
#
# Indices 1 2 3 4 5 6 
#
# 1 154.0924 35.5958 7.4542 0.0000 -3.8339 0.0000
# 2 35.5958 132.6396 16.6806 0.0000 -1.9482 0.0000
# 3 7.4542 16.6806 51.5131 0.0000 -5.8694 0.0000
# 4 0.0000 0.0000 0.0000 36.1572 0.0000 0.8507
# 5 -3.8339 -1.9482 -5.8694 0.0000 29.3249 0.0000
# 6 0.0000 0.0000 0.0000 0.8507 0.0000 54.5005
#
#
#
# Elastic Compliance Matrix: (Units=1/GPa)
#
#
# Indices 1 2 3 4 5 6 
#
# 1 0.006942 -0.001810 -0.000336 0.000000 0.000720 0.000000
# 2 -0.001810 0.008331 -0.002456 0.000000 -0.000175 0.000000
# 3 -0.000336 -0.002456 0.020705 0.000000 0.003937 0.000000
# 4 0.000000 0.000000 0.000000 0.027667 0.000000 -0.000432
# 5 0.000720 -0.000175 0.003937 0.000000 0.034971 0.000000
# 6 0.000000 0.000000 0.000000 -0.000432 0.000000 0.018355
#
#
# Mechanical properties :
#
#
# Convention : Reuss Voigt Hill
#
# Bulk Modulus (GPa) = 37.34997 50.85626 44.10312
# Shear Modulus (GPa) = 37.00940 42.56414 39.78677
#
# Velocity S-wave (km/s) = 3.74397 4.01512 3.88191
# Velocity P-wave (km/s) = 5.73028 6.38410 6.06600
#
# Compressibility (1/GPa) = 0.02677378
#
# Stress axis : x y z
#
# Youngs Moduli (GPa) = 144.05205 120.02992 48.29756
#
# Poissons Ratio (x) = 0.21727 0.01625
# Poissons Ratio (y) = 0.26075 0.11861
# Poissons Ratio (z) = 0.04845 0.29476
#
# Static dielectric constant tensor:
#      x y z
#    x 2.068330 0.000000 0.001160 
#    y 0.000000 2.073060 0.000000 
#    z 0.001160 0.000000 2.087680 
# 
# From -- ./inp_files/5678.got.cif
#   From: 2010.05.17/outbox.cif.g08.bks.cpg/sg4_3_cif.got.tgz:5678.got - 2010.06.03 18:43:04.
