data_PCOD9117686
_publ_section_title
;
Structure prediction by ZEFSAII (Michael W. Deem and Ramdas Pophale) SiO2 
 PCOD9117686
Probable space group: P 21
;
_chemical_formula_sum "Si O2"
_cell_formula_units_Z 12
_cell_length_a 4.982273
_cell_length_b 7.100665
_cell_length_c 14.779598
_cell_angle_alpha 90.000000
_cell_angle_beta 69.864457
_cell_angle_gamma 90.000000
_cell_volume 490.907495
_symmetry_space_group_name_H-M "P 21"
_symmetry_group_IT_number 4
_symmetry_cell_setting 'monoclinic'
loop_
_space_group_symop_operation_xyz
x,y,z
-x,1/2+y,-z
loop_
_atom_site_type_symbol
_atom_site_label
_atom_site_fract_x
_atom_site_fract_y
_atom_site_fract_z
Si Si1 0.774182 0.268210 0.453571
Si Si2 0.577768 0.639548 0.989027
Si Si3 0.621241 0.833648 0.663510
Si Si4 0.168213 0.936703 0.359606
Si Si5 0.558480 0.168106 0.796367
Si Si6 0.167496 0.448352 0.925493
O O1 0.519045 0.322874 0.418406
O O2 0.731545 0.324017 0.562370
O O3 0.047276 0.386836 0.387299
O O4 0.883506 0.054942 0.419786
O O5 0.405813 0.615259 0.103123
O O6 0.760059 0.826097 0.992522
O O7 0.370916 0.625873 0.926960
O O8 0.838193 0.491886 0.949132
O O9 0.630648 0.614320 0.691093
O O10 0.489334 0.984636 0.745652
O O11 0.183795 0.785858 0.278230
O O12 0.295973 0.316204 0.832872
#
# Coordination Sequence:
#
# PCOD9117686 Si02
#       6
#     2   2   2   2   2   2
#     4  10  24  43  69  97 144 183 224 279 346 392
#     4  10  23  44  68  96 131 179 219 288 343 411
#     4  10  25  44  65 104 136 183 234 277 338 411
#     4  10  24  45  68 103 141 182 234 279 339 413
#     4  10  25  46  71 101 137 181 235 285 337 418
#     4  10  23  44  67  97 133 174 228 276 355 399
#
# _framework density 24.444524999999999
#
# number of rings (size 3 to 8) (size 9 to 14) (size 15 to 20)
#    2.000    0.000    0.000    2.000    4.667    5.333 
#   12.000    0.000    0.000    0.000    0.000    0.000 
#    0.000    0.000    0.000    0.000    0.000    0.000 
#
# Total GULP energy -66850.538388 kJ/mol
# GULP energy per Si atom -5570.878199 kJ/mol
# Density = 2.438889 g / cm^3
# Si number density = 24.444525 Si / 1000 Ang^3
#
#
#
# Elastic Constant Matrix: (Units=GPa)
#
#
# Indices 1 2 3 4 5 6 
#
# 1 72.6384 29.6551 13.5370 0.0000 4.0925 0.0000
# 2 29.6551 100.6199 55.8352 0.0000 -14.2327 0.0000
# 3 13.5370 55.8352 101.0606 0.0000 -8.4504 0.0000
# 4 0.0000 0.0000 0.0000 51.7143 0.0000 4.0939
# 5 4.0925 -14.2327 -8.4504 0.0000 18.4845 0.0000
# 6 0.0000 0.0000 0.0000 4.0939 0.0000 12.3072
#
#
#
# Elastic Compliance Matrix: (Units=1/GPa)
#
#
# Indices 1 2 3 4 5 6 
#
# 1 0.016770 -0.006484 0.000632 0.000000 -0.008416 0.000000
# 2 -0.006484 0.017980 -0.008097 0.000000 0.011578 0.000000
# 3 0.000632 -0.008097 0.014298 0.000000 0.000162 0.000000
# 4 0.000000 0.000000 0.000000 0.019860 0.000000 -0.006606
# 5 -0.008416 0.011578 0.000162 0.000000 0.064952 0.000000
# 6 0.000000 0.000000 0.000000 -0.006606 0.000000 0.083451
#
#
# Mechanical properties :
#
#
# Convention : Reuss Voigt Hill
#
# Bulk Modulus (GPa) = 47.28108 52.48595 49.88352
# Shear Modulus (GPa) = 19.82086 28.18730 24.00408
#
# Velocity S-wave (km/s) = 2.85063 3.39944 3.13706
# Velocity P-wave (km/s) = 5.49718 6.07670 5.79419
#
# Compressibility (1/GPa) = 0.02115011
#
# Stress axis : x y z
#
# Youngs Moduli (GPa) = 59.62924 55.61593 69.94170
#
# Poissons Ratio (x) = 0.36061 -0.04422
# Poissons Ratio (y) = 0.38663 0.56635
# Poissons Ratio (z) = -0.03770 0.45034
#
# Static dielectric constant tensor:
#      x y z
#    x 1.935470 0.000000 -0.038610 
#    y 0.000000 2.142590 0.000000 
#    z -0.038610 0.000000 1.928060 
# 
# From -- ./inp_files/13241.got.cif
#   From: 2010.05.17/outbox.cif.g08.bks.cpg/sg4_7_cif.got.tgz:13241.got - 2010.06.03 18:43:04.
