data_PCOD9117820
_publ_section_title
;
Structure prediction by ZEFSAII (Michael W. Deem and Ramdas Pophale) SiO2 
 PCOD9117820
Probable space group: P 21
;
_chemical_formula_sum "Si O2"
_cell_formula_units_Z 14
_cell_length_a 9.138134
_cell_length_b 9.239157
_cell_length_c 6.683662
_cell_angle_alpha 90.000000
_cell_angle_beta 102.833775
_cell_angle_gamma 90.000000
_cell_volume 550.195764
_symmetry_space_group_name_H-M "P 21"
_symmetry_group_IT_number 4
_symmetry_cell_setting 'monoclinic'
loop_
_space_group_symop_operation_xyz
x,y,z
-x,1/2+y,-z
loop_
_atom_site_type_symbol
_atom_site_label
_atom_site_fract_x
_atom_site_fract_y
_atom_site_fract_z
Si Si1 0.551799 0.685550 0.384129
Si Si2 0.721673 0.507741 0.745547
Si Si3 0.862547 0.206903 0.255341
Si Si4 0.345924 0.448083 0.302123
Si Si5 0.986877 0.900460 0.369672
Si Si6 0.113656 0.273846 0.031585
Si Si7 0.548451 0.318002 0.015752
O O1 0.651159 0.559656 0.514255
O O2 0.385945 0.613520 0.373149
O O3 0.606590 0.831910 0.512324
O O4 0.552195 0.711475 0.148863
O O5 0.874133 0.429837 0.735291
O O6 0.768714 0.652687 0.870712
O O7 0.618819 0.417482 0.861965
O O8 0.942952 0.326618 0.417345
O O9 0.688225 0.238050 0.164397
O O10 0.956703 0.221622 0.078360
O O11 0.897611 0.050682 0.363596
O O12 0.179539 0.415766 0.167027
O O13 0.452134 0.404834 0.146659
O O14 0.887883 0.794362 0.205456
#
# Coordination Sequence:
#
# PCOD9117820 Si02
#       7
#     2   2   2   2   2   2   2
#     4  11  24  45  66 105 140 176 233 288 348 406
#     4  10  23  46  71 100 142 186 223 295 353 403
#     4  11  26  42  72 102 134 189 230 280 350 411
#     4  11  26  42  72 101 141 183 230 290 347 413
#     4  11  24  46  70 103 138 184 231 288 341 414
#     4  10  24  45  66  99 140 180 228 287 341 406
#     4  12  25  44  73 102 139 188 237 282 354 415
#
# _framework density 25.445488000000001
#
# number of rings (size 3 to 8) (size 9 to 14) (size 15 to 20)
#    0.000    1.143    2.857    1.714    6.000    4.571 
#    0.000    0.000    0.000    0.000    0.000    0.000 
#    0.000    0.000    0.000    0.000    0.000    0.000 
#
# Total GULP energy -78352.972858 kJ/mol
# GULP energy per Si atom -5596.640918 kJ/mol
# Density = 2.538757 g / cm^3
# Si number density = 25.445488 Si / 1000 Ang^3
#
#
#
# Elastic Constant Matrix: (Units=GPa)
#
#
# Indices 1 2 3 4 5 6 
#
# 1 64.0470 3.3065 32.5652 0.0000 0.5070 0.0000
# 2 3.3065 70.3907 45.5826 0.0000 2.0948 0.0000
# 3 32.5652 45.5826 139.8193 0.0000 21.9704 0.0000
# 4 0.0000 0.0000 0.0000 53.1621 0.0000 6.7259
# 5 0.5070 2.0948 21.9704 0.0000 31.9853 0.0000
# 6 0.0000 0.0000 0.0000 6.7259 0.0000 27.4082
#
#
#
# Elastic Compliance Matrix: (Units=1/GPa)
#
#
# Indices 1 2 3 4 5 6 
#
# 1 0.018346 0.002730 -0.005705 0.000000 0.003449 0.000000
# 2 0.002730 0.018711 -0.007327 0.000000 0.003764 0.000000
# 3 -0.005705 -0.007327 0.012084 0.000000 -0.007730 0.000000
# 4 0.000000 0.000000 0.000000 0.019413 0.000000 -0.004764
# 5 0.003449 0.003764 -0.007730 0.000000 0.036273 0.000000
# 6 0.000000 0.000000 0.000000 -0.004764 0.000000 0.037654
#
#
# Mechanical properties :
#
#
# Convention : Reuss Voigt Hill
#
# Bulk Modulus (GPa) = 35.04263 48.57394 41.80829
# Shear Modulus (GPa) = 28.96892 35.36466 32.16679
#
# Velocity S-wave (km/s) = 3.37778 3.73207 3.55934
# Velocity P-wave (km/s) = 5.38647 6.14020 5.77564
#
# Compressibility (1/GPa) = 0.02853667
#
# Stress axis : x y z
#
# Youngs Moduli (GPa) = 54.50786 53.44421 82.75212
#
# Poissons Ratio (x) = -0.14590 0.47209
# Poissons Ratio (y) = -0.14880 0.60635
# Poissons Ratio (z) = 0.31096 0.39160
#
# Static dielectric constant tensor:
#      x y z
#    x 2.015930 0.000000 0.040340 
#    y 0.000000 2.060800 0.000000 
#    z 0.040340 0.000000 2.007050 
# 
# From -- ./inp_files/2529.got.cif
#   From: 2010.05.17/outbox.cif.g08.bks.cpg/sg4_2_cif.got.tgz:2529.got - 2010.06.03 18:43:04.
