data_PCOD9117869
_publ_section_title
;
Structure prediction by ZEFSAII (Michael W. Deem and Ramdas Pophale) SiO2 
 PCOD9117869
Probable space group: P 21
;
_chemical_formula_sum "Si O2"
_cell_formula_units_Z 16
_cell_length_a 21.614324
_cell_length_b 5.282992
_cell_length_c 18.848712
_cell_angle_alpha 90.000000
_cell_angle_beta 18.058977
_cell_angle_gamma 90.000000
_cell_volume 667.204689
_symmetry_space_group_name_H-M "P 21"
_symmetry_group_IT_number 4
_symmetry_cell_setting 'monoclinic'
loop_
_space_group_symop_operation_xyz
x,y,z
-x,1/2+y,-z
loop_
_atom_site_type_symbol
_atom_site_label
_atom_site_fract_x
_atom_site_fract_y
_atom_site_fract_z
Si Si1 0.937567 0.406760 0.266359
Si Si2 0.931578 0.098285 0.614322
Si Si3 0.979597 0.291343 0.926945
Si Si4 0.402903 0.863359 0.572486
Si Si5 0.203697 0.021502 0.019547
Si Si6 0.118389 0.245219 0.546949
Si Si7 0.506232 0.295341 0.039954
Si Si8 0.361761 0.576765 0.478302
O O1 0.841754 0.613070 0.421564
O O2 0.770811 0.194920 0.439228
O O3 0.993776 0.503189 0.126901
O O4 0.141978 0.314222 0.078784
O O5 0.703740 0.194151 0.864090
O O6 0.044775 0.338883 0.455091
O O7 0.029161 0.058943 0.584696
O O8 0.872946 0.409079 0.972584
O O9 0.202880 0.397010 0.691112
O O10 0.830275 0.352826 0.152300
O O11 0.504608 0.631463 0.505583
O O12 0.427362 0.788272 0.463989
O O13 0.435016 0.962166 0.772400
O O14 0.064727 0.928774 0.234693
O O15 0.320954 0.351679 0.293656
O O16 0.547216 0.554358 0.952265
#
# Coordination Sequence:
#
# PCOD9117869 Si02
#       8
#     2   2   2   2   2   2   2   2
#     4  10  25  44  71 100 148 189 248 300 361 441
#     4  12  25  46  73 109 146 189 237 298 364 434
#     4  10  24  44  68 104 143 187 249 302 368 436
#     4  12  27  45  77 108 148 197 246 309 387 425
#     4  10  23  48  67 101 146 188 242 301 361 446
#     4  11  26  44  75 103 147 189 246 292 377 430
#     4  12  25  47  75 108 150 187 242 300 361 436
#     4  11  25  44  74 103 148 192 250 308 367 436
#
# _framework density 23.980644000000002
#
# number of rings (size 3 to 8) (size 9 to 14) (size 15 to 20)
#    0.000    1.000    3.750    0.750    8.750    6.000 
#    0.000    0.000    0.000    0.000    0.000    0.000 
#    0.000    0.000    0.000    0.000    0.000    0.000 
#
# Total GULP energy -89451.575163 kJ/mol
# GULP energy per Si atom -5590.723448 kJ/mol
# Density = 2.392606 g / cm^3
# Si number density = 23.980644 Si / 1000 Ang^3
#
#
#
# Elastic Constant Matrix: (Units=GPa)
#
#
# Indices 1 2 3 4 5 6 
#
# 1 41.5588 2.5113 21.5150 0.0000 0.6987 0.0000
# 2 2.5113 82.9304 28.5126 0.0000 0.4268 0.0000
# 3 21.5150 28.5126 207.9689 0.0000 -3.3883 0.0000
# 4 0.0000 0.0000 0.0000 28.8112 0.0000 -4.3776
# 5 0.6987 0.4268 -3.3883 0.0000 41.8326 0.0000
# 6 0.0000 0.0000 0.0000 -4.3776 0.0000 32.7094
#
#
#
# Elastic Compliance Matrix: (Units=1/GPa)
#
#
# Indices 1 2 3 4 5 6 
#
# 1 0.025443 0.000148 -0.002663 0.000000 -0.000642 0.000000
# 2 0.000148 0.012659 -0.001755 0.000000 -0.000274 0.000000
# 3 -0.002663 -0.001755 0.005333 0.000000 0.000494 0.000000
# 4 0.000000 0.000000 0.000000 0.035429 0.000000 0.004742
# 5 -0.000642 -0.000274 0.000494 0.000000 0.023958 0.000000
# 6 0.000000 0.000000 0.000000 0.004742 0.000000 0.031207
#
#
# Mechanical properties :
#
#
# Convention : Reuss Voigt Hill
#
# Bulk Modulus (GPa) = 28.65795 48.61509 38.63652
# Shear Modulus (GPa) = 32.42551 39.33192 35.87871
#
# Velocity S-wave (km/s) = 3.68115 4.05427 3.87221
# Velocity P-wave (km/s) = 5.48126 6.49868 6.01153
#
# Compressibility (1/GPa) = 0.03489433
#
# Stress axis : x y z
#
# Youngs Moduli (GPa) = 39.30394 78.99693 187.52548
#
# Poissons Ratio (x) = -0.01172 0.49937
# Poissons Ratio (y) = -0.00583 0.32917
# Poissons Ratio (z) = 0.10466 0.13867
#
# Static dielectric constant tensor:
#      x y z
#    x 1.930430 0.000000 -0.009340 
#    y 0.000000 2.046340 0.000000 
#    z -0.009340 0.000000 1.919870 
# 
# From -- ./inp_files/15354.got.cif
#   From: 2010.05.17/outbox.cif.g08.bks.cpg/sg4_8_cif.got.tgz:15354.got - 2010.06.03 18:43:04.
