data_PCOD9117030
_publ_section_title
;
Structure prediction by ZEFSAII (Michael W. Deem and Ramdas Pophale) SiO2 
 PCOD9117030
Probable space group: P 21
;
_chemical_formula_sum "Si O2"
_cell_formula_units_Z 16
_cell_length_a 8.820456
_cell_length_b 10.561360
_cell_length_c 13.718154
_cell_angle_alpha 90.000000
_cell_angle_beta 149.439024
_cell_angle_gamma 90.000000
_cell_volume 649.769201
_symmetry_space_group_name_H-M "P 21"
_symmetry_group_IT_number 4
_symmetry_cell_setting 'monoclinic'
loop_
_space_group_symop_operation_xyz
x,y,z
-x,1/2+y,-z
loop_
_atom_site_type_symbol
_atom_site_label
_atom_site_fract_x
_atom_site_fract_y
_atom_site_fract_z
Si Si1 0.129491 0.911730 0.406594
Si Si2 0.599858 0.098153 0.160487
Si Si3 0.681864 0.370846 0.279097
Si Si4 0.175520 0.552276 0.518159
Si Si5 0.686165 0.701552 0.170719
Si Si6 0.371611 0.067026 0.385723
Si Si7 0.088364 0.490429 0.016369
Si Si8 0.071849 0.758245 0.937032
O O1 0.897663 0.807654 0.239213
O O2 0.275308 0.849148 0.581715
O O3 0.381901 0.985829 0.488136
O O4 0.905432 0.026999 0.307016
O O5 0.621344 0.247980 0.183772
O O6 0.570779 0.057748 0.258019
O O7 0.387853 0.090816 0.949062
O O8 0.388937 0.458082 0.122237
O O9 0.004099 0.420776 0.424983
O O10 0.318142 0.585451 0.494552
O O11 0.887773 0.643539 0.369628
O O12 0.384749 0.759663 0.051024
O O13 0.179566 0.196609 0.274053
O O14 0.179796 0.975055 0.208936
O O15 0.025668 0.389951 0.067705
O O16 0.096225 0.644482 0.032732
#
# Coordination Sequence:
#
# PCOD9117030 Si02
#       8
#     2   2   2   2   2   2   2   2
#     4  11  25  44  69 104 146 183 241 308 359 430
#     4  11  24  44  73 101 137 190 236 296 356 432
#     4  11  23  45  71  99 140 190 240 288 360 436
#     4  11  24  46  72 103 141 183 241 294 356 433
#     4  12  24  46  77 100 139 194 250 288 367 436
#     4  10  23  47  64 105 148 179 240 310 354 435
#     4  10  22  42  72  96 148 186 238 298 363 423
#     4  10  23  42  72 104 143 193 242 302 361 439
#
# _framework density 24.624127999999999
#
# number of rings (size 3 to 8) (size 9 to 14) (size 15 to 20)
#    0.750    0.500    3.750    1.500    5.250    0.000 
#    6.750    0.000    0.000    0.000    0.000    0.000 
#    0.000    0.000    0.000    0.000    0.000    0.000 
#
# Total GULP energy -89140.478595 kJ/mol
# GULP energy per Si atom -5571.279912 kJ/mol
# Density = 2.456808 g / cm^3
# Si number density = 24.624128 Si / 1000 Ang^3
#
#
#
# Elastic Constant Matrix: (Units=GPa)
#
#
# Indices 1 2 3 4 5 6 
#
# 1 64.8979 29.5298 20.3514 0.0000 16.2332 0.0000
# 2 29.5298 63.5429 20.5909 0.0000 1.4978 0.0000
# 3 20.3514 20.5909 83.3598 0.0000 1.2922 0.0000
# 4 0.0000 0.0000 0.0000 15.0959 0.0000 1.2484
# 5 16.2332 1.4978 1.2922 0.0000 39.0209 0.0000
# 6 0.0000 0.0000 0.0000 1.2484 0.0000 45.0673
#
#
#
# Elastic Compliance Matrix: (Units=1/GPa)
#
#
# Indices 1 2 3 4 5 6 
#
# 1 0.022959 -0.009440 -0.003133 0.000000 -0.009085 0.000000
# 2 -0.009440 0.020999 -0.002932 0.000000 0.003218 0.000000
# 3 -0.003133 -0.002932 0.013470 0.000000 0.000970 0.000000
# 4 0.000000 0.000000 0.000000 0.066395 0.000000 -0.001839
# 5 -0.009085 0.003218 0.000970 0.000000 0.029251 0.000000
# 6 0.000000 0.000000 0.000000 -0.001839 0.000000 0.022240
#
#
# Mechanical properties :
#
#
# Convention : Reuss Voigt Hill
#
# Bulk Modulus (GPa) = 37.85266 39.19387 38.52327
# Shear Modulus (GPa) = 23.24167 29.25873 26.25020
#
# Velocity S-wave (km/s) = 3.07556 3.45079 3.26856
# Velocity P-wave (km/s) = 5.29317 5.64169 5.47021
#
# Compressibility (1/GPa) = 0.02641822
#
# Stress axis : x y z
#
# Youngs Moduli (GPa) = 43.55536 47.62161 74.23795
#
# Poissons Ratio (x) = 0.44957 0.23255
# Poissons Ratio (y) = 0.41118 0.21767
# Poissons Ratio (z) = 0.13644 0.13963
#
# Static dielectric constant tensor:
#      x y z
#    x 2.105550 0.000000 -0.032070 
#    y 0.000000 2.038330 0.000000 
#    z -0.032070 0.000000 1.947660 
# 
# From -- ./inp_files/13744.got.cif
#   From: 2010.05.17/outbox.cif.g08.bks.cpg/sg4_7_cif.got.tgz:13744.got - 2010.06.03 18:43:04.
