data_PCOD9117167
_publ_section_title
;
Structure prediction by ZEFSAII (Michael W. Deem and Ramdas Pophale) SiO2 
 PCOD9117167
Probable space group: P 21
;
_chemical_formula_sum "Si O2"
_cell_formula_units_Z 12
_cell_length_a 8.373922
_cell_length_b 5.036763
_cell_length_c 18.418107
_cell_angle_alpha 90.000000
_cell_angle_beta 33.801887
_cell_angle_gamma 90.000000
_cell_volume 432.167816
_symmetry_space_group_name_H-M "P 21"
_symmetry_group_IT_number 4
_symmetry_cell_setting 'monoclinic'
loop_
_space_group_symop_operation_xyz
x,y,z
-x,1/2+y,-z
loop_
_atom_site_type_symbol
_atom_site_label
_atom_site_fract_x
_atom_site_fract_y
_atom_site_fract_z
Si Si1 0.881456 0.170990 0.578353
Si Si2 0.125908 0.845307 0.986760
Si Si3 0.461080 0.200860 0.622801
Si Si4 0.073648 0.480156 0.141673
Si Si5 0.451378 0.702641 0.123617
Si Si6 0.939152 0.946829 0.347256
O O1 0.585683 0.281328 0.654188
O O2 0.099699 0.367067 0.452703
O O3 0.982266 0.215486 0.622834
O O4 0.421307 0.009208 0.863210
O O5 0.084031 0.732697 0.083519
O O6 0.102706 0.571214 0.950273
O O7 0.249755 0.372241 0.651546
O O8 0.259612 0.943441 0.714135
O O9 0.738367 0.142346 0.468225
O O10 0.239947 0.542252 0.151986
O O11 0.260238 0.265934 0.029855
O O12 0.275182 0.978806 0.199988
#
# Coordination Sequence:
#
# PCOD9117167 Si02
#       6
#     2   2   2   2   2   2
#     4  10  22  44  68 100 138 186 236 292 358 434
#     4  12  26  46  72 116 154 196 250 320 382 450
#     4  10  23  44  69 107 146 193 246 309 372 443
#     4  11  24  46  73 108 149 202 252 312 377 459
#     4  11  24  46  73 108 149 202 252 312 377 459
#     4  10  23  44  69 107 146 193 246 309 372 443
#
# _framework density 27.76699
#
# number of rings (size 3 to 8) (size 9 to 14) (size 15 to 20)
#    0.000    1.333    3.333    1.000    2.333    1.333 
#   15.000    0.000    0.000    0.000    0.000    0.000 
#    0.000    0.000    0.000    0.000    0.000    0.000 
#
# Total GULP energy -66942.489871 kJ/mol
# GULP energy per Si atom -5578.540823 kJ/mol
# Density = 2.770379 g / cm^3
# Si number density = 27.766990 Si / 1000 Ang^3
#
#
#
# Elastic Constant Matrix: (Units=GPa)
#
#
# Indices 1 2 3 4 5 6 
#
# 1 198.9084 45.0711 39.2378 0.0000 -8.6514 0.0000
# 2 45.0711 121.0161 25.3936 0.0000 -7.9408 0.0000
# 3 39.2378 25.3936 38.9739 0.0000 1.4649 0.0000
# 4 0.0000 0.0000 0.0000 19.3683 0.0000 14.3200
# 5 -8.6514 -7.9408 1.4649 0.0000 40.3960 0.0000
# 6 0.0000 0.0000 0.0000 14.3200 0.0000 29.5129
#
#
#
# Elastic Compliance Matrix: (Units=1/GPa)
#
#
# Indices 1 2 3 4 5 6 
#
# 1 0.006496 -0.001094 -0.005879 0.000000 0.001389 0.000000
# 2 -0.001094 0.009940 -0.005446 0.000000 0.001917 0.000000
# 3 -0.005879 -0.005446 0.035261 0.000000 -0.003608 0.000000
# 4 0.000000 0.000000 0.000000 0.080515 0.000000 -0.039067
# 5 0.001389 0.001917 -0.003608 0.000000 0.025560 0.000000
# 6 0.000000 0.000000 0.000000 -0.039067 0.000000 0.052839
#
#
# Mechanical properties :
#
#
# Convention : Reuss Voigt Hill
#
# Bulk Modulus (GPa) = 37.23413 64.25595 50.74504
# Shear Modulus (GPa) = 20.45816 34.46849 27.46333
#
# Velocity S-wave (km/s) = 2.71731 3.52710 3.14835
# Velocity P-wave (km/s) = 4.82531 6.30703 5.61526
#
# Compressibility (1/GPa) = 0.02685708
#
# Stress axis : x y z
#
# Youngs Moduli (GPa) = 153.95255 100.60746 28.36008
#
# Poissons Ratio (x) = 0.11011 0.16672
# Poissons Ratio (y) = 0.16850 0.15446
# Poissons Ratio (z) = 0.90502 0.54794
#
# Static dielectric constant tensor:
#      x y z
#    x 2.207170 0.000000 0.069430 
#    y 0.000000 2.228640 0.000000 
#    z 0.069430 0.000000 2.462730 
# 
# From -- ./inp_files/8988.got.cif
#   From: 2010.05.17/outbox.cif.g08.bks.cpg/sg4_5_cif.got.tgz:8988.got - 2010.06.03 18:43:04.
