data_PCOD9117461
_publ_section_title
;
Structure prediction by ZEFSAII (Michael W. Deem and Ramdas Pophale) SiO2 
 PCOD9117461
Probable space group: P 21
;
_chemical_formula_sum "Si O2"
_cell_formula_units_Z 14
_cell_length_a 15.351924
_cell_length_b 7.070206
_cell_length_c 7.101276
_cell_angle_alpha 90.000000
_cell_angle_beta 45.793374
_cell_angle_gamma 90.000000
_cell_volume 552.519273
_symmetry_space_group_name_H-M "P 21"
_symmetry_group_IT_number 4
_symmetry_cell_setting 'monoclinic'
loop_
_space_group_symop_operation_xyz
x,y,z
-x,1/2+y,-z
loop_
_atom_site_type_symbol
_atom_site_label
_atom_site_fract_x
_atom_site_fract_y
_atom_site_fract_z
Si Si1 0.233616 0.437780 0.340200
Si Si2 0.495250 0.958533 0.194890
Si Si3 0.858916 0.256697 0.811726
Si Si4 0.610997 0.192410 0.330026
Si Si5 0.776176 0.863513 0.237716
Si Si6 0.748660 0.552086 0.554361
Si Si7 0.988849 0.445735 0.292487
O O1 0.178847 0.586986 0.278451
O O2 0.190926 0.473666 0.617461
O O3 0.213647 0.211412 0.348807
O O4 0.379835 0.442225 0.107145
O O5 0.460005 0.789106 0.391863
O O6 0.525432 0.137823 0.284932
O O7 0.382341 0.963988 0.220145
O O8 0.938520 0.402719 0.575833
O O9 0.728974 0.316526 0.090462
O O10 0.948597 0.151773 0.820211
O O11 0.677478 0.994000 0.285408
O O12 0.729768 0.668083 0.391278
O O13 0.896836 0.820772 0.938297
O O14 0.866706 0.424936 0.356448
#
# Coordination Sequence:
#
# PCOD9117461 Si02
#       7
#     2   2   2   2   2   2   2
#     4   9  23  40  62  87 121 153 200 244 294 345
#     4  11  23  40  64  87 122 156 198 244 296 351
#     4  10  23  41  61  88 119 161 197 242 294 352
#     4  10  23  41  61  88 119 161 197 242 294 352
#     4   9  23  40  62  87 121 153 200 244 294 345
#     4  10  24  36  60  96 114 156 196 240 302 346
#     4  11  23  40  64  87 122 156 198 244 296 351
#
# _framework density 25.338481999999999
#
# number of rings (size 3 to 8) (size 9 to 14) (size 15 to 20)
#    0.857    1.143    0.000    1.714    6.000    4.571 
#    0.000    0.000    0.000    0.000    0.000    0.000 
#    0.000    0.000    0.000    0.000    0.000    0.000 
#
# Total GULP energy -78094.237170 kJ/mol
# GULP energy per Si atom -5578.159798 kJ/mol
# Density = 2.528081 g / cm^3
# Si number density = 25.338482 Si / 1000 Ang^3
#
#
#
# Elastic Constant Matrix: (Units=GPa)
#
#
# Indices 1 2 3 4 5 6 
#
# 1 53.8529 9.3996 17.1032 0.0000 -19.8573 0.0000
# 2 9.3996 41.8467 24.8278 0.0000 -3.6449 0.0000
# 3 17.1032 24.8278 101.0271 0.0000 -24.3142 0.0000
# 4 0.0000 0.0000 0.0000 31.6430 0.0000 7.2908
# 5 -19.8573 -3.6449 -24.3142 0.0000 48.4188 0.0000
# 6 0.0000 0.0000 0.0000 7.2908 0.0000 31.4445
#
#
#
# Elastic Compliance Matrix: (Units=1/GPa)
#
#
# Indices 1 2 3 4 5 6 
#
# 1 0.022673 -0.003856 -0.000822 0.000000 0.008595 0.000000
# 2 -0.003856 0.028732 -0.007130 0.000000 -0.002999 0.000000
# 3 -0.000822 -0.007130 0.013171 0.000000 0.005740 0.000000
# 4 0.000000 0.000000 0.000000 0.033386 0.000000 -0.007741
# 5 0.008595 -0.002999 0.005740 0.000000 0.026835 0.000000
# 6 0.000000 0.000000 0.000000 -0.007741 0.000000 0.033597
#
#
# Mechanical properties :
#
#
# Convention : Reuss Voigt Hill
#
# Bulk Modulus (GPa) = 24.41452 33.26534 28.83993
# Shear Modulus (GPa) = 25.55405 31.99431 28.77418
#
# Velocity S-wave (km/s) = 3.17915 3.55727 3.37351
# Velocity P-wave (km/s) = 4.80960 5.47988 5.15565
#
# Compressibility (1/GPa) = 0.04095924
#
# Stress axis : x y z
#
# Youngs Moduli (GPa) = 44.10602 34.80441 75.92313
#
# Poissons Ratio (x) = 0.13422 0.06241
# Poissons Ratio (y) = 0.17009 0.54133
# Poissons Ratio (z) = 0.03625 0.24815
#
# Static dielectric constant tensor:
#      x y z
#    x 2.033900 0.000000 0.040370 
#    y 0.000000 2.060180 0.000000 
#    z 0.040370 0.000000 1.968990 
# 
# From -- ./inp_files/9655.got.cif
#   From: 2010.05.17/outbox.cif.g08.bks.cpg/sg4_5_cif.got.tgz:9655.got - 2010.06.03 18:43:04.
