data_PCOD9117608
_publ_section_title
;
Structure prediction by ZEFSAII (Michael W. Deem and Ramdas Pophale) SiO2 
 PCOD9117608
Probable space group: P 21
;
_chemical_formula_sum "Si O2"
_cell_formula_units_Z 14
_cell_length_a 5.168544
_cell_length_b 21.286230
_cell_length_c 4.985151
_cell_angle_alpha 90.000000
_cell_angle_beta 86.745623
_cell_angle_gamma 90.000000
_cell_volume 547.575930
_symmetry_space_group_name_H-M "P 21"
_symmetry_group_IT_number 4
_symmetry_cell_setting 'monoclinic'
loop_
_space_group_symop_operation_xyz
x,y,z
-x,1/2+y,-z
loop_
_atom_site_type_symbol
_atom_site_label
_atom_site_fract_x
_atom_site_fract_y
_atom_site_fract_z
Si Si1 0.730947 0.268400 0.472906
Si Si2 0.241500 0.310483 0.216123
Si Si3 0.973127 0.870959 0.291119
Si Si4 0.199137 0.995184 0.027801
Si Si5 0.967053 0.624999 0.832843
Si Si6 0.371002 0.052306 0.517776
Si Si7 0.562937 0.156651 0.864746
O O1 0.020113 0.261778 0.333400
O O2 0.638606 0.213499 0.669189
O O3 0.521524 0.283797 0.259930
O O4 0.772068 0.331133 0.647856
O O5 0.182624 0.330887 0.920225
O O6 0.186409 0.369506 0.421330
O O7 0.060215 0.935182 0.153431
O O8 0.417596 0.019613 0.227958
O O9 0.011927 0.055130 0.041706
O O10 0.295307 0.995268 0.719176
O O11 0.853669 0.604025 0.549500
O O12 0.238811 0.654539 0.897255
O O13 0.726302 0.658296 0.997308
O O14 0.567801 0.094685 0.673715
#
# Coordination Sequence:
#
# PCOD9117608 Si02
#       7
#     2   2   2   2   2   2   2
#     4  10  25  41  69  97 132 175 220 268 329 391
#     4  10  24  42  65  96 129 167 221 262 331 383
#     4  10  23  43  67  97 131 175 218 274 326 391
#     4   9  19  45  64  95 132 170 219 272 326 394
#     4   9  23  38  67  94 126 171 213 270 325 384
#     4   9  21  40  64  96 129 166 219 266 330 380
#     4  11  21  45  66  95 135 170 220 270 327 391
#
# _framework density 25.567228
#
# number of rings (size 3 to 8) (size 9 to 14) (size 15 to 20)
#    1.714    0.571    0.000    1.714    2.000    4.571 
#    7.714    0.000    0.000    0.000    0.000    0.000 
#    0.000    0.000    0.000    0.000    0.000    0.000 
#
# Total GULP energy -78196.467822 kJ/mol
# GULP energy per Si atom -5585.461987 kJ/mol
# Density = 2.550904 g / cm^3
# Si number density = 25.567228 Si / 1000 Ang^3
#
#
#
# Elastic Constant Matrix: (Units=GPa)
#
#
# Indices 1 2 3 4 5 6 
#
# 1 110.3870 16.9983 39.0525 0.0000 25.2312 0.0000
# 2 16.9983 52.0389 8.1214 0.0000 7.1227 0.0000
# 3 39.0525 8.1214 155.0908 0.0000 18.4882 0.0000
# 4 0.0000 0.0000 0.0000 39.0735 0.0000 -1.6546
# 5 25.2312 7.1227 18.4882 0.0000 36.8549 0.0000
# 6 0.0000 0.0000 0.0000 -1.6546 0.0000 20.2658
#
#
#
# Elastic Compliance Matrix: (Units=1/GPa)
#
#
# Indices 1 2 3 4 5 6 
#
# 1 0.011654 -0.002606 -0.002028 0.000000 -0.006457 0.000000
# 2 -0.002606 0.020377 -0.000164 0.000000 -0.002072 0.000000
# 3 -0.002028 -0.000164 0.007230 0.000000 -0.002207 0.000000
# 4 0.000000 0.000000 0.000000 0.025682 0.000000 0.002097
# 5 -0.006457 -0.002072 -0.002207 0.000000 0.033061 0.000000
# 6 0.000000 0.000000 0.000000 0.002097 0.000000 0.049515
#
#
# Mechanical properties :
#
#
# Convention : Reuss Voigt Hill
#
# Bulk Modulus (GPa) = 33.71075 49.54010 41.62543
# Shear Modulus (GPa) = 29.93937 36.12848 33.03392
#
# Velocity S-wave (km/s) = 3.42571 3.76317 3.59840
# Velocity P-wave (km/s) = 5.37225 6.18873 5.79489
#
# Compressibility (1/GPa) = 0.02966413
#
# Stress axis : x y z
#
# Youngs Moduli (GPa) = 85.80859 49.07527 138.30868
#
# Poissons Ratio (x) = 0.12791 0.28053
# Poissons Ratio (y) = 0.22365 0.02265
# Poissons Ratio (z) = 0.17404 0.00804
#
# Static dielectric constant tensor:
#      x y z
#    x 2.032710 0.000000 -0.048490 
#    y 0.000000 2.062800 0.000000 
#    z -0.048490 0.000000 1.995170 
# 
# From -- ./inp_files/807.got.cif
#   From: 2010.05.17/outbox.cif.g08.bks.cpg/sg4_1_cif.got.tgz:807.got - 2010.06.03 18:43:04.
