data_PCOD9117140
_publ_section_title
;
Structure prediction by ZEFSAII (Michael W. Deem and Ramdas Pophale) SiO2 
 PCOD9117140
Probable space group: P 21
;
_chemical_formula_sum "Si O2"
_cell_formula_units_Z 12
_cell_length_a 8.826291
_cell_length_b 8.074311
_cell_length_c 10.025629
_cell_angle_alpha 90.000000
_cell_angle_beta 37.992237
_cell_angle_gamma 90.000000
_cell_volume 439.806859
_symmetry_space_group_name_H-M "P 21"
_symmetry_group_IT_number 4
_symmetry_cell_setting 'monoclinic'
loop_
_space_group_symop_operation_xyz
x,y,z
-x,1/2+y,-z
loop_
_atom_site_type_symbol
_atom_site_label
_atom_site_fract_x
_atom_site_fract_y
_atom_site_fract_z
Si Si1 0.955520 0.144990 0.524253
Si Si2 0.375590 0.926895 0.284325
Si Si3 0.833923 0.769676 0.900592
Si Si4 0.657923 0.899489 0.344555
Si Si5 0.891233 0.220625 0.043508
Si Si6 0.494325 0.965731 0.757101
O O1 0.794545 0.300668 0.682018
O O2 0.753815 0.998926 0.648371
O O3 0.200900 0.083863 0.425635
O O4 0.051210 0.202696 0.312976
O O5 0.636722 0.919338 0.026779
O O6 0.448226 0.861187 0.380940
O O7 0.681113 0.615233 0.070928
O O8 0.035781 0.817378 0.870051
O O9 0.795792 0.053293 0.177198
O O10 0.562500 0.956357 0.553119
O O11 0.856890 0.750036 0.214082
O O12 0.671841 0.302693 0.112316
#
# Coordination Sequence:
#
# PCOD9117140 Si02
#       6
#     2   2   2   2   2   2
#     4  11  23  47  65  96 133 175 221 271 324 393
#     4  10  26  43  68  95 132 175 220 270 329 383
#     4  10  22  44  65  94 135 170 217 274 324 387
#     4  11  24  42  67 100 128 171 222 274 329 389
#     4  11  21  39  65  99 127 167 217 275 327 379
#     4  11  22  39  70  92 133 170 215 274 329 383
#
# _framework density 27.284704000000001
#
# number of rings (size 3 to 8) (size 9 to 14) (size 15 to 20)
#    0.000    1.333    3.333    1.000    7.000    2.667 
#    3.000    0.000    0.000    0.000    0.000    0.000 
#    0.000    0.000    0.000    0.000    0.000    0.000 
#
# Total GULP energy -67068.076511 kJ/mol
# GULP energy per Si atom -5589.006376 kJ/mol
# Density = 2.722260 g / cm^3
# Si number density = 27.284704 Si / 1000 Ang^3
#
#
#
# Elastic Constant Matrix: (Units=GPa)
#
#
# Indices 1 2 3 4 5 6 
#
# 1 67.8338 8.2967 47.0278 0.0000 -19.7733 0.0000
# 2 8.2967 57.3503 21.7245 0.0000 -10.5848 0.0000
# 3 47.0278 21.7245 119.2798 0.0000 -1.3336 0.0000
# 4 0.0000 0.0000 0.0000 52.4420 0.0000 -15.3771
# 5 -19.7733 -10.5848 -1.3336 0.0000 61.7528 0.0000
# 6 0.0000 0.0000 0.0000 -15.3771 0.0000 40.2810
#
#
#
# Elastic Compliance Matrix: (Units=1/GPa)
#
#
# Indices 1 2 3 4 5 6 
#
# 1 0.023226 0.001570 -0.009359 0.000000 0.007504 0.000000
# 2 0.001570 0.019463 -0.004122 0.000000 0.003750 0.000000
# 3 -0.009359 -0.004122 0.012786 0.000000 -0.003427 0.000000
# 4 0.000000 0.000000 0.000000 0.021472 0.000000 0.008197
# 5 0.007504 0.003750 -0.003427 0.000000 0.019165 0.000000
# 6 0.000000 0.000000 0.000000 0.008197 0.000000 0.027955
#
#
# Mechanical properties :
#
#
# Convention : Reuss Voigt Hill
#
# Bulk Modulus (GPa) = 31.59255 44.28465 37.93860
# Shear Modulus (GPa) = 31.55773 42.05615 36.80694
#
# Velocity S-wave (km/s) = 3.40458 3.93030 3.67685
# Velocity P-wave (km/s) = 5.20182 6.07142 5.65337
#
# Compressibility (1/GPa) = 0.03165304
#
# Stress axis : x y z
#
# Youngs Moduli (GPa) = 43.05561 51.37937 78.21015
#
# Poissons Ratio (x) = -0.08068 0.73198
# Poissons Ratio (y) = -0.06761 0.32238
# Poissons Ratio (z) = 0.40297 0.21178
#
# Static dielectric constant tensor:
#      x y z
#    x 2.134560 0.000000 -0.061910 
#    y 0.000000 2.318990 0.000000 
#    z -0.061910 0.000000 2.129060 
# 
# From -- ./inp_files/2357.got.cif
#   From: 2010.05.17/outbox.cif.g08.bks.cpg/sg4_2_cif.got.tgz:2357.got - 2010.06.03 18:43:04.
