data_PCOD9117787
_publ_section_title
;
Structure prediction by ZEFSAII (Michael W. Deem and Ramdas Pophale) SiO2 
 PCOD9117787
Probable space group: P 21
;
_chemical_formula_sum "Si O2"
_cell_formula_units_Z 14
_cell_length_a 12.225797
_cell_length_b 8.379057
_cell_length_c 5.282180
_cell_angle_alpha 90.000000
_cell_angle_beta 111.289038
_cell_angle_gamma 90.000000
_cell_volume 504.184993
_symmetry_space_group_name_H-M "P 21"
_symmetry_group_IT_number 4
_symmetry_cell_setting 'monoclinic'
loop_
_space_group_symop_operation_xyz
x,y,z
-x,1/2+y,-z
loop_
_atom_site_type_symbol
_atom_site_label
_atom_site_fract_x
_atom_site_fract_y
_atom_site_fract_z
Si Si1 0.612523 0.845300 0.781631
Si Si2 0.811221 0.887682 0.555996
Si Si3 0.143944 0.906508 0.368828
Si Si4 0.766299 0.605777 0.144794
Si Si5 0.340936 0.606943 0.835458
Si Si6 0.625247 0.311855 0.639888
Si Si7 0.979248 0.691650 0.956264
O O1 0.728279 0.909674 0.731490
O O2 0.506536 0.871541 0.500590
O O3 0.646899 0.668110 0.908363
O O4 0.586933 0.953186 0.005668
O O5 0.766395 0.723796 0.390149
O O6 0.941921 0.843329 0.750447
O O7 0.785059 0.026156 0.334331
O O8 0.262814 0.927039 0.302873
O O9 0.194873 0.938506 0.692305
O O10 0.040112 0.035120 0.232783
O O11 0.092251 0.741552 0.211836
O O12 0.875534 0.665849 0.071187
O O13 0.371581 0.697931 0.605682
O O14 0.355238 0.722027 0.083946
#
# Coordination Sequence:
#
# PCOD9117787 Si02
#       7
#     2   2   2   2   2   2   2
#     4  10  23  45  76 104 155 200 245 308 380 446
#     4   9  20  46  70 103 142 200 245 303 371 444
#     4  11  27  47  71 109 151 195 257 314 376 451
#     4   9  22  44  73 105 143 195 248 305 376 443
#     4  11  25  46  69 107 148 199 246 313 364 453
#     4  12  29  43  75 114 150 194 253 309 377 454
#     4  10  24  47  74 104 149 201 252 314 376 445
#
# _framework density 27.767588
#
# number of rings (size 3 to 8) (size 9 to 14) (size 15 to 20)
#    0.000    1.714    1.429    0.000   10.000    4.571 
#    5.143    0.000    0.000    0.000    0.000    0.000 
#    0.000    0.000    0.000    0.000    0.000    0.000 
#
# Total GULP energy -78205.582468 kJ/mol
# GULP energy per Si atom -5586.113033 kJ/mol
# Density = 2.770439 g / cm^3
# Si number density = 27.767588 Si / 1000 Ang^3
#
#
#
# Elastic Constant Matrix: (Units=GPa)
#
#
# Indices 1 2 3 4 5 6 
#
# 1 62.7095 25.0617 26.9692 0.0000 15.8452 0.0000
# 2 25.0617 60.9910 68.2492 0.0000 21.4976 0.0000
# 3 26.9692 68.2492 190.5960 0.0000 22.9667 0.0000
# 4 0.0000 0.0000 0.0000 81.2669 0.0000 -7.0350
# 5 15.8452 21.4976 22.9667 0.0000 56.1292 0.0000
# 6 0.0000 0.0000 0.0000 -7.0350 0.0000 30.0023
#
#
#
# Elastic Compliance Matrix: (Units=1/GPa)
#
#
# Indices 1 2 3 4 5 6 
#
# 1 0.019458 -0.007181 0.000156 0.000000 -0.002807 0.000000
# 2 -0.007181 0.032725 -0.009926 0.000000 -0.006445 0.000000
# 3 0.000156 -0.009926 0.008758 0.000000 0.000174 0.000000
# 4 0.000000 0.000000 0.000000 0.012560 0.000000 0.002945
# 5 -0.002807 -0.006445 0.000174 0.000000 0.021006 0.000000
# 6 0.000000 0.000000 0.000000 0.002945 0.000000 0.034021
#
#
# Mechanical properties :
#
#
# Convention : Reuss Voigt Hill
#
# Bulk Modulus (GPa) = 36.98171 61.65075 49.31623
# Shear Modulus (GPa) = 29.16420 46.41412 37.78916
#
# Velocity S-wave (km/s) = 3.24434 4.09286 3.69305
# Velocity P-wave (km/s) = 5.23274 6.67727 5.99865
#
# Compressibility (1/GPa) = 0.02704040
#
# Stress axis : x y z
#
# Youngs Moduli (GPa) = 51.39147 30.55750 114.18417
#
# Poissons Ratio (x) = 0.21944 -0.01785
# Poissons Ratio (y) = 0.36906 1.13334
# Poissons Ratio (z) = -0.00804 0.30330
#
# Static dielectric constant tensor:
#      x y z
#    x 2.096700 0.000000 0.031420 
#    y 0.000000 2.307520 0.000000 
#    z 0.031420 0.000000 2.208990 
# 
# From -- ./inp_files/3643.got.cif
#   From: 2010.05.17/outbox.cif.g08.bks.cpg/sg4_2_cif.got.tgz:3643.got - 2010.06.03 18:43:04.
