data_PCOD9117385
_publ_section_title
;
Structure prediction by ZEFSAII (Michael W. Deem and Ramdas Pophale) SiO2 
 PCOD9117385
Probable space group: P 21
;
_chemical_formula_sum "Si O2"
_cell_formula_units_Z 16
_cell_length_a 10.498948
_cell_length_b 8.163988
_cell_length_c 14.102166
_cell_angle_alpha 90.000000
_cell_angle_beta 148.730877
_cell_angle_gamma 90.000000
_cell_volume 627.408396
_symmetry_space_group_name_H-M "P 21"
_symmetry_group_IT_number 4
_symmetry_cell_setting 'monoclinic'
loop_
_space_group_symop_operation_xyz
x,y,z
-x,1/2+y,-z
loop_
_atom_site_type_symbol
_atom_site_label
_atom_site_fract_x
_atom_site_fract_y
_atom_site_fract_z
Si Si1 0.318394 0.750000 0.112416
Si Si2 0.882525 0.531625 0.301684
Si Si3 0.321729 0.101541 0.088988
Si Si4 0.625390 0.179096 0.449398
Si Si5 0.190903 0.755151 0.248902
Si Si6 0.434410 0.322924 0.987155
Si Si7 0.978621 0.070853 0.222124
Si Si8 0.242286 0.019438 0.568154
O O1 0.250202 0.779934 0.177949
O O2 0.505634 0.600022 0.236778
O O3 0.421514 0.919557 0.137415
O O4 0.096317 0.701903 0.903325
O O5 0.710386 0.388413 0.149541
O O6 0.911201 0.508015 0.432978
O O7 0.150675 0.554790 0.428217
O O8 0.721464 0.697245 0.177230
O O9 0.384908 0.140547 0.237570
O O10 0.441563 0.228762 0.092943
O O11 0.032700 0.125203 0.889558
O O12 0.598594 0.194940 0.545105
O O13 0.717326 0.346290 0.457327
O O14 0.099600 0.922028 0.239540
O O15 0.265833 0.484388 0.890266
O O16 0.130902 0.124635 0.410990
#
# Coordination Sequence:
#
# PCOD9117385 Si02
#       8
#     2   2   2   2   2   2   2   2
#     4  12  25  42  72 108 140 189 239 292 367 424
#     4  12  24  45  75 104 136 199 227 294 361 425
#     4  11  24  46  67 104 145 183 236 301 353 424
#     4  11  24  47  71 100 146 184 238 293 358 420
#     4  10  23  46  75  99 140 191 241 296 355 420
#     4  11  24  46  72  97 142 191 235 292 356 423
#     4  10  22  49  66  98 147 181 234 302 348 421
#     4  11  24  45  70 102 142 184 238 290 354 427
#
# _framework density 25.501730999999999
#
# number of rings (size 3 to 8) (size 9 to 14) (size 15 to 20)
#    0.000    1.000    6.250    1.500    1.750    6.000 
#    4.500    0.000    0.000    0.000    0.000    0.000 
#    0.000    0.000    0.000    0.000    0.000    0.000 
#
# Total GULP energy -89577.760176 kJ/mol
# GULP energy per Si atom -5598.610011 kJ/mol
# Density = 2.544369 g / cm^3
# Si number density = 25.501731 Si / 1000 Ang^3
#
#
#
# Elastic Constant Matrix: (Units=GPa)
#
#
# Indices 1 2 3 4 5 6 
#
# 1 84.1077 -3.0796 28.5835 0.0000 -38.4558 0.0000
# 2 -3.0796 66.5190 14.5200 0.0000 -5.7233 0.0000
# 3 28.5835 14.5200 134.4842 0.0000 -59.5479 0.0000
# 4 0.0000 0.0000 0.0000 34.6747 0.0000 0.5141
# 5 -38.4558 -5.7233 -59.5479 0.0000 51.2121 0.0000
# 6 0.0000 0.0000 0.0000 0.5141 0.0000 22.0831
#
#
#
# Elastic Compliance Matrix: (Units=1/GPa)
#
#
# Indices 1 2 3 4 5 6 
#
# 1 0.019690 0.001647 0.004670 0.000000 0.020399 0.000000
# 2 0.001647 0.015539 -0.001466 0.000000 0.001269 0.000000
# 3 0.004670 -0.001466 0.016659 0.000000 0.022713 0.000000
# 4 0.000000 0.000000 0.000000 0.028849 0.000000 -0.000672
# 5 0.020399 0.001269 0.022713 0.000000 0.061396 0.000000
# 6 0.000000 0.000000 0.000000 -0.000672 0.000000 0.045299
#
#
# Mechanical properties :
#
#
# Convention : Reuss Voigt Hill
#
# Bulk Modulus (GPa) = 16.23646 40.57319 28.40482
# Shear Modulus (GPa) = 25.21950 37.93312 31.57631
#
# Velocity S-wave (km/s) = 3.14814 3.86096 3.52263
# Velocity P-wave (km/s) = 4.42663 5.98503 5.26382
#
# Compressibility (1/GPa) = 0.06158977
#
# Stress axis : x y z
#
# Youngs Moduli (GPa) = 50.78756 64.35529 60.02941
#
# Poissons Ratio (x) = -0.10602 -0.28033
# Poissons Ratio (y) = -0.08367 0.08800
# Poissons Ratio (z) = -0.23717 0.09434
#
# Static dielectric constant tensor:
#      x y z
#    x 2.018680 0.000000 0.006430 
#    y 0.000000 2.028330 0.000000 
#    z 0.006430 0.000000 1.984650 
# 
# From -- ./inp_files/13909.got.cif
#   From: 2010.05.17/outbox.cif.g08.bks.cpg/sg4_7_cif.got.tgz:13909.got - 2010.06.03 18:43:04.
