data_PCOD9117743
_publ_section_title
;
Structure prediction by ZEFSAII (Michael W. Deem and Ramdas Pophale) SiO2 
 PCOD9117743
Probable space group: P 21
;
_chemical_formula_sum "Si O2"
_cell_formula_units_Z 16
_cell_length_a 9.160332
_cell_length_b 12.665592
_cell_length_c 9.473345
_cell_angle_alpha 90.000000
_cell_angle_beta 34.368942
_cell_angle_gamma 90.000000
_cell_volume 620.467631
_symmetry_space_group_name_H-M "P 21"
_symmetry_group_IT_number 4
_symmetry_cell_setting 'monoclinic'
loop_
_space_group_symop_operation_xyz
x,y,z
-x,1/2+y,-z
loop_
_atom_site_type_symbol
_atom_site_label
_atom_site_fract_x
_atom_site_fract_y
_atom_site_fract_z
Si Si1 0.756373 0.186240 0.920487
Si Si2 0.051520 0.802117 0.493168
Si Si3 0.054277 0.392579 0.026835
Si Si4 0.541770 0.888379 0.785776
Si Si5 0.759528 0.612522 0.292311
Si Si6 0.518554 0.463360 0.849531
Si Si7 0.934428 0.692363 0.866523
Si Si8 0.704325 0.003841 0.397948
O O1 0.781960 0.221262 0.735212
O O2 0.042091 0.164541 0.756014
O O3 0.636028 0.287335 0.093143
O O4 0.565114 0.086059 0.091051
O O5 0.222007 0.902680 0.410912
O O6 0.903693 0.737419 0.733422
O O7 0.836572 0.850880 0.563707
O O8 0.288536 0.402895 0.952063
O O9 0.188873 0.402132 0.767508
O O10 0.896650 0.499349 0.162884
O O11 0.902067 0.288081 0.191576
O O12 0.536065 0.969409 0.664043
O O13 0.475380 0.939132 0.988785
O O14 0.471349 0.577345 0.563960
O O15 0.743745 0.672755 0.152953
O O16 0.068293 0.580596 0.737705
#
# Coordination Sequence:
#
# PCOD9117743 Si02
#       8
#     2   2   2   2   2   2   2   2
#     4  10  25  46  70 104 144 190 243 298 361 427
#     4  11  25  42  73 102 142 196 232 300 363 424
#     4  10  24  45  68  99 140 182 242 294 355 431
#     4  11  25  45  69 107 143 186 242 302 359 430
#     4  10  26  45  70 102 140 184 239 301 352 437
#     4  10  23  45  67 103 139 187 241 296 349 438
#     4  11  25  45  71 102 140 188 239 292 362 432
#     4  11  27  45  72 107 140 193 238 305 361 429
#
# _framework density 25.787002000000001
#
# number of rings (size 3 to 8) (size 9 to 14) (size 15 to 20)
#    0.000    1.500    1.250    0.750    7.000    9.000 
#    0.000    0.000    0.000    0.000    0.000    0.000 
#    0.000    0.000    0.000    0.000    0.000    0.000 
#
# Total GULP energy -89404.105723 kJ/mol
# GULP energy per Si atom -5587.756608 kJ/mol
# Density = 2.572831 g / cm^3
# Si number density = 25.787002 Si / 1000 Ang^3
#
#
#
# Elastic Constant Matrix: (Units=GPa)
#
#
# Indices 1 2 3 4 5 6 
#
# 1 100.7794 33.6909 17.4083 0.0000 2.2550 0.0000
# 2 33.6909 118.9016 32.8177 0.0000 21.1166 0.0000
# 3 17.4083 32.8177 49.3512 0.0000 15.9020 0.0000
# 4 0.0000 0.0000 0.0000 43.6901 0.0000 1.3001
# 5 2.2550 21.1166 15.9020 0.0000 42.6191 0.0000
# 6 0.0000 0.0000 0.0000 1.3001 0.0000 37.5261
#
#
#
# Elastic Compliance Matrix: (Units=1/GPa)
#
#
# Indices 1 2 3 4 5 6 
#
# 1 0.011275 -0.002762 -0.002716 0.000000 0.001785 0.000000
# 2 -0.002762 0.011302 -0.005438 0.000000 -0.003425 0.000000
# 3 -0.002716 -0.005438 0.027192 0.000000 -0.007308 0.000000
# 4 0.000000 0.000000 0.000000 0.022912 0.000000 -0.000794
# 5 0.001785 -0.003425 -0.007308 0.000000 0.027793 0.000000
# 6 0.000000 0.000000 0.000000 -0.000794 0.000000 0.026676
#
#
# Mechanical properties :
#
#
# Convention : Reuss Voigt Hill
#
# Bulk Modulus (GPa) = 35.79424 48.54065 42.16745
# Shear Modulus (GPa) = 31.58690 37.10809 34.34749
#
# Velocity S-wave (km/s) = 3.50368 3.79756 3.65357
# Velocity P-wave (km/s) = 5.50259 6.17197 5.84687
#
# Compressibility (1/GPa) = 0.02793745
#
# Stress axis : x y z
#
# Youngs Moduli (GPa) = 88.68955 88.47874 36.77613
#
# Poissons Ratio (x) = 0.24442 0.09987
# Poissons Ratio (y) = 0.24500 0.19998
# Poissons Ratio (z) = 0.24085 0.48113
#
# Static dielectric constant tensor:
#      x y z
#    x 2.028490 0.000000 -0.007120 
#    y 0.000000 2.039990 0.000000 
#    z -0.007120 0.000000 2.076430 
# 
# From -- ./inp_files/6339.got.cif
#   From: 2010.05.17/outbox.cif.g08.bks.cpg/sg4_4_cif.got.tgz:6339.got - 2010.06.03 18:43:04.
