data_PCOD9117760
_publ_section_title
;
Structure prediction by ZEFSAII (Michael W. Deem and Ramdas Pophale) SiO2 
 PCOD9117760
Probable space group: P 21
;
_chemical_formula_sum "Si O2"
_cell_formula_units_Z 12
_cell_length_a 8.580722
_cell_length_b 5.070999
_cell_length_c 12.705059
_cell_angle_alpha 90.000000
_cell_angle_beta 60.639066
_cell_angle_gamma 90.000000
_cell_volume 481.820766
_symmetry_space_group_name_H-M "P 21"
_symmetry_group_IT_number 4
_symmetry_cell_setting 'monoclinic'
loop_
_space_group_symop_operation_xyz
x,y,z
-x,1/2+y,-z
loop_
_atom_site_type_symbol
_atom_site_label
_atom_site_fract_x
_atom_site_fract_y
_atom_site_fract_z
Si Si1 0.505807 0.290090 0.785465
Si Si2 0.152090 0.467602 0.296578
Si Si3 0.805992 0.784245 0.480538
Si Si4 0.088210 0.626306 0.733903
Si Si5 0.100730 0.254891 0.926236
Si Si6 0.462629 0.802633 0.670414
O O1 0.685722 0.173197 0.779928
O O2 0.307334 0.229304 0.894662
O O3 0.496687 0.596340 0.756267
O O4 0.508489 0.104508 0.680945
O O5 0.181352 0.317612 0.398022
O O6 0.966045 0.611828 0.383775
O O7 0.101399 0.266272 0.220721
O O8 0.599659 0.702438 0.535864
O O9 0.843119 0.048235 0.404657
O O10 0.086584 0.377107 0.813205
O O11 0.253093 0.796172 0.721047
O O12 0.998881 0.980999 0.973661
#
# Coordination Sequence:
#
# PCOD9117760 Si02
#       6
#     2   2   2   2   2   2
#     4  10  23  45  71 101 139 183 234 296 360 417
#     4  11  23  40  66 105 152 191 218 278 358 440
#     4  11  23  38  65  99 152 189 220 266 347 440
#     4  11  26  40  69 107 140 189 240 292 344 425
#     4  11  25  49  77 101 131 184 252 317 360 407
#     4  10  24  40  66 103 146 188 234 275 339 433
#
# _framework density 24.905525999999998
#
# number of rings (size 3 to 8) (size 9 to 14) (size 15 to 20)
#    0.000    1.333    1.667    3.000   14.000    1.333 
#    0.000    0.000    3.667    0.000    0.000    0.000 
#    0.000    0.000    0.000    0.000    0.000    0.000 
#
# Total GULP energy -66976.142843 kJ/mol
# GULP energy per Si atom -5581.345237 kJ/mol
# Density = 2.484884 g / cm^3
# Si number density = 24.905526 Si / 1000 Ang^3
#
#
#
# Elastic Constant Matrix: (Units=GPa)
#
#
# Indices 1 2 3 4 5 6 
#
# 1 125.8041 42.7522 59.9088 0.0000 -23.0705 0.0000
# 2 42.7522 66.8567 14.9480 0.0000 -9.2091 0.0000
# 3 59.9088 14.9480 81.9021 0.0000 -35.8804 0.0000
# 4 0.0000 0.0000 0.0000 42.9257 0.0000 -8.5427
# 5 -23.0705 -9.2091 -35.8804 0.0000 42.2449 0.0000
# 6 0.0000 0.0000 0.0000 -8.5427 0.0000 49.1377
#
#
#
# Elastic Compliance Matrix: (Units=1/GPa)
#
#
# Indices 1 2 3 4 5 6 
#
# 1 0.015283 -0.007691 -0.010915 0.000000 -0.002601 0.000000
# 2 -0.007691 0.019529 0.003323 0.000000 0.002879 0.000000
# 3 -0.010915 0.003323 0.027541 0.000000 0.018155 0.000000
# 4 0.000000 0.000000 0.000000 0.024131 0.000000 0.004195
# 5 -0.002601 0.002879 0.018155 0.000000 0.038299 0.000000
# 6 0.000000 0.000000 0.000000 0.004195 0.000000 0.021080
#
#
# Mechanical properties :
#
#
# Convention : Reuss Voigt Hill
#
# Bulk Modulus (GPa) = 31.45939 56.64231 44.05085
# Shear Modulus (GPa) = 26.73441 37.32527 32.02984
#
# Velocity S-wave (km/s) = 3.27988 3.87547 3.59005
# Velocity P-wave (km/s) = 5.19639 6.54354 5.90848
#
# Compressibility (1/GPa) = 0.03178701
#
# Stress axis : x y z
#
# Youngs Moduli (GPa) = 65.43078 51.20564 36.30992
#
# Poissons Ratio (x) = 0.39382 0.39632
# Poissons Ratio (y) = 0.50322 -0.12065
# Poissons Ratio (z) = 0.71417 -0.17015
#
# Static dielectric constant tensor:
#      x y z
#    x 2.122450 0.000000 0.005280 
#    y 0.000000 2.035720 0.000000 
#    z 0.005280 0.000000 1.958510 
# 
# From -- ./inp_files/13540.got.cif
#   From: 2010.05.17/outbox.cif.g08.bks.cpg/sg4_7_cif.got.tgz:13540.got - 2010.06.03 18:43:04.
