data_PCOD9117768
_publ_section_title
;
Structure prediction by ZEFSAII (Michael W. Deem and Ramdas Pophale) SiO2 
 PCOD9117768
Probable space group: P 21
;
_chemical_formula_sum "Si O2"
_cell_formula_units_Z 16
_cell_length_a 5.177144
_cell_length_b 13.879128
_cell_length_c 9.393814
_cell_angle_alpha 90.000000
_cell_angle_beta 65.154796
_cell_angle_gamma 90.000000
_cell_volume 612.512986
_symmetry_space_group_name_H-M "P 21"
_symmetry_group_IT_number 4
_symmetry_cell_setting 'monoclinic'
loop_
_space_group_symop_operation_xyz
x,y,z
-x,1/2+y,-z
loop_
_atom_site_type_symbol
_atom_site_label
_atom_site_fract_x
_atom_site_fract_y
_atom_site_fract_z
Si Si1 0.172322 0.082410 0.293206
Si Si2 0.367039 0.439959 0.801941
Si Si3 0.630945 0.686519 0.488038
Si Si4 0.880541 0.245818 0.200981
Si Si5 0.206033 0.431183 0.217481
Si Si6 0.185969 0.236459 0.861217
Si Si7 0.803847 0.515813 0.079605
Si Si8 0.331478 0.483032 0.507897
O O1 0.162290 0.143443 0.440432
O O2 0.027251 0.146140 0.208878
O O3 0.986762 0.989057 0.359667
O O4 0.477886 0.040231 0.191057
O O5 0.383440 0.329310 0.851814
O O6 0.471233 0.432785 0.611551
O O7 0.048500 0.469631 0.924489
O O8 0.408790 0.747806 0.638595
O O9 0.796698 0.731951 0.315823
O O10 0.456149 0.591848 0.474530
O O11 0.095213 0.325669 0.209979
O O12 0.897998 0.252326 0.024490
O O13 0.516695 0.463177 0.093038
O O14 0.279777 0.442080 0.366020
O O15 0.948861 0.492257 0.203148
O O16 0.273826 0.128765 0.888417
#
# Coordination Sequence:
#
# PCOD9117768 Si02
#       8
#     2   2   2   2   2   2   2   2
#     4  10  23  46  75 107 155 193 259 324 389 456
#     4  11  27  46  75 114 150 205 263 327 389 467
#     4  10  23  47  73 109 145 202 258 314 394 461
#     4  11  27  45  75 114 151 204 258 326 388 467
#     4  12  28  50  77 109 156 202 253 320 393 459
#     4  12  25  49  76 110 154 209 262 319 392 474
#     4  12  28  52  75 113 156 202 261 321 387 468
#     4  10  23  45  72 106 151 199 250 325 382 462
#
# _framework density 26.121897000000001
#
# number of rings (size 3 to 8) (size 9 to 14) (size 15 to 20)
#    0.000    1.000    2.500    3.000   10.500    1.000 
#    2.250    0.000    0.000    0.000    0.000    0.000 
#    0.000    0.000    0.000    0.000    0.000    0.000 
#
# Total GULP energy -89136.691851 kJ/mol
# GULP energy per Si atom -5571.043241 kJ/mol
# Density = 2.606244 g / cm^3
# Si number density = 26.121897 Si / 1000 Ang^3
#
#
#
# Elastic Constant Matrix: (Units=GPa)
#
#
# Indices 1 2 3 4 5 6 
#
# 1 72.7825 24.4426 1.1688 0.0000 7.2874 0.0000
# 2 24.4426 112.2179 16.8069 0.0000 3.1766 0.0000
# 3 1.1688 16.8069 210.8969 0.0000 18.7381 0.0000
# 4 0.0000 0.0000 0.0000 32.6755 0.0000 5.0986
# 5 7.2874 3.1766 18.7381 0.0000 27.9464 0.0000
# 6 0.0000 0.0000 0.0000 5.0986 0.0000 20.0123
#
#
#
# Elastic Compliance Matrix: (Units=1/GPa)
#
#
# Indices 1 2 3 4 5 6 
#
# 1 0.015230 -0.003285 0.000529 0.000000 -0.003952 0.000000
# 2 -0.003285 0.009736 -0.000782 0.000000 0.000274 0.000000
# 3 0.000529 -0.000782 0.005110 0.000000 -0.003475 0.000000
# 4 0.000000 0.000000 0.000000 0.031871 0.000000 -0.008120
# 5 -0.003952 0.000274 -0.003475 0.000000 0.039112 0.000000
# 6 0.000000 0.000000 0.000000 -0.008120 0.000000 0.052038
#
#
# Mechanical properties :
#
#
# Convention : Reuss Voigt Hill
#
# Bulk Modulus (GPa) = 43.47911 53.41489 48.44700
# Shear Modulus (GPa) = 29.79031 39.69209 34.74120
#
# Velocity S-wave (km/s) = 3.38070 3.90230 3.65082
# Velocity P-wave (km/s) = 5.64975 6.38722 6.02977
#
# Compressibility (1/GPa) = 0.02299955
#
# Stress axis : x y z
#
# Youngs Moduli (GPa) = 65.66046 102.71137 195.70217
#
# Poissons Ratio (x) = 0.33736 -0.10343
# Poissons Ratio (y) = 0.21566 0.15305
# Poissons Ratio (z) = -0.03470 0.08032
#
# Static dielectric constant tensor:
#      x y z
#    x 2.122960 0.000000 0.093570 
#    y 0.000000 2.069490 0.000000 
#    z 0.093570 0.000000 2.323360 
# 
# From -- ./inp_files/4831.got.cif
#   From: 2010.05.17/outbox.cif.g08.bks.cpg/sg4_3_cif.got.tgz:4831.got - 2010.06.03 18:43:04.
