data_PCOD9117932
_publ_section_title
;
Structure prediction by ZEFSAII (Michael W. Deem and Ramdas Pophale) SiO2 
 PCOD9117932
Probable space group: P 21
;
_chemical_formula_sum "Si O2"
_cell_formula_units_Z 16
_cell_length_a 15.510439
_cell_length_b 5.449329
_cell_length_c 22.276444
_cell_angle_alpha 90.000000
_cell_angle_beta 158.311743
_cell_angle_gamma 90.000000
_cell_volume 695.814730
_symmetry_space_group_name_H-M "P 21"
_symmetry_group_IT_number 4
_symmetry_cell_setting 'monoclinic'
loop_
_space_group_symop_operation_xyz
x,y,z
-x,1/2+y,-z
loop_
_atom_site_type_symbol
_atom_site_label
_atom_site_fract_x
_atom_site_fract_y
_atom_site_fract_z
Si Si1 0.296298 0.208080 0.692289
Si Si2 0.116020 0.682139 0.769548
Si Si3 0.781785 0.079502 0.550250
Si Si4 0.221787 0.710021 0.586785
Si Si5 0.152967 0.289542 0.884663
Si Si6 0.470049 0.459809 0.917002
Si Si7 0.250436 0.179570 0.207697
Si Si8 0.019581 0.182112 0.933560
O O1 0.336479 0.449278 0.677932
O O2 0.435409 0.260621 0.842946
O O3 0.026164 0.203421 0.538731
O O4 0.347172 0.955482 0.691372
O O5 0.112573 0.562975 0.833358
O O6 0.225841 0.499869 0.791776
O O7 0.328880 0.876654 0.907393
O O8 0.868636 0.800258 0.594362
O O9 0.812108 0.212275 0.506228
O O10 0.519286 0.140198 0.398556
O O11 0.959019 0.154658 0.717565
O O12 0.110505 0.215090 0.925201
O O13 0.412650 0.198647 0.036310
O O14 0.133212 0.431673 0.156595
O O15 0.122687 0.932608 0.146576
O O16 0.214388 0.180028 0.112065
#
# Coordination Sequence:
#
# PCOD9117932 Si02
#       8
#     2   2   2   2   2   2   2   2
#     4  10  24  40  63  94 138 193 240 304 354 426
#     4  11  25  43  68 107 152 206 255 305 375 450
#     4  11  27  43  72 106 143 198 243 316 384 452
#     4  10  24  41  62  99 137 183 246 299 363 435
#     4  11  26  44  71 105 144 200 251 302 369 464
#     4  11  24  41  67 101 150 202 253 308 366 437
#     4  10  25  50  78 106 146 185 236 330 384 447
#     4  10  25  50  77 110 142 185 250 306 391 455
#
# _framework density 22.994627000000001
#
# number of rings (size 3 to 8) (size 9 to 14) (size 15 to 20)
#    0.000    1.500    1.250    0.750   17.500    1.000 
#    2.250    0.000    0.000    0.000    0.000    0.000 
#    0.000    0.000    0.000    0.000    0.000    0.000 
#
# Total GULP energy -89370.397214 kJ/mol
# GULP energy per Si atom -5585.649826 kJ/mol
# Density = 2.294229 g / cm^3
# Si number density = 22.994627 Si / 1000 Ang^3
#
#
#
# Elastic Constant Matrix: (Units=GPa)
#
#
# Indices 1 2 3 4 5 6 
#
# 1 120.1827 41.6926 32.3008 0.0000 -12.7043 0.0000
# 2 41.6926 131.9593 45.9190 0.0000 -2.8427 0.0000
# 3 32.3008 45.9190 80.9393 0.0000 -2.3372 0.0000
# 4 0.0000 0.0000 0.0000 39.2665 0.0000 -10.7875
# 5 -12.7043 -2.8427 -2.3372 0.0000 25.0587 0.0000
# 6 0.0000 0.0000 0.0000 -10.7875 0.0000 27.9683
#
#
#
# Elastic Compliance Matrix: (Units=1/GPa)
#
#
# Indices 1 2 3 4 5 6 
#
# 1 0.010320 -0.002209 -0.002729 0.000000 0.004727 0.000000
# 2 -0.002209 0.009923 -0.004761 0.000000 -0.000438 0.000000
# 3 -0.002729 -0.004761 0.016133 0.000000 -0.000419 0.000000
# 4 0.000000 0.000000 0.000000 0.028485 0.000000 0.010987
# 5 0.004727 -0.000438 -0.000419 0.000000 0.042214 0.000000
# 6 0.000000 0.000000 0.000000 0.010987 0.000000 0.039993
#
#
# Mechanical properties :
#
#
# Convention : Reuss Voigt Hill
#
# Bulk Modulus (GPa) = 58.89699 63.65620 61.27659
# Shear Modulus (GPa) = 29.04864 32.66993 30.85929
#
# Velocity S-wave (km/s) = 3.55812 3.77339 3.66734
# Velocity P-wave (km/s) = 6.52298 6.83577 6.68121
#
# Compressibility (1/GPa) = 0.01697880
#
# Stress axis : x y z
#
# Youngs Moduli (GPa) = 96.89792 100.77271 61.98607
#
# Poissons Ratio (x) = 0.22264 0.16913
# Poissons Ratio (y) = 0.21408 0.29510
# Poissons Ratio (z) = 0.26440 0.47975
#
# Static dielectric constant tensor:
#      x y z
#    x 1.856350 0.000000 -0.014870 
#    y 0.000000 2.001490 0.000000 
#    z -0.014870 0.000000 1.852720 
# 
# From -- ./inp_files/15777.got.cif
#   From: 2010.05.17/outbox.cif.g08.bks.cpg/sg4_8_cif.got.tgz:15777.got - 2010.06.03 18:43:04.
