data_PCOD9117025
_publ_section_title
;
Structure prediction by ZEFSAII (Michael W. Deem and Ramdas Pophale) SiO2 
 PCOD9117025
Probable space group: P 21
;
_chemical_formula_sum "Si O2"
_cell_formula_units_Z 16
_cell_length_a 19.661743
_cell_length_b 6.113881
_cell_length_c 9.687285
_cell_angle_alpha 90.000000
_cell_angle_beta 39.594871
_cell_angle_gamma 90.000000
_cell_volume 742.202613
_symmetry_space_group_name_H-M "P 21"
_symmetry_group_IT_number 4
_symmetry_cell_setting 'monoclinic'
loop_
_space_group_symop_operation_xyz
x,y,z
-x,1/2+y,-z
loop_
_atom_site_type_symbol
_atom_site_label
_atom_site_fract_x
_atom_site_fract_y
_atom_site_fract_z
Si Si1 0.202858 0.458870 0.535227
Si Si2 0.161192 0.585648 0.164778
Si Si3 0.721044 0.987298 0.297088
Si Si4 0.453050 0.798609 0.282269
Si Si5 0.549828 0.756305 0.399292
Si Si6 0.768205 0.344071 0.697410
Si Si7 0.076156 0.233178 0.498563
Si Si8 0.397926 0.146600 0.171904
O O1 0.198588 0.425457 0.705436
O O2 0.210746 0.707674 0.474228
O O3 0.109849 0.361713 0.584908
O O4 0.314090 0.342883 0.318279
O O5 0.237651 0.691817 0.160132
O O6 0.127879 0.354584 0.285747
O O7 0.049337 0.712237 0.324926
O O8 0.217403 0.582377 0.930114
O O9 0.639254 0.160841 0.496919
O O10 0.652081 0.793655 0.335198
O O11 0.553704 0.785214 0.228010
O O12 0.417764 0.039103 0.290104
O O13 0.493100 0.702085 0.074675
O O14 0.512796 0.497539 0.474639
O O15 0.867262 0.502005 0.570205
O O16 0.663673 0.480219 0.831416
#
# Coordination Sequence:
#
# PCOD9117025 Si02
#       8
#     2   2   2   2   2   2   2   2
#     4  10  22  44  65  96 133 172 227 270 337 409
#     4  11  23  43  70  97 131 170 223 279 347 409
#     4  11  24  44  63  99 138 175 224 289 347 404
#     4  11  24  41  65 100 135 183 236 282 342 409
#     4  10  24  44  66  96 145 184 232 291 352 412
#     4  10  22  42  71  93 130 172 227 273 335 414
#     4  10  22  44  69  98 125 173 222 276 337 419
#     4  11  23  40  69  93 133 185 225 274 329 408
#
# _framework density 21.557455999999998
#
# number of rings (size 3 to 8) (size 9 to 14) (size 15 to 20)
#    0.000    1.500    2.500    1.500    5.250    5.000 
#    4.500    0.000    0.000    0.000    0.000    0.000 
#    0.000    0.000    0.000    0.000    0.000    0.000 
#
# Total GULP energy -89192.090653 kJ/mol
# GULP energy per Si atom -5574.505666 kJ/mol
# Density = 2.150839 g / cm^3
# Si number density = 21.557456 Si / 1000 Ang^3
#
#
#
# Elastic Constant Matrix: (Units=GPa)
#
#
# Indices 1 2 3 4 5 6 
#
# 1 96.2378 7.9036 16.0480 0.0000 27.4512 0.0000
# 2 7.9036 55.5553 5.4366 0.0000 1.0664 0.0000
# 3 16.0480 5.4366 72.8394 0.0000 23.9655 0.0000
# 4 0.0000 0.0000 0.0000 21.4202 0.0000 0.7815
# 5 27.4512 1.0664 23.9655 0.0000 25.6269 0.0000
# 6 0.0000 0.0000 0.0000 0.7815 0.0000 41.1116
#
#
#
# Elastic Compliance Matrix: (Units=1/GPa)
#
#
# Indices 1 2 3 4 5 6 
#
# 1 0.015638 -0.002159 0.003174 0.000000 -0.019630 0.000000
# 2 -0.002159 0.018440 -0.002035 0.000000 0.003448 0.000000
# 3 0.003174 -0.002035 0.020615 0.000000 -0.022595 0.000000
# 4 0.000000 0.000000 0.000000 0.046717 0.000000 -0.000888
# 5 -0.019630 0.003448 -0.022595 0.000000 0.081036 0.000000
# 6 0.000000 0.000000 0.000000 -0.000888 0.000000 0.024341
#
#
# Mechanical properties :
#
#
# Convention : Reuss Voigt Hill
#
# Bulk Modulus (GPa) = 18.99161 31.48988 25.24074
# Shear Modulus (GPa) = 22.08691 30.64802 26.36747
#
# Velocity S-wave (km/s) = 3.20435 3.77462 3.50111
# Velocity P-wave (km/s) = 4.74546 5.79967 5.29884
#
# Compressibility (1/GPa) = 0.05265484
#
# Stress axis : x y z
#
# Youngs Moduli (GPa) = 63.94566 54.22950 48.50744
#
# Poissons Ratio (x) = 0.11706 -0.15398
# Poissons Ratio (y) = 0.13803 0.09873
# Poissons Ratio (z) = -0.20299 0.11037
#
# Static dielectric constant tensor:
#      x y z
#    x 1.843070 0.000000 -0.034890 
#    y 0.000000 1.901780 0.000000 
#    z -0.034890 0.000000 1.775160 
# 
# From -- ./inp_files/8687.got.cif
#   From: 2010.05.17/outbox.cif.g08.bks.cpg/sg4_5_cif.got.tgz:8687.got - 2010.06.03 18:43:04.
