data_PCOD9117381
_publ_section_title
;
Structure prediction by ZEFSAII (Michael W. Deem and Ramdas Pophale) SiO2 
 PCOD9117381
Probable space group: P 21
;
_chemical_formula_sum "Si O2"
_cell_formula_units_Z 14
_cell_length_a 12.353343
_cell_length_b 7.437446
_cell_length_c 8.976702
_cell_angle_alpha 90.000000
_cell_angle_beta 39.777958
_cell_angle_gamma 90.000000
_cell_volume 527.690084
_symmetry_space_group_name_H-M "P 21"
_symmetry_group_IT_number 4
_symmetry_cell_setting 'monoclinic'
loop_
_space_group_symop_operation_xyz
x,y,z
-x,1/2+y,-z
loop_
_atom_site_type_symbol
_atom_site_label
_atom_site_fract_x
_atom_site_fract_y
_atom_site_fract_z
Si Si1 0.764362 0.651980 0.492647
Si Si2 0.274707 0.569983 0.799843
Si Si3 0.022385 0.832013 0.600390
Si Si4 0.952235 0.010008 0.197979
Si Si5 0.360983 0.210665 0.061474
Si Si6 0.554623 0.346199 0.599119
Si Si7 0.239307 0.849889 0.073037
O O1 0.909816 0.522671 0.410834
O O2 0.639472 0.701382 0.761315
O O3 0.667120 0.525385 0.479598
O O4 0.835109 0.839750 0.360423
O O5 0.086268 0.550402 0.933507
O O6 0.374871 0.386191 0.712762
O O7 0.361060 0.686059 0.578928
O O8 0.298312 0.670302 0.931140
O O9 0.076355 0.678636 0.661422
O O10 0.115719 0.811406 0.342912
O O11 0.821405 0.802706 0.787352
O O12 0.136966 0.943235 0.045510
O O13 0.360657 0.006517 0.000650
O O14 0.514233 0.303140 0.813848
#
# Coordination Sequence:
#
# PCOD9117381 Si02
#       7
#     2   2   2   2   2   2   2
#     4  11  24  43  76 106 138 181 238 296 343 412
#     4  12  27  45  67 101 149 193 226 283 351 430
#     4  10  22  48  76 104 138 176 244 302 334 404
#     4  11  24  43  76 106 138 181 238 296 343 412
#     4  10  24  44  74 105 136 185 237 294 349 406
#     4  12  27  45  67 101 149 193 226 283 351 430
#     4  10  24  44  74 105 136 185 237 294 349 406
#
# _framework density 26.530723999999999
#
# number of rings (size 3 to 8) (size 9 to 14) (size 15 to 20)
#    0.000    1.143    2.857    1.714    4.000    6.857 
#    0.000    0.000    0.000    0.000    0.000    0.000 
#    0.000    0.000    0.000    0.000    0.000    0.000 
#
# Total GULP energy -78496.793184 kJ/mol
# GULP energy per Si atom -5606.913799 kJ/mol
# Density = 2.647034 g / cm^3
# Si number density = 26.530724 Si / 1000 Ang^3
#
#
#
# Elastic Constant Matrix: (Units=GPa)
#
#
# Indices 1 2 3 4 5 6 
#
# 1 94.1541 9.1395 9.6944 0.0000 6.3403 0.0000
# 2 9.1395 111.3566 35.2160 0.0000 7.9848 0.0000
# 3 9.6944 35.2160 107.3386 0.0000 28.5048 0.0000
# 4 0.0000 0.0000 0.0000 46.2117 0.0000 -1.5259
# 5 6.3403 7.9848 28.5048 0.0000 29.6971 0.0000
# 6 0.0000 0.0000 0.0000 -1.5259 0.0000 52.5617
#
#
#
# Elastic Compliance Matrix: (Units=1/GPa)
#
#
# Indices 1 2 3 4 5 6 
#
# 1 0.010840 -0.000673 -0.000257 0.000000 -0.001886 0.000000
# 2 -0.000673 0.010070 -0.003439 0.000000 0.000737 0.000000
# 3 -0.000257 -0.003439 0.013700 0.000000 -0.012170 0.000000
# 4 0.000000 0.000000 0.000000 0.021660 0.000000 0.000629
# 5 -0.001886 0.000737 -0.012170 0.000000 0.045559 0.000000
# 6 0.000000 0.000000 0.000000 0.000629 0.000000 0.019044
#
#
# Mechanical properties :
#
#
# Convention : Reuss Voigt Hill
#
# Bulk Modulus (GPa) = 38.65261 46.77211 42.71236
# Shear Modulus (GPa) = 36.17046 42.94738 39.55892
#
# Velocity S-wave (km/s) = 3.69635 4.02777 3.86561
# Velocity P-wave (km/s) = 5.72870 6.26883 6.00484
#
# Compressibility (1/GPa) = 0.02587148
#
# Stress axis : x y z
#
# Youngs Moduli (GPa) = 92.25314 99.30453 72.99489
#
# Poissons Ratio (x) = 0.06684 0.01878
# Poissons Ratio (y) = 0.06209 0.25100
# Poissons Ratio (z) = 0.02373 0.34147
#
# Static dielectric constant tensor:
#      x y z
#    x 2.086560 0.000000 -0.044000 
#    y 0.000000 2.056330 0.000000 
#    z -0.044000 0.000000 2.067670 
# 
# From -- ./inp_files/7920.got.cif
#   From: 2010.05.17/outbox.cif.g08.bks.cpg/sg4_4_cif.got.tgz:7920.got - 2010.06.03 18:43:04.
