data_PCOD9117678
_publ_section_title
;
Structure prediction by ZEFSAII (Michael W. Deem and Ramdas Pophale) SiO2 
 PCOD9117678
Probable space group: P 21
;
_chemical_formula_sum "Si O2"
_cell_formula_units_Z 16
_cell_length_a 18.165701
_cell_length_b 7.304558
_cell_length_c 7.058150
_cell_angle_alpha 90.000000
_cell_angle_beta 43.436664
_cell_angle_gamma 90.000000
_cell_volume 643.936041
_symmetry_space_group_name_H-M "P 21"
_symmetry_group_IT_number 4
_symmetry_cell_setting 'monoclinic'
loop_
_space_group_symop_operation_xyz
x,y,z
-x,1/2+y,-z
loop_
_atom_site_type_symbol
_atom_site_label
_atom_site_fract_x
_atom_site_fract_y
_atom_site_fract_z
Si Si1 0.943337 0.813960 0.849285
Si Si2 0.874810 0.347949 0.219806
Si Si3 0.219640 0.526436 0.346048
Si Si4 0.006869 0.394304 0.660946
Si Si5 0.263758 0.122981 0.730176
Si Si6 0.500683 0.788075 0.752815
Si Si7 0.695082 0.263430 0.154608
Si Si8 0.382129 0.605501 0.317702
O O1 0.012440 0.899281 0.888773
O O2 0.972541 0.597994 0.785093
O O3 0.991409 0.888562 0.565830
O O4 0.814391 0.798721 0.096451
O O5 0.823564 0.196187 0.448307
O O6 0.791850 0.512691 0.339876
O O7 0.919965 0.273653 0.932904
O O8 0.129981 0.372855 0.491591
O O9 0.318851 0.468526 0.292005
O O10 0.245227 0.620821 0.096303
O O11 0.387377 0.178289 0.475735
O O12 0.260944 0.972572 0.907894
O O13 0.422304 0.767350 0.722053
O O14 0.531527 0.996664 0.724239
O O15 0.437608 0.735638 0.061857
O O16 0.686098 0.199567 0.389114
#
# Coordination Sequence:
#
# PCOD9117678 Si02
#       8
#     2   2   2   2   2   2   2   2
#     4  10  25  43  67 102 135 179 231 281 337 413
#     4  10  23  44  66  95 136 183 226 279 329 408
#     4  10  24  42  69  98 134 182 223 278 354 391
#     4  10  24  43  65  99 135 176 230 282 336 408
#     4  11  24  47  71 100 139 184 227 283 353 400
#     4  11  26  45  71 108 131 180 230 281 354 413
#     4  11  24  46  72  98 136 182 228 286 344 411
#     4  11  24  46  71  96 142 170 227 292 333 424
#
# _framework density 24.847187999999999
#
# number of rings (size 3 to 8) (size 9 to 14) (size 15 to 20)
#    0.000    1.500    1.250    1.500   12.250    4.000 
#    2.250    0.000    0.000    0.000    0.000    0.000 
#    0.000    0.000    0.000    0.000    0.000    0.000 
#
# Total GULP energy -89378.410129 kJ/mol
# GULP energy per Si atom -5586.150633 kJ/mol
# Density = 2.479063 g / cm^3
# Si number density = 24.847188 Si / 1000 Ang^3
#
#
#
# Elastic Constant Matrix: (Units=GPa)
#
#
# Indices 1 2 3 4 5 6 
#
# 1 139.7110 22.6689 60.1221 0.0000 -1.8829 0.0000
# 2 22.6689 37.5003 8.4060 0.0000 3.6270 0.0000
# 3 60.1221 8.4060 120.4468 0.0000 13.0801 0.0000
# 4 0.0000 0.0000 0.0000 29.0055 0.0000 -9.4324
# 5 -1.8829 3.6270 13.0801 0.0000 42.1192 0.0000
# 6 0.0000 0.0000 0.0000 -9.4324 0.0000 41.9909
#
#
#
# Elastic Compliance Matrix: (Units=1/GPa)
#
#
# Indices 1 2 3 4 5 6 
#
# 1 0.010194 -0.005282 -0.004987 0.000000 0.002459 0.000000
# 2 -0.005282 0.029961 0.000881 0.000000 -0.003090 0.000000
# 3 -0.004987 0.000881 0.011138 0.000000 -0.003758 0.000000
# 4 0.000000 0.000000 0.000000 0.037193 0.000000 0.008355
# 5 0.002459 -0.003090 -0.003758 0.000000 0.025285 0.000000
# 6 0.000000 0.000000 0.000000 0.008355 0.000000 0.025691
#
#
# Mechanical properties :
#
#
# Convention : Reuss Voigt Hill
#
# Bulk Modulus (GPa) = 30.75273 53.33911 42.04592
# Shear Modulus (GPa) = 29.57233 36.38720 32.97976
#
# Velocity S-wave (km/s) = 3.45362 3.83095 3.64717
# Velocity P-wave (km/s) = 5.32043 6.40950 5.89019
#
# Compressibility (1/GPa) = 0.03251744
#
# Stress axis : x y z
#
# Youngs Moduli (GPa) = 98.09896 33.37687 89.78132
#
# Poissons Ratio (x) = 0.17630 0.44772
# Poissons Ratio (y) = 0.51818 -0.07912
# Poissons Ratio (z) = 0.48919 -0.02941
#
# Static dielectric constant tensor:
#      x y z
#    x 2.058820 0.000000 -0.121800 
#    y 0.000000 2.024800 0.000000 
#    z -0.121800 0.000000 2.094980 
# 
# From -- ./inp_files/4085.got.cif
#   From: 2010.05.17/outbox.cif.g08.bks.cpg/sg4_3_cif.got.tgz:4085.got - 2010.06.03 18:43:04.
