data_PCOD9117600
_publ_section_title
;
Structure prediction by ZEFSAII (Michael W. Deem and Ramdas Pophale) SiO2 
 PCOD9117600
Probable space group: P 21
;
_chemical_formula_sum "Si O2"
_cell_formula_units_Z 16
_cell_length_a 12.727232
_cell_length_b 7.672391
_cell_length_c 15.782014
_cell_angle_alpha 90.000000
_cell_angle_beta 24.989700
_cell_angle_gamma 90.000000
_cell_volume 651.040349
_symmetry_space_group_name_H-M "P 21"
_symmetry_group_IT_number 4
_symmetry_cell_setting 'monoclinic'
loop_
_space_group_symop_operation_xyz
x,y,z
-x,1/2+y,-z
loop_
_atom_site_type_symbol
_atom_site_label
_atom_site_fract_x
_atom_site_fract_y
_atom_site_fract_z
Si Si1 0.482393 0.369190 0.101173
Si Si2 0.962006 0.186739 0.917335
Si Si3 0.658975 0.932211 0.604849
Si Si4 0.241767 0.065502 0.558664
Si Si5 0.925678 0.222330 0.501614
Si Si6 0.164041 0.069864 0.945614
Si Si7 0.197847 0.609553 0.218458
Si Si8 0.571068 0.901356 0.195705
O O1 0.469924 0.417822 0.208215
O O2 0.461252 0.527755 0.051340
O O3 0.206288 0.288342 0.288913
O O4 0.724724 0.266520 0.898302
O O5 0.183262 0.114520 0.696896
O O6 0.999474 0.129901 0.987136
O O7 0.947822 0.396899 0.928829
O O8 0.716245 0.078374 0.067000
O O9 0.873095 0.069197 0.471861
O O10 0.436881 0.011717 0.711936
O O11 0.726662 0.747433 0.516328
O O12 0.990273 0.993066 0.698553
O O13 0.463866 0.939872 0.368851
O O14 0.911686 0.159569 0.609886
O O15 0.680321 0.348835 0.671490
O O16 0.234985 0.241705 0.947977
#
# Coordination Sequence:
#
# PCOD9117600 Si02
#       8
#     2   2   2   2   2   2   2   2
#     4  11  23  41  62  97 140 185 232 279 342 413
#     4  12  26  47  77 106 141 186 239 303 362 436
#     4  10  23  44  68  96 145 182 228 295 349 421
#     4  12  25  43  70 106 139 187 239 293 357 425
#     4  10  23  43  66  96 144 192 224 284 345 413
#     4  11  24  51  74 103 139 187 235 303 371 417
#     4  11  25  37  65  98 134 188 236 277 342 418
#     4  11  25  48  72 104 146 185 241 298 356 427
#
# _framework density 24.576049000000001
#
# number of rings (size 3 to 8) (size 9 to 14) (size 15 to 20)
#    0.000    1.000    5.000    0.750    3.500    1.000 
#    4.500    0.000    0.000    0.000    0.000    0.000 
#    0.000    0.000    0.000    0.000    0.000    0.000 
#
# Total GULP energy -89300.306718 kJ/mol
# GULP energy per Si atom -5581.269170 kJ/mol
# Density = 2.452011 g / cm^3
# Si number density = 24.576049 Si / 1000 Ang^3
#
#
#
# Elastic Constant Matrix: (Units=GPa)
#
#
# Indices 1 2 3 4 5 6 
#
# 1 55.3385 12.1508 5.2592 0.0000 -9.3300 0.0000
# 2 12.1508 101.8888 18.5939 0.0000 2.3830 0.0000
# 3 5.2592 18.5939 51.6040 0.0000 3.3739 0.0000
# 4 0.0000 0.0000 0.0000 39.7734 0.0000 -8.6944
# 5 -9.3300 2.3830 3.3739 0.0000 30.3725 0.0000
# 6 0.0000 0.0000 0.0000 -8.6944 0.0000 29.8994
#
#
#
# Elastic Compliance Matrix: (Units=1/GPa)
#
#
# Indices 1 2 3 4 5 6 
#
# 1 0.019798 -0.002212 -0.001642 0.000000 0.006437 0.000000
# 2 -0.002212 0.010758 -0.003577 0.000000 -0.001126 0.000000
# 3 -0.001642 -0.003577 0.021002 0.000000 -0.002557 0.000000
# 4 0.000000 0.000000 0.000000 0.026849 0.000000 0.007807
# 5 0.006437 -0.001126 -0.002557 0.000000 0.035274 0.000000
# 6 0.000000 0.000000 0.000000 0.007807 0.000000 0.035716
#
#
# Mechanical properties :
#
#
# Convention : Reuss Voigt Hill
#
# Bulk Modulus (GPa) = 27.25117 31.20433 29.22775
# Shear Modulus (GPa) = 28.33035 31.53089 29.93062
#
# Velocity S-wave (km/s) = 3.39892 3.58577 3.49360
# Velocity P-wave (km/s) = 5.14938 5.46519 5.30963
#
# Compressibility (1/GPa) = 0.03669567
#
# Stress axis : x y z
#
# Youngs Moduli (GPa) = 50.51112 92.95810 47.61521
#
# Poissons Ratio (x) = 0.20562 0.07816
# Poissons Ratio (y) = 0.11173 0.17032
# Poissons Ratio (z) = 0.08292 0.33252
#
# Static dielectric constant tensor:
#      x y z
#    x 1.958770 0.000000 -0.033520 
#    y 0.000000 2.145550 0.000000 
#    z -0.033520 0.000000 1.917850 
# 
# From -- ./inp_files/15255.got.cif
#   From: 2010.05.17/outbox.cif.g08.bks.cpg/sg4_8_cif.got.tgz:15255.got - 2010.06.03 18:43:04.
