data_PCOD9117442
_publ_section_title
;
Structure prediction by ZEFSAII (Michael W. Deem and Ramdas Pophale) SiO2 
 PCOD9117442
Probable space group: P 21
;
_chemical_formula_sum "Si O2"
_cell_formula_units_Z 10
_cell_length_a 6.822891
_cell_length_b 8.221705
_cell_length_c 6.745742
_cell_angle_alpha 90.000000
_cell_angle_beta 81.538989
_cell_angle_gamma 90.000000
_cell_volume 374.289266
_symmetry_space_group_name_H-M "P 21"
_symmetry_group_IT_number 4
_symmetry_cell_setting 'monoclinic'
loop_
_space_group_symop_operation_xyz
x,y,z
-x,1/2+y,-z
loop_
_atom_site_type_symbol
_atom_site_label
_atom_site_fract_x
_atom_site_fract_y
_atom_site_fract_z
Si Si1 0.108264 0.884790 0.117340
Si Si2 0.485777 0.048523 0.997522
Si Si3 0.754907 0.700548 0.300473
Si Si4 0.820885 0.181321 0.237826
Si Si5 0.412367 0.508004 0.441317
O O1 0.986182 0.737736 0.236565
O O2 0.104681 0.844692 0.880170
O O3 0.989666 0.046004 0.192764
O O4 0.337020 0.921924 0.122315
O O5 0.339702 0.174892 0.904103
O O6 0.602105 0.976076 0.790765
O O7 0.639366 0.124806 0.123833
O O8 0.645202 0.554134 0.432535
O O9 0.667784 0.857777 0.423774
O O10 0.720736 0.161194 0.466679
#
# Coordination Sequence:
#
# PCOD9117442 Si02
#       5
#     2   2   2   2   2
#     4  11  22  41  65  96 128 165 218 262 311 384
#     4  10  23  40  65  93 128 172 210 255 332 374
#     4   9  20  41  60  92 127 168 209 262 315 369
#     4  11  23  41  69  89 135 171 209 269 318 379
#     4   9  20  39  63  90 126 168 210 260 320 368
#
# _framework density 26.717303000000001
#
# number of rings (size 3 to 8) (size 9 to 14) (size 15 to 20)
#    1.200    0.800    2.000    1.200    5.600    0.000 
#    0.000   12.000    0.000    0.000    0.000    0.000 
#    0.000    0.000    0.000    0.000    0.000    0.000 
#
# Total GULP energy -55833.490499 kJ/mol
# GULP energy per Si atom -5583.349050 kJ/mol
# Density = 2.665649 g / cm^3
# Si number density = 26.717303 Si / 1000 Ang^3
#
#
#
# Elastic Constant Matrix: (Units=GPa)
#
#
# Indices 1 2 3 4 5 6 
#
# 1 103.4031 16.7691 54.8699 0.0000 -19.1654 0.0000
# 2 16.7691 45.5089 26.9772 0.0000 -14.2257 0.0000
# 3 54.8699 26.9772 150.0995 0.0000 -37.2466 0.0000
# 4 0.0000 0.0000 0.0000 59.0585 0.0000 -20.9357
# 5 -19.1654 -14.2257 -37.2466 0.0000 55.7361 0.0000
# 6 0.0000 0.0000 0.0000 -20.9357 0.0000 44.9878
#
#
#
# Elastic Compliance Matrix: (Units=1/GPa)
#
#
# Indices 1 2 3 4 5 6 
#
# 1 0.012230 -0.001863 -0.003848 0.000000 0.001158 0.000000
# 2 -0.001863 0.025639 -0.002952 0.000000 0.003931 0.000000
# 3 -0.003848 -0.002952 0.009691 0.000000 0.004400 0.000000
# 4 0.000000 0.000000 0.000000 0.020277 0.000000 0.009436
# 5 0.001158 0.003931 0.004400 0.000000 0.022283 0.000000
# 6 0.000000 0.000000 0.000000 0.009436 0.000000 0.026620
#
#
# Mechanical properties :
#
#
# Convention : Reuss Voigt Hill
#
# Bulk Modulus (GPa) = 33.07589 55.13822 44.10706
# Shear Modulus (GPa) = 34.68747 45.31617 40.00182
#
# Velocity S-wave (km/s) = 3.60712 4.12288 3.87360
# Velocity P-wave (km/s) = 5.45484 6.58382 6.04574
#
# Compressibility (1/GPa) = 0.03023350
#
# Stress axis : x y z
#
# Youngs Moduli (GPa) = 81.76731 39.00370 103.18484
#
# Poissons Ratio (x) = 0.07267 0.39711
# Poissons Ratio (y) = 0.15234 0.30455
# Poissons Ratio (z) = 0.31468 0.11512
#
# Static dielectric constant tensor:
#      x y z
#    x 2.002890 0.000000 -0.018660 
#    y 0.000000 2.216390 0.000000 
#    z -0.018660 0.000000 2.123660 
# 
# From -- ./inp_files/1030.got.cif
#   From: 2010.05.17/outbox.cif.g08.bks.cpg/sg4_1_cif.got.tgz:1030.got - 2010.06.03 18:43:04.
