data_PCOD9117578
_publ_section_title
;
Structure prediction by ZEFSAII (Michael W. Deem and Ramdas Pophale) SiO2 
 PCOD9117578
Probable space group: P 21
;
_chemical_formula_sum "Si O2"
_cell_formula_units_Z 10
_cell_length_a 10.377096
_cell_length_b 5.042622
_cell_length_c 7.545419
_cell_angle_alpha 90.000000
_cell_angle_beta 102.489038
_cell_angle_gamma 90.000000
_cell_volume 385.492147
_symmetry_space_group_name_H-M "P 21"
_symmetry_group_IT_number 4
_symmetry_cell_setting 'monoclinic'
loop_
_space_group_symop_operation_xyz
x,y,z
-x,1/2+y,-z
loop_
_atom_site_type_symbol
_atom_site_label
_atom_site_fract_x
_atom_site_fract_y
_atom_site_fract_z
Si Si1 0.093977 0.653930 0.564307
Si Si2 0.000662 0.093930 0.114601
Si Si3 0.375331 0.092403 0.800877
Si Si4 0.447513 0.098410 0.203203
Si Si5 0.754038 0.768642 0.572950
O O1 0.259434 0.137991 0.626185
O O2 0.212892 0.573957 0.468920
O O3 0.118532 0.651109 0.782620
O O4 0.005261 0.902647 0.488493
O O5 0.131354 0.174814 0.261313
O O6 0.991870 0.293363 0.947404
O O7 0.434498 0.802272 0.796540
O O8 0.488769 0.306901 0.780184
O O9 0.351752 0.129855 0.003211
O O10 0.376563 0.192406 0.359612
#
# Coordination Sequence:
#
# PCOD9117578 Si02
#       5
#     2   2   2   2   2
#     4  10  23  43  63  96 134 172 224 274 323 392
#     4  11  25  44  65  99 140 175 226 279 321 396
#     4  10  23  43  65 100 133 167 222 275 327 402
#     4  10  23  43  66  99 133 167 220 278 328 397
#     4  11  24  43  73  94 132 183 216 268 345 385
#
# _framework density 25.940866
#
# number of rings (size 3 to 8) (size 9 to 14) (size 15 to 20)
#    0.000    1.600    0.000    3.600    2.800    9.600 
#    7.200    0.000    0.000    0.000    0.000    0.000 
#    0.000    0.000    0.000    0.000    0.000    0.000 
#
# Total GULP energy -55974.846445 kJ/mol
# GULP energy per Si atom -5597.484644 kJ/mol
# Density = 2.588182 g / cm^3
# Si number density = 25.940866 Si / 1000 Ang^3
#
#
#
# Elastic Constant Matrix: (Units=GPa)
#
#
# Indices 1 2 3 4 5 6 
#
# 1 60.3080 3.4431 39.7711 0.0000 1.8951 0.0000
# 2 3.4431 86.4004 -2.8370 0.0000 4.7027 0.0000
# 3 39.7711 -2.8370 141.3981 0.0000 11.8957 0.0000
# 4 0.0000 0.0000 0.0000 52.2037 0.0000 2.3336
# 5 1.8951 4.7027 11.8957 0.0000 64.4591 0.0000
# 6 0.0000 0.0000 0.0000 2.3336 0.0000 33.1436
#
#
#
# Elastic Compliance Matrix: (Units=1/GPa)
#
#
# Indices 1 2 3 4 5 6 
#
# 1 0.020463 -0.001037 -0.005823 0.000000 0.000549 0.000000
# 2 -0.001037 0.011686 0.000605 0.000000 -0.000934 0.000000
# 3 -0.005823 0.000605 0.008849 0.000000 -0.001506 0.000000
# 4 0.000000 0.000000 0.000000 0.019216 0.000000 -0.001353
# 5 0.000549 -0.000934 -0.001506 0.000000 0.015844 0.000000
# 6 0.000000 0.000000 0.000000 -0.001353 0.000000 0.030267
#
#
# Mechanical properties :
#
#
# Convention : Reuss Voigt Hill
#
# Bulk Modulus (GPa) = 35.10145 40.98455 38.04300
# Shear Modulus (GPa) = 38.96189 46.47657 42.71923
#
# Velocity S-wave (km/s) = 3.87970 4.23736 4.06247
# Velocity P-wave (km/s) = 5.79915 6.30665 6.05822
#
# Compressibility (1/GPa) = 0.02848885
#
# Stress axis : x y z
#
# Youngs Moduli (GPa) = 48.86789 85.57246 113.00970
#
# Poissons Ratio (x) = 0.08870 0.65802
# Poissons Ratio (y) = 0.05065 -0.06832
# Poissons Ratio (z) = 0.28454 -0.05173
#
# Static dielectric constant tensor:
#      x y z
#    x 2.151650 0.000000 -0.037360 
#    y 0.000000 2.079300 0.000000 
#    z -0.037360 0.000000 2.054850 
# 
# From -- ./inp_files/5112.got.cif
#   From: 2010.05.17/outbox.cif.g08.bks.cpg/sg4_3_cif.got.tgz:5112.got - 2010.06.03 18:43:04.
