data_PCOD9117415
_publ_section_title
;
Structure prediction by ZEFSAII (Michael W. Deem and Ramdas Pophale) SiO2 
 PCOD9117415
Probable space group: P 21
;
_chemical_formula_sum "Si O2"
_cell_formula_units_Z 16
_cell_length_a 13.028444
_cell_length_b 8.584294
_cell_length_c 11.427461
_cell_angle_alpha 90.000000
_cell_angle_beta 36.985859
_cell_angle_gamma 90.000000
_cell_volume 768.896047
_symmetry_space_group_name_H-M "P 21"
_symmetry_group_IT_number 4
_symmetry_cell_setting 'monoclinic'
loop_
_space_group_symop_operation_xyz
x,y,z
-x,1/2+y,-z
loop_
_atom_site_type_symbol
_atom_site_label
_atom_site_fract_x
_atom_site_fract_y
_atom_site_fract_z
Si Si1 0.788306 0.527050 0.530940
Si Si2 0.879734 0.994152 0.646982
Si Si3 0.505671 0.379128 0.636854
Si Si4 0.566253 0.014782 0.545197
Si Si5 0.109270 0.375732 0.618028
Si Si6 0.339915 0.269271 0.010421
Si Si7 0.736654 0.438183 0.010219
Si Si8 0.672498 0.300044 0.829295
O O1 0.679779 0.456451 0.524570
O O2 0.810776 0.708797 0.487742
O O3 0.701742 0.458750 0.728368
O O4 0.979423 0.469444 0.381154
O O5 0.823606 0.173787 0.693685
O O6 0.936164 0.954103 0.464903
O O7 0.735566 0.874054 0.818084
O O8 0.432928 0.461502 0.589401
O O9 0.377103 0.377325 0.864100
O O10 0.542633 0.199352 0.575958
O O11 0.740360 0.966027 0.451765
O O12 0.397605 0.941867 0.761414
O O13 0.928297 0.371514 0.851879
O O14 0.521978 0.215235 0.896117
O O15 0.243460 0.116737 0.053539
O O16 0.646504 0.344203 0.986974
#
# Coordination Sequence:
#
# PCOD9117415 Si02
#       8
#     2   2   2   2   2   2   2   2
#     4  11  22  40  64  93 134 168 215 266 325 391
#     4  12  22  37  63  99 133 171 213 268 331 388
#     4  10  24  47  68  93 126 173 222 273 330 388
#     4  11  25  47  70  93 129 173 223 277 327 387
#     4  12  24  41  67  96 135 177 212 271 331 387
#     4  10  23  38  66  92 131 175 214 274 326 394
#     4  11  23  41  62 100 130 169 225 262 328 395
#     4  11  21  39  60  98 134 172 218 263 332 394
#
# _framework density 20.809054
#
# number of rings (size 3 to 8) (size 9 to 14) (size 15 to 20)
#    0.000    1.000    2.500    5.250    3.500    4.000 
#    2.250    0.000    0.000    0.000    0.000    0.000 
#    0.000    0.000    0.000    0.000    0.000    0.000 
#
# Total GULP energy -89343.484254 kJ/mol
# GULP energy per Si atom -5583.967766 kJ/mol
# Density = 2.076169 g / cm^3
# Si number density = 20.809054 Si / 1000 Ang^3
#
#
#
# Elastic Constant Matrix: (Units=GPa)
#
#
# Indices 1 2 3 4 5 6 
#
# 1 81.4621 8.8078 19.8911 0.0000 -6.1998 0.0000
# 2 8.8078 34.6417 1.0820 0.0000 -3.3741 0.0000
# 3 19.8911 1.0820 62.1904 0.0000 0.0780 0.0000
# 4 0.0000 0.0000 0.0000 29.0424 0.0000 -2.3411
# 5 -6.1998 -3.3741 0.0780 0.0000 22.9382 0.0000
# 6 0.0000 0.0000 0.0000 -2.3411 0.0000 34.8208
#
#
#
# Elastic Compliance Matrix: (Units=1/GPa)
#
#
# Indices 1 2 3 4 5 6 
#
# 1 0.013939 -0.003082 -0.004409 0.000000 0.003329 0.000000
# 2 -0.003082 0.029984 0.000460 0.000000 0.003576 0.000000
# 3 -0.004409 0.000460 0.017483 0.000000 -0.001183 0.000000
# 4 0.000000 0.000000 0.000000 0.034620 0.000000 0.002328
# 5 0.003329 0.003576 -0.001183 0.000000 0.045025 0.000000
# 6 0.000000 0.000000 0.000000 0.002328 0.000000 0.028875
#
#
# Mechanical properties :
#
#
# Convention : Reuss Voigt Hill
#
# Bulk Modulus (GPa) = 21.12196 26.42844 23.77520
# Shear Modulus (GPa) = 25.02874 27.26117 26.14496
#
# Velocity S-wave (km/s) = 3.47188 3.62341 3.54845
# Velocity P-wave (km/s) = 5.12292 5.49850 5.31403
#
# Compressibility (1/GPa) = 0.04734409
#
# Stress axis : x y z
#
# Youngs Moduli (GPa) = 71.74246 33.35061 57.19761
#
# Poissons Ratio (x) = 0.10279 0.25217
# Poissons Ratio (y) = 0.22111 -0.02629
# Poissons Ratio (z) = 0.31629 -0.01533
#
# Static dielectric constant tensor:
#      x y z
#    x 1.708740 0.000000 -0.014250 
#    y 0.000000 1.749510 0.000000 
#    z -0.014250 0.000000 1.799940 
# 
# From -- ./inp_files/11844.got.cif
#   From: 2010.05.17/outbox.cif.g08.bks.cpg/sg4_6_cif.got.tgz:11844.got - 2010.06.03 18:43:04.
