data_PCOD9117090
_publ_section_title
;
Structure prediction by ZEFSAII (Michael W. Deem and Ramdas Pophale) SiO2 
 PCOD9117090
Probable space group: P 21
;
_chemical_formula_sum "Si O2"
_cell_formula_units_Z 14
_cell_length_a 11.733765
_cell_length_b 5.254903
_cell_length_c 9.090236
_cell_angle_alpha 90.000000
_cell_angle_beta 102.207416
_cell_angle_gamma 90.000000
_cell_volume 547.828331
_symmetry_space_group_name_H-M "P 21"
_symmetry_group_IT_number 4
_symmetry_cell_setting 'monoclinic'
loop_
_space_group_symop_operation_xyz
x,y,z
-x,1/2+y,-z
loop_
_atom_site_type_symbol
_atom_site_label
_atom_site_fract_x
_atom_site_fract_y
_atom_site_fract_z
Si Si1 0.055955 0.501610 0.952820
Si Si2 0.342015 0.177011 0.491869
Si Si3 0.726964 0.306067 0.947995
Si Si4 0.865500 0.496958 0.710129
Si Si5 0.918319 0.140460 0.485314
Si Si6 0.489215 0.985124 0.265044
Si Si7 0.692991 0.283011 0.255988
O O1 0.192758 0.553423 0.009251
O O2 0.009901 0.216468 0.966392
O O3 0.997616 0.571370 0.780544
O O4 0.207576 0.189133 0.409815
O O5 0.406577 0.135864 0.354878
O O6 0.343068 0.954357 0.614745
O O7 0.413728 0.386595 0.594825
O O8 0.798542 0.464578 0.846075
O O9 0.597579 0.293894 0.843269
O O10 0.726295 0.422115 0.112384
O O11 0.863945 0.225939 0.628717
O O12 0.805759 0.129579 0.346439
O O13 0.996030 0.399571 0.481268
O O14 0.574774 0.133874 0.179688
#
# Coordination Sequence:
#
# PCOD9117090 Si02
#       7
#     2   2   2   2   2   2   2
#     4  10  22  45  69 102 142 184 230 287 355 427
#     4  10  22  43  68  97 133 182 237 289 347 425
#     4  10  24  44  65 104 137 183 235 286 362 420
#     4   9  22  44  71 102 139 184 233 293 359 422
#     4  11  26  46  73 105 141 186 239 296 355 423
#     4  11  23  44  68  98 135 186 235 287 356 417
#     4  11  25  44  66 102 139 181 235 296 354 424
#
# _framework density 25.55545
#
# number of rings (size 3 to 8) (size 9 to 14) (size 15 to 20)
#    0.000    1.714    1.429    0.857    6.000    8.000 
#   10.286    0.000    0.000    0.000    0.000    0.000 
#    0.000    0.000    0.000    0.000    0.000    0.000 
#
# Total GULP energy -78056.017992 kJ/mol
# GULP energy per Si atom -5575.429857 kJ/mol
# Density = 2.549728 g / cm^3
# Si number density = 25.555450 Si / 1000 Ang^3
#
#
#
# Elastic Constant Matrix: (Units=GPa)
#
#
# Indices 1 2 3 4 5 6 
#
# 1 149.5699 28.3155 47.1682 0.0000 -1.1777 0.0000
# 2 28.3155 53.4569 17.7140 0.0000 -3.0325 0.0000
# 3 47.1682 17.7140 128.2332 0.0000 13.5833 0.0000
# 4 0.0000 0.0000 0.0000 30.2987 0.0000 4.1865
# 5 -1.1777 -3.0325 13.5833 0.0000 26.0439 0.0000
# 6 0.0000 0.0000 0.0000 4.1865 0.0000 26.6905
#
#
#
# Elastic Compliance Matrix: (Units=1/GPa)
#
#
# Indices 1 2 3 4 5 6 
#
# 1 0.008182 -0.003364 -0.002691 0.000000 0.001382 0.000000
# 2 -0.003364 0.021371 -0.002077 0.000000 0.003420 0.000000
# 3 -0.002691 -0.002077 0.009647 0.000000 -0.005395 0.000000
# 4 0.000000 0.000000 0.000000 0.033736 0.000000 -0.005292
# 5 0.001382 0.003420 -0.005395 0.000000 0.041671 0.000000
# 6 0.000000 0.000000 0.000000 -0.005292 0.000000 0.038296
#
#
# Mechanical properties :
#
#
# Convention : Reuss Voigt Hill
#
# Bulk Modulus (GPa) = 43.60128 57.51727 50.55927
# Shear Modulus (GPa) = 28.27853 32.47745 30.37799
#
# Velocity S-wave (km/s) = 3.33010 3.56878 3.45151
# Velocity P-wave (km/s) = 5.64664 6.28787 5.97586
#
# Compressibility (1/GPa) = 0.02293511
#
# Stress axis : x y z
#
# Youngs Moduli (GPa) = 122.21509 46.79305 103.66297
#
# Poissons Ratio (x) = 0.15740 0.27900
# Poissons Ratio (y) = 0.41111 0.21531
# Poissons Ratio (z) = 0.32893 0.09719
#
# Static dielectric constant tensor:
#      x y z
#    x 2.138290 0.000000 -0.094210 
#    y 0.000000 2.112080 0.000000 
#    z -0.094210 0.000000 2.141880 
# 
# From -- ./inp_files/7395.got.cif
#   From: 2010.05.17/outbox.cif.g08.bks.cpg/sg4_4_cif.got.tgz:7395.got - 2010.06.03 18:43:04.
