data_PCOD9117693
_publ_section_title
;
Structure prediction by ZEFSAII (Michael W. Deem and Ramdas Pophale) SiO2 
 PCOD9117693
Probable space group: P 21
;
_chemical_formula_sum "Si O2"
_cell_formula_units_Z 16
_cell_length_a 6.555996
_cell_length_b 13.233226
_cell_length_c 8.987808
_cell_angle_alpha 90.000000
_cell_angle_beta 105.370365
_cell_angle_gamma 90.000000
_cell_volume 751.865261
_symmetry_space_group_name_H-M "P 21"
_symmetry_group_IT_number 4
_symmetry_cell_setting 'monoclinic'
loop_
_space_group_symop_operation_xyz
x,y,z
-x,1/2+y,-z
loop_
_atom_site_type_symbol
_atom_site_label
_atom_site_fract_x
_atom_site_fract_y
_atom_site_fract_z
Si Si1 0.200308 0.012980 0.719571
Si Si2 0.824994 0.157337 0.211474
Si Si3 0.105351 0.466446 0.592334
Si Si4 0.949341 0.141730 0.897354
Si Si5 0.234853 0.285127 0.398637
Si Si6 0.773443 0.829109 0.140802
Si Si7 0.493300 0.832589 0.834637
Si Si8 0.495313 0.192439 0.701250
O O1 0.048323 0.049265 0.823407
O O2 0.389436 0.092136 0.745548
O O3 0.297729 0.904422 0.763192
O O4 0.085575 0.013070 0.538135
O O5 0.617073 0.226001 0.147689
O O6 0.017530 0.224415 0.320607
O O7 0.777994 0.063246 0.312606
O O8 0.899331 0.122927 0.060781
O O9 0.199200 0.386881 0.490033
O O10 0.068914 0.395937 0.730037
O O11 0.109711 0.235999 0.914906
O O12 0.742641 0.178669 0.767730
O O13 0.351805 0.317421 0.272509
O O14 0.398796 0.214547 0.521022
O O15 0.598784 0.783070 0.218374
O O16 0.634633 0.883109 0.990088
#
# Coordination Sequence:
#
# PCOD9117693 Si02
#       8
#     2   2   2   2   2   2   2   2
#     4  11  26  42  68 102 140 179 235 287 349 418
#     4  12  25  47  71 101 142 185 239 291 346 421
#     4  11  26  46  67 102 141 181 233 293 342 420
#     4  11  25  45  72 100 140 186 228 294 350 411
#     4  11  25  45  70 101 141 187 231 288 351 415
#     4  10  24  46  67 103 140 178 238 284 347 420
#     4  12  26  43  71 102 140 185 231 288 354 416
#     4  10  23  44  68  97 136 181 229 283 347 415
#
# _framework density 21.280407
#
# number of rings (size 3 to 8) (size 9 to 14) (size 15 to 20)
#    0.000    1.000    5.000    0.000    7.000    1.000 
#    0.000    0.000    0.000    0.000    0.000    0.000 
#    0.000    0.000    0.000    0.000    0.000    0.000 
#
# Total GULP energy -89303.220994 kJ/mol
# GULP energy per Si atom -5581.451312 kJ/mol
# Density = 2.123197 g / cm^3
# Si number density = 21.280407 Si / 1000 Ang^3
#
#
#
# Elastic Constant Matrix: (Units=GPa)
#
#
# Indices 1 2 3 4 5 6 
#
# 1 50.9203 13.9411 17.5807 0.0000 3.4840 0.0000
# 2 13.9411 69.6079 21.5399 0.0000 -11.5491 0.0000
# 3 17.5807 21.5399 119.1958 0.0000 -0.4255 0.0000
# 4 0.0000 0.0000 0.0000 37.7785 0.0000 0.7920
# 5 3.4840 -11.5491 -0.4255 0.0000 28.7451 0.0000
# 6 0.0000 0.0000 0.0000 0.7920 0.0000 16.7530
#
#
#
# Elastic Compliance Matrix: (Units=1/GPa)
#
#
# Indices 1 2 3 4 5 6 
#
# 1 0.021996 -0.004382 -0.002468 0.000000 -0.004463 0.000000
# 2 -0.004382 0.017230 -0.002441 0.000000 0.007418 0.000000
# 3 -0.002468 -0.002441 0.009193 0.000000 -0.000545 0.000000
# 4 0.000000 0.000000 0.000000 0.026496 0.000000 -0.001253
# 5 -0.004463 0.007418 -0.000545 0.000000 0.038302 0.000000
# 6 0.000000 0.000000 0.000000 -0.001253 0.000000 0.059750
#
#
# Mechanical properties :
#
#
# Convention : Reuss Voigt Hill
#
# Bulk Modulus (GPa) = 33.51642 38.42749 35.97195
# Shear Modulus (GPa) = 24.81461 29.09946 26.95703
#
# Velocity S-wave (km/s) = 3.41849 3.70189 3.56301
# Velocity P-wave (km/s) = 5.60049 6.03066 5.81955
#
# Compressibility (1/GPa) = 0.02983612
#
# Stress axis : x y z
#
# Youngs Moduli (GPa) = 45.46312 58.03898 108.78140
#
# Poissons Ratio (x) = 0.25433 0.26851
# Poissons Ratio (y) = 0.19922 0.26551
# Poissons Ratio (z) = 0.11222 0.14166
#
# Static dielectric constant tensor:
#      x y z
#    x 1.728020 0.000000 0.001600 
#    y 0.000000 1.792030 0.000000 
#    z 0.001600 0.000000 1.771500 
# 
# From -- ./inp_files/1649.got.cif
#   From: 2010.05.17/outbox.cif.g08.bks.cpg/sg4_1_cif.got.tgz:1649.got - 2010.06.03 18:43:04.
