data_PCOD9117272
_publ_section_title
;
Structure prediction by ZEFSAII (Michael W. Deem and Ramdas Pophale) SiO2 
 PCOD9117272
Probable space group: P 21
;
_chemical_formula_sum "Si O2"
_cell_formula_units_Z 14
_cell_length_a 6.989764
_cell_length_b 15.296600
_cell_length_c 5.681573
_cell_angle_alpha 90.000000
_cell_angle_beta 111.909032
_cell_angle_gamma 90.000000
_cell_volume 563.598494
_symmetry_space_group_name_H-M "P 21"
_symmetry_group_IT_number 4
_symmetry_cell_setting 'monoclinic'
loop_
_space_group_symop_operation_xyz
x,y,z
-x,1/2+y,-z
loop_
_atom_site_type_symbol
_atom_site_label
_atom_site_fract_x
_atom_site_fract_y
_atom_site_fract_z
Si Si1 0.122982 0.656920 0.871285
Si Si2 0.742288 0.328267 0.290279
Si Si3 0.404870 0.776143 0.275435
Si Si4 0.410857 0.489713 0.873164
Si Si5 0.870239 0.513536 0.197744
Si Si6 0.669692 0.991190 0.659162
Si Si7 0.294814 0.129731 0.477051
O O1 0.134723 0.737133 0.687547
O O2 0.882101 0.637053 0.800076
O O3 0.228965 0.702436 0.144942
O O4 0.095909 0.521562 0.194781
O O5 0.651227 0.326653 0.511809
O O6 0.604047 0.322865 0.983934
O O7 0.868742 0.417195 0.318476
O O8 0.272091 0.579018 0.842760
O O9 0.652913 0.511792 0.961319
O O10 0.337543 0.445492 0.598692
O O11 0.612387 0.723171 0.417698
O O12 0.383188 0.446451 0.117767
O O13 0.836719 0.587301 0.374685
O O14 0.493269 0.065696 0.547682
#
# Coordination Sequence:
#
# PCOD9117272 Si02
#       7
#     2   2   2   2   2   2   2
#     4  10  22  45  69 103 135 187 235 286 343 421
#     4  10  24  47  68 100 148 184 231 292 361 417
#     4  10  23  47  66 103 139 182 242 280 351 422
#     4  11  24  42  70 102 134 181 237 281 343 414
#     4  11  24  45  74 102 149 180 236 299 355 409
#     4  11  24  41  66 103 135 173 234 282 348 404
#     4  11  23  45  77 103 138 191 241 292 339 431
#
# _framework density 24.840375000000002
#
# number of rings (size 3 to 8) (size 9 to 14) (size 15 to 20)
#    0.857    0.571    4.286    0.857    2.000    3.429 
#   12.857    0.000    0.000    0.000    0.000    0.000 
#    0.000    0.000    0.000    0.000    0.000    0.000 
#
# Total GULP energy -78076.348237 kJ/mol
# GULP energy per Si atom -5576.882017 kJ/mol
# Density = 2.478384 g / cm^3
# Si number density = 24.840375 Si / 1000 Ang^3
#
#
#
# Elastic Constant Matrix: (Units=GPa)
#
#
# Indices 1 2 3 4 5 6 
#
# 1 193.3876 50.8049 79.4730 0.0000 16.8058 0.0000
# 2 50.8049 64.4604 7.6527 0.0000 -14.8962 0.0000
# 3 79.4730 7.6527 175.4041 0.0000 -4.5954 0.0000
# 4 0.0000 0.0000 0.0000 31.7133 0.0000 -9.7364
# 5 16.8058 -14.8962 -4.5954 0.0000 53.0295 0.0000
# 6 0.0000 0.0000 0.0000 -9.7364 0.0000 11.7702
#
#
#
# Elastic Compliance Matrix: (Units=1/GPa)
#
#
# Indices 1 2 3 4 5 6 
#
# 1 0.009561 -0.008373 -0.004117 0.000000 -0.005739 0.000000
# 2 -0.008373 0.023987 0.003000 0.000000 0.009652 0.000000
# 3 -0.004117 0.003000 0.007509 0.000000 0.002798 0.000000
# 4 0.000000 0.000000 0.000000 0.042267 0.000000 0.034964
# 5 -0.005739 0.009652 0.002798 0.000000 0.023630 0.000000
# 6 0.000000 0.000000 0.000000 0.034964 0.000000 0.113883
#
#
# Mechanical properties :
#
#
# Convention : Reuss Voigt Hill
#
# Bulk Modulus (GPa) = 45.29639 78.79036 62.04338
# Shear Modulus (GPa) = 20.22843 38.99069 29.60956
#
# Velocity S-wave (km/s) = 2.85675 3.96618 3.45627
# Velocity P-wave (km/s) = 5.39963 7.26372 6.39991
#
# Compressibility (1/GPa) = 0.02207682
#
# Stress axis : x y z
#
# Youngs Moduli (GPa) = 104.58701 41.68903 133.17414
#
# Poissons Ratio (x) = 0.34908 0.54830
# Poissons Ratio (y) = 0.87574 -0.39954
# Poissons Ratio (z) = 0.43060 -0.12507
#
# Static dielectric constant tensor:
#      x y z
#    x 1.965560 0.000000 0.011670 
#    y 0.000000 2.078560 0.000000 
#    z 0.011670 0.000000 2.059140 
# 
# From -- ./inp_files/3182.got.cif
#   From: 2010.05.17/outbox.cif.g08.bks.cpg/sg4_2_cif.got.tgz:3182.got - 2010.06.03 18:43:04.
