data_PCOD9117969
_publ_section_title
;
Structure prediction by ZEFSAII (Michael W. Deem and Ramdas Pophale) SiO2 
 PCOD9117969
Probable space group: P 21
;
_chemical_formula_sum "Si O2"
_cell_formula_units_Z 12
_cell_length_a 5.463577
_cell_length_b 16.610226
_cell_length_c 4.810239
_cell_angle_alpha 90.000000
_cell_angle_beta 126.604539
_cell_angle_gamma 90.000000
_cell_volume 350.437464
_symmetry_space_group_name_H-M "P 21"
_symmetry_group_IT_number 4
_symmetry_cell_setting 'monoclinic'
loop_
_space_group_symop_operation_xyz
x,y,z
-x,1/2+y,-z
loop_
_atom_site_type_symbol
_atom_site_label
_atom_site_fract_x
_atom_site_fract_y
_atom_site_fract_z
Si Si1 0.165203 0.591830 0.937492
Si Si2 0.326058 0.200627 0.564511
Si Si3 0.396900 0.413406 0.982849
Si Si4 0.426962 0.492068 0.581245
Si Si5 0.761858 0.240780 0.338228
Si Si6 0.951375 0.367494 0.148741
O O1 0.235269 0.561161 0.287946
O O2 0.371022 0.672871 0.998424
O O3 0.816531 0.616370 0.666702
O O4 0.290040 0.523926 0.814136
O O5 0.565274 0.234401 0.489189
O O6 0.625352 0.328291 0.111105
O O7 0.078472 0.199477 0.666580
O O8 0.095342 0.374878 0.937512
O O9 0.214069 0.408646 0.528868
O O10 0.545265 0.452257 0.367058
O O11 0.707693 0.447621 0.962217
O O12 0.057960 0.272930 0.297687
#
# Coordination Sequence:
#
# PCOD9117969 Si02
#       6
#     2   2   2   2   2   2
#     4   8  16  35  65  95 135 184 229 295 340 426
#     4   6  16  30  60  92 128 176 226 280 346 398
#     4  10  26  40  72  98 140 180 232 290 354 426
#     4  10  24  42  68 104 136 187 228 294 350 425
#     4   8  16  35  65  95 135 184 229 295 340 426
#     4  10  24  42  68 104 136 187 228 294 350 425
#
# _framework density 34.242913000000001
#
# number of rings (size 3 to 8) (size 9 to 14) (size 15 to 20)
#    3.000    0.000    0.000    0.000    7.000    0.000 
#    0.000    0.000   14.667    0.000    0.000    0.000 
#    0.000    0.000    0.000    0.000    0.000    0.000 
#
# Total GULP energy -66885.343568 kJ/mol
# GULP energy per Si atom -5573.778631 kJ/mol
# Density = 3.416497 g / cm^3
# Si number density = 34.242913 Si / 1000 Ang^3
#
#
#
# Elastic Constant Matrix: (Units=GPa)
#
#
# Indices 1 2 3 4 5 6 
#
# 1 342.2976 72.8671 112.9128 0.0000 7.6906 0.0000
# 2 72.8671 205.1137 101.7176 0.0000 5.3639 0.0000
# 3 112.9128 101.7176 299.8708 0.0000 -34.2843 0.0000
# 4 0.0000 0.0000 0.0000 90.7440 0.0000 -11.3366
# 5 7.6906 5.3639 -34.2843 0.0000 119.6134 0.0000
# 6 0.0000 0.0000 0.0000 -11.3366 0.0000 74.2227
#
#
#
# Elastic Compliance Matrix: (Units=1/GPa)
#
#
# Indices 1 2 3 4 5 6 
#
# 1 0.003446 -0.000647 -0.001138 0.000000 -0.000519 0.000000
# 2 -0.000647 0.006070 -0.001904 0.000000 -0.000776 0.000000
# 3 -0.001138 -0.001904 0.004577 0.000000 0.001470 0.000000
# 4 0.000000 0.000000 0.000000 0.011234 0.000000 0.001716
# 5 -0.000519 -0.000776 0.001470 0.000000 0.008850 0.000000
# 6 0.000000 0.000000 0.000000 0.001716 0.000000 0.013735
#
#
# Mechanical properties :
#
#
# Convention : Reuss Voigt Hill
#
# Bulk Modulus (GPa) = 148.89238 158.03079 153.46158
# Shear Modulus (GPa) = 86.91547 94.23500 90.57524
#
# Velocity S-wave (km/s) = 5.04352 5.25160 5.14861
# Velocity P-wave (km/s) = 8.80294 9.11167 8.95864
#
# Compressibility (1/GPa) = 0.00671626
#
# Stress axis : x y z
#
# Youngs Moduli (GPa) = 290.19617 164.75504 218.47848
#
# Poissons Ratio (x) = 0.10652 0.24852
# Poissons Ratio (y) = 0.18761 0.41602
# Poissons Ratio (z) = 0.33010 0.31372
#
# Static dielectric constant tensor:
#      x y z
#    x 2.567770 0.000000 0.217790 
#    y 0.000000 2.973020 0.000000 
#    z 0.217790 0.000000 2.535370 
# 
# From -- ./inp_files/493.got.cif
#   From: 2010.05.17/outbox.cif.g08.bks.cpg/sg4_1_cif.got.tgz:493.got - 2010.06.03 18:43:04.
