data_PCOD9117301
_publ_section_title
;
Structure prediction by ZEFSAII (Michael W. Deem and Ramdas Pophale) SiO2 
 PCOD9117301
Probable space group: P 21
;
_chemical_formula_sum "Si O2"
_cell_formula_units_Z 16
_cell_length_a 13.481465
_cell_length_b 9.839222
_cell_length_c 5.675295
_cell_angle_alpha 90.000000
_cell_angle_beta 58.316509
_cell_angle_gamma 90.000000
_cell_volume 640.614408
_symmetry_space_group_name_H-M "P 21"
_symmetry_group_IT_number 4
_symmetry_cell_setting 'monoclinic'
loop_
_space_group_symop_operation_xyz
x,y,z
-x,1/2+y,-z
loop_
_atom_site_type_symbol
_atom_site_label
_atom_site_fract_x
_atom_site_fract_y
_atom_site_fract_z
Si Si1 0.347764 0.733220 0.562607
Si Si2 0.055235 0.078039 0.898873
Si Si3 0.403276 0.943499 0.125342
Si Si4 0.947616 0.877411 0.650656
Si Si5 0.174760 0.560613 0.575327
Si Si6 0.177907 0.879753 0.111155
Si Si7 0.217392 0.286559 0.775131
Si Si8 0.467360 0.204431 0.308127
O O1 0.397743 0.870287 0.387417
O O2 0.284819 0.658073 0.423719
O O3 0.443381 0.658194 0.599582
O O4 0.246326 0.769648 0.872805
O O5 0.133735 0.199971 0.706309
O O6 0.011532 0.970218 0.765649
O O7 0.939351 0.131202 0.173271
O O8 0.133285 0.995199 0.988210
O O9 0.273633 0.939734 0.173297
O O10 0.449384 0.093942 0.123918
O O11 0.483858 0.845627 0.863510
O O12 0.059570 0.820197 0.371765
O O13 0.871302 0.980795 0.591033
O O14 0.854086 0.780400 0.892218
O O15 0.216172 0.442761 0.702003
O O16 0.345079 0.229121 0.590524
#
# Coordination Sequence:
#
# PCOD9117301 Si02
#       8
#     2   2   2   2   2   2   2   2
#     4  11  26  47  75 102 151 194 254 307 366 448
#     4  10  23  44  70 104 146 185 238 305 370 446
#     4  11  27  48  81 107 150 202 253 314 371 451
#     4  10  23  44  71 109 146 188 240 303 381 450
#     4  10  26  42  69 109 144 195 244 299 376 443
#     4  10  22  45  73 109 141 193 244 301 381 443
#     4  11  25  46  71 106 148 190 248 312 371 444
#     4  11  28  50  78 112 148 201 257 311 378 437
#
# _framework density 24.976023999999999
#
# number of rings (size 3 to 8) (size 9 to 14) (size 15 to 20)
#    0.000    1.500    0.000    2.250   10.500   10.000 
#    2.250    0.000    0.000    0.000    0.000    0.000 
#    0.000    0.000    0.000    0.000    0.000    0.000 
#
# Total GULP energy -89594.010066 kJ/mol
# GULP energy per Si atom -5599.625629 kJ/mol
# Density = 2.491918 g / cm^3
# Si number density = 24.976024 Si / 1000 Ang^3
#
#
#
# Elastic Constant Matrix: (Units=GPa)
#
#
# Indices 1 2 3 4 5 6 
#
# 1 175.6648 37.9784 45.7118 0.0000 -15.5816 0.0000
# 2 37.9784 54.8166 16.4092 0.0000 -24.1895 0.0000
# 3 45.7118 16.4092 112.3498 0.0000 -25.2494 0.0000
# 4 0.0000 0.0000 0.0000 31.9456 0.0000 -2.0752
# 5 -15.5816 -24.1895 -25.2494 0.0000 42.2110 0.0000
# 6 0.0000 0.0000 0.0000 -2.0752 0.0000 38.7274
#
#
#
# Elastic Compliance Matrix: (Units=1/GPa)
#
#
# Indices 1 2 3 4 5 6 
#
# 1 0.007316 -0.005064 -0.002637 0.000000 -0.001779 0.000000
# 2 -0.005064 0.027946 0.001338 0.000000 0.014946 0.000000
# 3 -0.002637 0.001338 0.011243 0.000000 0.006519 0.000000
# 4 0.000000 0.000000 0.000000 0.031413 0.000000 0.001683
# 5 -0.001779 0.014946 0.006519 0.000000 0.035498 0.000000
# 6 0.000000 0.000000 0.000000 0.001683 0.000000 0.025912
#
#
# Mechanical properties :
#
#
# Convention : Reuss Voigt Hill
#
# Bulk Modulus (GPa) = 29.60451 60.33665 44.97058
# Shear Modulus (GPa) = 30.61595 38.75893 34.68744
#
# Velocity S-wave (km/s) = 3.50496 3.94362 3.73074
# Velocity P-wave (km/s) = 5.31588 6.70421 6.05000
#
# Compressibility (1/GPa) = 0.03377863
#
# Stress axis : x y z
#
# Youngs Moduli (GPa) = 136.68847 35.78312 88.94264
#
# Poissons Ratio (x) = 0.18122 0.23452
# Poissons Ratio (y) = 0.69223 -0.11898
# Poissons Ratio (z) = 0.36041 -0.04787
#
# Static dielectric constant tensor:
#      x y z
#    x 1.941340 0.000000 0.037150 
#    y 0.000000 1.976710 0.000000 
#    z 0.037150 0.000000 2.001320 
# 
# From -- ./inp_files/3034.got.cif
#   From: 2010.05.17/outbox.cif.g08.bks.cpg/sg4_2_cif.got.tgz:3034.got - 2010.06.03 18:43:04.
