data_PCOD9117118
_publ_section_title
;
Structure prediction by ZEFSAII (Michael W. Deem and Ramdas Pophale) SiO2 
 PCOD9117118
Probable space group: P 21
;
_chemical_formula_sum "Si O2"
_cell_formula_units_Z 16
_cell_length_a 11.556329
_cell_length_b 10.669777
_cell_length_c 5.191530
_cell_angle_alpha 90.000000
_cell_angle_beta 110.719143
_cell_angle_gamma 90.000000
_cell_volume 598.733501
_symmetry_space_group_name_H-M "P 21"
_symmetry_group_IT_number 4
_symmetry_cell_setting 'monoclinic'
loop_
_space_group_symop_operation_xyz
x,y,z
-x,1/2+y,-z
loop_
_atom_site_type_symbol
_atom_site_label
_atom_site_fract_x
_atom_site_fract_y
_atom_site_fract_z
Si Si1 0.299943 0.766620 0.758839
Si Si2 0.181786 0.018108 0.158842
Si Si3 0.837147 0.073918 0.672205
Si Si4 0.496930 0.669619 0.299146
Si Si5 0.610035 0.921491 0.521123
Si Si6 0.415541 0.991185 0.992478
Si Si7 0.915894 0.626214 0.411316
Si Si8 0.060860 0.782831 0.861854
O O1 0.272053 0.661985 0.530973
O O2 0.373062 0.719529 0.065944
O O3 0.165526 0.808921 0.734813
O O4 0.373151 0.889859 0.747598
O O5 0.143173 0.124189 0.917874
O O6 0.315893 0.982127 0.147918
O O7 0.167828 0.057844 0.441752
O O8 0.080526 0.904752 0.051780
O O9 0.947797 0.065226 0.547503
O O10 0.897938 0.157584 0.948494
O O11 0.756513 0.950300 0.670449
O O12 0.565311 0.776500 0.520158
O O13 0.457817 0.536631 0.386860
O O14 0.580961 0.628566 0.122923
O O15 0.551734 0.948435 0.190947
O O16 0.945264 0.752676 0.590923
#
# Coordination Sequence:
#
# PCOD9117118 Si02
#       8
#     2   2   2   2   2   2   2   2
#     4   9  20  37  69  96 133 184 243 297 348 447
#     4  11  26  45  72 102 143 186 253 295 369 444
#     4  11  21  44  71 104 140 184 251 303 368 439
#     4  11  23  41  65 106 148 191 237 299 381 429
#     4  11  25  42  69 106 145 188 240 305 370 446
#     4  10  24  42  66 102 139 191 235 307 364 438
#     4  11  25  46  68 103 136 188 240 309 359 434
#     4  10  22  43  72 101 130 192 239 303 359 437
#
# _framework density 26.723072999999999
#
# number of rings (size 3 to 8) (size 9 to 14) (size 15 to 20)
#    0.000    1.500    3.750    0.000    8.750    0.000 
#    4.500    0.000    0.000    0.000    0.000    0.000 
#    0.000    0.000    0.000    0.000    0.000    0.000 
#
# Total GULP energy -89256.833114 kJ/mol
# GULP energy per Si atom -5578.552070 kJ/mol
# Density = 2.666225 g / cm^3
# Si number density = 26.723073 Si / 1000 Ang^3
#
#
#
# Elastic Constant Matrix: (Units=GPa)
#
#
# Indices 1 2 3 4 5 6 
#
# 1 77.3651 27.4412 18.1012 0.0000 -21.4910 0.0000
# 2 27.4412 88.8935 16.4681 0.0000 -16.1632 0.0000
# 3 18.1012 16.4681 79.3803 0.0000 -11.1852 0.0000
# 4 0.0000 0.0000 0.0000 51.2082 0.0000 4.7343
# 5 -21.4910 -16.1632 -11.1852 0.0000 43.0842 0.0000
# 6 0.0000 0.0000 0.0000 4.7343 0.0000 45.0596
#
#
#
# Elastic Compliance Matrix: (Units=1/GPa)
#
#
# Indices 1 2 3 4 5 6 
#
# 1 0.016430 -0.003529 -0.002124 0.000000 0.006320 0.000000
# 2 -0.003529 0.013125 -0.001528 0.000000 0.002767 0.000000
# 3 -0.002124 -0.001528 0.013669 0.000000 0.001916 0.000000
# 4 0.000000 0.000000 0.000000 0.019720 0.000000 -0.002072
# 5 0.006320 0.002767 0.001916 0.000000 0.027898 0.000000
# 6 0.000000 0.000000 0.000000 -0.002072 0.000000 0.022411
#
#
# Mechanical properties :
#
#
# Convention : Reuss Voigt Hill
#
# Bulk Modulus (GPa) = 34.64851 41.07333 37.86092
# Shear Modulus (GPa) = 36.43360 40.11226 38.27293
#
# Velocity S-wave (km/s) = 3.69640 3.87852 3.78855
# Velocity P-wave (km/s) = 5.58675 5.95488 5.77375
#
# Compressibility (1/GPa) = 0.02886127
#
# Stress axis : x y z
#
# Youngs Moduli (GPa) = 60.86378 76.18991 73.15875
#
# Poissons Ratio (x) = 0.26890 0.15538
# Poissons Ratio (y) = 0.21481 0.11181
# Poissons Ratio (z) = 0.12927 0.11644
#
# Static dielectric constant tensor:
#      x y z
#    x 2.149160 0.000000 0.027100 
#    y 0.000000 2.240970 0.000000 
#    z 0.027100 0.000000 2.176310 
# 
# From -- ./inp_files/2882.got.cif
#   From: 2010.05.17/outbox.cif.g08.bks.cpg/sg4_2_cif.got.tgz:2882.got - 2010.06.03 18:43:04.
