data_PCOD9117438
_publ_section_title
;
Structure prediction by ZEFSAII (Michael W. Deem and Ramdas Pophale) SiO2 
 PCOD9117438
Probable space group: P 21
;
_chemical_formula_sum "Si O2"
_cell_formula_units_Z 14
_cell_length_a 9.986843
_cell_length_b 11.595548
_cell_length_c 4.977693
_cell_angle_alpha 90.000000
_cell_angle_beta 107.016366
_cell_angle_gamma 90.000000
_cell_volume 551.195900
_symmetry_space_group_name_H-M "P 21"
_symmetry_group_IT_number 4
_symmetry_cell_setting 'monoclinic'
loop_
_space_group_symop_operation_xyz
x,y,z
-x,1/2+y,-z
loop_
_atom_site_type_symbol
_atom_site_label
_atom_site_fract_x
_atom_site_fract_y
_atom_site_fract_z
Si Si1 0.300527 0.001990 0.490862
Si Si2 0.647689 0.758301 0.470853
Si Si3 0.116668 0.684256 0.198878
Si Si4 0.888831 0.492282 0.113569
Si Si5 0.240690 0.577344 0.784276
Si Si6 0.065392 0.353169 0.568272
Si Si7 0.549022 0.889910 0.921836
O O1 0.376630 0.124295 0.491845
O O2 0.181349 0.020633 0.642617
O O3 0.404588 0.911716 0.685872
O O4 0.230716 0.967713 0.170954
O O5 0.800559 0.777098 0.428559
O O6 0.641880 0.828442 0.745786
O O7 0.545388 0.811997 0.185978
O O8 0.223774 0.626047 0.475892
O O9 0.982827 0.599912 0.081764
O O10 0.047480 0.791613 0.310942
O O11 0.197667 0.676817 0.966142
O O12 0.991475 0.388135 0.247146
O O13 0.128650 0.471094 0.727745
O O14 0.383205 0.511492 0.943844
#
# Coordination Sequence:
#
# PCOD9117438 Si02
#       7
#     2   2   2   2   2   2   2
#     4  12  25  45  69  98 137 174 227 278 328 400
#     4  11  24  45  74  95 127 190 222 265 349 403
#     4  11  22  40  67  96 134 168 216 274 339 399
#     4  11  23  41  65 103 131 168 220 280 330 396
#     4  10  23  40  63  98 125 175 224 271 328 400
#     4  10  23  43  70  98 139 174 221 279 346 409
#     4  11  24  46  68  94 133 179 230 273 320 403
#
# _framework density 25.399317
#
# number of rings (size 3 to 8) (size 9 to 14) (size 15 to 20)
#    0.000    1.143    1.429    6.000    2.000    4.571 
#    7.714    0.000    0.000    0.000    0.000    0.000 
#    0.000    0.000    0.000    0.000    0.000    0.000 
#
# Total GULP energy -78462.774341 kJ/mol
# GULP energy per Si atom -5604.483881 kJ/mol
# Density = 2.534151 g / cm^3
# Si number density = 25.399317 Si / 1000 Ang^3
#
#
#
# Elastic Constant Matrix: (Units=GPa)
#
#
# Indices 1 2 3 4 5 6 
#
# 1 17.9476 0.9603 5.9174 0.0000 -3.5765 0.0000
# 2 0.9603 63.2278 25.5372 0.0000 12.9195 0.0000
# 3 5.9174 25.5372 172.1214 0.0000 16.3770 0.0000
# 4 0.0000 0.0000 0.0000 24.2483 0.0000 -3.9515
# 5 -3.5765 12.9195 16.3770 0.0000 41.5390 0.0000
# 6 0.0000 0.0000 0.0000 -3.9515 0.0000 19.5195
#
#
#
# Elastic Compliance Matrix: (Units=1/GPa)
#
#
# Indices 1 2 3 4 5 6 
#
# 1 0.057832 -0.001192 -0.002411 0.000000 0.006301 0.000000
# 2 -0.001192 0.017665 -0.002127 0.000000 -0.004758 0.000000
# 3 -0.002411 -0.002127 0.006405 0.000000 -0.002071 0.000000
# 4 0.000000 0.000000 0.000000 0.042647 0.000000 0.008633
# 5 0.006301 -0.004758 -0.002071 0.000000 0.026913 0.000000
# 6 0.000000 0.000000 0.000000 0.008633 0.000000 0.052978
#
#
# Mechanical properties :
#
#
# Convention : Reuss Voigt Hill
#
# Bulk Modulus (GPa) = 14.19598 35.34740 24.77169
# Shear Modulus (GPa) = 20.88713 31.78683 26.33698
#
# Velocity S-wave (km/s) = 2.87078 3.54147 3.22361
# Velocity P-wave (km/s) = 4.07305 5.53801 4.86103
#
# Compressibility (1/GPa) = 0.07044250
#
# Stress axis : x y z
#
# Youngs Moduli (GPa) = 17.29148 56.60793 156.11749
#
# Poissons Ratio (x) = 0.06748 0.37638
# Poissons Ratio (y) = 0.02061 0.33210
# Poissons Ratio (z) = 0.04169 0.12042
#
# Static dielectric constant tensor:
#      x y z
#    x 1.991180 0.000000 0.020520 
#    y 0.000000 2.082650 0.000000 
#    z 0.020520 0.000000 1.959580 
# 
# From -- ./inp_files/3100.got.cif
#   From: 2010.05.17/outbox.cif.g08.bks.cpg/sg4_2_cif.got.tgz:3100.got - 2010.06.03 18:43:04.
