data_PCOD9117243
_publ_section_title
;
Structure prediction by ZEFSAII (Michael W. Deem and Ramdas Pophale) SiO2 
 PCOD9117243
Probable space group: P 21
;
_chemical_formula_sum "Si O2"
_cell_formula_units_Z 14
_cell_length_a 10.911710
_cell_length_b 4.930234
_cell_length_c 17.799710
_cell_angle_alpha 90.000000
_cell_angle_beta 37.760886
_cell_angle_gamma 90.000000
_cell_volume 586.388448
_symmetry_space_group_name_H-M "P 21"
_symmetry_group_IT_number 4
_symmetry_cell_setting 'monoclinic'
loop_
_space_group_symop_operation_xyz
x,y,z
-x,1/2+y,-z
loop_
_atom_site_type_symbol
_atom_site_label
_atom_site_fract_x
_atom_site_fract_y
_atom_site_fract_z
Si Si1 0.415085 0.857200 0.947137
Si Si2 0.768823 0.844549 0.883850
Si Si3 0.134771 0.384897 0.545313
Si Si4 0.498431 0.742348 0.391014
Si Si5 0.198502 0.241857 0.355108
Si Si6 0.816510 0.546518 0.348162
Si Si7 0.463353 0.749015 0.235048
O O1 0.645272 0.890561 0.865991
O O2 0.395463 0.043734 0.880714
O O3 0.319373 0.562932 0.012538
O O4 0.295099 0.045346 0.063319
O O5 0.007626 0.855469 0.765315
O O6 0.362267 0.474389 0.449789
O O7 0.991112 0.638298 0.598625
O O8 0.145063 0.188361 0.468682
O O9 0.064099 0.245550 0.654751
O O10 0.702832 0.689133 0.335180
O O11 0.356714 0.920173 0.514550
O O12 0.530131 0.813164 0.288000
O O13 0.384004 0.040537 0.243811
O O14 0.268245 0.552399 0.327911
#
# Coordination Sequence:
#
# PCOD9117243 Si02
#       7
#     2   2   2   2   2   2   2
#     4  10  22  45  65 100 124 169 229 294 340 397
#     4  10  24  40  71  93 131 172 224 283 349 397
#     4  11  23  38  60  94 139 169 222 271 331 415
#     4  11  25  41  63  97 137 185 227 270 334 416
#     4  11  23  36  62  99 128 175 210 276 347 397
#     4  12  24  43  64  97 139 189 225 275 334 429
#     4  11  23  43  67  94 138 171 225 287 341 395
#
# _framework density 23.874960000000002
#
# number of rings (size 3 to 8) (size 9 to 14) (size 15 to 20)
#    0.000    1.143    2.857    3.429    6.000    1.143 
#    0.000    1.429    0.000    0.000    0.000    0.000 
#    0.000    0.000    0.000    0.000    0.000    0.000 
#
# Total GULP energy -78138.808110 kJ/mol
# GULP energy per Si atom -5581.343436 kJ/mol
# Density = 2.382062 g / cm^3
# Si number density = 23.874960 Si / 1000 Ang^3
#
#
#
# Elastic Constant Matrix: (Units=GPa)
#
#
# Indices 1 2 3 4 5 6 
#
# 1 96.9124 -2.0840 20.6841 0.0000 -0.9706 0.0000
# 2 -2.0840 71.7226 -14.0055 0.0000 -12.4512 0.0000
# 3 20.6841 -14.0055 36.9336 0.0000 -0.5084 0.0000
# 4 0.0000 0.0000 0.0000 31.6381 0.0000 1.2054
# 5 -0.9706 -12.4512 -0.5084 0.0000 30.0679 0.0000
# 6 0.0000 0.0000 0.0000 1.2054 0.0000 27.1962
#
#
#
# Elastic Compliance Matrix: (Units=1/GPa)
#
#
# Indices 1 2 3 4 5 6 
#
# 1 0.011789 -0.001056 -0.007005 0.000000 -0.000175 0.000000
# 2 -0.001056 0.016463 0.006929 0.000000 0.006900 0.000000
# 3 -0.007005 0.006929 0.033671 0.000000 0.003213 0.000000
# 4 0.000000 0.000000 0.000000 0.031661 0.000000 -0.001403
# 5 -0.000175 0.006900 0.003213 0.000000 0.036164 0.000000
# 6 0.000000 0.000000 0.000000 -0.001403 0.000000 0.036832
#
#
# Mechanical properties :
#
#
# Convention : Reuss Voigt Hill
#
# Bulk Modulus (GPa) = 16.76190 23.86198 20.31194
# Shear Modulus (GPa) = 26.49288 31.17870 28.83579
#
# Velocity S-wave (km/s) = 3.33476 3.61767 3.47909
# Velocity P-wave (km/s) = 4.67583 5.24083 4.96637
#
# Compressibility (1/GPa) = 0.05965910
#
# Stress axis : x y z
#
# Youngs Moduli (GPa) = 84.82295 60.74259 29.69954
#
# Poissons Ratio (x) = 0.06413 0.20805
# Poissons Ratio (y) = 0.08955 -0.20579
# Poissons Ratio (z) = 0.59420 -0.42089
#
# Static dielectric constant tensor:
#      x y z
#    x 1.942910 0.000000 0.113140 
#    y 0.000000 1.948780 0.000000 
#    z 0.113140 0.000000 2.052580 
# 
# From -- ./inp_files/12724.got.cif
#   From: 2010.05.17/outbox.cif.g08.bks.cpg/sg4_7_cif.got.tgz:12724.got - 2010.06.03 18:43:04.
