data_PCOD9117120
_publ_section_title
;
Structure prediction by ZEFSAII (Michael W. Deem and Ramdas Pophale) SiO2 
 PCOD9117120
Probable space group: P 21
;
_chemical_formula_sum "Si O2"
_cell_formula_units_Z 16
_cell_length_a 8.826545
_cell_length_b 6.991614
_cell_length_c 12.582015
_cell_angle_alpha 90.000000
_cell_angle_beta 55.212112
_cell_angle_gamma 90.000000
_cell_volume 637.682141
_symmetry_space_group_name_H-M "P 21"
_symmetry_group_IT_number 4
_symmetry_cell_setting 'monoclinic'
loop_
_space_group_symop_operation_xyz
x,y,z
-x,1/2+y,-z
loop_
_atom_site_type_symbol
_atom_site_label
_atom_site_fract_x
_atom_site_fract_y
_atom_site_fract_z
Si Si1 0.188716 0.582170 0.176351
Si Si2 0.152885 0.494222 0.799328
Si Si3 0.694356 0.529710 0.871260
Si Si4 0.556844 0.562938 0.145594
Si Si5 0.906791 0.444111 0.463613
Si Si6 0.057693 0.906101 0.910624
Si Si7 0.455729 0.961870 0.274631
Si Si8 0.067263 0.534952 0.611895
O O1 0.258649 0.802205 0.133096
O O2 0.371460 0.478729 0.157717
O O3 0.027952 0.553483 0.328771
O O4 0.084490 0.520834 0.109536
O O5 0.075072 0.705986 0.844058
O O6 0.364445 0.515283 0.737503
O O7 0.141479 0.422720 0.683511
O O8 0.048782 0.381017 0.934204
O O9 0.533297 0.544003 0.849674
O O10 0.868612 0.600825 0.736168
O O11 0.663272 0.625509 0.995668
O O12 0.729080 0.472466 0.145196
O O13 0.468251 0.733110 0.249741
O O14 0.720707 0.528589 0.588690
O O15 0.840373 0.237337 0.448498
O O16 0.037347 0.421911 0.515411
#
# Coordination Sequence:
#
# PCOD9117120 Si02
#       8
#     2   2   2   2   2   2   2   2
#     4  11  25  47  75 105 148 199 243 310 362 447
#     4  12  25  46  71 109 150 183 242 310 376 436
#     4  10  22  43  72 108 142 189 247 303 380 436
#     4  11  23  43  72 110 146 189 240 307 377 439
#     4  11  24  50  69 101 145 197 260 289 363 445
#     4  12  25  44  73 112 147 187 238 305 384 439
#     4  10  25  45  68 104 150 193 247 301 361 449
#     4  11  23  44  72  99 140 195 239 305 361 437
#
# _framework density 25.090872000000001
#
# number of rings (size 3 to 8) (size 9 to 14) (size 15 to 20)
#    0.000    1.000    2.500    4.500    1.750    6.000 
#    4.500    2.500    0.000    0.000    0.000    0.000 
#    0.000    0.000    0.000    0.000    0.000    0.000 
#
# Total GULP energy -89268.013012 kJ/mol
# GULP energy per Si atom -5579.250813 kJ/mol
# Density = 2.503376 g / cm^3
# Si number density = 25.090872 Si / 1000 Ang^3
#
#
#
# Elastic Constant Matrix: (Units=GPa)
#
#
# Indices 1 2 3 4 5 6 
#
# 1 188.7365 22.5857 54.7980 0.0000 8.7603 0.0000
# 2 22.5857 54.6801 21.1476 0.0000 1.6696 0.0000
# 3 54.7980 21.1476 129.9511 0.0000 18.5617 0.0000
# 4 0.0000 0.0000 0.0000 24.4730 0.0000 -5.9987
# 5 8.7603 1.6696 18.5617 0.0000 43.8231 0.0000
# 6 0.0000 0.0000 0.0000 -5.9987 0.0000 27.9684
#
#
#
# Elastic Compliance Matrix: (Units=1/GPa)
#
#
# Indices 1 2 3 4 5 6 
#
# 1 0.006175 -0.001652 -0.002307 0.000000 -0.000194 0.000000
# 2 -0.001652 0.019976 -0.002653 0.000000 0.000693 0.000000
# 3 -0.002307 -0.002653 0.009600 0.000000 -0.003504 0.000000
# 4 0.000000 0.000000 0.000000 0.043129 0.000000 0.009250
# 5 -0.000194 0.000693 -0.003504 0.000000 0.024316 0.000000
# 6 0.000000 0.000000 0.000000 0.009250 0.000000 0.037739
#
#
# Mechanical properties :
#
#
# Convention : Reuss Voigt Hill
#
# Bulk Modulus (GPa) = 44.39343 63.38114 53.88729
# Shear Modulus (GPa) = 30.92763 37.57533 34.25148
#
# Velocity S-wave (km/s) = 3.51468 3.87404 3.69873
# Velocity P-wave (km/s) = 5.84826 6.73249 6.30589
#
# Compressibility (1/GPa) = 0.02252586
#
# Stress axis : x y z
#
# Youngs Moduli (GPa) = 161.94237 50.06120 104.16273
#
# Poissons Ratio (x) = 0.08272 0.24033
# Poissons Ratio (y) = 0.26758 0.27634
# Poissons Ratio (z) = 0.37365 0.13281
#
# Static dielectric constant tensor:
#      x y z
#    x 2.075960 0.000000 -0.017130 
#    y 0.000000 2.128820 0.000000 
#    z -0.017130 0.000000 1.936180 
# 
# From -- ./inp_files/11048.got.cif
#   From: 2010.05.17/outbox.cif.g08.bks.cpg/sg4_6_cif.got.tgz:11048.got - 2010.06.03 18:43:04.
