data_PCOD9117229
_publ_section_title
;
Structure prediction by ZEFSAII (Michael W. Deem and Ramdas Pophale) SiO2 
 PCOD9117229
Probable space group: P 21
;
_chemical_formula_sum "Si O2"
_cell_formula_units_Z 12
_cell_length_a 13.677352
_cell_length_b 5.513131
_cell_length_c 7.045920
_cell_angle_alpha 90.000000
_cell_angle_beta 62.906934
_cell_angle_gamma 90.000000
_cell_volume 472.997421
_symmetry_space_group_name_H-M "P 21"
_symmetry_group_IT_number 4
_symmetry_cell_setting 'monoclinic'
loop_
_space_group_symop_operation_xyz
x,y,z
-x,1/2+y,-z
loop_
_atom_site_type_symbol
_atom_site_label
_atom_site_fract_x
_atom_site_fract_y
_atom_site_fract_z
Si Si1 0.569755 0.207620 0.662930
Si Si2 0.815857 0.408675 0.076737
Si Si3 0.872027 0.714548 0.700822
Si Si4 0.110253 0.853868 0.589979
Si Si5 0.713248 0.112872 0.855880
Si Si6 0.640943 0.710375 0.402903
O O1 0.597681 0.167030 0.859538
O O2 0.614562 0.472122 0.557468
O O3 0.447001 0.203181 0.691644
O O4 0.626821 0.969796 0.516023
O O5 0.875492 0.290257 0.202967
O O6 0.758296 0.643891 0.215584
O O7 0.888223 0.495999 0.837279
O O8 0.727143 0.243338 0.045776
O O9 0.860054 0.626945 0.497159
O O10 0.757187 0.843463 0.845063
O O11 0.983773 0.854744 0.637247
O O12 0.195569 0.705262 0.381937
#
# Coordination Sequence:
#
# PCOD9117229 Si02
#       6
#     2   2   2   2   2   2
#     4  10  22  44  74  96 136 181 226 268 349 404
#     4  11  26  40  65 101 130 170 228 280 337 397
#     4  11  25  40  64  96 127 180 220 274 341 397
#     4  11  23  44  64  90 137 170 222 275 336 404
#     4  11  24  43  66  96 128 176 222 276 336 405
#     4  10  22  45  71 101 132 183 220 281 339 403
#
# _framework density 25.370118000000002
#
# number of rings (size 3 to 8) (size 9 to 14) (size 15 to 20)
#    0.000    1.333    3.333    1.000    7.000    1.333 
#    3.000    0.000    0.000    0.000    0.000    0.000 
#    0.000    0.000    0.000    0.000    0.000    0.000 
#
# Total GULP energy -66986.007336 kJ/mol
# GULP energy per Si atom -5582.167278 kJ/mol
# Density = 2.531237 g / cm^3
# Si number density = 25.370118 Si / 1000 Ang^3
#
#
#
# Elastic Constant Matrix: (Units=GPa)
#
#
# Indices 1 2 3 4 5 6 
#
# 1 90.9038 18.7177 37.3679 0.0000 44.7759 0.0000
# 2 18.7177 78.3376 25.8222 0.0000 16.2550 0.0000
# 3 37.3679 25.8222 93.8390 0.0000 47.4920 0.0000
# 4 0.0000 0.0000 0.0000 33.4059 0.0000 -3.4842
# 5 44.7759 16.2550 47.4920 0.0000 53.2939 0.0000
# 6 0.0000 0.0000 0.0000 -3.4842 0.0000 33.6239
#
#
#
# Elastic Compliance Matrix: (Units=1/GPa)
#
#
# Indices 1 2 3 4 5 6 
#
# 1 0.018970 -0.001504 0.001264 0.000000 -0.016606 0.000000
# 2 -0.001504 0.014227 -0.003205 0.000000 -0.000220 0.000000
# 3 0.001264 -0.003205 0.020178 0.000000 -0.018066 0.000000
# 4 0.000000 0.000000 0.000000 0.030262 0.000000 0.003136
# 5 -0.016606 -0.000220 -0.018066 0.000000 0.048882 0.000000
# 6 0.000000 0.000000 0.000000 0.003136 0.000000 0.030066
#
#
# Mechanical properties :
#
#
# Convention : Reuss Voigt Hill
#
# Bulk Modulus (GPa) = 21.51175 47.43286 34.47231
# Shear Modulus (GPa) = 27.03163 36.14292 31.58728
#
# Velocity S-wave (km/s) = 3.26773 3.77852 3.53237
# Velocity P-wave (km/s) = 4.76812 6.14599 5.50037
#
# Compressibility (1/GPa) = 0.04648622
#
# Stress axis : x y z
#
# Youngs Moduli (GPa) = 52.71452 70.29120 49.55813
#
# Poissons Ratio (x) = 0.10569 -0.06263
# Poissons Ratio (y) = 0.07926 0.15881
# Poissons Ratio (z) = -0.06662 0.22526
#
# Static dielectric constant tensor:
#      x y z
#    x 2.010270 0.000000 -0.017750 
#    y 0.000000 2.108400 0.000000 
#    z -0.017750 0.000000 1.979830 
# 
# From -- ./inp_files/3279.got.cif
#   From: 2010.05.17/outbox.cif.g08.bks.cpg/sg4_2_cif.got.tgz:3279.got - 2010.06.03 18:43:04.
