data_PCOD9117879
_publ_section_title
;
Structure prediction by ZEFSAII (Michael W. Deem and Ramdas Pophale) SiO2 
 PCOD9117879
Probable space group: P 21
;
_chemical_formula_sum "Si O2"
_cell_formula_units_Z 8
_cell_length_a 10.753126
_cell_length_b 7.366188
_cell_length_c 7.211198
_cell_angle_alpha 90.000000
_cell_angle_beta 36.185012
_cell_angle_gamma 90.000000
_cell_volume 337.230850
_symmetry_space_group_name_H-M "P 21"
_symmetry_group_IT_number 4
_symmetry_cell_setting 'monoclinic'
loop_
_space_group_symop_operation_xyz
x,y,z
-x,1/2+y,-z
loop_
_atom_site_type_symbol
_atom_site_label
_atom_site_fract_x
_atom_site_fract_y
_atom_site_fract_z
Si Si1 0.131303 0.512530 0.688477
Si Si2 0.728897 0.545977 0.950381
Si Si3 0.558005 0.323783 0.830215
Si Si4 0.725969 0.624043 0.367113
O O1 0.286850 0.672736 0.442891
O O2 0.250114 0.331386 0.604069
O O3 0.969465 0.499649 0.709691
O O4 0.971029 0.559277 0.050764
O O5 0.634350 0.385859 0.940207
O O6 0.670889 0.731775 0.911630
O O7 0.640269 0.586874 0.263432
O O8 0.590578 0.501926 0.666950
#
# Coordination Sequence:
#
# PCOD9117879 Si02
#       4
#     2   2   2   2
#     4  10  23  48  73 101 140 194 239 297 358 426
#     4  10  28  44  70 110 144 190 238 302 364 434
#     4  12  26  46  70 108 146 190 240 298 366 432
#     4  10  23  48  73 101 140 194 239 297 358 426
#
# _framework density 23.722625000000001
#
# number of rings (size 3 to 8) (size 9 to 14) (size 15 to 20)
#    1.500    0.000    2.500    0.000   10.500    0.000 
#    4.500    0.000    0.000    0.000    0.000    0.000 
#    0.000    0.000    0.000    0.000    0.000    0.000 
#
# Total GULP energy -44650.692596 kJ/mol
# GULP energy per Si atom -5581.336574 kJ/mol
# Density = 2.366863 g / cm^3
# Si number density = 23.722625 Si / 1000 Ang^3
#
#
#
# Elastic Constant Matrix: (Units=GPa)
#
#
# Indices 1 2 3 4 5 6 
#
# 1 115.7431 52.5534 20.4442 0.0000 26.7832 0.0000
# 2 52.5534 173.3816 30.8305 0.0000 10.5830 0.0000
# 3 20.4442 30.8305 48.6640 0.0000 3.8113 0.0000
# 4 0.0000 0.0000 0.0000 54.4868 0.0000 0.4250
# 5 26.7832 10.5830 3.8113 0.0000 30.7916 0.0000
# 6 0.0000 0.0000 0.0000 0.4250 0.0000 55.5236
#
#
#
# Elastic Compliance Matrix: (Units=1/GPa)
#
#
# Indices 1 2 3 4 5 6 
#
# 1 0.012620 -0.002734 -0.002811 0.000000 -0.009689 0.000000
# 2 -0.002734 0.007186 -0.003430 0.000000 0.000333 0.000000
# 3 -0.002811 -0.003430 0.023850 0.000000 0.000672 0.000000
# 4 0.000000 0.000000 0.000000 0.018354 0.000000 -0.000140
# 5 -0.009689 0.000333 0.000672 0.000000 0.040707 0.000000
# 6 0.000000 0.000000 0.000000 -0.000140 0.000000 0.018011
#
#
# Mechanical properties :
#
#
# Convention : Reuss Voigt Hill
#
# Bulk Modulus (GPa) = 38.90058 60.60497 49.75278
# Shear Modulus (GPa) = 33.95653 43.75778 38.85716
#
# Velocity S-wave (km/s) = 3.78749 4.29949 4.05159
# Velocity P-wave (km/s) = 5.96326 7.08874 6.55022
#
# Compressibility (1/GPa) = 0.02570656
#
# Stress axis : x y z
#
# Youngs Moduli (GPa) = 79.24055 139.16110 41.92805
#
# Poissons Ratio (x) = 0.38046 0.11785
# Poissons Ratio (y) = 0.21664 0.14382
# Poissons Ratio (z) = 0.22273 0.47733
#
# Static dielectric constant tensor:
#      x y z
#    x 1.907270 0.000000 -0.002030 
#    y 0.000000 1.865830 0.000000 
#    z -0.002030 0.000000 1.952480 
# 
# From -- ./inp_files/893.got.cif
#   From: 2010.05.17/outbox.cif.g08.bks.cpg/sg4_1_cif.got.tgz:893.got - 2010.06.03 18:43:04.
