data_PCOD9117533
_publ_section_title
;
Structure prediction by ZEFSAII (Michael W. Deem and Ramdas Pophale) SiO2 
 PCOD9117533
Probable space group: P 21
;
_chemical_formula_sum "Si O2"
_cell_formula_units_Z 16
_cell_length_a 17.359455
_cell_length_b 7.520005
_cell_length_c 15.095143
_cell_angle_alpha 90.000000
_cell_angle_beta 161.805464
_cell_angle_gamma 90.000000
_cell_volume 615.298702
_symmetry_space_group_name_H-M "P 21"
_symmetry_group_IT_number 4
_symmetry_cell_setting 'monoclinic'
loop_
_space_group_symop_operation_xyz
x,y,z
-x,1/2+y,-z
loop_
_atom_site_type_symbol
_atom_site_label
_atom_site_fract_x
_atom_site_fract_y
_atom_site_fract_z
Si Si1 0.419621 0.134220 0.005611
Si Si2 0.057778 0.083114 0.463883
Si Si3 0.303033 0.508204 0.187897
Si Si4 0.532020 0.387553 0.271809
Si Si5 0.918749 0.154248 0.499623
Si Si6 0.724061 0.056509 0.586046
Si Si7 0.721000 0.630658 0.761041
Si Si8 0.117036 0.219526 0.343372
O O1 0.185892 0.063908 0.805932
O O2 0.315561 0.139258 0.792996
O O3 0.451968 0.323227 0.088647
O O4 0.693495 0.061657 0.302333
O O5 0.068754 0.866757 0.466089
O O6 0.008386 0.200567 0.323778
O O7 0.879936 0.133622 0.351701
O O8 0.312939 0.421387 0.101381
O O9 0.520544 0.564346 0.617724
O O10 0.570881 0.582357 0.508512
O O11 0.100651 0.661225 0.962383
O O12 0.694592 0.232865 0.494113
O O13 0.684784 0.563953 0.434780
O O14 0.744699 0.841827 0.800620
O O15 0.998211 0.063197 0.929258
O O16 0.746222 0.890235 0.545124
#
# Coordination Sequence:
#
# PCOD9117533 Si02
#       8
#     2   2   2   2   2   2   2   2
#     4  10  24  42  70  95 146 188 234 298 356 435
#     4  10  25  43  71 103 143 190 244 294 370 433
#     4  11  26  45  81 109 153 202 244 324 371 468
#     4  11  25  48  74 108 154 193 255 308 379 434
#     4  10  23  42  65  99 132 190 234 295 352 431
#     4  11  28  47  73 115 150 195 250 314 370 466
#     4  11  26  51  74 113 154 195 253 303 396 448
#     4  12  25  48  76 112 148 201 252 312 378 447
#
# _framework density 26.003629
#
# number of rings (size 3 to 8) (size 9 to 14) (size 15 to 20)
#    0.750    0.500    2.500    1.500    7.000    3.000 
#    4.500    0.000    0.000    0.000    0.000    0.000 
#    0.000    0.000    0.000    0.000    0.000    0.000 
#
# Total GULP energy -89352.711524 kJ/mol
# GULP energy per Si atom -5584.544470 kJ/mol
# Density = 2.594444 g / cm^3
# Si number density = 26.003629 Si / 1000 Ang^3
#
#
#
# Elastic Constant Matrix: (Units=GPa)
#
#
# Indices 1 2 3 4 5 6 
#
# 1 97.8537 30.8499 48.0740 0.0000 16.0693 0.0000
# 2 30.8499 101.8101 28.6270 0.0000 -5.5248 0.0000
# 3 48.0740 28.6270 146.4579 0.0000 27.6955 0.0000
# 4 0.0000 0.0000 0.0000 39.3046 0.0000 -0.2965
# 5 16.0693 -5.5248 27.6955 0.0000 48.2307 0.0000
# 6 0.0000 0.0000 0.0000 -0.2965 0.0000 37.4005
#
#
#
# Elastic Compliance Matrix: (Units=1/GPa)
#
#
# Indices 1 2 3 4 5 6 
#
# 1 0.013304 -0.003308 -0.003153 0.000000 -0.003001 0.000000
# 2 -0.003308 0.011525 -0.001823 0.000000 0.003469 0.000000
# 3 -0.003153 -0.001823 0.009042 0.000000 -0.004350 0.000000
# 4 0.000000 0.000000 0.000000 0.025444 0.000000 0.000202
# 5 -0.003001 0.003469 -0.004350 0.000000 0.024629 0.000000
# 6 0.000000 0.000000 0.000000 0.000202 0.000000 0.026739
#
#
# Mechanical properties :
#
#
# Convention : Reuss Voigt Hill
#
# Bulk Modulus (GPa) = 57.79054 62.35815 60.07435
# Shear Modulus (GPa) = 37.58882 40.89189 39.24036
#
# Velocity S-wave (km/s) = 3.80613 3.96984 3.88884
# Velocity P-wave (km/s) = 6.44886 6.71159 6.58153
#
# Compressibility (1/GPa) = 0.01730387
#
# Stress axis : x y z
#
# Youngs Moduli (GPa) = 75.16601 86.76557 110.59669
#
# Poissons Ratio (x) = 0.28698 0.34871
# Poissons Ratio (y) = 0.24862 0.20163
# Poissons Ratio (z) = 0.23699 0.15818
#
# Static dielectric constant tensor:
#      x y z
#    x 2.174160 0.000000 0.014780 
#    y 0.000000 2.002970 0.000000 
#    z 0.014780 0.000000 2.089040 
# 
# From -- ./inp_files/14339.got.cif
#   From: 2010.05.17/outbox.cif.g08.bks.cpg/sg4_8_cif.got.tgz:14339.got - 2010.06.03 18:43:04.
