data_PCOD9117146
_publ_section_title
;
Structure prediction by ZEFSAII (Michael W. Deem and Ramdas Pophale) SiO2 
 PCOD9117146
Probable space group: P 21
;
_chemical_formula_sum "Si O2"
_cell_formula_units_Z 16
_cell_length_a 7.419580
_cell_length_b 8.698895
_cell_length_c 16.098241
_cell_angle_alpha 90.000000
_cell_angle_beta 144.092605
_cell_angle_gamma 90.000000
_cell_volume 609.358323
_symmetry_space_group_name_H-M "P 21"
_symmetry_group_IT_number 4
_symmetry_cell_setting 'monoclinic'
loop_
_space_group_symop_operation_xyz
x,y,z
-x,1/2+y,-z
loop_
_atom_site_type_symbol
_atom_site_label
_atom_site_fract_x
_atom_site_fract_y
_atom_site_fract_z
Si Si1 0.947445 0.312160 0.177479
Si Si2 0.907229 0.940071 0.446815
Si Si3 0.579050 0.643025 0.308046
Si Si4 0.355104 0.429208 0.464918
Si Si5 0.521555 0.580708 0.020653
Si Si6 0.169772 0.421413 0.085829
Si Si7 0.576333 0.587253 0.846581
Si Si8 0.147888 0.733799 0.293044
O O1 0.663437 0.418767 0.103289
O O2 0.187463 0.305168 0.342000
O O3 0.099883 0.404324 0.158445
O O4 0.807480 0.157821 0.086191
O O5 0.829131 0.773099 0.379474
O O6 0.804622 0.926894 0.504588
O O7 0.698301 0.060254 0.319029
O O8 0.246467 0.008382 0.576483
O O9 0.413951 0.559689 0.170018
O O10 0.320255 0.719886 0.268733
O O11 0.278470 0.590902 0.394816
O O12 0.711336 0.385067 0.611614
O O13 0.789356 0.702896 0.145346
O O14 0.494504 0.557427 0.911113
O O15 0.298279 0.259023 0.108567
O O16 0.850266 0.470200 0.926750
#
# Coordination Sequence:
#
# PCOD9117146 Si02
#       8
#     2   2   2   2   2   2   2   2
#     4  10  23  44  64  96 127 170 216 267 325 379
#     4  11  26  40  66 100 128 175 215 267 333 389
#     4  11  22  46  63  95 136 164 221 267 324 393
#     4  10  23  41  65  96 127 170 214 263 327 382
#     4  10  23  45  63  95 129 168 217 267 323 381
#     4  11  23  44  68  94 134 172 218 272 323 396
#     4  11  24  42  67  97 132 175 216 271 329 385
#     4  10  22  44  66  91 131 170 211 270 318 389
#
# _framework density 26.257127000000001
#
# number of rings (size 3 to 8) (size 9 to 14) (size 15 to 20)
#    0.000    1.500    3.750    1.500    8.750    3.000 
#   13.500    0.000    0.000    0.000    0.000    0.000 
#    0.000    0.000    0.000    0.000    0.000    0.000 
#
# Total GULP energy -89623.137568 kJ/mol
# GULP energy per Si atom -5601.446098 kJ/mol
# Density = 2.619736 g / cm^3
# Si number density = 26.257127 Si / 1000 Ang^3
#
#
#
# Elastic Constant Matrix: (Units=GPa)
#
#
# Indices 1 2 3 4 5 6 
#
# 1 61.9558 18.3679 28.7452 0.0000 -9.5725 0.0000
# 2 18.3679 64.5647 3.9118 0.0000 6.8391 0.0000
# 3 28.7452 3.9118 135.3753 0.0000 0.3426 0.0000
# 4 0.0000 0.0000 0.0000 69.0707 0.0000 3.5275
# 5 -9.5725 6.8391 0.3426 0.0000 29.1968 0.0000
# 6 0.0000 0.0000 0.0000 3.5275 0.0000 25.1461
#
#
#
# Elastic Compliance Matrix: (Units=1/GPa)
#
#
# Indices 1 2 3 4 5 6 
#
# 1 0.021537 -0.006782 -0.004399 0.000000 0.008701 0.000000
# 2 -0.006782 0.018046 0.000935 0.000000 -0.006462 0.000000
# 3 -0.004399 0.000935 0.008298 0.000000 -0.001759 0.000000
# 4 0.000000 0.000000 0.000000 0.014582 0.000000 -0.002046
# 5 0.008701 -0.006462 -0.001759 0.000000 0.038637 0.000000
# 6 0.000000 0.000000 0.000000 -0.002046 0.000000 0.040055
#
#
# Mechanical properties :
#
#
# Convention : Reuss Voigt Hill
#
# Bulk Modulus (GPa) = 36.51201 40.43841 38.47521
# Shear Modulus (GPa) = 29.27803 38.74079 34.00941
#
# Velocity S-wave (km/s) = 3.34286 3.84531 3.60286
# Velocity P-wave (km/s) = 5.36986 5.92871 5.65619
#
# Compressibility (1/GPa) = 0.02738825
#
# Stress axis : x y z
#
# Youngs Moduli (GPa) = 46.43256 55.41534 120.50525
#
# Poissons Ratio (x) = 0.37583 0.53011
# Poissons Ratio (y) = 0.31491 -0.11267
# Poissons Ratio (z) = 0.20426 -0.05181
#
# Static dielectric constant tensor:
#      x y z
#    x 2.114540 0.000000 -0.015630 
#    y 0.000000 2.089840 0.000000 
#    z -0.015630 0.000000 1.986800 
# 
# From -- ./inp_files/14946.got.cif
#   From: 2010.05.17/outbox.cif.g08.bks.cpg/sg4_8_cif.got.tgz:14946.got - 2010.06.03 18:43:04.
