data_PCOD9117589
_publ_section_title
;
Structure prediction by ZEFSAII (Michael W. Deem and Ramdas Pophale) SiO2 
 PCOD9117589
Probable space group: P 21
;
_chemical_formula_sum "Si O2"
_cell_formula_units_Z 14
_cell_length_a 10.142079
_cell_length_b 9.197778
_cell_length_c 13.208551
_cell_angle_alpha 90.000000
_cell_angle_beta 149.063627
_cell_angle_gamma 90.000000
_cell_volume 633.433108
_symmetry_space_group_name_H-M "P 21"
_symmetry_group_IT_number 4
_symmetry_cell_setting 'monoclinic'
loop_
_space_group_symop_operation_xyz
x,y,z
-x,1/2+y,-z
loop_
_atom_site_type_symbol
_atom_site_label
_atom_site_fract_x
_atom_site_fract_y
_atom_site_fract_z
Si Si1 0.475673 0.007140 0.222793
Si Si2 0.875259 0.261410 0.035008
Si Si3 0.821631 0.977650 0.121179
Si Si4 0.944858 0.137775 0.405329
Si Si5 0.188755 0.477813 0.362331
Si Si6 0.013913 0.714491 0.119333
Si Si7 0.774847 0.465220 0.252588
O O1 0.696724 0.080907 0.302735
O O2 0.372586 0.859771 0.104485
O O3 0.589470 0.973614 0.408832
O O4 0.237358 0.116866 0.068586
O O5 0.913686 0.279171 0.940974
O O6 0.112800 0.331504 0.253168
O O7 0.830636 0.097999 0.038894
O O8 0.954395 0.835739 0.163643
O O9 0.951378 0.054137 0.303140
O O10 0.527385 0.944239 0.957368
O O11 0.909388 0.310237 0.367655
O O12 0.176363 0.082781 0.627366
O O13 0.223017 0.604014 0.302622
O O14 0.930463 0.517665 0.256638
#
# Coordination Sequence:
#
# PCOD9117589 Si02
#       7
#     2   2   2   2   2   2   2
#     4  10  23  43  65  89 131 165 203 265 320 363
#     4  11  24  43  64  93 126 169 217 256 303 376
#     4  12  24  38  68  94 126 166 210 256 320 370
#     4  11  25  41  66  98 127 161 209 261 319 381
#     4  10  23  43  65  89 131 165 203 265 320 363
#     4  11  24  43  64  93 126 169 217 256 303 376
#     4  11  25  41  66  98 127 161 209 261 319 381
#
# _framework density 22.101780999999999
#
# number of rings (size 3 to 8) (size 9 to 14) (size 15 to 20)
#    0.000    1.143    2.857    3.429    8.000    1.143 
#    0.000    2.857    0.000    0.000    0.000    0.000 
#    0.000    0.000    0.000    0.000    0.000    0.000 
#
# Total GULP energy -78300.156825 kJ/mol
# GULP energy per Si atom -5592.868345 kJ/mol
# Density = 2.205148 g / cm^3
# Si number density = 22.101781 Si / 1000 Ang^3
#
#
#
# Elastic Constant Matrix: (Units=GPa)
#
#
# Indices 1 2 3 4 5 6 
#
# 1 48.9585 3.9150 4.4098 0.0000 -18.7328 0.0000
# 2 3.9150 107.9763 18.4972 0.0000 -8.6664 0.0000
# 3 4.4098 18.4972 67.9230 0.0000 -23.0005 0.0000
# 4 0.0000 0.0000 0.0000 29.5703 0.0000 -10.1797
# 5 -18.7328 -8.6664 -23.0005 0.0000 29.4112 0.0000
# 6 0.0000 0.0000 0.0000 -10.1797 0.0000 35.1092
#
#
#
# Elastic Compliance Matrix: (Units=1/GPa)
#
#
# Indices 1 2 3 4 5 6 
#
# 1 0.028636 -0.000223 0.005924 0.000000 0.022806 0.000000
# 2 -0.000223 0.009741 -0.002332 0.000000 0.000905 0.000000
# 3 0.005924 -0.002332 0.021788 0.000000 0.020125 0.000000
# 4 0.000000 0.000000 0.000000 0.037568 0.000000 0.010892
# 5 0.022806 0.000905 0.020125 0.000000 0.064532 0.000000
# 6 0.000000 0.000000 0.000000 0.010892 0.000000 0.031641
#
#
# Mechanical properties :
#
#
# Convention : Reuss Voigt Hill
#
# Bulk Modulus (GPa) = 14.94662 30.94464 22.94563
# Shear Modulus (GPa) = 23.87005 32.02053 27.94529
#
# Velocity S-wave (km/s) = 3.28991 3.81041 3.55969
# Velocity P-wave (km/s) = 4.60528 5.77844 5.22489
#
# Compressibility (1/GPa) = 0.06690478
#
# Stress axis : x y z
#
# Youngs Moduli (GPa) = 34.92106 102.65383 45.89717
#
# Poissons Ratio (x) = 0.02286 -0.27191
# Poissons Ratio (y) = 0.00778 0.10703
# Poissons Ratio (z) = -0.20689 0.23938
#
# Static dielectric constant tensor:
#      x y z
#    x 1.788210 0.000000 -0.009190 
#    y 0.000000 1.790490 0.000000 
#    z -0.009190 0.000000 1.828580 
# 
# From -- ./inp_files/7459.got.cif
#   From: 2010.05.17/outbox.cif.g08.bks.cpg/sg4_4_cif.got.tgz:7459.got - 2010.06.03 18:43:04.
