data_PCOD9117604
_publ_section_title
;
Structure prediction by ZEFSAII (Michael W. Deem and Ramdas Pophale) SiO2 
 PCOD9117604
Probable space group: P 21
;
_chemical_formula_sum "Si O2"
_cell_formula_units_Z 14
_cell_length_a 11.470152
_cell_length_b 5.147578
_cell_length_c 9.202961
_cell_angle_alpha 90.000000
_cell_angle_beta 79.346082
_cell_angle_gamma 90.000000
_cell_volume 534.008243
_symmetry_space_group_name_H-M "P 21"
_symmetry_group_IT_number 4
_symmetry_cell_setting 'monoclinic'
loop_
_space_group_symop_operation_xyz
x,y,z
-x,1/2+y,-z
loop_
_atom_site_type_symbol
_atom_site_label
_atom_site_fract_x
_atom_site_fract_y
_atom_site_fract_z
Si Si1 0.875958 0.536780 0.787146
Si Si2 0.622765 0.047132 0.630256
Si Si3 0.199752 0.937359 0.493024
Si Si4 0.744781 0.496480 0.084750
Si Si5 0.022875 0.006274 0.785621
Si Si6 0.494287 0.765330 0.897635
Si Si7 0.371980 0.268959 0.660963
O O1 0.846081 0.608465 0.628919
O O2 0.970677 0.297261 0.776850
O O3 0.761534 0.471350 0.909850
O O4 0.921725 0.803403 0.846824
O O5 0.746683 0.195412 0.609204
O O6 0.506057 0.220902 0.678988
O O7 0.593602 0.816043 0.749908
O O8 0.619453 0.991459 0.458833
O O9 0.088625 0.904735 0.624369
O O10 0.302001 0.059688 0.572315
O O11 0.874648 0.458651 0.119702
O O12 0.634292 0.310146 0.148518
O O13 0.705165 0.761434 0.175214
O O14 0.496061 0.503334 0.989549
#
# Coordination Sequence:
#
# PCOD9117604 Si02
#       7
#     2   2   2   2   2   2   2
#     4  12  26  47  70 101 139 182 244 305 351 407
#     4  11  23  42  73 102 150 191 238 290 362 443
#     4  11  25  42  71 103 137 189 234 297 364 420
#     4  10  25  47  71 104 138 196 233 293 359 428
#     4  11  27  47  69 101 138 186 245 296 351 424
#     4  11  27  46  71 112 154 187 235 293 362 443
#     4  10  23  43  67 105 140 187 235 284 355 447
#
# _framework density 26.216826000000001
#
# number of rings (size 3 to 8) (size 9 to 14) (size 15 to 20)
#    0.000    1.143    1.429    2.571   10.000    2.286 
#    2.571    0.000    0.000    0.000    0.000    0.000 
#    0.000    0.000    0.000    0.000    0.000    0.000 
#
# Total GULP energy -78204.967824 kJ/mol
# GULP energy per Si atom -5586.069130 kJ/mol
# Density = 2.615716 g / cm^3
# Si number density = 26.216826 Si / 1000 Ang^3
#
#
#
# Elastic Constant Matrix: (Units=GPa)
#
#
# Indices 1 2 3 4 5 6 
#
# 1 63.2330 21.4317 30.1810 0.0000 1.3792 0.0000
# 2 21.4317 91.4222 9.2985 0.0000 14.9497 0.0000
# 3 30.1810 9.2985 150.5555 0.0000 -4.9364 0.0000
# 4 0.0000 0.0000 0.0000 34.9903 0.0000 12.1846
# 5 1.3792 14.9497 -4.9364 0.0000 49.6782 0.0000
# 6 0.0000 0.0000 0.0000 12.1846 0.0000 32.9351
#
#
#
# Elastic Compliance Matrix: (Units=1/GPa)
#
#
# Indices 1 2 3 4 5 6 
#
# 1 0.018886 -0.004130 -0.003519 0.000000 0.000369 0.000000
# 2 -0.004130 0.012511 -0.000065 0.000000 -0.003657 0.000000
# 3 -0.003519 -0.000065 0.007379 0.000000 0.000850 0.000000
# 4 0.000000 0.000000 0.000000 0.032806 0.000000 -0.012137
# 5 0.000369 -0.003657 0.000850 0.000000 0.021304 0.000000
# 6 0.000000 0.000000 0.000000 -0.012137 0.000000 0.034853
#
#
# Mechanical properties :
#
#
# Convention : Reuss Voigt Hill
#
# Bulk Modulus (GPa) = 42.82738 47.44813 45.13776
# Shear Modulus (GPa) = 33.12396 39.80735 36.46566
#
# Velocity S-wave (km/s) = 3.55838 3.90088 3.73356
# Velocity P-wave (km/s) = 5.76663 6.19893 5.98669
#
# Compressibility (1/GPa) = 0.02334955
#
# Stress axis : x y z
#
# Youngs Moduli (GPa) = 52.95024 79.93032 135.51365
#
# Poissons Ratio (x) = 0.33009 0.47684
# Poissons Ratio (y) = 0.21867 0.00877
# Poissons Ratio (z) = 0.18632 0.00517
#
# Static dielectric constant tensor:
#      x y z
#    x 2.071680 0.000000 0.054210 
#    y 0.000000 2.163450 0.000000 
#    z 0.054210 0.000000 2.083920 
# 
# From -- ./inp_files/7088.got.cif
#   From: 2010.05.17/outbox.cif.g08.bks.cpg/sg4_4_cif.got.tgz:7088.got - 2010.06.03 18:43:04.
