data_PCOD9117199
_publ_section_title
;
Structure prediction by ZEFSAII (Michael W. Deem and Ramdas Pophale) SiO2 
 PCOD9117199
Probable space group: P 21
;
_chemical_formula_sum "Si O2"
_cell_formula_units_Z 14
_cell_length_a 9.289839
_cell_length_b 5.234780
_cell_length_c 15.459627
_cell_angle_alpha 90.000000
_cell_angle_beta 45.282416
_cell_angle_gamma 90.000000
_cell_volume 534.220801
_symmetry_space_group_name_H-M "P 21"
_symmetry_group_IT_number 4
_symmetry_cell_setting 'monoclinic'
loop_
_space_group_symop_operation_xyz
x,y,z
-x,1/2+y,-z
loop_
_atom_site_type_symbol
_atom_site_label
_atom_site_fract_x
_atom_site_fract_y
_atom_site_fract_z
Si Si1 0.924578 0.793630 0.580415
Si Si2 0.291382 0.903869 0.505579
Si Si3 0.477401 0.562063 0.272645
Si Si4 0.228720 0.417578 0.944440
Si Si5 0.011617 0.507921 0.854023
Si Si6 0.607163 0.259726 0.352997
Si Si7 0.377754 0.760213 0.021072
O O1 0.699321 0.888666 0.690982
O O2 0.966496 0.506492 0.529246
O O3 0.057085 0.842524 0.609588
O O4 0.383358 0.713391 0.395271
O O5 0.381276 0.900680 0.562527
O O6 0.376133 0.172248 0.436539
O O7 0.574561 0.755558 0.165552
O O8 0.655792 0.408866 0.245135
O O9 0.324314 0.675466 0.944304
O O10 0.088230 0.419598 0.917774
O O11 0.107258 0.269308 0.071210
O O12 0.224404 0.540940 0.714777
O O13 0.854192 0.349334 0.861229
O O14 0.479171 0.506928 0.020889
#
# Coordination Sequence:
#
# PCOD9117199 Si02
#       7
#     2   2   2   2   2   2   2
#     4  10  22  44  71 103 149 200 253 307 378 456
#     4  11  23  45  70 104 158 202 256 316 390 451
#     4  11  24  43  75 110 154 203 263 319 384 464
#     4  12  25  48  82 116 155 207 266 327 393 488
#     4  12  26  47  82 115 155 207 270 322 398 483
#     4  12  24  44  73 113 154 205 262 327 385 459
#     4  12  28  55  79 113 165 204 258 334 402 475
#
# _framework density 26.206392999999998
#
# number of rings (size 3 to 8) (size 9 to 14) (size 15 to 20)
#    0.000    0.571    7.143    0.857    0.000    0.000 
#    5.143    2.857    0.000    0.000    0.000    0.000 
#    0.000    0.000    0.000    0.000    0.000    0.000 
#
# Total GULP energy -78174.309537 kJ/mol
# GULP energy per Si atom -5583.879253 kJ/mol
# Density = 2.614675 g / cm^3
# Si number density = 26.206393 Si / 1000 Ang^3
#
#
#
# Elastic Constant Matrix: (Units=GPa)
#
#
# Indices 1 2 3 4 5 6 
#
# 1 115.0359 35.6239 15.7276 0.0000 -26.5847 0.0000
# 2 35.6239 109.4330 11.2140 0.0000 -12.5120 0.0000
# 3 15.7276 11.2140 73.9156 0.0000 -18.8217 0.0000
# 4 0.0000 0.0000 0.0000 42.0569 0.0000 0.5892
# 5 -26.5847 -12.5120 -18.8217 0.0000 37.7817 0.0000
# 6 0.0000 0.0000 0.0000 0.5892 0.0000 55.1871
#
#
#
# Elastic Compliance Matrix: (Units=1/GPa)
#
#
# Indices 1 2 3 4 5 6 
#
# 1 0.011176 -0.002837 -0.000211 0.000000 0.006819 0.000000
# 2 -0.002837 0.010253 -0.000682 0.000000 0.001059 0.000000
# 3 -0.000211 -0.000682 0.015555 0.000000 0.007375 0.000000
# 4 0.000000 0.000000 0.000000 0.023781 0.000000 -0.000254
# 5 0.006819 0.001059 0.007375 0.000000 0.035291 0.000000
# 6 0.000000 0.000000 0.000000 -0.000254 0.000000 0.018123
#
#
# Mechanical properties :
#
#
# Convention : Reuss Voigt Hill
#
# Bulk Modulus (GPa) = 33.87106 47.05727 40.46416
# Shear Modulus (GPa) = 38.02853 42.72642 40.37747
#
# Velocity S-wave (km/s) = 3.81349 4.04218 3.92950
# Velocity P-wave (km/s) = 5.68709 6.30722 6.00516
#
# Compressibility (1/GPa) = 0.02952373
#
# Stress axis : x y z
#
# Youngs Moduli (GPa) = 89.47516 97.53695 64.28708
#
# Poissons Ratio (x) = 0.27670 0.01358
# Poissons Ratio (y) = 0.25383 0.04385
# Poissons Ratio (z) = 0.01890 0.06653
#
# Static dielectric constant tensor:
#      x y z
#    x 2.091290 0.000000 -0.018190 
#    y 0.000000 2.195670 0.000000 
#    z -0.018190 0.000000 2.006820 
# 
# From -- ./inp_files/9372.got.cif
#   From: 2010.05.17/outbox.cif.g08.bks.cpg/sg4_5_cif.got.tgz:9372.got - 2010.06.03 18:43:04.
