data_PCOD9117726
_publ_section_title
;
Structure prediction by ZEFSAII (Michael W. Deem and Ramdas Pophale) SiO2 
 PCOD9117726
Probable space group: P 21
;
_chemical_formula_sum "Si O2"
_cell_formula_units_Z 16
_cell_length_a 15.870384
_cell_length_b 5.269915
_cell_length_c 27.486878
_cell_angle_alpha 90.000000
_cell_angle_beta 160.801744
_cell_angle_gamma 90.000000
_cell_volume 755.959150
_symmetry_space_group_name_H-M "P 21"
_symmetry_group_IT_number 4
_symmetry_cell_setting 'monoclinic'
loop_
_space_group_symop_operation_xyz
x,y,z
-x,1/2+y,-z
loop_
_atom_site_type_symbol
_atom_site_label
_atom_site_fract_x
_atom_site_fract_y
_atom_site_fract_z
Si Si1 0.733616 0.550790 0.511876
Si Si2 0.862982 0.884925 0.732463
Si Si3 0.925938 0.029028 0.021785
Si Si4 0.256712 0.528936 0.182273
Si Si5 0.778702 0.756187 0.034358
Si Si6 0.681458 0.986761 0.175160
Si Si7 0.420144 0.560116 0.513517
Si Si8 0.330493 0.617122 0.943422
O O1 0.526345 0.511402 0.356561
O O2 0.712399 0.309842 0.536456
O O3 0.026094 0.543544 0.653491
O O4 0.658210 0.810491 0.498981
O O5 0.718991 0.640993 0.675854
O O6 0.108374 0.818794 0.833626
O O7 0.664769 0.018395 0.588297
O O8 0.976702 0.071394 0.834659
O O9 0.126208 0.799241 0.122665
O O10 0.791532 0.966256 0.999626
O O11 0.075366 0.294367 0.099489
O O12 0.732755 0.015096 0.870719
O O13 0.782807 0.878371 0.090189
O O14 0.514794 0.598439 0.892362
O O15 0.638013 0.098031 0.096690
O O16 0.587526 0.699591 0.112289
#
# Coordination Sequence:
#
# PCOD9117726 Si02
#       8
#     2   2   2   2   2   2   2   2
#     4  12  26  41  68  96 132 180 217 276 338 400
#     4  11  26  39  58  98 134 178 217 280 326 394
#     4  10  23  45  71 102 125 169 213 278 345 401
#     4  10  23  44  72  99 134 157 214 283 349 402
#     4  11  25  41  68  89 130 177 232 269 319 398
#     4  11  24  41  61  91 132 182 230 262 322 379
#     4  12  26  40  61  96 140 173 220 266 339 400
#     4  11  23  41  61  87 131 182 229 270 308 392
#
# _framework density 21.165163
#
# number of rings (size 3 to 8) (size 9 to 14) (size 15 to 20)
#    0.000    1.000    2.500    3.000   14.000    0.000 
#    0.000    0.000    2.750    0.000    0.000    0.000 
#    0.000    0.000    0.000    0.000    0.000    0.000 
#
# Total GULP energy -89447.628896 kJ/mol
# GULP energy per Si atom -5590.476806 kJ/mol
# Density = 2.111699 g / cm^3
# Si number density = 21.165163 Si / 1000 Ang^3
#
#
#
# Elastic Constant Matrix: (Units=GPa)
#
#
# Indices 1 2 3 4 5 6 
#
# 1 72.8687 24.1423 37.4243 0.0000 -7.7569 0.0000
# 2 24.1423 123.3856 36.4167 0.0000 1.9959 0.0000
# 3 37.4243 36.4167 131.9824 0.0000 -1.6885 0.0000
# 4 0.0000 0.0000 0.0000 27.6540 0.0000 2.0575
# 5 -7.7569 1.9959 -1.6885 0.0000 27.0080 0.0000
# 6 0.0000 0.0000 0.0000 2.0575 0.0000 34.8896
#
#
#
# Elastic Compliance Matrix: (Units=1/GPa)
#
#
# Indices 1 2 3 4 5 6 
#
# 1 0.017111 -0.002191 -0.004186 0.000000 0.004815 0.000000
# 2 -0.002191 0.009121 -0.001914 0.000000 -0.001423 0.000000
# 3 -0.004186 -0.001914 0.009286 0.000000 -0.000480 0.000000
# 4 0.000000 0.000000 0.000000 0.036320 0.000000 -0.002142
# 5 0.004815 -0.001423 -0.000480 0.000000 0.038484 0.000000
# 6 0.000000 0.000000 0.000000 -0.002142 0.000000 0.028788
#
#
# Mechanical properties :
#
#
# Convention : Reuss Voigt Hill
#
# Bulk Modulus (GPa) = 52.80505 58.24482 55.52494
# Shear Modulus (GPa) = 30.86342 33.26055 32.06199
#
# Velocity S-wave (km/s) = 3.82280 3.96849 3.89633
# Velocity P-wave (km/s) = 6.66996 6.96975 6.82150
#
# Compressibility (1/GPa) = 0.01893758
#
# Stress axis : x y z
#
# Youngs Moduli (GPa) = 58.44036 109.63537 107.69308
#
# Poissons Ratio (x) = 0.24016 0.45081
# Poissons Ratio (y) = 0.12801 0.20610
# Poissons Ratio (z) = 0.24463 0.20982
#
# Static dielectric constant tensor:
#      x y z
#    x 1.768580 0.000000 0.012890 
#    y 0.000000 1.876660 0.000000 
#    z 0.012890 0.000000 1.786040 
# 
# From -- ./inp_files/16385.got.cif
#   From: 2010.05.17/outbox.cif.g08.bks.cpg/sg4_9_cif.got.tgz:16385.got - 2010.06.03 18:43:04.
