data_PCOD9117539
_publ_section_title
;
Structure prediction by ZEFSAII (Michael W. Deem and Ramdas Pophale) SiO2 
 PCOD9117539
Probable space group: P 21
;
_chemical_formula_sum "Si O2"
_cell_formula_units_Z 16
_cell_length_a 5.569801
_cell_length_b 13.821623
_cell_length_c 8.696348
_cell_angle_alpha 90.000000
_cell_angle_beta 107.484626
_cell_angle_gamma 90.000000
_cell_volume 638.545516
_symmetry_space_group_name_H-M "P 21"
_symmetry_group_IT_number 4
_symmetry_cell_setting 'monoclinic'
loop_
_space_group_symop_operation_xyz
x,y,z
-x,1/2+y,-z
loop_
_atom_site_type_symbol
_atom_site_label
_atom_site_fract_x
_atom_site_fract_y
_atom_site_fract_z
Si Si1 0.343009 0.292960 0.112846
Si Si2 0.369488 0.446869 0.866097
Si Si3 0.342753 0.582007 0.396002
Si Si4 0.363834 0.047452 0.806886
Si Si5 0.800642 0.396327 0.715963
Si Si6 0.985846 0.189921 0.877392
Si Si7 0.767135 0.267940 0.425698
Si Si8 0.073577 0.400410 0.320309
O O1 0.590372 0.258724 0.244463
O O2 0.229805 0.376312 0.199055
O O3 0.390350 0.342195 0.957649
O O4 0.129255 0.210390 0.062696
O O5 0.578373 0.446195 0.770680
O O6 0.070993 0.452171 0.765196
O O7 0.454950 0.524291 0.011405
O O8 0.608053 0.557348 0.374829
O O9 0.277053 0.670623 0.489666
O O10 0.215390 0.486280 0.432659
O O11 0.228832 0.612873 0.204237
O O12 0.209675 0.144416 0.818412
O O13 0.185264 0.950972 0.780907
O O14 0.708666 0.355992 0.532702
O O15 0.873252 0.293842 0.811632
O O16 0.034585 0.303710 0.411433
#
# Coordination Sequence:
#
# PCOD9117539 Si02
#       8
#     2   2   2   2   2   2   2   2
#     4  11  23  41  72  99 138 185 242 290 358 436
#     4  11  22  43  70 101 131 184 240 295 348 429
#     4  10  23  42  67 100 141 188 247 296 369 434
#     4  11  21  41  71  99 136 185 242 302 363 429
#     4  10  25  42  66 101 137 182 239 288 361 426
#     4   9  23  37  64  98 131 178 233 299 342 428
#     4  11  25  42  70 102 144 198 228 304 362 444
#     4  11  22  44  68 102 140 196 237 290 375 438
#
# _framework density 25.056944000000001
#
# number of rings (size 3 to 8) (size 9 to 14) (size 15 to 20)
#    0.000    1.500    2.500    1.500   10.500    2.000 
#    2.250    1.250    0.000    0.000    0.000    0.000 
#    0.000    0.000    0.000    0.000    0.000    0.000 
#
# Total GULP energy -89166.969276 kJ/mol
# GULP energy per Si atom -5572.935580 kJ/mol
# Density = 2.499991 g / cm^3
# Si number density = 25.056944 Si / 1000 Ang^3
#
#
#
# Elastic Constant Matrix: (Units=GPa)
#
#
# Indices 1 2 3 4 5 6 
#
# 1 31.5061 3.2513 15.0945 0.0000 -5.7420 0.0000
# 2 3.2513 60.6467 -1.7588 0.0000 2.2494 0.0000
# 3 15.0945 -1.7588 54.6501 0.0000 7.8508 0.0000
# 4 0.0000 0.0000 0.0000 45.3447 0.0000 -8.8858
# 5 -5.7420 2.2494 7.8508 0.0000 28.0350 0.0000
# 6 0.0000 0.0000 0.0000 -8.8858 0.0000 34.6594
#
#
#
# Elastic Compliance Matrix: (Units=1/GPa)
#
#
# Indices 1 2 3 4 5 6 
#
# 1 0.040519 -0.003003 -0.013039 0.000000 0.012191 0.000000
# 2 -0.003003 0.016790 0.001721 0.000000 -0.002444 0.000000
# 3 -0.013039 0.001721 0.023296 0.000000 -0.009332 0.000000
# 4 0.000000 0.000000 0.000000 0.023220 0.000000 0.005953
# 5 0.012191 -0.002444 -0.009332 0.000000 0.040976 0.000000
# 6 0.000000 0.000000 0.000000 0.005953 0.000000 0.030378
#
#
# Mechanical properties :
#
#
# Convention : Reuss Voigt Hill
#
# Bulk Modulus (GPa) = 19.24457 19.99743 19.62100
# Shear Modulus (GPa) = 22.60987 30.28889 26.44938
#
# Velocity S-wave (km/s) = 3.00716 3.48056 3.25248
# Velocity P-wave (km/s) = 4.44458 4.91431 4.68534
#
# Compressibility (1/GPa) = 0.05196272
#
# Stress axis : x y z
#
# Youngs Moduli (GPa) = 24.67995 59.55765 42.92629
#
# Poissons Ratio (x) = 0.17883 0.55973
# Poissons Ratio (y) = 0.07410 -0.07387
# Poissons Ratio (z) = 0.32181 -0.10249
#
# Static dielectric constant tensor:
#      x y z
#    x 2.314340 0.000000 0.026830 
#    y 0.000000 2.015620 0.000000 
#    z 0.026830 0.000000 2.072510 
# 
# From -- ./inp_files/1651.got.cif
#   From: 2010.05.17/outbox.cif.g08.bks.cpg/sg4_1_cif.got.tgz:1651.got - 2010.06.03 18:43:04.
