data_PCOD9117518
_publ_section_title
;
Structure prediction by ZEFSAII (Michael W. Deem and Ramdas Pophale) SiO2 
 PCOD9117518
Probable space group: P 21
;
_chemical_formula_sum "Si O2"
_cell_formula_units_Z 16
_cell_length_a 10.876517
_cell_length_b 8.155093
_cell_length_c 11.672155
_cell_angle_alpha 90.000000
_cell_angle_beta 135.698275
_cell_angle_gamma 90.000000
_cell_volume 723.097635
_symmetry_space_group_name_H-M "P 21"
_symmetry_group_IT_number 4
_symmetry_cell_setting 'monoclinic'
loop_
_space_group_symop_operation_xyz
x,y,z
-x,1/2+y,-z
loop_
_atom_site_type_symbol
_atom_site_label
_atom_site_fract_x
_atom_site_fract_y
_atom_site_fract_z
Si Si1 0.963809 0.321950 0.168405
Si Si2 0.880031 0.392774 0.855082
Si Si3 0.496699 0.055613 0.655061
Si Si4 0.493515 0.443412 0.593443
Si Si5 0.773028 0.026484 0.035210
Si Si6 0.144975 0.641725 0.363750
Si Si7 0.115356 0.370736 0.674343
Si Si8 0.147474 0.144544 0.491173
O O1 0.999754 0.503928 0.235562
O O2 0.107119 0.226165 0.341317
O O3 0.961092 0.332057 0.029002
O O4 0.787774 0.218633 0.078979
O O5 0.697983 0.492255 0.755874
O O6 0.825639 0.243600 0.734600
O O7 0.035317 0.484617 0.891511
O O8 0.487968 0.253479 0.629042
O O9 0.305426 0.019930 0.577739
O O10 0.525891 0.960646 0.556786
O O11 0.636673 0.008961 0.843331
O O12 0.329640 0.557192 0.525275
O O13 0.754553 0.912498 0.133739
O O14 0.042259 0.759323 0.381071
O O15 0.023382 0.543228 0.584175
O O16 0.190802 0.278999 0.615413
#
# Coordination Sequence:
#
# PCOD9117518 Si02
#       8
#     2   2   2   2   2   2   2   2
#     4  11  19  36  60  94 127 174 215 275 329 407
#     4  11  22  38  60  97 140 180 216 273 342 408
#     4  12  24  42  66 103 143 178 221 282 345 405
#     4  12  22  38  64 100 142 173 222 273 347 403
#     4  10  23  42  62  95 138 177 224 280 335 403
#     4  11  22  38  63  95 132 175 228 276 338 398
#     4  10  24  48  68  93 128 177 238 279 331 401
#     4  11  24  42  73  93 130 178 230 280 339 393
#
# _framework density 22.127025
#
# number of rings (size 3 to 8) (size 9 to 14) (size 15 to 20)
#    0.000    1.000    3.750    4.500    0.000    0.000 
#    2.250    3.750    0.000    0.000    0.000    0.000 
#    0.000    0.000    0.000    0.000    0.000    0.000 
#
# Total GULP energy -89266.763629 kJ/mol
# GULP energy per Si atom -5579.172727 kJ/mol
# Density = 2.207666 g / cm^3
# Si number density = 22.127025 Si / 1000 Ang^3
#
#
#
# Elastic Constant Matrix: (Units=GPa)
#
#
# Indices 1 2 3 4 5 6 
#
# 1 52.1664 15.0622 37.9195 0.0000 -17.1825 0.0000
# 2 15.0622 71.6597 36.0319 0.0000 -12.4821 0.0000
# 3 37.9195 36.0319 141.7842 0.0000 -17.1736 0.0000
# 4 0.0000 0.0000 0.0000 35.0810 0.0000 -6.0028
# 5 -17.1825 -12.4821 -17.1736 0.0000 25.9665 0.0000
# 6 0.0000 0.0000 0.0000 -6.0028 0.0000 17.9001
#
#
#
# Elastic Compliance Matrix: (Units=1/GPa)
#
#
# Indices 1 2 3 4 5 6 
#
# 1 0.028275 -0.000543 -0.005641 0.000000 0.014718 0.000000
# 2 -0.000543 0.016748 -0.003456 0.000000 0.005406 0.000000
# 3 -0.005641 -0.003456 0.009552 0.000000 0.000923 0.000000
# 4 0.000000 0.000000 0.000000 0.030241 0.000000 0.010141
# 5 0.014718 0.005406 0.000923 0.000000 0.051459 0.000000
# 6 0.000000 0.000000 0.000000 0.010141 0.000000 0.059266
#
#
# Mechanical properties :
#
#
# Convention : Reuss Voigt Hill
#
# Bulk Modulus (GPa) = 28.33345 49.29306 38.81326
# Shear Modulus (GPa) = 22.06659 27.56263 24.81461
#
# Velocity S-wave (km/s) = 3.16138 3.53321 3.35246
# Velocity P-wave (km/s) = 5.11454 6.24263 5.70653
#
# Compressibility (1/GPa) = 0.03529397
#
# Stress axis : x y z
#
# Youngs Moduli (GPa) = 35.36749 59.70687 104.69169
#
# Poissons Ratio (x) = 0.03241 0.59059
# Poissons Ratio (y) = 0.01920 0.36185
# Poissons Ratio (z) = 0.19952 0.20637
#
# Static dielectric constant tensor:
#      x y z
#    x 1.850540 0.000000 0.027440 
#    y 0.000000 1.905100 0.000000 
#    z 0.027440 0.000000 1.809300 
# 
# From -- ./inp_files/12049.got.cif
#   From: 2010.05.17/outbox.cif.g08.bks.cpg/sg4_7_cif.got.tgz:12049.got - 2010.06.03 18:43:04.
