data_PCOD9117032
_publ_section_title
;
Structure prediction by ZEFSAII (Michael W. Deem and Ramdas Pophale) SiO2 
 PCOD9117032
Probable space group: P 21
;
_chemical_formula_sum "Si O2"
_cell_formula_units_Z 10
_cell_length_a 5.177657
_cell_length_b 9.852177
_cell_length_c 9.738716
_cell_angle_alpha 90.000000
_cell_angle_beta 74.583929
_cell_angle_gamma 90.000000
_cell_volume 478.909689
_symmetry_space_group_name_H-M "P 21"
_symmetry_group_IT_number 4
_symmetry_cell_setting 'monoclinic'
loop_
_space_group_symop_operation_xyz
x,y,z
-x,1/2+y,-z
loop_
_atom_site_type_symbol
_atom_site_label
_atom_site_fract_x
_atom_site_fract_y
_atom_site_fract_z
Si Si1 0.930278 0.089230 0.922060
Si Si2 0.818398 0.136378 0.634782
Si Si3 0.046816 0.442160 0.634798
Si Si4 0.653071 0.789261 0.193853
Si Si5 0.647654 0.489281 0.922082
O O1 0.915086 0.062943 0.760920
O O2 0.067423 0.237210 0.904146
O O3 0.630005 0.071354 0.020354
O O4 0.150372 0.007151 0.979620
O O5 0.506530 0.171260 0.705222
O O6 0.946976 0.289270 0.606053
O O7 0.873925 0.039274 0.499988
O O8 0.288247 0.407272 0.705235
O O9 0.823988 0.515583 0.760945
O O10 0.471566 0.841302 0.095848
#
# Coordination Sequence:
#
# PCOD9117032 Si02
#       5
#     2   2   2   2   2
#     4  11  22  43  69  97 134 180 231 283 344 405
#     4  10  23  45  69 101 141 184 232 286 348 413
#     4  10  23  45  69 101 141 184 232 286 348 413
#     4  10  22  42  72  98 142 180 230 292 344 404
#     4  11  22  43  69  97 134 180 231 283 344 405
#
# _framework density 20.880763000000002
#
# number of rings (size 3 to 8) (size 9 to 14) (size 15 to 20)
#    0.000    1.600    4.000    0.000    0.000    6.400 
#    3.600    4.000    0.000    0.000    0.000    0.000 
#    0.000    0.000    0.000    0.000    0.000    0.000 
#
# Total GULP energy -55695.724219 kJ/mol
# GULP energy per Si atom -5569.572422 kJ/mol
# Density = 2.083324 g / cm^3
# Si number density = 20.880763 Si / 1000 Ang^3
#
#
#
# Elastic Constant Matrix: (Units=GPa)
#
#
# Indices 1 2 3 4 5 6 
#
# 1 188.0317 55.2486 97.1738 0.0000 -0.1333 0.0000
# 2 55.2486 85.8699 95.6925 0.0000 0.1695 0.0000
# 3 97.1738 95.6925 166.8567 0.0000 0.0611 0.0000
# 4 0.0000 0.0000 0.0000 44.7548 0.0000 -0.0042
# 5 -0.1333 0.1695 0.0611 0.0000 28.4106 0.0000
# 6 0.0000 0.0000 0.0000 -0.0042 0.0000 45.9434
#
#
#
# Elastic Compliance Matrix: (Units=1/GPa)
#
#
# Indices 1 2 3 4 5 6 
#
# 1 0.007609 0.000118 -0.004499 0.000000 0.000045 0.000000
# 2 0.000118 0.032271 -0.018576 0.000000 -0.000152 0.000000
# 3 -0.004499 -0.018576 0.019266 0.000000 0.000048 0.000000
# 4 0.000000 0.000000 0.000000 0.022344 0.000000 0.000002
# 5 0.000045 -0.000152 0.000048 0.000000 0.035199 0.000000
# 6 0.000000 0.000000 0.000000 0.000002 0.000000 0.021766
#
#
# Mechanical properties :
#
#
# Convention : Reuss Voigt Hill
#
# Bulk Modulus (GPa) = 75.57280 104.10980 89.84130
# Shear Modulus (GPa) = 26.48598 36.66465 31.57531
#
# Velocity S-wave (km/s) = 3.56538 4.19490 3.89288
# Velocity P-wave (km/s) = 7.29523 8.56915 7.95772
#
# Compressibility (1/GPa) = 0.01323227
#
# Stress axis : x y z
#
# Youngs Moduli (GPa) = 131.43131 30.98768 51.90385
#
# Poissons Ratio (x) = -0.00365 0.23350
# Poissons Ratio (y) = -0.01549 0.96416
# Poissons Ratio (z) = 0.59126 0.57563
#
# Static dielectric constant tensor:
#      x y z
#    x 1.884030 0.000000 -0.000650 
#    y 0.000000 1.812210 0.000000 
#    z -0.000650 0.000000 1.723110 
# 
# From -- ./inp_files/952.got.cif
#   From: 2010.05.17/outbox.cif.g08.bks.cpg/sg4_1_cif.got.tgz:952.got - 2010.06.03 18:43:04.
