data_PCOD9117626
_publ_section_title
;
Structure prediction by ZEFSAII (Michael W. Deem and Ramdas Pophale) SiO2 
 PCOD9117626
Probable space group: P 21
;
_chemical_formula_sum "Si O2"
_cell_formula_units_Z 16
_cell_length_a 31.237686
_cell_length_b 5.350162
_cell_length_c 25.870276
_cell_angle_alpha 90.000000
_cell_angle_beta 9.820965
_cell_angle_gamma 90.000000
_cell_volume 737.478975
_symmetry_space_group_name_H-M "P 21"
_symmetry_group_IT_number 4
_symmetry_cell_setting 'monoclinic'
loop_
_space_group_symop_operation_xyz
x,y,z
-x,1/2+y,-z
loop_
_atom_site_type_symbol
_atom_site_label
_atom_site_fract_x
_atom_site_fract_y
_atom_site_fract_z
Si Si1 0.157940 0.806630 0.940285
Si Si2 0.886680 0.005142 0.659418
Si Si3 0.739513 0.934362 0.242797
Si Si4 0.140858 0.529087 0.187094
Si Si5 0.890883 0.028458 0.355834
Si Si6 0.693222 0.528093 0.636153
Si Si7 0.160231 0.517393 0.756893
Si Si8 0.658802 0.531239 0.097244
O O1 0.434728 0.909925 0.602385
O O2 0.214586 0.513242 0.873619
O O3 0.001832 0.942602 0.169077
O O4 0.993223 0.777423 0.082943
O O5 0.990205 0.249038 0.507022
O O6 0.933989 0.039388 0.664259
O O7 0.586167 0.988490 0.010983
O O8 0.750642 0.020075 0.290809
O O9 0.940720 0.713838 0.008586
O O10 0.898040 0.525570 0.438525
O O11 0.304829 0.771378 0.976420
O O12 0.289920 0.272968 0.998684
O O13 0.714697 0.799858 0.584021
O O14 0.764833 0.299282 0.512506
O O15 0.126672 0.029947 0.114201
O O16 0.396460 0.550782 0.438668
#
# Coordination Sequence:
#
# PCOD9117626 Si02
#       8
#     2   2   2   2   2   2   2   2
#     4  12  26  42  65  92 131 180 228 291 359 409
#     4  12  26  43  70 106 138 174 216 262 322 410
#     4  12  26  45  60  96 134 178 236 294 360 436
#     4  10  24  45  68 100 137 173 219 275 327 394
#     4  10  23  43  69  97 131 177 231 281 333 402
#     4  10  24  45  68 100 137 173 219 275 327 394
#     4  12  26  42  65  92 131 180 228 291 359 409
#     4  10  23  43  69  97 131 177 231 281 333 402
#
# _framework density 21.695533000000001
#
# number of rings (size 3 to 8) (size 9 to 14) (size 15 to 20)
#    0.000    1.000    3.750    1.500    7.000    1.000 
#    4.500    0.000    0.000    0.000    0.000    0.000 
#    0.000    0.000    0.000    0.000    0.000    0.000 
#
# Total GULP energy -89159.353181 kJ/mol
# GULP energy per Si atom -5572.459574 kJ/mol
# Density = 2.164615 g / cm^3
# Si number density = 21.695533 Si / 1000 Ang^3
#
#
#
# Elastic Constant Matrix: (Units=GPa)
#
#
# Indices 1 2 3 4 5 6 
#
# 1 112.9189 25.9356 39.2262 0.0000 6.7890 0.0000
# 2 25.9356 106.9877 39.1559 0.0000 15.3561 0.0000
# 3 39.2262 39.1559 145.3549 0.0000 6.3591 0.0000
# 4 0.0000 0.0000 0.0000 29.6286 0.0000 10.7446
# 5 6.7890 15.3561 6.3591 0.0000 43.4819 0.0000
# 6 0.0000 0.0000 0.0000 10.7446 0.0000 24.7699
#
#
#
# Elastic Compliance Matrix: (Units=1/GPa)
#
#
# Indices 1 2 3 4 5 6 
#
# 1 0.010032 -0.001499 -0.002273 0.000000 -0.000705 0.000000
# 2 -0.001499 0.011078 -0.002434 0.000000 -0.003322 0.000000
# 3 -0.002273 -0.002434 0.008148 0.000000 0.000023 0.000000
# 4 0.000000 0.000000 0.000000 0.040052 0.000000 -0.017374
# 5 -0.000705 -0.003322 0.000023 0.000000 0.024278 0.000000
# 6 0.000000 0.000000 0.000000 -0.017374 0.000000 0.047908
#
#
# Mechanical properties :
#
#
# Convention : Reuss Voigt Hill
#
# Bulk Modulus (GPa) = 59.36198 63.76634 61.56416
# Shear Modulus (GPa) = 31.34347 36.97232 34.15789
#
# Velocity S-wave (km/s) = 3.80504 4.13261 3.97220
# Velocity P-wave (km/s) = 6.83559 7.22679 7.03391
#
# Compressibility (1/GPa) = 0.01684580
#
# Stress axis : x y z
#
# Youngs Moduli (GPa) = 99.68031 90.26860 122.73278
#
# Poissons Ratio (x) = 0.13532 0.27893
# Poissons Ratio (y) = 0.14943 0.29877
# Poissons Ratio (z) = 0.22654 0.21974
#
# Static dielectric constant tensor:
#      x y z
#    x 1.846810 0.000000 -0.120030 
#    y 0.000000 1.826430 0.000000 
#    z -0.120030 0.000000 1.642280 
# 
# From -- ./inp_files/14112.got.cif
#   From: 2010.05.17/outbox.cif.g08.bks.cpg/sg4_8_cif.got.tgz:14112.got - 2010.06.03 18:43:04.
