data_PCOD9117215
_publ_section_title
;
Structure prediction by ZEFSAII (Michael W. Deem and Ramdas Pophale) SiO2 
 PCOD9117215
Probable space group: P 21
;
_chemical_formula_sum "Si O2"
_cell_formula_units_Z 16
_cell_length_a 16.945792
_cell_length_b 8.907037
_cell_length_c 16.012421
_cell_angle_alpha 90.000000
_cell_angle_beta 162.542776
_cell_angle_gamma 90.000000
_cell_volume 725.043803
_symmetry_space_group_name_H-M "P 21"
_symmetry_group_IT_number 4
_symmetry_cell_setting 'monoclinic'
loop_
_space_group_symop_operation_xyz
x,y,z
-x,1/2+y,-z
loop_
_atom_site_type_symbol
_atom_site_label
_atom_site_fract_x
_atom_site_fract_y
_atom_site_fract_z
Si Si1 0.875737 0.107240 0.668482
Si Si2 0.683542 0.505345 0.624968
Si Si3 0.647866 0.517136 0.952760
Si Si4 0.431150 0.762148 0.994768
Si Si5 0.733613 0.436079 0.486122
Si Si6 0.176747 0.663357 0.191432
Si Si7 0.934859 0.576176 0.542352
Si Si8 0.334620 0.327139 0.941400
O O1 0.588664 0.060683 0.347352
O O2 0.901206 0.282592 0.666526
O O3 0.890838 0.107903 0.783127
O O4 0.091581 0.006191 0.840290
O O5 0.635100 0.481685 0.477509
O O6 0.429946 0.574744 0.413359
O O7 0.761063 0.341026 0.739618
O O8 0.926798 0.618369 0.883695
O O9 0.557136 0.379930 0.917947
O O10 0.704254 0.654659 0.072802
O O11 0.656588 0.637159 0.231632
O O12 0.148280 0.688038 0.720005
O O13 0.491697 0.832934 0.966570
O O14 0.496986 0.398166 0.183002
O O15 0.903877 0.563000 0.611605
O O16 0.063370 0.414581 0.651682
#
# Coordination Sequence:
#
# PCOD9117215 Si02
#       8
#     2   2   2   2   2   2   2   2
#     4  10  22  44  72  93 134 183 237 265 338 440
#     4  11  25  46  74 105 142 180 237 288 355 424
#     4  11  23  43  67  97 130 186 228 278 343 418
#     4  12  28  42  66 106 144 170 231 303 350 386
#     4  10  24  46  74  99 134 194 238 272 343 444
#     4  11  24  46  70 107 137 181 232 295 348 419
#     4  12  25  46  65 101 135 183 228 289 343 407
#     4  11  25  47  74  94 136 195 239 274 344 430
#
# _framework density 22.067632
#
# number of rings (size 3 to 8) (size 9 to 14) (size 15 to 20)
#    0.000    1.000    2.500    3.000    3.500    3.000 
#   13.500    0.000    0.000    0.000    0.000    0.000 
#    0.000    0.000    0.000    0.000    0.000    0.000 
#
# Total GULP energy -89480.136673 kJ/mol
# GULP energy per Si atom -5592.508542 kJ/mol
# Density = 2.201741 g / cm^3
# Si number density = 22.067632 Si / 1000 Ang^3
#
#
#
# Elastic Constant Matrix: (Units=GPa)
#
#
# Indices 1 2 3 4 5 6 
#
# 1 122.9525 43.6992 53.9649 0.0000 7.8550 0.0000
# 2 43.6992 68.8946 34.0751 0.0000 1.9309 0.0000
# 3 53.9649 34.0751 69.8765 0.0000 12.6602 0.0000
# 4 0.0000 0.0000 0.0000 25.5726 0.0000 11.2891
# 5 7.8550 1.9309 12.6602 0.0000 33.6362 0.0000
# 6 0.0000 0.0000 0.0000 11.2891 0.0000 40.1782
#
#
#
# Elastic Compliance Matrix: (Units=1/GPa)
#
#
# Indices 1 2 3 4 5 6 
#
# 1 0.013247 -0.004387 -0.008131 0.000000 0.000219 0.000000
# 2 -0.004387 0.020794 -0.007213 0.000000 0.002546 0.000000
# 3 -0.008131 -0.007213 0.025422 0.000000 -0.007256 0.000000
# 4 0.000000 0.000000 0.000000 0.044642 0.000000 -0.012543
# 5 0.000219 0.002546 -0.007256 0.000000 0.032264 0.000000
# 6 0.000000 0.000000 0.000000 -0.012543 0.000000 0.028413
#
#
# Mechanical properties :
#
#
# Convention : Reuss Voigt Hill
#
# Bulk Modulus (GPa) = 49.99725 58.35577 54.17651
# Shear Modulus (GPa) = 23.70656 28.54302 26.12479
#
# Velocity S-wave (km/s) = 3.28116 3.60034 3.44445
# Velocity P-wave (km/s) = 6.08771 6.61700 6.35787
#
# Compressibility (1/GPa) = 0.02000110
#
# Stress axis : x y z
#
# Youngs Moduli (GPa) = 75.48734 48.09085 39.33524
#
# Poissons Ratio (x) = 0.21098 0.31983
# Poissons Ratio (y) = 0.33118 0.28373
# Poissons Ratio (z) = 0.61378 0.34689
#
# Static dielectric constant tensor:
#      x y z
#    x 1.782860 0.000000 0.002770 
#    y 0.000000 1.839070 0.000000 
#    z 0.002770 0.000000 1.796640 
# 
# From -- ./inp_files/13280.got.cif
#   From: 2010.05.17/outbox.cif.g08.bks.cpg/sg4_7_cif.got.tgz:13280.got - 2010.06.03 18:43:04.
