data_PCOD9117265
_publ_section_title
;
Structure prediction by ZEFSAII (Michael W. Deem and Ramdas Pophale) SiO2 
 PCOD9117265
Probable space group: P 21
;
_chemical_formula_sum "Si O2"
_cell_formula_units_Z 16
_cell_length_a 12.215240
_cell_length_b 7.614262
_cell_length_c 9.290026
_cell_angle_alpha 90.000000
_cell_angle_beta 130.140465
_cell_angle_gamma 90.000000
_cell_volume 660.549084
_symmetry_space_group_name_H-M "P 21"
_symmetry_group_IT_number 4
_symmetry_cell_setting 'monoclinic'
loop_
_space_group_symop_operation_xyz
x,y,z
-x,1/2+y,-z
loop_
_atom_site_type_symbol
_atom_site_label
_atom_site_fract_x
_atom_site_fract_y
_atom_site_fract_z
Si Si1 0.283853 0.839390 0.457655
Si Si2 0.628655 0.738511 0.386446
Si Si3 0.150404 0.176967 0.660726
Si Si4 0.155426 0.154333 0.986425
Si Si5 0.597209 0.787696 0.674583
Si Si6 0.073790 0.807472 0.018330
Si Si7 0.319599 0.618117 0.062885
Si Si8 0.825490 0.256438 0.333421
O O1 0.429060 0.753376 0.522838
O O2 0.160632 0.852081 0.236380
O O3 0.227162 0.736536 0.547908
O O4 0.328396 0.036776 0.538364
O O5 0.734845 0.774431 0.343650
O O6 0.645669 0.834221 0.554018
O O7 0.461425 0.738949 0.202043
O O8 0.150788 0.240941 0.826487
O O9 0.991432 0.201038 0.463148
O O10 0.185946 0.968001 0.702037
O O11 0.079168 0.255433 0.052003
O O12 0.315507 0.126349 0.181443
O O13 0.069811 0.972804 0.910043
O O14 0.630994 0.937383 0.820980
O O15 0.174531 0.668606 0.024893
O O16 0.271752 0.646251 0.858110
#
# Coordination Sequence:
#
# PCOD9117265 Si02
#       8
#     2   2   2   2   2   2   2   2
#     4  10  22  45  68  96 138 182 228 285 348 414
#     4  10  23  44  69  99 139 180 228 290 350 414
#     4  11  26  45  69 101 141 182 231 291 357 411
#     4  12  26  43  69 104 136 187 231 288 350 421
#     4  11  24  42  71 102 135 182 234 291 351 422
#     4  12  23  44  68  98 138 182 237 282 343 418
#     4  11  25  43  70 102 141 185 232 289 355 422
#     4  11  25  46  68 100 144 186 229 290 352 422
#
# _framework density 24.222273999999999
#
# number of rings (size 3 to 8) (size 9 to 14) (size 15 to 20)
#    0.000    1.000    5.000    0.750    5.250    1.000 
#    0.000    0.000    0.000    0.000    0.000    0.000 
#    0.000    0.000    0.000    0.000    0.000    0.000 
#
# Total GULP energy -89458.822506 kJ/mol
# GULP energy per Si atom -5591.176407 kJ/mol
# Density = 2.416714 g / cm^3
# Si number density = 24.222274 Si / 1000 Ang^3
#
#
#
# Elastic Constant Matrix: (Units=GPa)
#
#
# Indices 1 2 3 4 5 6 
#
# 1 124.0026 8.2159 44.1751 0.0000 -3.5406 0.0000
# 2 8.2159 56.4570 5.1894 0.0000 -3.3266 0.0000
# 3 44.1751 5.1894 132.7497 0.0000 -3.8643 0.0000
# 4 0.0000 0.0000 0.0000 29.9323 0.0000 -1.8535
# 5 -3.5406 -3.3266 -3.8643 0.0000 35.3469 0.0000
# 6 0.0000 0.0000 0.0000 -1.8535 0.0000 28.9137
#
#
#
# Elastic Compliance Matrix: (Units=1/GPa)
#
#
# Indices 1 2 3 4 5 6 
#
# 1 0.009221 -0.001036 -0.003013 0.000000 0.000497 0.000000
# 2 -0.001036 0.017984 -0.000313 0.000000 0.001555 0.000000
# 3 -0.003013 -0.000313 0.008566 0.000000 0.000605 0.000000
# 4 0.000000 0.000000 0.000000 0.033542 0.000000 0.002150
# 5 0.000497 0.001555 0.000605 0.000000 0.028553 0.000000
# 6 0.000000 0.000000 0.000000 0.002150 0.000000 0.034723
#
#
# Mechanical properties :
#
#
# Convention : Reuss Voigt Hill
#
# Bulk Modulus (GPa) = 36.97456 47.59669 42.28562
# Shear Modulus (GPa) = 33.26062 35.88053 34.57058
#
# Velocity S-wave (km/s) = 3.70961 3.85295 3.78196
# Velocity P-wave (km/s) = 5.80053 6.28381 6.04700
#
# Compressibility (1/GPa) = 0.02704563
#
# Stress axis : x y z
#
# Youngs Moduli (GPa) = 108.45221 55.60600 116.74604
#
# Poissons Ratio (x) = 0.05758 0.35180
# Poissons Ratio (y) = 0.11231 0.03656
# Poissons Ratio (z) = 0.32681 0.01741
#
# Static dielectric constant tensor:
#      x y z
#    x 1.958440 0.000000 -0.021050 
#    y 0.000000 2.028930 0.000000 
#    z -0.021050 0.000000 1.866290 
# 
# From -- ./inp_files/5419.got.cif
#   From: 2010.05.17/outbox.cif.g08.bks.cpg/sg4_3_cif.got.tgz:5419.got - 2010.06.03 18:43:04.
