data_PCOD9117230
_publ_section_title
;
Structure prediction by ZEFSAII (Michael W. Deem and Ramdas Pophale) SiO2 
 PCOD9117230
Probable space group: P 21
;
_chemical_formula_sum "Si O2"
_cell_formula_units_Z 16
_cell_length_a 7.665617
_cell_length_b 12.051725
_cell_length_c 10.062967
_cell_angle_alpha 90.000000
_cell_angle_beta 44.940515
_cell_angle_gamma 90.000000
_cell_volume 656.683378
_symmetry_space_group_name_H-M "P 21"
_symmetry_group_IT_number 4
_symmetry_cell_setting 'monoclinic'
loop_
_space_group_symop_operation_xyz
x,y,z
-x,1/2+y,-z
loop_
_atom_site_type_symbol
_atom_site_label
_atom_site_fract_x
_atom_site_fract_y
_atom_site_fract_z
Si Si1 0.586235 0.776240 0.411970
Si Si2 0.491343 0.433490 0.329501
Si Si3 0.798672 0.157239 0.525996
Si Si4 0.807729 0.451612 0.889171
Si Si5 0.753181 0.214114 0.827306
Si Si6 0.906974 0.561911 0.228793
Si Si7 0.267178 0.503955 0.797470
Si Si8 0.636572 0.620892 0.765966
O O1 0.602331 0.819566 0.556043
O O2 0.316000 0.723677 0.535075
O O3 0.768728 0.677223 0.268212
O O4 0.642693 0.881621 0.288302
O O5 0.285527 0.528820 0.430649
O O6 0.636225 0.434954 0.112023
O O7 0.688438 0.474178 0.335854
O O8 0.662602 0.212791 0.726431
O O9 0.090109 0.170690 0.387367
O O10 0.877661 0.330077 0.798616
O O11 0.671115 0.513713 0.843719
O O12 0.047379 0.521595 0.807831
O O13 0.930328 0.105356 0.737194
O O14 0.544286 0.197859 0.050673
O O15 0.110434 0.517889 0.016447
O O16 0.502872 0.581911 0.701897
#
# Coordination Sequence:
#
# PCOD9117230 Si02
#       8
#     2   2   2   2   2   2   2   2
#     4  11  22  46  69 108 142 191 255 297 372 448
#     4  10  23  45  71 103 145 194 239 311 364 444
#     4  11  25  46  73 106 150 188 241 315 368 441
#     4  11  22  48  73 102 144 194 244 299 377 440
#     4  11  23  46  69 100 144 185 241 308 363 448
#     4   9  22  42  68 102 139 186 245 298 364 438
#     4  10  22  44  75 100 143 195 237 309 366 431
#     4  11  25  47  70 107 143 189 240 307 374 434
#
# _framework density 24.364864000000001
#
# number of rings (size 3 to 8) (size 9 to 14) (size 15 to 20)
#    0.000    1.500    2.500    1.500    1.750    1.000 
#   27.000    0.000    0.000    0.000    0.000    0.000 
#    0.000    0.000    0.000    0.000    0.000    0.000 
#
# Total GULP energy -89341.716305 kJ/mol
# GULP energy per Si atom -5583.857269 kJ/mol
# Density = 2.430941 g / cm^3
# Si number density = 24.364864 Si / 1000 Ang^3
#
#
#
# Elastic Constant Matrix: (Units=GPa)
#
#
# Indices 1 2 3 4 5 6 
#
# 1 99.6657 20.4291 24.9048 0.0000 -9.7517 0.0000
# 2 20.4291 93.0232 36.7696 0.0000 -2.5732 0.0000
# 3 24.9048 36.7696 99.5221 0.0000 0.8829 0.0000
# 4 0.0000 0.0000 0.0000 31.6225 0.0000 -3.9151
# 5 -9.7517 -2.5732 0.8829 0.0000 47.4221 0.0000
# 6 0.0000 0.0000 0.0000 -3.9151 0.0000 42.5754
#
#
#
# Elastic Compliance Matrix: (Units=1/GPa)
#
#
# Indices 1 2 3 4 5 6 
#
# 1 0.011122 -0.001490 -0.002253 0.000000 0.002248 0.000000
# 2 -0.001490 0.012816 -0.004366 0.000000 0.000470 0.000000
# 3 -0.002253 -0.004366 0.012233 0.000000 -0.000928 0.000000
# 4 0.000000 0.000000 0.000000 0.031987 0.000000 0.002941
# 5 0.002248 0.000470 -0.000928 0.000000 0.021592 0.000000
# 6 0.000000 0.000000 0.000000 0.002941 0.000000 0.023758
#
#
# Mechanical properties :
#
#
# Convention : Reuss Voigt Hill
#
# Bulk Modulus (GPa) = 50.11720 50.71311 50.41516
# Shear Modulus (GPa) = 36.66283 38.33116 37.49699
#
# Velocity S-wave (km/s) = 3.88331 3.97068 3.92724
# Velocity P-wave (km/s) = 6.38129 6.47155 6.42658
#
# Compressibility (1/GPa) = 0.01995323
#
# Stress axis : x y z
#
# Youngs Moduli (GPa) = 89.91347 78.02654 81.74489
#
# Poissons Ratio (x) = 0.11625 0.18414
# Poissons Ratio (y) = 0.13396 0.35693
# Poissons Ratio (z) = 0.20254 0.34070
#
# Static dielectric constant tensor:
#      x y z
#    x 1.982960 0.000000 -0.043980 
#    y 0.000000 1.888580 0.000000 
#    z -0.043980 0.000000 1.967490 
# 
# From -- ./inp_files/11340.got.cif
#   From: 2010.05.17/outbox.cif.g08.bks.cpg/sg4_6_cif.got.tgz:11340.got - 2010.06.03 18:43:04.
