data_PCOD9117984
_publ_section_title
;
Structure prediction by ZEFSAII (Michael W. Deem and Ramdas Pophale) SiO2 
 PCOD9117984
Probable space group: P 21
;
_chemical_formula_sum "Si O2"
_cell_formula_units_Z 16
_cell_length_a 8.835625
_cell_length_b 6.300188
_cell_length_c 17.389914
_cell_angle_alpha 90.000000
_cell_angle_beta 135.113083
_cell_angle_gamma 90.000000
_cell_volume 683.147326
_symmetry_space_group_name_H-M "P 21"
_symmetry_group_IT_number 4
_symmetry_cell_setting 'monoclinic'
loop_
_space_group_symop_operation_xyz
x,y,z
-x,1/2+y,-z
loop_
_atom_site_type_symbol
_atom_site_label
_atom_site_fract_x
_atom_site_fract_y
_atom_site_fract_z
Si Si1 0.042433 0.711090 0.214292
Si Si2 0.803965 0.372208 0.458264
Si Si3 0.648933 0.493800 0.150917
Si Si4 0.831178 0.071046 0.047901
Si Si5 0.408585 0.712165 0.474173
Si Si6 0.149084 0.425500 0.119306
Si Si7 0.417829 0.685343 0.752768
Si Si8 0.279495 0.252185 0.666035
O O1 0.213396 0.721010 0.343769
O O2 0.154160 0.626236 0.176888
O O3 0.850260 0.555255 0.172163
O O4 0.936368 0.934269 0.153261
O O5 0.662347 0.231557 0.463140
O O6 0.787572 0.268236 0.368535
O O7 0.713530 0.607763 0.408231
O O8 0.041389 0.351150 0.576607
O O9 0.614781 0.252419 0.170004
O O10 0.688286 0.614791 0.245817
O O11 0.425046 0.574613 0.035468
O O12 0.951636 0.290434 0.079722
O O13 0.874118 0.965748 0.979533
O O14 0.492017 0.460876 0.498492
O O15 0.373304 0.302747 0.204402
O O16 0.441463 0.442399 0.738700
#
# Coordination Sequence:
#
# PCOD9117984 Si02
#       8
#     2   2   2   2   2   2   2   2
#     4  12  27  49  77 109 155 203 260 328 401 471
#     4  11  23  43  70 109 147 198 251 314 384 468
#     4  10  26  46  68 111 142 195 253 324 394 464
#     4  11  26  46  74 105 146 194 258 321 400 479
#     4  12  31  51  76 116 166 213 263 327 400 480
#     4  11  25  47  72 104 145 198 253 321 392 476
#     4  10  24  42  74 103 145 193 254 311 386 467
#     4  11  22  42  75 103 146 194 252 318 387 465
#
# _framework density 23.421009000000002
#
# number of rings (size 3 to 8) (size 9 to 14) (size 15 to 20)
#    0.000    1.000    3.750    0.750    8.750    3.000 
#    0.000    0.000    0.000    0.000    0.000    0.000 
#    0.000    0.000    0.000    0.000    0.000    0.000 
#
# Total GULP energy -89227.679876 kJ/mol
# GULP energy per Si atom -5576.729992 kJ/mol
# Density = 2.336770 g / cm^3
# Si number density = 23.421009 Si / 1000 Ang^3
#
#
#
# Elastic Constant Matrix: (Units=GPa)
#
#
# Indices 1 2 3 4 5 6 
#
# 1 61.8272 26.6033 24.5764 0.0000 7.7260 0.0000
# 2 26.6033 91.2081 33.5346 0.0000 15.1593 0.0000
# 3 24.5764 33.5346 112.4982 0.0000 12.1751 0.0000
# 4 0.0000 0.0000 0.0000 41.9147 0.0000 2.2400
# 5 7.7260 15.1593 12.1751 0.0000 19.0583 0.0000
# 6 0.0000 0.0000 0.0000 2.2400 0.0000 15.8285
#
#
#
# Elastic Compliance Matrix: (Units=1/GPa)
#
#
# Indices 1 2 3 4 5 6 
#
# 1 0.019400 -0.004207 -0.002681 0.000000 -0.002806 0.000000
# 2 -0.004207 0.014477 -0.002508 0.000000 -0.008208 0.000000
# 3 -0.002681 -0.002508 0.010623 0.000000 -0.003705 0.000000
# 4 0.000000 0.000000 0.000000 0.024040 0.000000 -0.003402
# 5 -0.002806 -0.008208 -0.003705 0.000000 0.062504 0.000000
# 6 0.000000 0.000000 0.000000 -0.003402 0.000000 0.063659
#
#
# Mechanical properties :
#
#
# Convention : Reuss Voigt Hill
#
# Bulk Modulus (GPa) = 38.89537 48.32911 43.61224
# Shear Modulus (GPa) = 22.51601 27.41489 24.96545
#
# Velocity S-wave (km/s) = 3.10394 3.42501 3.26842
# Velocity P-wave (km/s) = 5.43038 6.02666 5.73627
#
# Compressibility (1/GPa) = 0.02571000
#
# Stress axis : x y z
#
# Youngs Moduli (GPa) = 51.54538 69.07346 94.13305
#
# Poissons Ratio (x) = 0.29057 0.25233
# Poissons Ratio (y) = 0.21684 0.23611
# Poissons Ratio (z) = 0.13817 0.17325
#
# Static dielectric constant tensor:
#      x y z
#    x 1.859180 0.000000 0.019120 
#    y 0.000000 2.052260 0.000000 
#    z 0.019120 0.000000 1.844160 
# 
# From -- ./inp_files/14873.got.cif
#   From: 2010.05.17/outbox.cif.g08.bks.cpg/sg4_8_cif.got.tgz:14873.got - 2010.06.03 18:43:04.
