data_PCOD9117934
_publ_section_title
;
Structure prediction by ZEFSAII (Michael W. Deem and Ramdas Pophale) SiO2 
 PCOD9117934
Probable space group: P 21
;
_chemical_formula_sum "Si O2"
_cell_formula_units_Z 14
_cell_length_a 24.629546
_cell_length_b 4.787953
_cell_length_c 9.044917
_cell_angle_alpha 90.000000
_cell_angle_beta 149.263023
_cell_angle_gamma 90.000000
_cell_volume 545.148507
_symmetry_space_group_name_H-M "P 21"
_symmetry_group_IT_number 4
_symmetry_cell_setting 'monoclinic'
loop_
_space_group_symop_operation_xyz
x,y,z
-x,1/2+y,-z
loop_
_atom_site_type_symbol
_atom_site_label
_atom_site_fract_x
_atom_site_fract_y
_atom_site_fract_z
Si Si1 0.017455 0.871450 0.437395
Si Si2 0.430409 0.527238 0.815441
Si Si3 0.235738 0.872371 0.825449
Si Si4 0.574810 0.714698 0.659516
Si Si5 0.682652 0.385092 0.679180
Si Si6 0.210213 0.530354 0.475019
Si Si7 0.863258 0.527623 0.865968
O O1 0.038641 0.635462 0.614466
O O2 0.122225 0.998338 0.605689
O O3 0.953991 0.692293 0.166339
O O4 0.396080 0.677386 0.585281
O O5 0.328116 0.552859 0.680925
O O6 0.528948 0.713859 0.100910
O O7 0.217032 0.650187 0.654316
O O8 0.332249 0.088567 0.016952
O O9 0.268457 0.739578 0.060439
O O10 0.470266 0.518415 0.420231
O O11 0.625609 0.646695 0.621044
O O12 0.769824 0.493260 0.768461
O O13 0.173531 0.217846 0.357925
O O14 0.128841 0.723013 0.188263
#
# Coordination Sequence:
#
# PCOD9117934 Si02
#       7
#     2   2   2   2   2   2   2
#     4  12  25  46  77 107 136 186 245 291 357 441
#     4  11  24  40  65  95 136 188 237 279 349 419
#     4  10  26  46  72 108 140 186 243 301 356 432
#     4  10  24  40  66  97 140 179 232 296 359 412
#     4   9  23  45  67 101 137 188 239 292 345 436
#     4  11  26  44  67 104 146 182 234 299 363 420
#     4  11  24  47  70 100 145 183 234 296 361 426
#
# _framework density 25.681076000000001
#
# number of rings (size 3 to 8) (size 9 to 14) (size 15 to 20)
#    0.857    0.571    1.429    2.571    6.000    8.000 
#    0.000    0.000    0.000    0.000    0.000    0.000 
#    0.000    0.000    0.000    0.000    0.000    0.000 
#
# Total GULP energy -78335.088491 kJ/mol
# GULP energy per Si atom -5595.363464 kJ/mol
# Density = 2.562263 g / cm^3
# Si number density = 25.681076 Si / 1000 Ang^3
#
#
#
# Elastic Constant Matrix: (Units=GPa)
#
#
# Indices 1 2 3 4 5 6 
#
# 1 -110.9337 63.0635 21.6210 0.0000 -7.8985 0.0000
# 2 63.0635 96.0087 8.6961 0.0000 4.2793 0.0000
# 3 21.6210 8.6961 99.9094 0.0000 -1.4396 0.0000
# 4 0.0000 0.0000 0.0000 28.6133 0.0000 -1.4973
# 5 -7.8985 4.2793 -1.4396 0.0000 43.8228 0.0000
# 6 0.0000 0.0000 0.0000 -1.4973 0.0000 27.5522
#
#
#
# Elastic Compliance Matrix: (Units=1/GPa)
#
#
# Indices 1 2 3 4 5 6 
#
# 1 -0.006353 0.004151 0.000992 0.000000 -0.001518 0.000000
# 2 0.004151 0.007835 -0.001581 0.000000 -0.000069 0.000000
# 3 0.000992 -0.001581 0.009942 0.000000 0.000660 0.000000
# 4 0.000000 0.000000 0.000000 0.035048 0.000000 0.001905
# 5 -0.001518 -0.000069 0.000660 0.000000 0.022574 0.000000
# 6 0.000000 0.000000 0.000000 0.001905 0.000000 0.036398
#
#
# Mechanical properties :
#
#
# Convention : Reuss Voigt Hill
#
# Bulk Modulus (GPa) = 53.91827 30.19396 42.05612
# Shear Modulus (GPa) = 47.84516 19.43791 33.64154
#
# Velocity S-wave (km/s) = 4.32099 2.75416 3.62328
# Velocity P-wave (km/s) = 6.77757 4.67939 5.82375
#
# Compressibility (1/GPa) = 0.01854659
#
# Stress axis : x y z
#
# Youngs Moduli (GPa) = -157.39896 127.62530 100.58745
#
# Poissons Ratio (x) = -0.52977 -0.09975
# Poissons Ratio (y) = 0.65336 0.15906
# Poissons Ratio (z) = 0.15610 0.20181
#
# Static dielectric constant tensor:
#      x y z
#    x 1.972590 0.000000 -0.015620 
#    y 0.000000 1.957120 0.000000 
#    z -0.015620 0.000000 2.095980 
# 
# From -- ./inp_files/10128.got.cif
#   From: 2010.05.17/outbox.cif.g08.bks.cpg/sg4_6_cif.got.tgz:10128.got - 2010.06.03 18:43:04.
