data_PCOD9117616
_publ_section_title
;
Structure prediction by ZEFSAII (Michael W. Deem and Ramdas Pophale) SiO2 
 PCOD9117616
Probable space group: P 21
;
_chemical_formula_sum "Si O2"
_cell_formula_units_Z 16
_cell_length_a 14.994832
_cell_length_b 5.558722
_cell_length_c 6.868349
_cell_angle_alpha 90.000000
_cell_angle_beta 92.769258
_cell_angle_gamma 90.000000
_cell_volume 571.822777
_symmetry_space_group_name_H-M "P 21"
_symmetry_group_IT_number 4
_symmetry_cell_setting 'monoclinic'
loop_
_space_group_symop_operation_xyz
x,y,z
-x,1/2+y,-z
loop_
_atom_site_type_symbol
_atom_site_label
_atom_site_fract_x
_atom_site_fract_y
_atom_site_fract_z
Si Si1 0.263574 0.187510 0.275998
Si Si2 0.909842 0.947024 0.584003
Si Si3 0.688769 0.984216 0.090737
Si Si4 0.680531 0.491642 0.301808
Si Si5 0.135503 0.836433 0.136802
Si Si6 0.499179 0.977778 0.248960
Si Si7 0.533719 0.979946 0.705036
Si Si8 0.037718 0.615697 0.809239
O O1 0.171341 0.277696 0.366459
O O2 0.308522 0.052856 0.467228
O O3 0.228051 0.972026 0.136692
O O4 0.288981 0.415969 0.135042
O O5 0.879933 0.206438 0.659633
O O6 0.929162 0.948211 0.359930
O O7 0.999263 0.853529 0.699618
O O8 0.716303 0.737289 0.205677
O O9 0.580054 0.981139 0.107832
O O10 0.712228 0.231475 0.216824
O O11 0.572794 0.483316 0.260861
O O12 0.117614 0.642857 0.968112
O O13 0.049840 0.008097 0.098269
O O14 0.542757 0.979274 0.470013
O O15 0.438853 0.743683 0.226902
O O16 0.439529 0.213477 0.228913
#
# Coordination Sequence:
#
# PCOD9117616 Si02
#       8
#     2   2   2   2   2   2   2   2
#     4  11  28  44  64 102 140 182 234 286 348 446
#     4  11  24  42  67  97 127 170 218 281 349 408
#     4  10  23  43  68  97 141 191 233 291 356 417
#     4  10  23  43  68  97 141 191 233 291 356 417
#     4  11  24  42  67  97 127 170 218 281 349 408
#     4   8  14  29  58  93 126 173 233 283 340 406
#     4   8  14  29  58  93 126 173 233 283 340 406
#     4  11  22  44  68  92 126 160 214 280 340 406
#
# _framework density 27.980699999999999
#
# number of rings (size 3 to 8) (size 9 to 14) (size 15 to 20)
#    0.000    2.000    2.500    0.000    3.500    2.000 
#    0.000    0.000    0.000   15.000    0.000    0.000 
#    0.000    0.000    0.000    0.000    0.000    0.000 
#
# Total GULP energy -89445.462566 kJ/mol
# GULP energy per Si atom -5590.341410 kJ/mol
# Density = 2.791701 g / cm^3
# Si number density = 27.980700 Si / 1000 Ang^3
#
#
#
# Elastic Constant Matrix: (Units=GPa)
#
#
# Indices 1 2 3 4 5 6 
#
# 1 39.7657 42.6337 22.4099 0.0000 -4.0010 0.0000
# 2 42.6337 215.5530 82.0230 0.0000 8.5120 0.0000
# 3 22.4099 82.0230 153.9316 0.0000 -14.6040 0.0000
# 4 0.0000 0.0000 0.0000 48.5525 0.0000 -5.6029
# 5 -4.0010 8.5120 -14.6040 0.0000 40.0892 0.0000
# 6 0.0000 0.0000 0.0000 -5.6029 0.0000 48.2292
#
#
#
# Elastic Compliance Matrix: (Units=1/GPa)
#
#
# Indices 1 2 3 4 5 6 
#
# 1 0.032889 -0.006276 -0.001042 0.000000 0.004235 0.000000
# 2 -0.006276 0.007259 -0.003273 0.000000 -0.003360 0.000000
# 3 -0.001042 -0.003273 0.008751 0.000000 0.003779 0.000000
# 4 0.000000 0.000000 0.000000 0.020876 0.000000 0.002425
# 5 0.004235 -0.003360 0.003779 0.000000 0.027457 0.000000
# 6 0.000000 0.000000 0.000000 0.002425 0.000000 0.021016
#
#
# Mechanical properties :
#
#
# Convention : Reuss Voigt Hill
#
# Bulk Modulus (GPa) = 36.07953 78.15374 57.11663
# Shear Modulus (GPa) = 33.63202 44.85310 39.24256
#
# Velocity S-wave (km/s) = 3.47071 4.00809 3.74904
# Velocity P-wave (km/s) = 5.38363 7.02934 6.26080
#
# Compressibility (1/GPa) = 0.02771655
#
# Stress axis : x y z
#
# Youngs Moduli (GPa) = 30.40523 137.76837 114.27812
#
# Poissons Ratio (x) = 0.86459 0.11911
# Poissons Ratio (y) = 0.19081 0.37402
# Poissons Ratio (z) = 0.03169 0.45090
#
# Static dielectric constant tensor:
#      x y z
#    x 2.210940 0.000000 0.012600 
#    y 0.000000 2.272840 0.000000 
#    z 0.012600 0.000000 2.226820 
# 
# From -- ./inp_files/3955.got.cif
#   From: 2010.05.17/outbox.cif.g08.bks.cpg/sg4_2_cif.got.tgz:3955.got - 2010.06.03 18:43:04.
