data_PCOD9117064
_publ_section_title
;
Structure prediction by ZEFSAII (Michael W. Deem and Ramdas Pophale) SiO2 
 PCOD9117064
Probable space group: P 21
;
_chemical_formula_sum "Si O2"
_cell_formula_units_Z 16
_cell_length_a 5.201202
_cell_length_b 8.492595
_cell_length_c 17.818394
_cell_angle_alpha 90.000000
_cell_angle_beta 123.305087
_cell_angle_gamma 90.000000
_cell_volume 657.799522
_symmetry_space_group_name_H-M "P 21"
_symmetry_group_IT_number 4
_symmetry_cell_setting 'monoclinic'
loop_
_space_group_symop_operation_xyz
x,y,z
-x,1/2+y,-z
loop_
_atom_site_type_symbol
_atom_site_label
_atom_site_fract_x
_atom_site_fract_y
_atom_site_fract_z
Si Si1 0.906302 0.679580 0.338356
Si Si2 0.164683 0.109694 0.260826
Si Si3 0.345678 0.736448 0.031696
Si Si4 0.074213 0.045417 0.928730
Si Si5 0.257023 0.112034 0.541974
Si Si6 0.572781 0.419617 0.575175
Si Si7 0.178353 0.481427 0.268641
Si Si8 0.456346 0.435103 0.791395
O O1 0.009169 0.625450 0.438134
O O2 0.176237 0.794968 0.354630
O O3 0.904938 0.536701 0.280653
O O4 0.629944 0.801913 0.284543
O O5 0.176115 0.295799 0.260023
O O6 0.259184 0.031297 0.197108
O O7 0.833676 0.049300 0.237718
O O8 0.430896 0.052051 0.361836
O O9 0.621092 0.650922 0.032582
O O10 0.122519 0.607834 0.033183
O O11 0.473964 0.840215 0.121814
O O12 0.169288 0.864056 0.953555
O O13 0.882571 0.058853 0.821276
O O14 0.298737 0.293785 0.521275
O O15 0.283622 0.999599 0.475565
O O16 0.511700 0.039485 0.640762
#
# Coordination Sequence:
#
# PCOD9117064 Si02
#       8
#     2   2   2   2   2   2   2   2
#     4  10  22  43  66  94 132 191 230 292 356 419
#     4  11  25  42  70 105 138 184 239 290 348 424
#     4  12  27  48  75 107 145 188 237 299 364 432
#     4  12  28  47  76 106 148 184 244 293 369 429
#     4  11  22  43  67  91 143 182 236 296 356 419
#     4  10  23  39  63  99 133 182 235 287 356 411
#     4  11  26  43  69 102 136 186 244 291 358 428
#     4  11  23  45  72  94 141 185 231 284 361 422
#
# _framework density 24.323522000000001
#
# number of rings (size 3 to 8) (size 9 to 14) (size 15 to 20)
#    0.000    1.000    2.500    3.000    7.000    3.000 
#    2.250    0.000    0.000    0.000    0.000    0.000 
#    0.000    0.000    0.000    0.000    0.000    0.000 
#
# Total GULP energy -89430.910389 kJ/mol
# GULP energy per Si atom -5589.431899 kJ/mol
# Density = 2.426816 g / cm^3
# Si number density = 24.323522 Si / 1000 Ang^3
#
#
#
# Elastic Constant Matrix: (Units=GPa)
#
#
# Indices 1 2 3 4 5 6 
#
# 1 60.2430 13.3061 -11.5067 0.0000 0.1757 0.0000
# 2 13.3061 82.2474 -10.4465 0.0000 5.4437 0.0000
# 3 -11.5067 -10.4465 51.4690 0.0000 -4.5050 0.0000
# 4 0.0000 0.0000 0.0000 41.6962 0.0000 -8.5503
# 5 0.1757 5.4437 -4.5050 0.0000 20.4995 0.0000
# 6 0.0000 0.0000 0.0000 -8.5503 0.0000 34.3897
#
#
#
# Elastic Compliance Matrix: (Units=1/GPa)
#
#
# Indices 1 2 3 4 5 6 
#
# 1 0.017837 -0.002516 0.003591 0.000000 0.001304 0.000000
# 2 -0.002516 0.012996 0.001810 0.000000 -0.003032 0.000000
# 3 0.003591 0.001810 0.020958 0.000000 0.004094 0.000000
# 4 0.000000 0.000000 0.000000 0.025271 0.000000 0.006283
# 5 0.001304 -0.003032 0.004094 0.000000 0.050475 0.000000
# 6 0.000000 0.000000 0.000000 0.006283 0.000000 0.030641
#
#
# Mechanical properties :
#
#
# Convention : Reuss Voigt Hill
#
# Bulk Modulus (GPa) = 17.37267 19.62948 18.50107
# Shear Modulus (GPa) = 29.13836 32.82418 30.98127
#
# Velocity S-wave (km/s) = 3.46490 3.67752 3.57279
# Velocity P-wave (km/s) = 4.81302 5.11076 4.96412
#
# Compressibility (1/GPa) = 0.05756168
#
# Stress axis : x y z
#
# Youngs Moduli (GPa) = 56.06236 76.94663 47.71499
#
# Poissons Ratio (x) = 0.19359 -0.17136
# Poissons Ratio (y) = 0.14105 -0.08636
# Poissons Ratio (z) = -0.20134 -0.13927
#
# Static dielectric constant tensor:
#      x y z
#    x 2.320450 0.000000 0.067830 
#    y 0.000000 1.928740 0.000000 
#    z 0.067830 0.000000 2.021020 
# 
# From -- ./inp_files/3452.got.cif
#   From: 2010.05.17/outbox.cif.g08.bks.cpg/sg4_2_cif.got.tgz:3452.got - 2010.06.03 18:43:04.
