data_PCOD9117080
_publ_section_title
;
Structure prediction by ZEFSAII (Michael W. Deem and Ramdas Pophale) SiO2 
 PCOD9117080
Probable space group: P 21
;
_chemical_formula_sum "Si O2"
_cell_formula_units_Z 14
_cell_length_a 8.229930
_cell_length_b 8.070158
_cell_length_c 11.861992
_cell_angle_alpha 90.000000
_cell_angle_beta 137.334019
_cell_angle_gamma 90.000000
_cell_volume 533.934715
_symmetry_space_group_name_H-M "P 21"
_symmetry_group_IT_number 4
_symmetry_cell_setting 'monoclinic'
loop_
_space_group_symop_operation_xyz
x,y,z
-x,1/2+y,-z
loop_
_atom_site_type_symbol
_atom_site_label
_atom_site_fract_x
_atom_site_fract_y
_atom_site_fract_z
Si Si1 0.044069 0.994120 0.494866
Si Si2 0.740455 0.808269 0.153977
Si Si3 0.035136 0.229895 0.944746
Si Si4 0.609589 0.214865 0.601284
Si Si5 0.924196 0.806421 0.625760
Si Si6 0.447459 0.382196 0.308483
Si Si7 0.756288 0.154818 0.026180
O O1 0.918654 0.863810 0.344918
O O2 0.968866 0.975217 0.585115
O O3 0.966121 0.167934 0.402569
O O4 0.330514 0.967581 0.641161
O O5 0.719703 0.976975 0.067631
O O6 0.828177 0.675928 0.102117
O O7 0.494776 0.750119 0.086884
O O8 0.248696 0.303803 0.128083
O O9 0.871893 0.141826 0.959702
O O10 0.816920 0.323429 0.766472
O O11 0.354041 0.265976 0.518320
O O12 0.570922 0.245477 0.450722
O O13 0.652608 0.024098 0.657009
O O14 0.048693 0.762908 0.805638
#
# Coordination Sequence:
#
# PCOD9117080 Si02
#       7
#     2   2   2   2   2   2   2
#     4  10  22  43  67  97 136 181 230 289 351 418
#     4  11  25  45  71 104 145 188 240 298 358 431
#     4  12  24  44  74 106 144 188 238 294 366 428
#     4  11  24  43  69  99 138 182 232 291 350 423
#     4  10  22  43  67  97 136 181 230 289 351 418
#     4  11  24  43  69  99 138 182 232 291 350 423
#     4  11  25  45  71 104 145 188 240 298 358 431
#
# _framework density 26.220433
#
# number of rings (size 3 to 8) (size 9 to 14) (size 15 to 20)
#    0.000    1.143    2.857    2.571    0.000    8.000 
#    0.000    0.000    0.000    0.000    0.000    0.000 
#    0.000    0.000    0.000    0.000    0.000    0.000 
#
# Total GULP energy -78189.225953 kJ/mol
# GULP energy per Si atom -5584.944711 kJ/mol
# Density = 2.616075 g / cm^3
# Si number density = 26.220433 Si / 1000 Ang^3
#
#
#
# Elastic Constant Matrix: (Units=GPa)
#
#
# Indices 1 2 3 4 5 6 
#
# 1 84.4254 16.9794 59.3454 0.0000 0.7521 0.0000
# 2 16.9794 68.1837 43.2969 0.0000 -4.0748 0.0000
# 3 59.3454 43.2969 200.4967 0.0000 -8.8604 0.0000
# 4 0.0000 0.0000 0.0000 35.5586 0.0000 -12.5584
# 5 0.7521 -4.0748 -8.8604 0.0000 59.0104 0.0000
# 6 0.0000 0.0000 0.0000 -12.5584 0.0000 38.5335
#
#
#
# Elastic Compliance Matrix: (Units=1/GPa)
#
#
# Indices 1 2 3 4 5 6 
#
# 1 0.015071 -0.001100 -0.004264 0.000000 -0.000908 0.000000
# 2 -0.001100 0.017100 -0.003337 0.000000 0.000694 0.000000
# 3 -0.004264 -0.003337 0.007009 0.000000 0.000876 0.000000
# 4 0.000000 0.000000 0.000000 0.031781 0.000000 0.010358
# 5 -0.000908 0.000694 0.000876 0.000000 0.017137 0.000000
# 6 0.000000 0.000000 0.000000 0.010358 0.000000 0.029327
#
#
# Mechanical properties :
#
#
# Convention : Reuss Voigt Hill
#
# Bulk Modulus (GPa) = 45.91333 65.81657 55.86495
# Shear Modulus (GPa) = 35.19015 42.18611 38.68813
#
# Velocity S-wave (km/s) = 3.66743 4.01546 3.84539
# Velocity P-wave (km/s) = 5.95667 6.83040 6.40844
#
# Compressibility (1/GPa) = 0.02178017
#
# Stress axis : x y z
#
# Youngs Moduli (GPa) = 66.35235 58.47831 142.67731
#
# Poissons Ratio (x) = 0.06433 0.60831
# Poissons Ratio (y) = 0.07299 0.47605
# Poissons Ratio (z) = 0.28289 0.19512
#
# Static dielectric constant tensor:
#      x y z
#    x 2.118230 0.000000 -0.015310 
#    y 0.000000 2.226550 0.000000 
#    z -0.015310 0.000000 1.996010 
# 
# From -- ./inp_files/7937.got.cif
#   From: 2010.05.17/outbox.cif.g08.bks.cpg/sg4_4_cif.got.tgz:7937.got - 2010.06.03 18:43:04.
