data_PCOD9117814
_publ_section_title
;
Structure prediction by ZEFSAII (Michael W. Deem and Ramdas Pophale) SiO2 
 PCOD9117814
Probable space group: P 21
;
_chemical_formula_sum "Si O2"
_cell_formula_units_Z 14
_cell_length_a 11.324818
_cell_length_b 9.319370
_cell_length_c 8.619861
_cell_angle_alpha 90.000000
_cell_angle_beta 139.061993
_cell_angle_gamma 90.000000
_cell_volume 596.100955
_symmetry_space_group_name_H-M "P 21"
_symmetry_group_IT_number 4
_symmetry_cell_setting 'monoclinic'
loop_
_space_group_symop_operation_xyz
x,y,z
-x,1/2+y,-z
loop_
_atom_site_type_symbol
_atom_site_label
_atom_site_fract_x
_atom_site_fract_y
_atom_site_fract_z
Si Si1 0.128103 0.514130 0.155797
Si Si2 0.329550 0.125429 0.974346
Si Si3 0.437010 0.641021 0.261812
Si Si4 0.944142 0.976281 0.560872
Si Si5 0.228333 0.197915 0.210336
Si Si6 0.190373 0.727096 0.747450
Si Si7 0.518989 0.401969 0.100001
O O1 0.294162 0.604076 0.253478
O O2 0.138814 0.498190 0.352089
O O3 0.143011 0.354552 0.100299
O O4 0.937910 0.589711 0.925718
O O5 0.336210 0.145562 0.165127
O O6 0.369841 0.279181 0.938699
O O7 0.131867 0.064584 0.749539
O O8 0.460797 0.012163 0.022328
O O9 0.621542 0.706995 0.507283
O O10 0.491413 0.495555 0.225643
O O11 0.324552 0.734761 0.026965
O O12 0.839375 0.061450 0.323527
O O13 0.008513 0.813656 0.601609
O O14 0.294300 0.810768 0.713662
#
# Coordination Sequence:
#
# PCOD9117814 Si02
#       7
#     2   2   2   2   2   2   2
#     4  11  26  47  76 105 150 193 243 305 375 435
#     4  10  23  46  69 106 140 191 243 301 367 431
#     4  12  27  44  75 110 146 194 246 303 374 437
#     4  10  26  45  72 106 143 192 246 304 361 439
#     4  11  27  49  74 110 153 191 244 306 370 447
#     4  11  26  46  73 105 145 193 251 300 372 429
#     4  11  23  45  71 104 143 186 247 299 359 438
#
# _framework density 23.485954
#
# number of rings (size 3 to 8) (size 9 to 14) (size 15 to 20)
#    0.000    1.143    2.857    0.857    4.000   12.571 
#    0.000    0.000    0.000    0.000    0.000    0.000 
#    0.000    0.000    0.000    0.000    0.000    0.000 
#
# Total GULP energy -78324.692949 kJ/mol
# GULP energy per Si atom -5594.620925 kJ/mol
# Density = 2.343250 g / cm^3
# Si number density = 23.485954 Si / 1000 Ang^3
#
#
#
# Elastic Constant Matrix: (Units=GPa)
#
#
# Indices 1 2 3 4 5 6 
#
# 1 131.7256 30.9221 22.7206 0.0000 14.6087 0.0000
# 2 30.9221 106.6784 20.0357 0.0000 6.0901 0.0000
# 3 22.7206 20.0357 103.1931 0.0000 11.6919 0.0000
# 4 0.0000 0.0000 0.0000 31.3533 0.0000 9.3463
# 5 14.6087 6.0901 11.6919 0.0000 15.2014 0.0000
# 6 0.0000 0.0000 0.0000 9.3463 0.0000 44.6879
#
#
#
# Elastic Compliance Matrix: (Units=1/GPa)
#
#
# Indices 1 2 3 4 5 6 
#
# 1 0.009009 -0.002054 -0.000764 0.000000 -0.007248 0.000000
# 2 -0.002054 0.010298 -0.001428 0.000000 -0.001053 0.000000
# 3 -0.000764 -0.001428 0.010941 0.000000 -0.007110 0.000000
# 4 0.000000 0.000000 0.000000 0.034015 0.000000 -0.007114
# 5 -0.007248 -0.001053 -0.007110 0.000000 0.078639 0.000000
# 6 0.000000 0.000000 0.000000 -0.007114 0.000000 0.023865
#
#
# Mechanical properties :
#
#
# Convention : Reuss Voigt Hill
#
# Bulk Modulus (GPa) = 45.96178 54.32821 50.14499
# Shear Modulus (GPa) = 27.39551 36.10976 31.75264
#
# Velocity S-wave (km/s) = 3.41906 3.92536 3.68092
# Velocity P-wave (km/s) = 5.93287 6.61264 6.28196
#
# Compressibility (1/GPa) = 0.02175721
#
# Stress axis : x y z
#
# Youngs Moduli (GPa) = 110.99673 97.10901 91.39570
#
# Poissons Ratio (x) = 0.19949 0.06979
# Poissons Ratio (y) = 0.22802 0.13049
# Poissons Ratio (z) = 0.08476 0.13865
#
# Static dielectric constant tensor:
#      x y z
#    x 1.897600 0.000000 0.012540 
#    y 0.000000 1.896060 0.000000 
#    z 0.012540 0.000000 1.903150 
# 
# From -- ./inp_files/7594.got.cif
#   From: 2010.05.17/outbox.cif.g08.bks.cpg/sg4_4_cif.got.tgz:7594.got - 2010.06.03 18:43:04.
