data_PCOD9117061
_publ_section_title
;
Structure prediction by ZEFSAII (Michael W. Deem and Ramdas Pophale) SiO2 
 PCOD9117061
Probable space group: P 21
;
_chemical_formula_sum "Si O2"
_cell_formula_units_Z 16
_cell_length_a 8.684418
_cell_length_b 11.259275
_cell_length_c 10.075225
_cell_angle_alpha 90.000000
_cell_angle_beta 137.722955
_cell_angle_gamma 90.000000
_cell_volume 662.731697
_symmetry_space_group_name_H-M "P 21"
_symmetry_group_IT_number 4
_symmetry_cell_setting 'monoclinic'
loop_
_space_group_symop_operation_xyz
x,y,z
-x,1/2+y,-z
loop_
_atom_site_type_symbol
_atom_site_label
_atom_site_fract_x
_atom_site_fract_y
_atom_site_fract_z
Si Si1 0.884676 0.743160 0.431241
Si Si2 0.364315 0.661049 0.467124
Si Si3 0.726273 0.570953 0.096297
Si Si4 0.329169 0.869294 0.745681
Si Si5 0.757666 0.750917 0.911261
Si Si6 0.379093 0.479807 0.688410
Si Si7 0.717305 0.558273 0.518760
Si Si8 0.184712 0.887836 0.199633
O O1 0.774866 0.662663 0.246029
O O2 0.777206 0.873810 0.362582
O O3 0.827864 0.676274 0.531235
O O4 0.154269 0.765198 0.597610
O O5 0.590788 0.706882 0.689830
O O6 0.261001 0.563210 0.501965
O O7 0.463103 0.588182 0.406413
O O8 0.249415 0.779442 0.339927
O O9 0.752434 0.438975 0.174306
O O10 0.850150 0.633998 0.049291
O O11 0.471964 0.557140 0.870603
O O12 0.588739 0.821700 0.905069
O O13 0.302995 0.964389 0.611725
O O14 0.955617 0.837742 0.987802
O O15 0.604015 0.420830 0.761190
O O16 0.851773 0.499396 0.726712
#
# Coordination Sequence:
#
# PCOD9117061 Si02
#       8
#     2   2   2   2   2   2   2   2
#     4  11  23  42  70  96 138 183 224 277 342 406
#     4  10  22  43  69  98 133 174 225 292 339 400
#     4  10  24  41  63  98 134 180 225 274 333 405
#     4  11  24  41  64  98 137 181 226 273 335 406
#     4  11  24  42  65 100 133 176 228 274 341 398
#     4  10  23  44  65 104 133 175 233 277 350 398
#     4  10  22  43  66 102 129 179 224 274 348 392
#     4  11  22  44  72  96 139 170 227 291 336 403
#
# _framework density 24.142496999999999
#
# number of rings (size 3 to 8) (size 9 to 14) (size 15 to 20)
#    0.000    1.500    2.500    1.500    1.750    5.000 
#    6.750    1.250    0.000    0.000    0.000    0.000 
#    0.000    0.000    0.000    0.000    0.000    0.000 
#
# Total GULP energy -89405.575662 kJ/mol
# GULP energy per Si atom -5587.848479 kJ/mol
# Density = 2.408755 g / cm^3
# Si number density = 24.142497 Si / 1000 Ang^3
#
#
#
# Elastic Constant Matrix: (Units=GPa)
#
#
# Indices 1 2 3 4 5 6 
#
# 1 62.1818 26.1301 18.8032 0.0000 6.9686 0.0000
# 2 26.1301 102.9103 23.7169 0.0000 10.4164 0.0000
# 3 18.8032 23.7169 58.9432 0.0000 -3.0087 0.0000
# 4 0.0000 0.0000 0.0000 18.3032 0.0000 -0.5766
# 5 6.9686 10.4164 -3.0087 0.0000 22.7749 0.0000
# 6 0.0000 0.0000 0.0000 -0.5766 0.0000 55.1669
#
#
#
# Elastic Compliance Matrix: (Units=1/GPa)
#
#
# Indices 1 2 3 4 5 6 
#
# 1 0.019607 -0.003251 -0.005212 0.000000 -0.005201 0.000000
# 2 -0.003251 0.011982 -0.004040 0.000000 -0.005019 0.000000
# 3 -0.005212 -0.004040 0.020568 0.000000 0.006160 0.000000
# 4 0.000000 0.000000 0.000000 0.054653 0.000000 0.000571
# 5 -0.005201 -0.005019 0.006160 0.000000 0.048609 0.000000
# 6 0.000000 0.000000 0.000000 0.000571 0.000000 0.018133
#
#
# Mechanical properties :
#
#
# Convention : Reuss Voigt Hill
#
# Bulk Modulus (GPa) = 36.83169 40.14841 38.49005
# Shear Modulus (GPa) = 24.08381 29.60800 26.84590
#
# Velocity S-wave (km/s) = 3.16186 3.50578 3.33825
# Velocity P-wave (km/s) = 5.34966 5.74919 5.55302
#
# Compressibility (1/GPa) = 0.02715053
#
# Stress axis : x y z
#
# Youngs Moduli (GPa) = 51.00247 83.46017 48.61855
#
# Poissons Ratio (x) = 0.27131 0.25341
# Poissons Ratio (y) = 0.16580 0.19643
# Poissons Ratio (z) = 0.26583 0.33720
#
# Static dielectric constant tensor:
#      x y z
#    x 1.968980 0.000000 0.019920 
#    y 0.000000 1.937760 0.000000 
#    z 0.019920 0.000000 1.958320 
# 
# From -- ./inp_files/6500.got.cif
#   From: 2010.05.17/outbox.cif.g08.bks.cpg/sg4_4_cif.got.tgz:6500.got - 2010.06.03 18:43:04.
