data_PCOD9117752
_publ_section_title
;
Structure prediction by ZEFSAII (Michael W. Deem and Ramdas Pophale) SiO2 
 PCOD9117752
Probable space group: P 21
;
_chemical_formula_sum "Si O2"
_cell_formula_units_Z 16
_cell_length_a 16.203697
_cell_length_b 5.315475
_cell_length_c 8.356921
_cell_angle_alpha 90.000000
_cell_angle_beta 78.185700
_cell_angle_gamma 90.000000
_cell_volume 704.536815
_symmetry_space_group_name_H-M "P 21"
_symmetry_group_IT_number 4
_symmetry_cell_setting 'monoclinic'
loop_
_space_group_symop_operation_xyz
x,y,z
-x,1/2+y,-z
loop_
_atom_site_type_symbol
_atom_site_label
_atom_site_fract_x
_atom_site_fract_y
_atom_site_fract_z
Si Si1 0.297155 0.101090 0.990115
Si Si2 0.456909 0.484847 0.453523
Si Si3 0.716042 0.827818 0.327110
Si Si4 0.197150 0.707768 0.955084
Si Si5 0.118166 0.278823 0.557556
Si Si6 0.934950 0.296623 0.246483
Si Si7 0.881326 0.816993 0.821601
Si Si8 0.542202 0.840044 0.918407
O O1 0.202364 0.183462 0.077222
O O2 0.366132 0.241706 0.063772
O O3 0.315933 0.129608 0.792948
O O4 0.281275 0.805751 0.010643
O O5 0.490809 0.763688 0.477698
O O6 0.361366 0.455417 0.553396
O O7 0.461156 0.420723 0.264507
O O8 0.785352 0.729641 0.423662
O O9 0.765078 0.013787 0.188492
O O10 0.133832 0.856632 0.862716
O O11 0.136989 0.599262 0.114818
O O12 0.090978 0.546906 0.643869
O O13 0.114262 0.286289 0.368955
O O14 0.063720 0.045581 0.644472
O O15 0.028319 0.243968 0.143269
O O16 0.485732 0.589694 0.973124
#
# Coordination Sequence:
#
# PCOD9117752 Si02
#       8
#     2   2   2   2   2   2   2   2
#     4  11  24  45  70 103 140 187 235 290 360 408
#     4  12  27  47  75 109 138 187 232 289 359 426
#     4  10  23  45  68  98 142 184 238 283 353 422
#     4  10  25  42  69  99 138 192 232 296 343 424
#     4  11  24  45  66 101 136 192 231 293 350 414
#     4  11  25  44  68  99 142 185 239 284 358 409
#     4  11  26  40  70 101 142 181 240 295 347 420
#     4  12  28  50  76 108 146 182 233 296 352 425
#
# _framework density 22.709955000000001
#
# number of rings (size 3 to 8) (size 9 to 14) (size 15 to 20)
#    0.000    1.000    1.250    3.750   12.250    0.000 
#    2.250    0.000    0.000    0.000    0.000    0.000 
#    0.000    0.000    0.000    0.000    0.000    0.000 
#
# Total GULP energy -89328.436117 kJ/mol
# GULP energy per Si atom -5583.027257 kJ/mol
# Density = 2.265827 g / cm^3
# Si number density = 22.709955 Si / 1000 Ang^3
#
#
#
# Elastic Constant Matrix: (Units=GPa)
#
#
# Indices 1 2 3 4 5 6 
#
# 1 85.7616 2.2645 14.4340 0.0000 -5.5372 0.0000
# 2 2.2645 61.3436 29.5040 0.0000 5.7213 0.0000
# 3 14.4340 29.5040 75.9160 0.0000 0.1479 0.0000
# 4 0.0000 0.0000 0.0000 23.1294 0.0000 -0.4381
# 5 -5.5372 5.7213 0.1479 0.0000 34.2626 0.0000
# 6 0.0000 0.0000 0.0000 -0.4381 0.0000 31.1241
#
#
#
# Elastic Compliance Matrix: (Units=1/GPa)
#
#
# Indices 1 2 3 4 5 6 
#
# 1 0.012196 0.000604 -0.002557 0.000000 0.001881 0.000000
# 2 0.000604 0.020463 -0.008061 0.000000 -0.003285 0.000000
# 3 -0.002557 -0.008061 0.016790 0.000000 0.000860 0.000000
# 4 0.000000 0.000000 0.000000 0.043247 0.000000 0.000609
# 5 0.001881 -0.003285 0.000860 0.000000 0.030035 0.000000
# 6 0.000000 0.000000 0.000000 0.000609 0.000000 0.032138
#
#
# Mechanical properties :
#
#
# Convention : Reuss Voigt Hill
#
# Bulk Modulus (GPa) = 33.99002 35.04734 34.51868
# Shear Modulus (GPa) = 27.07039 29.49114 28.28077
#
# Velocity S-wave (km/s) = 3.45629 3.60752 3.53271
# Velocity P-wave (km/s) = 5.56124 5.72873 5.64561
#
# Compressibility (1/GPa) = 0.02942040
#
# Stress axis : x y z
#
# Youngs Moduli (GPa) = 81.99312 48.86927 59.55958
#
# Poissons Ratio (x) = -0.02953 0.15232
# Poissons Ratio (y) = -0.04955 0.48012
# Poissons Ratio (z) = 0.20969 0.39394
#
# Static dielectric constant tensor:
#      x y z
#    x 1.877710 0.000000 0.013860 
#    y 0.000000 2.126020 0.000000 
#    z 0.013860 0.000000 1.790070 
# 
# From -- ./inp_files/9019.got.cif
#   From: 2010.05.17/outbox.cif.g08.bks.cpg/sg4_5_cif.got.tgz:9019.got - 2010.06.03 18:43:04.
