data_PCOD9117323
_publ_section_title
;
Structure prediction by ZEFSAII (Michael W. Deem and Ramdas Pophale) SiO2 
 PCOD9117323
Probable space group: P 21
;
_chemical_formula_sum "Si O2"
_cell_formula_units_Z 10
_cell_length_a 14.344429
_cell_length_b 5.276436
_cell_length_c 14.092835
_cell_angle_alpha 90.000000
_cell_angle_beta 20.122951
_cell_angle_gamma 90.000000
_cell_volume 366.966141
_symmetry_space_group_name_H-M "P 21"
_symmetry_group_IT_number 4
_symmetry_cell_setting 'monoclinic'
loop_
_space_group_symop_operation_xyz
x,y,z
-x,1/2+y,-z
loop_
_atom_site_type_symbol
_atom_site_label
_atom_site_fract_x
_atom_site_fract_y
_atom_site_fract_z
Si Si1 0.499409 0.857490 0.443787
Si Si2 0.016254 0.512626 0.152708
Si Si3 0.261410 0.384468 0.457959
Si Si4 0.821573 0.648587 0.657207
Si Si5 0.272063 0.203720 0.056562
O O1 0.578404 0.581345 0.407577
O O2 0.225663 0.822369 0.643750
O O3 0.754031 0.984224 0.145724
O O4 0.185110 0.459337 0.087769
O O5 0.835845 0.754394 0.352542
O O6 0.292230 0.188175 0.339834
O O7 0.012366 0.559965 0.666779
O O8 0.532014 0.547839 0.199120
O O9 0.619594 0.694101 0.939596
O O10 0.966287 0.378236 0.526952
#
# Coordination Sequence:
#
# PCOD9117323 Si02
#       5
#     2   2   2   2   2
#     4  12  30  52  82 112 152 198 256 334 412 480
#     4  12  26  50  80 112 154 200 266 322 396 478
#     4  11  25  44  74 110 157 210 261 318 380 461
#     4  10  22  46  68 108 160 210 266 316 376 448
#     4  11  25  44  74 110 157 210 261 318 380 461
#
# _framework density 27.250471000000001
#
# number of rings (size 3 to 8) (size 9 to 14) (size 15 to 20)
#    0.000    0.800    2.000    3.600    8.400    6.400 
#    3.600    0.000    0.000    0.000    0.000    0.000 
#    0.000    0.000    0.000    0.000    0.000    0.000 
#
# Total GULP energy -55993.196983 kJ/mol
# GULP energy per Si atom -5599.319698 kJ/mol
# Density = 2.718845 g / cm^3
# Si number density = 27.250471 Si / 1000 Ang^3
#
#
#
# Elastic Constant Matrix: (Units=GPa)
#
#
# Indices 1 2 3 4 5 6 
#
# 1 69.1920 24.6465 34.1238 0.0000 -6.8319 0.0000
# 2 24.6465 111.0073 45.2879 0.0000 -4.3848 0.0000
# 3 34.1238 45.2879 148.4209 0.0000 8.4998 0.0000
# 4 0.0000 0.0000 0.0000 41.4166 0.0000 -1.0817
# 5 -6.8319 -4.3848 8.4998 0.0000 52.5706 0.0000
# 6 0.0000 0.0000 0.0000 -1.0817 0.0000 47.1416
#
#
#
# Elastic Compliance Matrix: (Units=1/GPa)
#
#
# Indices 1 2 3 4 5 6 
#
# 1 0.017214 -0.002335 -0.003394 0.000000 0.002591 0.000000
# 2 -0.002335 0.010706 -0.002789 0.000000 0.001041 0.000000
# 3 -0.003394 -0.002789 0.008486 0.000000 -0.002046 0.000000
# 4 0.000000 0.000000 0.000000 0.024159 0.000000 0.000554
# 5 0.002591 0.001041 -0.002046 0.000000 0.019776 0.000000
# 6 0.000000 0.000000 0.000000 0.000554 0.000000 0.021225
#
#
# Mechanical properties :
#
#
# Convention : Reuss Voigt Hill
#
# Bulk Modulus (GPa) = 51.62702 59.63740 55.63221
# Shear Modulus (GPa) = 39.98092 43.19655 41.58873
#
# Velocity S-wave (km/s) = 3.83451 3.98573 3.91086
# Velocity P-wave (km/s) = 6.21218 6.56611 6.39160
#
# Compressibility (1/GPa) = 0.01936970
#
# Stress axis : x y z
#
# Youngs Moduli (GPa) = 58.09317 93.40561 117.83948
#
# Poissons Ratio (x) = 0.21811 0.39989
# Poissons Ratio (y) = 0.13565 0.32871
# Poissons Ratio (z) = 0.19714 0.26055
#
# Static dielectric constant tensor:
#      x y z
#    x 2.357620 0.000000 0.056800 
#    y 0.000000 2.151140 0.000000 
#    z 0.056800 0.000000 2.052450 
# 
# From -- ./inp_files/3345.got.cif
#   From: 2010.05.17/outbox.cif.g08.bks.cpg/sg4_2_cif.got.tgz:3345.got - 2010.06.03 18:43:04.
