data_PCOD9117389
_publ_section_title
;
Structure prediction by ZEFSAII (Michael W. Deem and Ramdas Pophale) SiO2 
 PCOD9117389
Probable space group: P 21
;
_chemical_formula_sum "Si O2"
_cell_formula_units_Z 14
_cell_length_a 8.431599
_cell_length_b 9.038435
_cell_length_c 11.173294
_cell_angle_alpha 90.000000
_cell_angle_beta 43.609264
_cell_angle_gamma 90.000000
_cell_volume 587.310407
_symmetry_space_group_name_H-M "P 21"
_symmetry_group_IT_number 4
_symmetry_cell_setting 'monoclinic'
loop_
_space_group_symop_operation_xyz
x,y,z
-x,1/2+y,-z
loop_
_atom_site_type_symbol
_atom_site_label
_atom_site_fract_x
_atom_site_fract_y
_atom_site_fract_z
Si Si1 0.182312 0.350840 0.100973
Si Si2 0.582870 0.155053 0.624738
Si Si3 0.003224 0.555719 0.752740
Si Si4 0.343756 0.648788 0.985303
Si Si5 0.167774 0.814700 0.315182
Si Si6 0.259548 0.359350 0.321738
Si Si7 0.079092 0.291359 0.898181
O O1 0.380274 0.472965 0.973728
O O2 0.119804 0.391196 0.273346
O O3 0.189120 0.172749 0.101185
O O4 0.046887 0.356732 0.049358
O O5 0.757756 0.134209 0.417019
O O6 0.678212 0.287309 0.654403
O O7 0.319419 0.202521 0.747900
O O8 0.628980 0.003673 0.676118
O O9 0.057648 0.428042 0.817725
O O10 0.889336 0.477368 0.700866
O O11 0.268430 0.716220 0.153977
O O12 0.125951 0.680293 0.019795
O O13 0.542309 0.750286 0.827258
O O14 0.909745 0.772175 0.497387
#
# Coordination Sequence:
#
# PCOD9117389 Si02
#       7
#     2   2   2   2   2   2   2
#     4  12  24  45  73 106 145 195 242 310 374 440
#     4  11  23  48  76 105 149 197 252 314 380 443
#     4  10  25  47  73 108 152 192 251 312 373 458
#     4  11  26  46  72 107 146 196 249 305 381 444
#     4  10  22  49  76 110 144 191 255 312 370 441
#     4  11  25  45  77 109 145 197 252 319 364 444
#     4  11  27  46  69 105 149 200 245 304 376 456
#
# _framework density 23.837479999999999
#
# number of rings (size 3 to 8) (size 9 to 14) (size 15 to 20)
#    0.000    1.143    2.857    1.714    6.000    2.286 
#   15.429    0.000    0.000    0.000    0.000    0.000 
#    0.000    0.000    0.000    0.000    0.000    0.000 
#
# Total GULP energy -78094.042142 kJ/mol
# GULP energy per Si atom -5578.145867 kJ/mol
# Density = 2.378323 g / cm^3
# Si number density = 23.837480 Si / 1000 Ang^3
#
#
#
# Elastic Constant Matrix: (Units=GPa)
#
#
# Indices 1 2 3 4 5 6 
#
# 1 88.8992 26.8208 34.9503 0.0000 -15.8093 0.0000
# 2 26.8208 123.9463 60.1833 0.0000 -2.4318 0.0000
# 3 34.9503 60.1833 131.6355 0.0000 -19.2368 0.0000
# 4 0.0000 0.0000 0.0000 32.6049 0.0000 10.2920
# 5 -15.8093 -2.4318 -19.2368 0.0000 28.1124 0.0000
# 6 0.0000 0.0000 0.0000 10.2920 0.0000 43.3603
#
#
#
# Elastic Compliance Matrix: (Units=1/GPa)
#
#
# Indices 1 2 3 4 5 6 
#
# 1 0.013668 -0.001951 -0.001821 0.000000 0.006272 0.000000
# 2 -0.001951 0.010824 -0.004949 0.000000 -0.003547 0.000000
# 3 -0.001821 -0.004949 0.011256 0.000000 0.006250 0.000000
# 4 0.000000 0.000000 0.000000 0.033154 0.000000 -0.007869
# 5 0.006272 -0.003547 0.006250 0.000000 0.043069 0.000000
# 6 0.000000 0.000000 0.000000 -0.007869 0.000000 0.024930
#
#
# Mechanical properties :
#
#
# Convention : Reuss Voigt Hill
#
# Bulk Modulus (GPa) = 54.62209 65.37665 59.99937
# Shear Modulus (GPa) = 31.16340 35.65062 33.40701
#
# Velocity S-wave (km/s) = 3.61962 3.87146 3.74765
# Velocity P-wave (km/s) = 6.35869 6.88983 6.62958
#
# Compressibility (1/GPa) = 0.01830761
#
# Stress axis : x y z
#
# Youngs Moduli (GPa) = 73.16169 92.39146 88.83994
#
# Poissons Ratio (x) = 0.18022 0.16175
# Poissons Ratio (y) = 0.14271 0.43966
# Poissons Ratio (z) = 0.13320 0.45724
#
# Static dielectric constant tensor:
#      x y z
#    x 1.934100 0.000000 0.009770 
#    y 0.000000 1.905930 0.000000 
#    z 0.009770 0.000000 1.961500 
# 
# From -- ./inp_files/5552.got.cif
#   From: 2010.05.17/outbox.cif.g08.bks.cpg/sg4_3_cif.got.tgz:5552.got - 2010.06.03 18:43:04.
