data_PCOD9117469
_publ_section_title
;
Structure prediction by ZEFSAII (Michael W. Deem and Ramdas Pophale) SiO2 
 PCOD9117469
Probable space group: P 21
;
_chemical_formula_sum "Si O2"
_cell_formula_units_Z 16
_cell_length_a 11.035844
_cell_length_b 9.941679
_cell_length_c 7.874965
_cell_angle_alpha 90.000000
_cell_angle_beta 122.729867
_cell_angle_gamma 90.000000
_cell_volume 726.822201
_symmetry_space_group_name_H-M "P 21"
_symmetry_group_IT_number 4
_symmetry_cell_setting 'monoclinic'
loop_
_space_group_symop_operation_xyz
x,y,z
-x,1/2+y,-z
loop_
_atom_site_type_symbol
_atom_site_label
_atom_site_fract_x
_atom_site_fract_y
_atom_site_fract_z
Si Si1 0.282099 0.357440 0.683667
Si Si2 0.353404 0.551169 0.456777
Si Si3 0.948306 0.185022 0.784922
Si Si4 0.108491 0.672635 0.884306
Si Si5 0.649926 0.965595 0.904932
Si Si6 0.954018 0.435491 0.329300
Si Si7 0.611933 0.592928 0.428296
Si Si8 0.894596 0.467707 0.635793
O O1 0.369629 0.471188 0.643587
O O2 0.331490 0.217827 0.637832
O O3 0.115533 0.388426 0.507444
O O4 0.308307 0.371094 0.905931
O O5 0.220809 0.653297 0.377624
O O6 0.311837 0.446221 0.268638
O O7 0.494941 0.622342 0.487765
O O8 0.972286 0.342783 0.782213
O O9 0.965304 0.143141 0.991607
O O10 0.038326 0.085509 0.736465
O O11 0.102136 0.829323 0.849159
O O12 0.005920 0.588215 0.683588
O O13 0.264270 0.605371 0.994612
O O14 0.480898 0.995608 0.764742
O O15 0.855023 0.419064 0.417774
O O16 0.750057 0.519266 0.610946
#
# Coordination Sequence:
#
# PCOD9117469 Si02
#       8
#     2   2   2   2   2   2   2   2
#     4  11  20  43  66  88 136 171 213 277 330 381
#     4   8  22  41  62  91 125 172 213 264 332 379
#     4  10  23  41  65  92 131 171 214 269 327 390
#     4  11  21  43  65  93 130 169 215 274 324 392
#     4   9  22  42  63  92 130 171 215 270 325 387
#     4  11  23  39  66  97 126 173 216 262 340 385
#     4  10  24  42  61  99 126 168 229 265 323 407
#     4  12  23  39  68  96 130 165 217 275 323 389
#
# _framework density 22.013636000000002
#
# number of rings (size 3 to 8) (size 9 to 14) (size 15 to 20)
#    0.750    1.000    2.500    1.500    3.500    1.000 
#    2.250    1.250    0.000    0.000    0.000    0.000 
#    0.000    0.000    0.000    0.000    0.000    0.000 
#
# Total GULP energy -89159.975170 kJ/mol
# GULP energy per Si atom -5572.498448 kJ/mol
# Density = 2.196353 g / cm^3
# Si number density = 22.013636 Si / 1000 Ang^3
#
#
#
# Elastic Constant Matrix: (Units=GPa)
#
#
# Indices 1 2 3 4 5 6 
#
# 1 64.2906 3.1764 -3.9442 0.0000 0.3334 0.0000
# 2 3.1764 61.6027 -5.3453 0.0000 1.3393 0.0000
# 3 -3.9442 -5.3453 31.7748 0.0000 -5.3142 0.0000
# 4 0.0000 0.0000 0.0000 25.1648 0.0000 -1.9910
# 5 0.3334 1.3393 -5.3142 0.0000 37.8668 0.0000
# 6 0.0000 0.0000 0.0000 -1.9910 0.0000 24.3506
#
#
#
# Elastic Compliance Matrix: (Units=1/GPa)
#
#
# Indices 1 2 3 4 5 6 
#
# 1 0.015700 -0.000651 0.001864 0.000000 0.000146 0.000000
# 2 -0.000651 0.016502 0.002661 0.000000 -0.000204 0.000000
# 3 0.001864 0.002661 0.032904 0.000000 0.004507 0.000000
# 4 0.000000 0.000000 0.000000 0.039997 0.000000 0.003270
# 5 0.000146 -0.000204 0.004507 0.000000 0.027047 0.000000
# 6 0.000000 0.000000 0.000000 0.003270 0.000000 0.041334
#
#
# Mechanical properties :
#
#
# Convention : Reuss Voigt Hill
#
# Bulk Modulus (GPa) = 13.72606 16.16020 14.94313
# Shear Modulus (GPa) = 26.31287 28.39519 27.35403
#
# Velocity S-wave (km/s) = 3.46106 3.59540 3.52887
# Velocity P-wave (km/s) = 4.71388 4.95911 4.83805
#
# Compressibility (1/GPa) = 0.07285413
#
# Stress axis : x y z
#
# Youngs Moduli (GPa) = 63.69372 60.59878 30.39120
#
# Poissons Ratio (x) = 0.03945 -0.05664
# Poissons Ratio (y) = 0.04146 -0.08087
# Poissons Ratio (z) = -0.11871 -0.16126
#
# Static dielectric constant tensor:
#      x y z
#    x 1.815280 0.000000 0.001080 
#    y 0.000000 1.809800 0.000000 
#    z 0.001080 0.000000 1.819960 
# 
# From -- ./inp_files/7899.got.cif
#   From: 2010.05.17/outbox.cif.g08.bks.cpg/sg4_4_cif.got.tgz:7899.got - 2010.06.03 18:43:04.
