data_PCOD9117297
_publ_section_title
;
Structure prediction by ZEFSAII (Michael W. Deem and Ramdas Pophale) SiO2 
 PCOD9117297
Probable space group: P 21
;
_chemical_formula_sum "Si O2"
_cell_formula_units_Z 14
_cell_length_a 17.156730
_cell_length_b 5.760856
_cell_length_c 8.973860
_cell_angle_alpha 90.000000
_cell_angle_beta 45.764780
_cell_angle_gamma 90.000000
_cell_volume 635.486110
_symmetry_space_group_name_H-M "P 21"
_symmetry_group_IT_number 4
_symmetry_cell_setting 'monoclinic'
loop_
_space_group_symop_operation_xyz
x,y,z
-x,1/2+y,-z
loop_
_atom_site_type_symbol
_atom_site_label
_atom_site_fract_x
_atom_site_fract_y
_atom_site_fract_z
Si Si1 0.905598 0.281610 0.341553
Si Si2 0.824106 0.492772 0.738545
Si Si3 0.728669 0.570701 0.390867
Si Si4 0.756706 0.890154 0.598397
Si Si5 0.690771 0.096869 0.976167
Si Si6 0.509561 0.418428 0.570505
Si Si7 0.856513 0.796924 0.951260
O O1 0.890793 0.328356 0.539268
O O2 0.821655 0.430407 0.354693
O O3 0.026563 0.359834 0.138662
O O4 0.860596 0.019440 0.387835
O O5 0.793118 0.697916 0.668610
O O6 0.886489 0.591232 0.795867
O O7 0.716799 0.369927 0.949134
O O8 0.689873 0.769399 0.557416
O O9 0.629557 0.407264 0.480144
O O10 0.778841 0.696809 0.181191
O O11 0.692889 0.058583 0.794711
O O12 0.584280 0.984445 0.186899
O O13 0.790933 0.983966 0.938963
O O14 0.487540 0.162096 0.530256
#
# Coordination Sequence:
#
# PCOD9117297 Si02
#       7
#     2   2   2   2   2   2   2
#     4  10  24  40  66  97 143 183 226 294 353 429
#     4   9  21  40  66  97 132 180 237 280 344 422
#     4  11  25  45  64 104 141 180 236 290 364 423
#     4   9  22  44  63  99 138 178 233 286 352 422
#     4  10  22  45  72  99 136 184 240 291 352 428
#     4  12  27  49  77 106 141 186 244 304 356 426
#     4  11  23  39  68 102 135 185 232 287 355 430
#
# _framework density 22.030379
#
# number of rings (size 3 to 8) (size 9 to 14) (size 15 to 20)
#    0.000    1.714    1.429    0.857   12.000    2.286 
#    7.714    0.000    0.000    0.000    0.000    0.000 
#    0.000    0.000    0.000    0.000    0.000    0.000 
#
# Total GULP energy -78026.269114 kJ/mol
# GULP energy per Si atom -5573.304937 kJ/mol
# Density = 2.198024 g / cm^3
# Si number density = 22.030379 Si / 1000 Ang^3
#
#
#
# Elastic Constant Matrix: (Units=GPa)
#
#
# Indices 1 2 3 4 5 6 
#
# 1 89.2153 8.3898 15.2627 0.0000 -0.0820 0.0000
# 2 8.3898 58.1520 -2.2302 0.0000 15.0274 0.0000
# 3 15.2627 -2.2302 55.0793 0.0000 2.3106 0.0000
# 4 0.0000 0.0000 0.0000 24.7708 0.0000 -0.4859
# 5 -0.0820 15.0274 2.3106 0.0000 30.8627 0.0000
# 6 0.0000 0.0000 0.0000 -0.4859 0.0000 25.8289
#
#
#
# Elastic Compliance Matrix: (Units=1/GPa)
#
#
# Indices 1 2 3 4 5 6 
#
# 1 0.012014 -0.002222 -0.003477 0.000000 0.001374 0.000000
# 2 -0.002222 0.020162 0.001850 0.000000 -0.009962 0.000000
# 3 -0.003477 0.001850 0.019293 0.000000 -0.002354 0.000000
# 4 0.000000 0.000000 0.000000 0.040385 0.000000 0.000760
# 5 0.001374 -0.009962 -0.002354 0.000000 0.037432 0.000000
# 6 0.000000 0.000000 0.000000 0.000760 0.000000 0.038731
#
#
# Mechanical properties :
#
#
# Convention : Reuss Voigt Hill
#
# Bulk Modulus (GPa) = 22.84585 27.25459 25.05022
# Shear Modulus (GPa) = 26.27383 28.36077 27.31730
#
# Velocity S-wave (km/s) = 3.45718 3.59186 3.52516
# Velocity P-wave (km/s) = 5.13116 5.44060 5.28814
#
# Compressibility (1/GPa) = 0.04377163
#
# Stress axis : x y z
#
# Youngs Moduli (GPa) = 83.23756 49.59828 51.83307
#
# Poissons Ratio (x) = 0.11019 0.18021
# Poissons Ratio (y) = 0.18493 -0.09589
# Poissons Ratio (z) = 0.28939 -0.09175
#
# Static dielectric constant tensor:
#      x y z
#    x 1.808900 0.000000 -0.008700 
#    y 0.000000 1.954680 0.000000 
#    z -0.008700 0.000000 1.852030 
# 
# From -- ./inp_files/7129.got.cif
#   From: 2010.05.17/outbox.cif.g08.bks.cpg/sg4_4_cif.got.tgz:7129.got - 2010.06.03 18:43:04.
