data_PCOD9117672
_publ_section_title
;
Structure prediction by ZEFSAII (Michael W. Deem and Ramdas Pophale) SiO2 
 PCOD9117672
Probable space group: P 21
;
_chemical_formula_sum "Si O2"
_cell_formula_units_Z 16
_cell_length_a 11.667746
_cell_length_b 8.019842
_cell_length_c 8.934676
_cell_angle_alpha 90.000000
_cell_angle_beta 51.649627
_cell_angle_gamma 90.000000
_cell_volume 655.655469
_symmetry_space_group_name_H-M "P 21"
_symmetry_group_IT_number 4
_symmetry_cell_setting 'monoclinic'
loop_
_space_group_symop_operation_xyz
x,y,z
-x,1/2+y,-z
loop_
_atom_site_type_symbol
_atom_site_label
_atom_site_fract_x
_atom_site_fract_y
_atom_site_fract_z
Si Si1 0.539450 0.265360 0.484741
Si Si2 0.370003 0.390502 0.912698
Si Si3 0.810896 0.420290 0.108130
Si Si4 0.193451 0.801697 0.224301
Si Si5 0.074323 0.274864 0.083365
Si Si6 0.348295 0.445885 0.440919
Si Si7 0.526614 0.138021 0.936419
Si Si8 0.951062 0.060992 0.447814
O O1 0.465185 0.330792 0.696151
O O2 0.667435 0.384660 0.320687
O O3 0.413019 0.278588 0.460754
O O4 0.615591 0.090417 0.465504
O O5 0.377680 0.233309 0.023457
O O6 0.202044 0.408398 0.005045
O O7 0.436868 0.550679 0.938145
O O8 0.950789 0.343407 0.075700
O O9 0.792150 0.331954 0.962869
O O10 0.843805 0.614062 0.052938
O O11 0.351037 0.784200 0.172697
O O12 0.113121 0.636429 0.348692
O O13 0.092563 0.951421 0.361412
O O14 0.997639 0.207668 0.296281
O O15 0.439239 0.504297 0.221130
O O16 0.178965 0.456927 0.529550
#
# Coordination Sequence:
#
# PCOD9117672 Si02
#       8
#     2   2   2   2   2   2   2   2
#     4  11  24  45  71  99 141 182 235 294 352 427
#     4  11  27  45  72 105 141 190 239 298 364 423
#     4  11  25  46  70 104 142 187 237 295 363 421
#     4  10  25  43  73 101 140 186 232 298 354 431
#     4  11  26  45  70 103 142 183 238 300 352 437
#     4  10  23  44  65 103 136 181 230 295 343 432
#     4  10  25  46  67 102 140 182 243 291 352 428
#     4  10  23  46  68 103 144 179 238 295 362 427
#
# _framework density 24.403061999999998
#
# number of rings (size 3 to 8) (size 9 to 14) (size 15 to 20)
#    0.000    1.500    1.250    1.500   15.750    0.000 
#    0.000    0.000    0.000    0.000    0.000    0.000 
#    0.000    0.000    0.000    0.000    0.000    0.000 
#
# Total GULP energy -89600.270190 kJ/mol
# GULP energy per Si atom -5600.016887 kJ/mol
# Density = 2.434752 g / cm^3
# Si number density = 24.403062 Si / 1000 Ang^3
#
#
#
# Elastic Constant Matrix: (Units=GPa)
#
#
# Indices 1 2 3 4 5 6 
#
# 1 107.4917 28.0467 34.4226 0.0000 -0.7588 0.0000
# 2 28.0467 54.5328 23.2482 0.0000 8.0259 0.0000
# 3 34.4226 23.2482 76.5731 0.0000 -5.8048 0.0000
# 4 0.0000 0.0000 0.0000 35.5680 0.0000 1.1224
# 5 -0.7588 8.0259 -5.8048 0.0000 30.0522 0.0000
# 6 0.0000 0.0000 0.0000 1.1224 0.0000 59.5924
#
#
#
# Elastic Compliance Matrix: (Units=1/GPa)
#
#
# Indices 1 2 3 4 5 6 
#
# 1 0.011712 -0.004496 -0.003843 0.000000 0.000754 0.000000
# 2 -0.004496 0.024331 -0.005954 0.000000 -0.007762 0.000000
# 3 -0.003843 -0.005954 0.016956 0.000000 0.004768 0.000000
# 4 0.000000 0.000000 0.000000 0.028132 0.000000 -0.000530
# 5 0.000754 -0.007762 0.004768 0.000000 0.036288 0.000000
# 6 0.000000 0.000000 0.000000 -0.000530 0.000000 0.016791
#
#
# Mechanical properties :
#
#
# Convention : Reuss Voigt Hill
#
# Bulk Modulus (GPa) = 40.96267 45.55917 43.26092
# Shear Modulus (GPa) = 29.25109 35.23453 32.24281
#
# Velocity S-wave (km/s) = 3.46593 3.80393 3.63886
# Velocity P-wave (km/s) = 5.73055 6.16467 5.95157
#
# Compressibility (1/GPa) = 0.02441247
#
# Stress axis : x y z
#
# Youngs Moduli (GPa) = 85.38139 41.10022 58.97604
#
# Poissons Ratio (x) = 0.18481 0.22663
# Poissons Ratio (y) = 0.38391 0.35115
# Poissons Ratio (z) = 0.32810 0.24471
#
# Static dielectric constant tensor:
#      x y z
#    x 1.909350 0.000000 0.006370 
#    y 0.000000 2.014190 0.000000 
#    z 0.006370 0.000000 1.926440 
# 
# From -- ./inp_files/7828.got.cif
#   From: 2010.05.17/outbox.cif.g08.bks.cpg/sg4_4_cif.got.tgz:7828.got - 2010.06.03 18:43:04.
