data_PCOD9117313
_publ_section_title
;
Structure prediction by ZEFSAII (Michael W. Deem and Ramdas Pophale) SiO2 
 PCOD9117313
Probable space group: P 21
;
_chemical_formula_sum "Si O2"
_cell_formula_units_Z 16
_cell_length_a 5.283864
_cell_length_b 11.685954
_cell_length_c 11.306183
_cell_angle_alpha 90.000000
_cell_angle_beta 71.095394
_cell_angle_gamma 90.000000
_cell_volume 660.465567
_symmetry_space_group_name_H-M "P 21"
_symmetry_group_IT_number 4
_symmetry_cell_setting 'monoclinic'
loop_
_space_group_symop_operation_xyz
x,y,z
-x,1/2+y,-z
loop_
_atom_site_type_symbol
_atom_site_label
_atom_site_fract_x
_atom_site_fract_y
_atom_site_fract_z
Si Si1 0.283277 0.769760 0.496467
Si Si2 0.501653 0.193275 0.857107
Si Si3 0.666706 0.046775 0.629740
Si Si4 0.263488 0.935422 0.168920
Si Si5 0.580247 0.144345 0.119660
Si Si6 0.922653 0.515133 0.045469
Si Si7 0.849975 0.883850 0.417933
Si Si8 0.232171 0.852174 0.753604
O O1 0.415377 0.647608 0.447787
O O2 0.039636 0.785273 0.442576
O O3 0.154973 0.791860 0.643883
O O4 0.538706 0.854123 0.448957
O O5 0.703145 0.114164 0.748788
O O6 0.551586 0.326646 0.824788
O O7 0.220294 0.128015 0.877557
O O8 0.526909 0.182013 0.993584
O O9 0.449008 0.950267 0.692977
O O10 0.881627 0.979600 0.517167
O O11 0.980199 0.913381 0.273162
O O12 0.357311 0.058686 0.201299
O O13 0.256331 0.951509 0.027607
O O14 0.636853 0.252959 0.189387
O O15 0.834953 0.062898 0.065872
O O16 0.984731 0.420448 0.135393
#
# Coordination Sequence:
#
# PCOD9117313 Si02
#       8
#     2   2   2   2   2   2   2   2
#     4  11  26  48  73 107 142 195 245 302 365 440
#     4  10  22  46  67 103 135 191 238 295 364 443
#     4  10  24  47  74 104 146 193 243 304 372 439
#     4  11  24  43  71 102 147 181 246 300 367 437
#     4  11  25  42  70 103 142 188 239 305 368 434
#     4  10  24  42  69 104 139 192 236 303 367 430
#     4  11  27  46  74 108 146 190 244 304 366 440
#     4  10  24  46  68 105 143 186 249 301 369 443
#
# _framework density 24.225332999999999
#
# number of rings (size 3 to 8) (size 9 to 14) (size 15 to 20)
#    0.000    1.500    2.500    0.000    7.000    7.000 
#    4.500    0.000    0.000    0.000    0.000    0.000 
#    0.000    0.000    0.000    0.000    0.000    0.000 
#
# Total GULP energy -89281.916240 kJ/mol
# GULP energy per Si atom -5580.119765 kJ/mol
# Density = 2.417020 g / cm^3
# Si number density = 24.225333 Si / 1000 Ang^3
#
#
#
# Elastic Constant Matrix: (Units=GPa)
#
#
# Indices 1 2 3 4 5 6 
#
# 1 29.5663 -6.1108 -9.0127 0.0000 2.2869 0.0000
# 2 -6.1108 96.6212 22.9106 0.0000 6.7517 0.0000
# 3 -9.0127 22.9106 66.0572 0.0000 8.5704 0.0000
# 4 0.0000 0.0000 0.0000 56.2963 0.0000 6.0013
# 5 2.2869 6.7517 8.5704 0.0000 19.8332 0.0000
# 6 0.0000 0.0000 0.0000 6.0013 0.0000 24.2999
#
#
#
# Elastic Compliance Matrix: (Units=1/GPa)
#
#
# Indices 1 2 3 4 5 6 
#
# 1 0.036305 0.001521 0.005335 0.000000 -0.007009 0.000000
# 2 0.001521 0.011439 -0.003424 0.000000 -0.002590 0.000000
# 3 0.005335 -0.003424 0.017991 0.000000 -0.007224 0.000000
# 4 0.000000 0.000000 0.000000 0.018243 0.000000 -0.004506
# 5 -0.007009 -0.002590 -0.007224 0.000000 0.055232 0.000000
# 6 0.000000 0.000000 0.000000 -0.004506 0.000000 0.042265
#
#
# Mechanical properties :
#
#
# Convention : Reuss Voigt Hill
#
# Bulk Modulus (GPa) = 13.77417 23.09098 18.43257
# Shear Modulus (GPa) = 25.14956 32.38305 28.76630
#
# Velocity S-wave (km/s) = 3.22553 3.66012 3.44967
# Velocity P-wave (km/s) = 4.42383 5.23587 4.84689
#
# Compressibility (1/GPa) = 0.07259966
#
# Stress axis : x y z
#
# Youngs Moduli (GPa) = 27.54432 87.42265 55.58316
#
# Poissons Ratio (x) = -0.13296 -0.29655
# Poissons Ratio (y) = -0.04189 0.19030
# Poissons Ratio (z) = -0.14696 0.29931
#
# Static dielectric constant tensor:
#      x y z
#    x 2.091910 0.000000 -0.062390 
#    y 0.000000 1.970010 0.000000 
#    z -0.062390 0.000000 2.064080 
# 
# From -- ./inp_files/2825.got.cif
#   From: 2010.05.17/outbox.cif.g08.bks.cpg/sg4_2_cif.got.tgz:2825.got - 2010.06.03 18:43:04.
