data_PCOD9117237
_publ_section_title
;
Structure prediction by ZEFSAII (Michael W. Deem and Ramdas Pophale) SiO2 
 PCOD9117237
Probable space group: P 21
;
_chemical_formula_sum "Si O2"
_cell_formula_units_Z 14
_cell_length_a 8.932926
_cell_length_b 11.195029
_cell_length_c 6.140825
_cell_angle_alpha 90.000000
_cell_angle_beta 80.410883
_cell_angle_gamma 90.000000
_cell_volume 605.528787
_symmetry_space_group_name_H-M "P 21"
_symmetry_group_IT_number 4
_symmetry_cell_setting 'monoclinic'
loop_
_space_group_symop_operation_xyz
x,y,z
-x,1/2+y,-z
loop_
_atom_site_type_symbol
_atom_site_label
_atom_site_fract_x
_atom_site_fract_y
_atom_site_fract_z
Si Si1 0.270680 0.125000 0.519062
Si Si2 0.697803 0.836038 0.827965
Si Si3 0.126998 0.896031 0.416549
Si Si4 0.186777 0.705371 0.776400
Si Si5 0.081727 0.279809 0.883906
Si Si6 0.391411 0.786270 0.103520
Si Si7 0.391176 0.561406 0.428311
O O1 0.287228 0.212583 0.308596
O O2 0.211036 0.201989 0.737030
O O3 0.435068 0.066935 0.529401
O O4 0.139008 0.028112 0.506577
O O5 0.656087 0.938218 0.668565
O O6 0.847132 0.854263 0.935322
O O7 0.560198 0.829739 0.030909
O O8 0.132547 0.796564 0.602948
O O9 0.283974 0.880821 0.245965
O O10 0.995780 0.862023 0.280153
O O11 0.267118 0.594335 0.641549
O O12 0.321950 0.764707 0.882454
O O13 0.048339 0.694845 0.979142
O O14 0.382758 0.665732 0.247307
#
# Coordination Sequence:
#
# PCOD9117237 Si02
#       7
#     2   2   2   2   2   2   2
#     4  12  26  48  79 112 148 193 255 309 363 443
#     4  12  26  46  76 118 144 191 255 309 364 446
#     4  10  25  49  76 105 149 199 244 306 369 446
#     4  10  22  51  73 105 147 197 243 303 373 440
#     4  11  26  51  73 113 151 194 247 300 384 441
#     4  10  22  44  77 108 142 193 245 301 379 429
#     4  11  25  45  80 109 145 193 253 312 360 443
#
# _framework density 23.120289
#
# number of rings (size 3 to 8) (size 9 to 14) (size 15 to 20)
#    0.000    1.143    2.857    1.714    4.000    3.429 
#   33.429    0.000    0.000    0.000    0.000    0.000 
#    0.000    0.000    0.000    0.000    0.000    0.000 
#
# Total GULP energy -78379.714402 kJ/mol
# GULP energy per Si atom -5598.551029 kJ/mol
# Density = 2.306767 g / cm^3
# Si number density = 23.120289 Si / 1000 Ang^3
#
#
#
# Elastic Constant Matrix: (Units=GPa)
#
#
# Indices 1 2 3 4 5 6 
#
# 1 129.7317 24.4897 40.5166 0.0000 23.7119 0.0000
# 2 24.4897 60.9869 17.6928 0.0000 20.3220 0.0000
# 3 40.5166 17.6928 71.1382 0.0000 19.5598 0.0000
# 4 0.0000 0.0000 0.0000 33.6750 0.0000 4.9928
# 5 23.7119 20.3220 19.5598 0.0000 56.8655 0.0000
# 6 0.0000 0.0000 0.0000 4.9928 0.0000 19.6848
#
#
#
# Elastic Compliance Matrix: (Units=1/GPa)
#
#
# Indices 1 2 3 4 5 6 
#
# 1 0.009861 -0.002020 -0.004619 0.000000 -0.001801 0.000000
# 2 -0.002020 0.019664 -0.002253 0.000000 -0.005410 0.000000
# 3 -0.004619 -0.002253 0.018220 0.000000 -0.003536 0.000000
# 4 0.000000 0.000000 0.000000 0.030856 0.000000 -0.007826
# 5 -0.001801 -0.005410 -0.003536 0.000000 0.021486 0.000000
# 6 0.000000 0.000000 0.000000 -0.007826 0.000000 0.052786
#
#
# Mechanical properties :
#
#
# Convention : Reuss Voigt Hill
#
# Bulk Modulus (GPa) = 33.37403 47.47279 40.42341
# Shear Modulus (GPa) = 27.67870 33.98889 30.83379
#
# Velocity S-wave (km/s) = 3.46375 3.83833 3.65584
# Velocity P-wave (km/s) = 5.51934 6.34202 5.94493
#
# Compressibility (1/GPa) = 0.02996342
#
# Stress axis : x y z
#
# Youngs Moduli (GPa) = 101.40703 50.85339 54.88360
#
# Poissons Ratio (x) = 0.10270 0.25350
# Poissons Ratio (y) = 0.20480 0.12364
# Poissons Ratio (z) = 0.46838 0.11457
#
# Static dielectric constant tensor:
#      x y z
#    x 1.861520 0.000000 -0.002790 
#    y 0.000000 1.845420 0.000000 
#    z -0.002790 0.000000 1.849120 
# 
# From -- ./inp_files/1181.got.cif
#   From: 2010.05.17/outbox.cif.g08.bks.cpg/sg4_1_cif.got.tgz:1181.got - 2010.06.03 18:43:04.
