data_PCOD9117151
_publ_section_title
;
Structure prediction by ZEFSAII (Michael W. Deem and Ramdas Pophale) SiO2 
 PCOD9117151
Probable space group: P 21
;
_chemical_formula_sum "Si O2"
_cell_formula_units_Z 16
_cell_length_a 6.837125
_cell_length_b 7.669613
_cell_length_c 20.299384
_cell_angle_alpha 90.000000
_cell_angle_beta 41.109711
_cell_angle_gamma 90.000000
_cell_volume 699.886376
_symmetry_space_group_name_H-M "P 21"
_symmetry_group_IT_number 4
_symmetry_cell_setting 'monoclinic'
loop_
_space_group_symop_operation_xyz
x,y,z
-x,1/2+y,-z
loop_
_atom_site_type_symbol
_atom_site_label
_atom_site_fract_x
_atom_site_fract_y
_atom_site_fract_z
Si Si1 0.390147 0.676390 0.882334
Si Si2 0.299400 0.136935 0.703261
Si Si3 0.276668 0.468495 0.120999
Si Si4 0.195355 0.199370 0.036561
Si Si5 0.593133 0.177702 0.386710
Si Si6 0.615956 0.857729 0.692587
Si Si7 0.316193 0.822605 0.499670
Si Si8 0.103131 0.982995 0.192703
O O1 0.507063 0.822979 0.903283
O O2 0.488929 0.752802 0.786468
O O3 0.564686 0.500842 0.860141
O O4 0.035425 0.668134 0.963921
O O5 0.538616 0.177342 0.585382
O O6 0.107443 0.314121 0.760688
O O7 0.484035 0.054501 0.717752
O O8 0.021177 0.004741 0.761675
O O9 0.181004 0.389133 0.074649
O O10 0.470546 0.642599 0.065720
O O11 0.112693 0.069292 0.118093
O O12 0.493775 0.271110 0.346593
O O13 0.550835 0.293024 0.461893
O O14 0.403437 0.005046 0.446299
O O15 0.924217 0.107876 0.288947
O O16 0.966765 0.832649 0.600216
#
# Coordination Sequence:
#
# PCOD9117151 Si02
#       8
#     2   2   2   2   2   2   2   2
#     4  11  23  43  71  97 138 184 229 289 356 419
#     4  11  24  45  66 101 140 181 238 289 351 419
#     4  11  25  43  70 100 138 185 231 293 358 421
#     4  11  23  46  71  98 138 182 227 291 354 421
#     4  11  22  40  64  93 134 179 229 286 356 408
#     4  12  22  44  68  95 138 180 231 290 355 419
#     4  11  25  39  68  97 136 183 234 293 349 430
#     4  10  22  44  66  97 134 180 225 291 345 421
#
# _framework density 22.860854
#
# number of rings (size 3 to 8) (size 9 to 14) (size 15 to 20)
#    0.000    1.000    3.750    3.000    1.750    3.000 
#    4.500    0.000    0.000    0.000    0.000    0.000 
#    0.000    0.000    0.000    0.000    0.000    0.000 
#
# Total GULP energy -89342.120169 kJ/mol
# GULP energy per Si atom -5583.882511 kJ/mol
# Density = 2.280882 g / cm^3
# Si number density = 22.860854 Si / 1000 Ang^3
#
#
#
# Elastic Constant Matrix: (Units=GPa)
#
#
# Indices 1 2 3 4 5 6 
#
# 1 71.5225 15.9418 2.2979 0.0000 -9.8479 0.0000
# 2 15.9418 90.0235 12.2855 0.0000 -3.0568 0.0000
# 3 2.2979 12.2855 85.9169 0.0000 -11.8678 0.0000
# 4 0.0000 0.0000 0.0000 33.4972 0.0000 -3.8651
# 5 -9.8479 -3.0568 -11.8678 0.0000 38.5199 0.0000
# 6 0.0000 0.0000 0.0000 -3.8651 0.0000 29.7331
#
#
#
# Elastic Compliance Matrix: (Units=1/GPa)
#
#
# Indices 1 2 3 4 5 6 
#
# 1 0.015070 -0.002607 0.000494 0.000000 0.003798 0.000000
# 2 -0.002607 0.011787 -0.001649 0.000000 -0.000239 0.000000
# 3 0.000494 -0.001649 0.012388 0.000000 0.003812 0.000000
# 4 0.000000 0.000000 0.000000 0.030308 0.000000 0.003940
# 5 0.003798 -0.000239 0.003812 0.000000 0.028087 0.000000
# 6 0.000000 0.000000 0.000000 0.003940 0.000000 0.034145
#
#
# Mechanical properties :
#
#
# Convention : Reuss Voigt Hill
#
# Bulk Modulus (GPa) = 31.52393 34.27923 32.90158
# Shear Modulus (GPa) = 33.35968 34.81255 34.08612
#
# Velocity S-wave (km/s) = 3.82416 3.90654 3.86557
# Velocity P-wave (km/s) = 5.77220 5.94772 5.86062
#
# Compressibility (1/GPa) = 0.03172194
#
# Stress axis : x y z
#
# Youngs Moduli (GPa) = 66.35789 84.84084 80.72137
#
# Poissons Ratio (x) = 0.22119 -0.03991
# Poissons Ratio (y) = 0.17300 0.13309
# Poissons Ratio (z) = -0.03281 0.13988
#
# Static dielectric constant tensor:
#      x y z
#    x 1.826760 0.000000 -0.050100 
#    y 0.000000 1.949890 0.000000 
#    z -0.050100 0.000000 1.901360 
# 
# From -- ./inp_files/3510.got.cif
#   From: 2010.05.17/outbox.cif.g08.bks.cpg/sg4_2_cif.got.tgz:3510.got - 2010.06.03 18:43:04.
