data_PCOD9117419
_publ_section_title
;
Structure prediction by ZEFSAII (Michael W. Deem and Ramdas Pophale) SiO2 
 PCOD9117419
Probable space group: P 21
;
_chemical_formula_sum "Si O2"
_cell_formula_units_Z 16
_cell_length_a 11.575186
_cell_length_b 5.222611
_cell_length_c 20.839423
_cell_angle_alpha 90.000000
_cell_angle_beta 28.680870
_cell_angle_gamma 90.000000
_cell_volume 604.616223
_symmetry_space_group_name_H-M "P 21"
_symmetry_group_IT_number 4
_symmetry_cell_setting 'monoclinic'
loop_
_space_group_symop_operation_xyz
x,y,z
-x,1/2+y,-z
loop_
_atom_site_type_symbol
_atom_site_label
_atom_site_fract_x
_atom_site_fract_y
_atom_site_fract_z
Si Si1 0.833839 0.444330 0.585535
Si Si2 0.729339 0.060508 0.736384
Si Si3 0.124483 0.537898 0.136904
Si Si4 0.532170 0.813182 0.333691
Si Si5 0.959808 0.162438 0.110376
Si Si6 0.091683 0.786822 0.633396
Si Si7 0.686932 0.386729 0.868216
Si Si8 0.350314 0.913521 0.837031
O O1 0.624927 0.498493 0.636121
O O2 0.290244 0.828811 0.290572
O O3 0.023629 0.672999 0.500094
O O4 0.996519 0.973784 0.623464
O O5 0.652414 0.122436 0.845557
O O6 0.593115 0.860211 0.757857
O O7 0.946065 0.426588 0.279660
O O8 0.170806 0.833270 0.134289
O O9 0.020658 0.413649 0.122829
O O10 0.410230 0.469012 0.002578
O O11 0.592176 0.587810 0.253615
O O12 0.361220 0.725167 0.476506
O O13 0.771970 0.967932 0.235938
O O14 0.828949 0.210374 0.105505
O O15 0.207934 0.046504 0.964985
O O16 0.887109 0.565913 0.736226
#
# Coordination Sequence:
#
# PCOD9117419 Si02
#       8
#     2   2   2   2   2   2   2   2
#     4  11  23  41  70 110 157 203 252 323 397 469
#     4  10  23  38  71 108 145 190 253 323 388 465
#     4  11  25  45  75 111 147 198 258 336 394 482
#     4  11  26  45  72 107 159 208 256 329 392 489
#     4  12  26  49  71 109 156 208 264 308 403 492
#     4  11  24  46  75 111 147 197 258 332 405 459
#     4  11  22  44  75 111 147 190 264 337 400 461
#     4  11  25  44  71 107 148 208 255 314 393 481
#
# _framework density 26.463066000000001
#
# number of rings (size 3 to 8) (size 9 to 14) (size 15 to 20)
#    0.000    1.000    5.000    0.750    3.500    5.000 
#    2.250    0.000    0.000    0.000    0.000    0.000 
#    0.000    0.000    0.000    0.000    0.000    0.000 
#
# Total GULP energy -89169.719594 kJ/mol
# GULP energy per Si atom -5573.107475 kJ/mol
# Density = 2.640283 g / cm^3
# Si number density = 26.463066 Si / 1000 Ang^3
#
#
#
# Elastic Constant Matrix: (Units=GPa)
#
#
# Indices 1 2 3 4 5 6 
#
# 1 108.4888 8.2442 25.4842 0.0000 -10.0673 0.0000
# 2 8.2442 54.5220 13.9086 0.0000 -2.1519 0.0000
# 3 25.4842 13.9086 149.1593 0.0000 2.2307 0.0000
# 4 0.0000 0.0000 0.0000 37.3150 0.0000 2.2304
# 5 -10.0673 -2.1519 2.2307 0.0000 28.6653 0.0000
# 6 0.0000 0.0000 0.0000 2.2304 0.0000 39.7348
#
#
#
# Elastic Compliance Matrix: (Units=1/GPa)
#
#
# Indices 1 2 3 4 5 6 
#
# 1 0.010015 -0.000946 -0.001676 0.000000 0.003577 0.000000
# 2 -0.000946 0.018946 -0.001623 0.000000 0.001217 0.000000
# 3 -0.001676 -0.001623 0.007161 0.000000 -0.001268 0.000000
# 4 0.000000 0.000000 0.000000 0.026889 0.000000 -0.001509
# 5 0.003577 0.001217 -0.001268 0.000000 0.036332 0.000000
# 6 0.000000 0.000000 0.000000 -0.001509 0.000000 0.025252
#
#
# Mechanical properties :
#
#
# Convention : Reuss Voigt Hill
#
# Bulk Modulus (GPa) = 36.19014 45.27157 40.73086
# Shear Modulus (GPa) = 35.13805 38.77856 36.95831
#
# Velocity S-wave (km/s) = 3.64787 3.83219 3.74116
# Velocity P-wave (km/s) = 5.60786 6.06015 5.83839
#
# Compressibility (1/GPa) = 0.02763183
#
# Stress axis : x y z
#
# Youngs Moduli (GPa) = 99.84919 52.78070 139.64537
#
# Poissons Ratio (x) = 0.04991 0.23411
# Poissons Ratio (y) = 0.09441 0.22669
# Poissons Ratio (z) = 0.16739 0.08568
#
# Static dielectric constant tensor:
#      x y z
#    x 2.056900 0.000000 0.063860 
#    y 0.000000 2.200600 0.000000 
#    z 0.063860 0.000000 2.239270 
# 
# From -- ./inp_files/15677.got.cif
#   From: 2010.05.17/outbox.cif.g08.bks.cpg/sg4_8_cif.got.tgz:15677.got - 2010.06.03 18:43:04.
