data_PCOD9117095
_publ_section_title
;
Structure prediction by ZEFSAII (Michael W. Deem and Ramdas Pophale) SiO2 
 PCOD9117095
Probable space group: P 21
;
_chemical_formula_sum "Si O2"
_cell_formula_units_Z 16
_cell_length_a 6.579887
_cell_length_b 10.145811
_cell_length_c 11.533698
_cell_angle_alpha 90.000000
_cell_angle_beta 114.425660
_cell_angle_gamma 90.000000
_cell_volume 701.056535
_symmetry_space_group_name_H-M "P 21"
_symmetry_group_IT_number 4
_symmetry_cell_setting 'monoclinic'
loop_
_space_group_symop_operation_xyz
x,y,z
-x,1/2+y,-z
loop_
_atom_site_type_symbol
_atom_site_label
_atom_site_fract_x
_atom_site_fract_y
_atom_site_fract_z
Si Si1 0.848175 0.088660 0.818509
Si Si2 0.024987 0.403664 0.505422
Si Si3 0.417919 0.079757 0.627715
Si Si4 0.892932 0.371113 0.732733
Si Si5 0.519387 0.069548 0.398421
Si Si6 0.663790 0.530677 0.150604
Si Si7 0.755003 0.249574 0.270486
Si Si8 0.222119 0.552970 0.929268
O O1 0.802645 0.235384 0.761621
O O2 0.651833 0.004130 0.711631
O O3 0.086391 0.047497 0.829961
O O4 0.849476 0.085174 0.956998
O O5 0.813794 0.502358 0.442570
O O6 0.993949 0.352084 0.628397
O O7 0.966714 0.291042 0.399143
O O8 0.259235 0.476317 0.542316
O O9 0.469151 0.136521 0.511929
O O10 0.383805 0.130872 0.752748
O O11 0.693271 0.478134 0.681300
O O12 0.094338 0.422471 0.860043
O O13 0.584664 0.173038 0.314563
O O14 0.646953 0.381562 0.193590
O O15 0.488879 0.545615 0.006055
O O16 0.829251 0.158301 0.182101
#
# Coordination Sequence:
#
# PCOD9117095 Si02
#       8
#     2   2   2   2   2   2   2   2
#     4  11  25  45  71  97 143 187 235 303 340 425
#     4  10  22  43  69 101 140 182 230 292 354 422
#     4   9  20  43  66 104 130 176 242 274 358 415
#     4  11  26  45  66 105 140 185 243 286 362 426
#     4  11  23  43  70 103 146 183 231 302 358 420
#     4  10  25  46  71 100 139 189 240 291 360 419
#     4  11  24  45  73 103 141 185 234 298 351 429
#     4  11  27  44  66 105 135 185 243 282 361 424
#
# _framework density 22.822695
#
# number of rings (size 3 to 8) (size 9 to 14) (size 15 to 20)
#    0.000    1.500    1.250    2.250    5.250    3.000 
#   11.250    0.000    0.000    0.000    0.000    0.000 
#    0.000    0.000    0.000    0.000    0.000    0.000 
#
# Total GULP energy -89313.265676 kJ/mol
# GULP energy per Si atom -5582.079105 kJ/mol
# Density = 2.277075 g / cm^3
# Si number density = 22.822695 Si / 1000 Ang^3
#
#
#
# Elastic Constant Matrix: (Units=GPa)
#
#
# Indices 1 2 3 4 5 6 
#
# 1 112.6575 6.1431 29.7314 0.0000 20.7248 0.0000
# 2 6.1431 60.9603 21.2147 0.0000 3.8592 0.0000
# 3 29.7314 21.2147 122.2034 0.0000 -3.2934 0.0000
# 4 0.0000 0.0000 0.0000 38.9954 0.0000 0.1202
# 5 20.7248 3.8592 -3.2934 0.0000 42.9978 0.0000
# 6 0.0000 0.0000 0.0000 0.1202 0.0000 32.0609
#
#
#
# Elastic Compliance Matrix: (Units=1/GPa)
#
#
# Indices 1 2 3 4 5 6 
#
# 1 0.010571 0.000231 -0.002756 0.000000 -0.005327 0.000000
# 2 0.000231 0.017605 -0.003164 0.000000 -0.001934 0.000000
# 3 -0.002756 -0.003164 0.009466 0.000000 0.002337 0.000000
# 4 0.000000 0.000000 0.000000 0.025644 0.000000 -0.000096
# 5 -0.005327 -0.001934 0.002337 0.000000 0.026177 0.000000
# 6 0.000000 0.000000 0.000000 -0.000096 0.000000 0.031191
#
#
# Mechanical properties :
#
#
# Convention : Reuss Voigt Hill
#
# Bulk Modulus (GPa) = 38.07600 45.55551 41.81576
# Shear Modulus (GPa) = 35.51474 38.72627 37.12051
#
# Velocity S-wave (km/s) = 3.94904 4.12373 4.03733
# Velocity P-wave (km/s) = 6.12477 6.53280 6.33207
#
# Compressibility (1/GPa) = 0.02626326
#
# Stress axis : x y z
#
# Youngs Moduli (GPa) = 94.59799 56.80352 105.64317
#
# Poissons Ratio (x) = -0.01312 0.29110
# Poissons Ratio (y) = -0.02185 0.33431
# Poissons Ratio (z) = 0.26067 0.17975
#
# Static dielectric constant tensor:
#      x y z
#    x 1.865630 0.000000 -0.000700 
#    y 0.000000 1.901920 0.000000 
#    z -0.000700 0.000000 1.841310 
# 
# From -- ./inp_files/10435.got.cif
#   From: 2010.05.17/outbox.cif.g08.bks.cpg/sg4_6_cif.got.tgz:10435.got - 2010.06.03 18:43:04.
