data_PCOD9117607
_publ_section_title
;
Structure prediction by ZEFSAII (Michael W. Deem and Ramdas Pophale) SiO2 
 PCOD9117607
Probable space group: P 21
;
_chemical_formula_sum "Si O2"
_cell_formula_units_Z 16
_cell_length_a 9.003347
_cell_length_b 13.209551
_cell_length_c 5.723053
_cell_angle_alpha 90.000000
_cell_angle_beta 97.973111
_cell_angle_gamma 90.000000
_cell_volume 674.064078
_symmetry_space_group_name_H-M "P 21"
_symmetry_group_IT_number 4
_symmetry_cell_setting 'monoclinic'
loop_
_space_group_symop_operation_xyz
x,y,z
-x,1/2+y,-z
loop_
_atom_site_type_symbol
_atom_site_label
_atom_site_fract_x
_atom_site_fract_y
_atom_site_fract_z
Si Si1 0.446463 0.471620 0.420392
Si Si2 0.511964 0.661995 0.695250
Si Si3 0.073942 0.600968 0.949141
Si Si4 0.016256 0.906632 0.882849
Si Si5 0.631629 0.993932 0.110411
Si Si6 0.841375 0.719603 0.614390
Si Si7 0.961867 0.273593 0.723217
Si Si8 0.708198 0.343114 0.325198
O O1 0.443955 0.592911 0.468027
O O2 0.377829 0.429750 0.650905
O O3 0.614655 0.428797 0.439676
O O4 0.377317 0.447983 0.150719
O O5 0.506396 0.573977 0.891216
O O6 0.671352 0.703015 0.648286
O O7 0.411256 0.755621 0.756005
O O8 0.104479 0.705845 0.085559
O O9 0.034736 0.521263 0.143990
O O10 0.217894 0.559929 0.847367
O O11 0.936435 0.628548 0.751782
O O12 0.189485 0.893198 0.850894
O O13 0.910515 0.825736 0.728264
O O14 0.997999 0.880062 0.152141
O O15 0.890057 0.724503 0.355102
O O16 0.833244 0.288939 0.508957
#
# Coordination Sequence:
#
# PCOD9117607 Si02
#       8
#     2   2   2   2   2   2   2   2
#     4  10  26  42  73 105 139 188 239 290 360 423
#     4  10  24  43  70 101 146 180 239 299 352 435
#     4  11  24  42  71  95 146 179 243 293 362 435
#     4  10  25  41  70 100 133 192 232 301 356 435
#     4  10  24  46  66 104 137 189 229 288 363 413
#     4  10  24  42  63 106 130 185 235 296 361 424
#     4  10  23  43  67  95 137 186 235 293 366 424
#     4  11  24  45  68 102 138 191 240 296 364 433
#
# _framework density 23.736615
#
# number of rings (size 3 to 8) (size 9 to 14) (size 15 to 20)
#    0.750    1.000    0.000    3.000   10.500    3.000 
#    0.000    0.000    0.000    0.000    0.000    0.000 
#    0.000    0.000    0.000    0.000    0.000    0.000 
#
# Total GULP energy -89262.503053 kJ/mol
# GULP energy per Si atom -5578.906441 kJ/mol
# Density = 2.368259 g / cm^3
# Si number density = 23.736615 Si / 1000 Ang^3
#
#
#
# Elastic Constant Matrix: (Units=GPa)
#
#
# Indices 1 2 3 4 5 6 
#
# 1 106.2120 9.2489 27.4155 0.0000 -29.3092 0.0000
# 2 9.2489 61.6033 -0.7328 0.0000 -13.3487 0.0000
# 3 27.4155 -0.7328 95.3277 0.0000 -21.9786 0.0000
# 4 0.0000 0.0000 0.0000 23.5238 0.0000 -11.6364
# 5 -29.3092 -13.3487 -21.9786 0.0000 31.6169 0.0000
# 6 0.0000 0.0000 0.0000 -11.6364 0.0000 40.6920
#
#
#
# Elastic Compliance Matrix: (Units=1/GPa)
#
#
# Indices 1 2 3 4 5 6 
#
# 1 0.012766 0.000524 -0.001057 0.000000 0.011321 0.000000
# 2 0.000524 0.018298 0.002243 0.000000 0.009770 0.000000
# 3 -0.001057 0.002243 0.012866 0.000000 0.008910 0.000000
# 4 0.000000 0.000000 0.000000 0.049514 0.000000 0.014159
# 5 0.011321 0.009770 0.008910 0.000000 0.052442 0.000000
# 6 0.000000 0.000000 0.000000 0.014159 0.000000 0.028624
#
#
# Mechanical properties :
#
#
# Convention : Reuss Voigt Hill
#
# Bulk Modulus (GPa) = 21.12024 37.22294 29.17159
# Shear Modulus (GPa) = 26.75588 34.31397 30.53492
#
# Velocity S-wave (km/s) = 3.36102 3.80625 3.59054
# Velocity P-wave (km/s) = 4.89684 5.91882 5.43191
#
# Compressibility (1/GPa) = 0.04734794
#
# Stress axis : x y z
#
# Youngs Moduli (GPa) = 78.33071 54.65089 77.72539
#
# Poissons Ratio (x) = -0.02862 0.08219
# Poissons Ratio (y) = -0.04103 -0.17430
# Poissons Ratio (z) = 0.08283 -0.12256
#
# Static dielectric constant tensor:
#      x y z
#    x 1.890010 0.000000 -0.007180 
#    y 0.000000 1.909760 0.000000 
#    z -0.007180 0.000000 1.977540 
# 
# From -- ./inp_files/1767.got.cif
#   From: 2010.05.17/outbox.cif.g08.bks.cpg/sg4_1_cif.got.tgz:1767.got - 2010.06.03 18:43:04.
