data_PCOD9117023
_publ_section_title
;
Structure prediction by ZEFSAII (Michael W. Deem and Ramdas Pophale) SiO2 
 PCOD9117023
Probable space group: P 21
;
_chemical_formula_sum "Si O2"
_cell_formula_units_Z 14
_cell_length_a 8.987780
_cell_length_b 8.270367
_cell_length_c 12.659205
_cell_angle_alpha 90.000000
_cell_angle_beta 35.269268
_cell_angle_gamma 90.000000
_cell_volume 543.344543
_symmetry_space_group_name_H-M "P 21"
_symmetry_group_IT_number 4
_symmetry_cell_setting 'monoclinic'
loop_
_space_group_symop_operation_xyz
x,y,z
-x,1/2+y,-z
loop_
_atom_site_type_symbol
_atom_site_label
_atom_site_fract_x
_atom_site_fract_y
_atom_site_fract_z
Si Si1 0.892523 0.117470 0.230025
Si Si2 0.587143 0.548620 0.383041
Si Si3 0.069616 0.754529 0.135044
Si Si4 0.286241 0.495248 0.167626
Si Si5 0.428725 0.276184 0.897109
Si Si6 0.468599 0.740251 0.731470
Si Si7 0.253678 0.947378 0.472158
O O1 0.676842 0.146148 0.444879
O O2 0.736154 0.126068 0.211762
O O3 0.985396 0.937416 0.201725
O O4 0.121074 0.243984 0.078769
O O5 0.828869 0.663530 0.216941
O O6 0.532684 0.405023 0.333621
O O7 0.654801 0.471698 0.458810
O O8 0.136076 0.637321 0.191801
O O9 0.336804 0.764559 0.918322
O O10 0.453169 0.599523 0.151263
O O11 0.047165 0.395813 0.355378
O O12 0.451660 0.396310 0.985140
O O13 0.563626 0.349305 0.715210
O O14 0.722439 0.633354 0.586032
#
# Coordination Sequence:
#
# PCOD9117023 Si02
#       7
#     2   2   2   2   2   2   2
#     4  11  23  38  67 107 138 183 226 287 352 412
#     4  10  22  42  71 106 149 183 231 289 351 428
#     4  11  22  42  66 106 144 186 234 284 350 415
#     4  11  25  47  75  97 141 185 239 300 339 421
#     4  12  26  49  73 103 139 187 239 294 355 417
#     4  11  22  42  69 104 148 186 225 287 348 425
#     4  10  24  46  71 103 143 184 238 287 355 418
#
# _framework density 25.766342000000002
#
# number of rings (size 3 to 8) (size 9 to 14) (size 15 to 20)
#    0.000    1.143    1.429    6.000    4.000    2.286 
#   10.286    1.429    0.000    0.000    0.000    0.000 
#    0.000    0.000    0.000    0.000    0.000    0.000 
#
# Total GULP energy -78298.041696 kJ/mol
# GULP energy per Si atom -5592.717264 kJ/mol
# Density = 2.570770 g / cm^3
# Si number density = 25.766342 Si / 1000 Ang^3
#
#
#
# Elastic Constant Matrix: (Units=GPa)
#
#
# Indices 1 2 3 4 5 6 
#
# 1 38.0814 12.1572 21.7963 0.0000 6.5063 0.0000
# 2 12.1572 111.6021 40.3124 0.0000 12.3996 0.0000
# 3 21.7963 40.3124 200.3994 0.0000 11.1175 0.0000
# 4 0.0000 0.0000 0.0000 55.5182 0.0000 1.2451
# 5 6.5063 12.3996 11.1175 0.0000 30.2158 0.0000
# 6 0.0000 0.0000 0.0000 1.2451 0.0000 48.0756
#
#
#
# Elastic Compliance Matrix: (Units=1/GPa)
#
#
# Indices 1 2 3 4 5 6 
#
# 1 0.029063 -0.001730 -0.002557 0.000000 -0.004607 0.000000
# 2 -0.001730 0.010103 -0.001669 0.000000 -0.003159 0.000000
# 3 -0.002557 -0.001669 0.005651 0.000000 -0.000844 0.000000
# 4 0.000000 0.000000 0.000000 0.018023 0.000000 -0.000467
# 5 -0.004607 -0.003159 -0.000844 0.000000 0.035694 0.000000
# 6 0.000000 0.000000 0.000000 -0.000467 0.000000 0.020813
#
#
# Mechanical properties :
#
#
# Convention : Reuss Voigt Hill
#
# Bulk Modulus (GPa) = 30.39209 55.40160 42.89685
# Shear Modulus (GPa) = 35.15527 45.14971 40.15249
#
# Velocity S-wave (km/s) = 3.69777 4.19056 3.95185
# Velocity P-wave (km/s) = 5.48199 6.70542 6.12433
#
# Compressibility (1/GPa) = 0.03290329
#
# Stress axis : x y z
#
# Youngs Moduli (GPa) = 34.40829 98.98348 176.96988
#
# Poissons Ratio (x) = 0.17127 0.45257
# Poissons Ratio (y) = 0.05954 0.29533
# Poissons Ratio (z) = 0.08799 0.16518
#
# Static dielectric constant tensor:
#      x y z
#    x 2.090210 0.000000 -0.046900 
#    y 0.000000 2.084880 0.000000 
#    z -0.046900 0.000000 2.042340 
# 
# From -- ./inp_files/10784.got.cif
#   From: 2010.05.17/outbox.cif.g08.bks.cpg/sg4_6_cif.got.tgz:10784.got - 2010.06.03 18:43:04.
