data_PCOD9117444
_publ_section_title
;
Structure prediction by ZEFSAII (Michael W. Deem and Ramdas Pophale) SiO2 
 PCOD9117444
Probable space group: P 21
;
_chemical_formula_sum "Si O2"
_cell_formula_units_Z 16
_cell_length_a 10.708081
_cell_length_b 5.610208
_cell_length_c 10.883300
_cell_angle_alpha 90.000000
_cell_angle_beta 115.651046
_cell_angle_gamma 90.000000
_cell_volume 589.374732
_symmetry_space_group_name_H-M "P 21"
_symmetry_group_IT_number 4
_symmetry_cell_setting 'monoclinic'
loop_
_space_group_symop_operation_xyz
x,y,z
-x,1/2+y,-z
loop_
_atom_site_type_symbol
_atom_site_label
_atom_site_fract_x
_atom_site_fract_y
_atom_site_fract_z
Si Si1 0.450488 0.143560 0.430145
Si Si2 0.771039 0.242454 0.391377
Si Si3 0.199470 0.451808 0.361070
Si Si4 0.517139 0.657650 0.828219
Si Si5 0.033545 0.076618 0.380648
Si Si6 0.269927 0.893270 0.972232
Si Si7 0.904058 0.331855 0.855705
Si Si8 0.207485 0.370766 0.965694
O O1 0.512403 0.415074 0.470608
O O2 0.291469 0.218334 0.380716
O O3 0.467106 0.049174 0.300218
O O4 0.635889 0.269022 0.247340
O O5 0.854947 0.473448 0.474426
O O6 0.732338 0.111950 0.504050
O O7 0.882441 0.069306 0.374845
O O8 0.172059 0.596012 0.226943
O O9 0.058388 0.350811 0.355247
O O10 0.565305 0.446897 0.941838
O O11 0.644655 0.841053 0.900440
O O12 0.056387 0.943487 0.261101
O O13 0.196754 0.915476 0.077785
O O14 0.222425 0.632725 0.916090
O O15 0.212807 0.132308 0.883333
O O16 0.061153 0.344769 0.974806
#
# Coordination Sequence:
#
# PCOD9117444 Si02
#       8
#     2   2   2   2   2   2   2   2
#     4  12  25  38  62 101 136 171 211 271 338 404
#     4  11  22  45  62  96 125 176 222 265 342 381
#     4  11  24  38  66  90 134 167 219 274 324 397
#     4  10  24  39  67  92 138 173 213 271 333 403
#     4  11  24  40  68  92 128 175 228 280 321 397
#     4  10  23  40  66 102 132 176 208 269 334 397
#     4  11  24  40  66 100 128 174 223 276 320 399
#     4  10  24  42  67  99 137 174 218 264 340 394
#
# _framework density 27.147414000000001
#
# number of rings (size 3 to 8) (size 9 to 14) (size 15 to 20)
#    0.750    0.500    2.500    3.000    8.750    1.000 
#    0.000    0.000    5.500    0.000    0.000    0.000 
#    0.000    0.000    0.000    0.000    0.000    0.000 
#
# Total GULP energy -89206.280324 kJ/mol
# GULP energy per Si atom -5575.392520 kJ/mol
# Density = 2.708563 g / cm^3
# Si number density = 27.147414 Si / 1000 Ang^3
#
#
#
# Elastic Constant Matrix: (Units=GPa)
#
#
# Indices 1 2 3 4 5 6 
#
# 1 104.6952 20.2342 37.8378 0.0000 28.7578 0.0000
# 2 20.2342 145.4687 33.0558 0.0000 14.5494 0.0000
# 3 37.8378 33.0558 106.2005 0.0000 28.2792 0.0000
# 4 0.0000 0.0000 0.0000 39.4205 0.0000 13.8156
# 5 28.7578 14.5494 28.2792 0.0000 50.1243 0.0000
# 6 0.0000 0.0000 0.0000 13.8156 0.0000 48.0824
#
#
#
# Elastic Compliance Matrix: (Units=1/GPa)
#
#
# Indices 1 2 3 4 5 6 
#
# 1 0.012083 -0.000534 -0.002747 0.000000 -0.005228 0.000000
# 2 -0.000534 0.007464 -0.001927 0.000000 -0.000773 0.000000
# 3 -0.002747 -0.001927 0.012269 0.000000 -0.004787 0.000000
# 4 0.000000 0.000000 0.000000 0.028208 0.000000 -0.008105
# 5 -0.005228 -0.000773 -0.004787 0.000000 0.025875 0.000000
# 6 0.000000 0.000000 0.000000 -0.008105 0.000000 0.023126
#
#
# Mechanical properties :
#
#
# Convention : Reuss Voigt Hill
#
# Bulk Modulus (GPa) = 46.72693 59.84668 53.28680
# Shear Modulus (GPa) = 39.50222 45.20789 42.35505
#
# Velocity S-wave (km/s) = 3.81872 4.08520 3.95421
# Velocity P-wave (km/s) = 6.05748 6.65919 6.36545
#
# Compressibility (1/GPa) = 0.02140094
#
# Stress axis : x y z
#
# Youngs Moduli (GPa) = 82.75760 133.97990 81.50416
#
# Poissons Ratio (x) = 0.07150 0.22389
# Poissons Ratio (y) = 0.04417 0.15707
# Poissons Ratio (z) = 0.22733 0.25820
#
# Static dielectric constant tensor:
#      x y z
#    x 2.203220 0.000000 0.056730 
#    y 0.000000 2.132730 0.000000 
#    z 0.056730 0.000000 2.128290 
# 
# From -- ./inp_files/11788.got.cif
#   From: 2010.05.17/outbox.cif.g08.bks.cpg/sg4_6_cif.got.tgz:11788.got - 2010.06.03 18:43:04.
