data_PCOD9117884
_publ_section_title
;
Structure prediction by ZEFSAII (Michael W. Deem and Ramdas Pophale) SiO2 
 PCOD9117884
Probable space group: P 21
;
_chemical_formula_sum "Si O2"
_cell_formula_units_Z 12
_cell_length_a 5.099115
_cell_length_b 10.954645
_cell_length_c 9.171017
_cell_angle_alpha 90.000000
_cell_angle_beta 80.365032
_cell_angle_gamma 90.000000
_cell_volume 505.057552
_symmetry_space_group_name_H-M "P 21"
_symmetry_group_IT_number 4
_symmetry_cell_setting 'monoclinic'
loop_
_space_group_symop_operation_xyz
x,y,z
-x,1/2+y,-z
loop_
_atom_site_type_symbol
_atom_site_label
_atom_site_fract_x
_atom_site_fract_y
_atom_site_fract_z
Si Si1 0.337681 0.056380 0.084028
Si Si2 0.168265 0.155877 0.414505
Si Si3 0.104601 0.434531 0.381849
Si Si4 0.873011 0.332552 0.760774
Si Si5 0.559681 0.834681 0.439518
Si Si6 0.096455 0.577804 0.098722
O O1 0.258583 0.115678 0.245867
O O2 0.221129 0.919573 0.101872
O O3 0.651416 0.058763 0.029831
O O4 0.170244 0.110103 0.965170
O O5 0.022813 0.289420 0.407617
O O6 0.411458 0.199628 0.495777
O O7 0.020874 0.047057 0.513783
O O8 0.403514 0.421228 0.422617
O O9 0.079048 0.467996 0.215619
O O10 0.673997 0.358967 0.647370
O O11 0.840321 0.194230 0.808417
O O12 0.172800 0.355645 0.681519
#
# Coordination Sequence:
#
# PCOD9117884 Si02
#       6
#     2   2   2   2   2   2
#     4  12  28  45  71 104 149 191 240 297 369 433
#     4  10  23  48  75 108 142 193 248 303 360 434
#     4  10  23  48  75 108 142 193 248 303 360 434
#     4  12  24  46  70 104 146 185 239 308 362 424
#     4  10  24  42  76 102 136 183 249 294 364 414
#     4  12  28  45  71 104 149 191 240 297 369 433
#
# _framework density 23.759671000000001
#
# number of rings (size 3 to 8) (size 9 to 14) (size 15 to 20)
#    1.000    0.000    3.333    2.000    4.667    4.000 
#    0.000    0.000    0.000    0.000    0.000    0.000 
#    0.000    0.000    0.000    0.000    0.000    0.000 
#
# Total GULP energy -66970.523230 kJ/mol
# GULP energy per Si atom -5580.876936 kJ/mol
# Density = 2.370559 g / cm^3
# Si number density = 23.759671 Si / 1000 Ang^3
#
#
#
# Elastic Constant Matrix: (Units=GPa)
#
#
# Indices 1 2 3 4 5 6 
#
# 1 82.9608 17.7475 18.4456 0.0000 2.9290 0.0000
# 2 17.7475 121.6562 23.3327 0.0000 -5.5393 0.0000
# 3 18.4456 23.3327 84.0342 0.0000 -0.1992 0.0000
# 4 0.0000 0.0000 0.0000 43.9740 0.0000 6.8711
# 5 2.9290 -5.5393 -0.1992 0.0000 37.8020 0.0000
# 6 0.0000 0.0000 0.0000 6.8711 0.0000 25.5292
#
#
#
# Elastic Compliance Matrix: (Units=1/GPa)
#
#
# Indices 1 2 3 4 5 6 
#
# 1 0.012955 -0.001479 -0.002436 0.000000 -0.001233 0.000000
# 2 -0.001479 0.008911 -0.002146 0.000000 0.001409 0.000000
# 3 -0.002436 -0.002146 0.013030 0.000000 -0.000057 0.000000
# 4 0.000000 0.000000 0.000000 0.023739 0.000000 -0.006389
# 5 -0.001233 0.001409 -0.000057 0.000000 0.026755 0.000000
# 6 0.000000 0.000000 0.000000 -0.006389 0.000000 0.040890
#
#
# Mechanical properties :
#
#
# Convention : Reuss Voigt Hill
#
# Bulk Modulus (GPa) = 43.90831 45.30029 44.60430
# Shear Modulus (GPa) = 34.24743 36.73608 35.49176
#
# Velocity S-wave (km/s) = 3.80071 3.93638 3.86914
# Velocity P-wave (km/s) = 6.14661 6.30615 6.22689
#
# Compressibility (1/GPa) = 0.02277473
#
# Stress axis : x y z
#
# Youngs Moduli (GPa) = 77.18763 112.21523 76.74338
#
# Poissons Ratio (x) = 0.16596 0.18695
# Poissons Ratio (y) = 0.11415 0.16472
# Poissons Ratio (z) = 0.18803 0.24085
#
# Static dielectric constant tensor:
#      x y z
#    x 1.987700 0.000000 -0.006710 
#    y 0.000000 1.946090 0.000000 
#    z -0.006710 0.000000 1.916060 
# 
# From -- ./inp_files/4589.got.cif
#   From: 2010.05.17/outbox.cif.g08.bks.cpg/sg4_3_cif.got.tgz:4589.got - 2010.06.03 18:43:04.
