data_PCOD9117471
_publ_section_title
;
Structure prediction by ZEFSAII (Michael W. Deem and Ramdas Pophale) SiO2 
 PCOD9117471
Probable space group: P 21
;
_chemical_formula_sum "Si O2"
_cell_formula_units_Z 16
_cell_length_a 17.400121
_cell_length_b 8.353010
_cell_length_c 4.881531
_cell_angle_alpha 90.000000
_cell_angle_beta 118.325814
_cell_angle_gamma 90.000000
_cell_volume 624.545522
_symmetry_space_group_name_H-M "P 21"
_symmetry_group_IT_number 4
_symmetry_cell_setting 'monoclinic'
loop_
_space_group_symop_operation_xyz
x,y,z
-x,1/2+y,-z
loop_
_atom_site_type_symbol
_atom_site_label
_atom_site_fract_x
_atom_site_fract_y
_atom_site_fract_z
Si Si1 0.439482 0.008350 0.095581
Si Si2 0.755287 0.190308 0.477757
Si Si3 0.850080 0.440022 0.988674
Si Si4 0.203000 0.486751 0.953447
Si Si5 0.259109 0.163154 0.820531
Si Si6 0.995335 0.960284 0.585575
Si Si7 0.431839 0.790710 0.604825
Si Si8 0.076787 0.182943 0.244283
O O1 0.507905 0.136461 0.322518
O O2 0.418901 0.880431 0.297333
O O3 0.350873 0.102438 0.866289
O O4 0.474444 0.915721 0.890096
O O5 0.815656 0.336413 0.682991
O O6 0.658521 0.239469 0.404709
O O7 0.764590 0.133736 0.183346
O O8 0.784395 0.041667 0.715603
O O9 0.928688 0.572806 0.040462
O O10 0.775673 0.530757 0.023079
O O11 0.915635 0.345094 0.295539
O O12 0.261350 0.332627 0.977432
O O13 0.103783 0.443853 0.710544
O O14 0.181443 0.178425 0.468290
O O15 0.961146 0.858522 0.813609
O O16 0.031028 0.087949 0.409182
#
# Coordination Sequence:
#
# PCOD9117471 Si02
#       8
#     2   2   2   2   2   2   2   2
#     4  12  27  50  78 113 148 192 238 310 359 457
#     4  12  27  47  73 105 146 192 244 298 369 433
#     4  11  24  41  73  93 145 193 241 298 363 434
#     4  11  28  44  72 106 146 191 245 305 354 433
#     4  10  25  46  69 100 144 189 242 290 375 427
#     4  10  24  40  62 102 135 187 239 299 350 425
#     4  12  28  49  80 112 151 189 249 293 382 431
#     4  10  23  41  65  95 137 185 240 289 362 422
#
# _framework density 25.618632000000002
#
# number of rings (size 3 to 8) (size 9 to 14) (size 15 to 20)
#    0.000    1.000    1.250    3.000   15.750    1.000 
#    0.000    0.000    0.000    0.000    0.000    0.000 
#    0.000    0.000    0.000    0.000    0.000    0.000 
#
# Total GULP energy -89338.179855 kJ/mol
# GULP energy per Si atom -5583.636241 kJ/mol
# Density = 2.556032 g / cm^3
# Si number density = 25.618632 Si / 1000 Ang^3
#
#
#
# Elastic Constant Matrix: (Units=GPa)
#
#
# Indices 1 2 3 4 5 6 
#
# 1 73.8675 19.4603 21.2251 0.0000 4.6439 0.0000
# 2 19.4603 77.6723 20.0456 0.0000 3.1575 0.0000
# 3 21.2251 20.0456 74.9699 0.0000 -9.1839 0.0000
# 4 0.0000 0.0000 0.0000 45.3460 0.0000 -7.1879
# 5 4.6439 3.1575 -9.1839 0.0000 44.0884 0.0000
# 6 0.0000 0.0000 0.0000 -7.1879 0.0000 49.0365
#
#
#
# Elastic Compliance Matrix: (Units=1/GPa)
#
#
# Indices 1 2 3 4 5 6 
#
# 1 0.015544 -0.002788 -0.003932 0.000000 -0.002257 0.000000
# 2 -0.002788 0.014471 -0.003254 0.000000 -0.001420 0.000000
# 3 -0.003932 -0.003254 0.015804 0.000000 0.003939 0.000000
# 4 0.000000 0.000000 0.000000 0.022577 0.000000 0.003309
# 5 -0.002257 -0.001420 0.003939 0.000000 0.023842 0.000000
# 6 0.000000 0.000000 0.000000 0.003309 0.000000 0.020878
#
#
# Mechanical properties :
#
#
# Convention : Reuss Voigt Hill
#
# Bulk Modulus (GPa) = 38.65215 38.66354 38.65784
# Shear Modulus (GPa) = 35.28909 38.74611 37.01760
#
# Velocity S-wave (km/s) = 3.71546 3.89320 3.80537
# Velocity P-wave (km/s) = 5.79021 5.94425 5.86773
#
# Compressibility (1/GPa) = 0.02587178
#
# Stress axis : x y z
#
# Youngs Moduli (GPa) = 64.33419 69.10552 63.27355
#
# Poissons Ratio (x) = 0.19267 0.24877
# Poissons Ratio (y) = 0.17936 0.20588
# Poissons Ratio (z) = 0.25294 0.22486
#
# Static dielectric constant tensor:
#      x y z
#    x 1.968280 0.000000 -0.012640 
#    y 0.000000 2.162450 0.000000 
#    z -0.012640 0.000000 2.049900 
# 
# From -- ./inp_files/4115.got.cif
#   From: 2010.05.17/outbox.cif.g08.bks.cpg/sg4_3_cif.got.tgz:4115.got - 2010.06.03 18:43:04.
