data_PCOD9117223
_publ_section_title
;
Structure prediction by ZEFSAII (Michael W. Deem and Ramdas Pophale) SiO2 
 PCOD9117223
Probable space group: P 21
;
_chemical_formula_sum "Si O2"
_cell_formula_units_Z 14
_cell_length_a 8.310513
_cell_length_b 7.356902
_cell_length_c 15.229964
_cell_angle_alpha 90.000000
_cell_angle_beta 146.594603
_cell_angle_gamma 90.000000
_cell_volume 512.655764
_symmetry_space_group_name_H-M "P 21"
_symmetry_group_IT_number 4
_symmetry_cell_setting 'monoclinic'
loop_
_space_group_symop_operation_xyz
x,y,z
-x,1/2+y,-z
loop_
_atom_site_type_symbol
_atom_site_label
_atom_site_fract_x
_atom_site_fract_y
_atom_site_fract_z
Si Si1 0.375813 0.339250 0.635199
Si Si2 0.880068 0.579716 0.184648
Si Si3 0.659809 0.984243 0.847199
Si Si4 0.370298 0.736685 0.845229
Si Si5 0.175035 0.146562 0.184883
Si Si6 0.031458 0.375881 0.641400
Si Si7 0.502847 0.234371 0.502318
O O1 0.536692 0.159298 0.742411
O O2 0.576464 0.515329 0.743522
O O3 0.090709 0.359559 0.565328
O O4 0.350183 0.320032 0.518419
O O5 0.768512 0.376441 0.147972
O O6 0.813306 0.705398 0.239831
O O7 0.271706 0.149172 0.330126
O O8 0.690172 0.668798 0.021605
O O9 0.418815 0.858919 0.782365
O O10 0.825308 0.846780 0.856751
O O11 0.873556 0.051826 0.022278
O O12 0.179508 0.559986 0.740602
O O13 0.700676 0.358372 0.525290
O O14 0.227919 0.611821 0.336794
#
# Coordination Sequence:
#
# PCOD9117223 Si02
#       7
#     2   2   2   2   2   2   2
#     4  12  25  53  79 117 164 212 273 342 409 492
#     4  10  22  44  73 116 164 207 271 340 410 482
#     4  12  26  47  81 115 159 222 278 331 412 495
#     4  12  21  46  80 116 164 220 274 340 412 493
#     4  12  27  50  75 123 169 210 279 340 407 506
#     4  10  24  49  77 114 164 209 274 338 410 494
#     4  10  27  53  75 123 160 210 277 333 426 480
#
# _framework density 27.308774
#
# number of rings (size 3 to 8) (size 9 to 14) (size 15 to 20)
#    0.857    0.000    5.714    0.857    2.000    0.000 
#   12.857    0.000    0.000    0.000    0.000    0.000 
#    0.000    0.000    0.000    0.000    0.000    0.000 
#
# Total GULP energy -78535.602093 kJ/mol
# GULP energy per Si atom -5609.685864 kJ/mol
# Density = 2.724662 g / cm^3
# Si number density = 27.308774 Si / 1000 Ang^3
#
#
#
# Elastic Constant Matrix: (Units=GPa)
#
#
# Indices 1 2 3 4 5 6 
#
# 1 173.4068 51.7470 62.5439 0.0000 -9.7426 0.0000
# 2 51.7470 175.1872 74.9895 0.0000 -5.4256 0.0000
# 3 62.5439 74.9895 186.1481 0.0000 -12.1502 0.0000
# 4 0.0000 0.0000 0.0000 47.9537 0.0000 -3.7803
# 5 -9.7426 -5.4256 -12.1502 0.0000 22.4954 0.0000
# 6 0.0000 0.0000 0.0000 -3.7803 0.0000 55.8964
#
#
#
# Elastic Compliance Matrix: (Units=1/GPa)
#
#
# Indices 1 2 3 4 5 6 
#
# 1 0.006844 -0.001247 -0.001683 0.000000 0.001755 0.000000
# 2 -0.001247 0.007125 -0.002461 0.000000 -0.000151 0.000000
# 3 -0.001683 -0.002461 0.007093 0.000000 0.002508 0.000000
# 4 0.000000 0.000000 0.000000 0.020965 0.000000 0.001418
# 5 0.001755 -0.000151 0.002508 0.000000 0.046532 0.000000
# 6 0.000000 0.000000 0.000000 0.001418 0.000000 0.017986
#
#
# Mechanical properties :
#
#
# Convention : Reuss Voigt Hill
#
# Bulk Modulus (GPa) = 97.27329 101.47810 99.37569
# Shear Modulus (GPa) = 41.40617 48.29988 44.85302
#
# Velocity S-wave (km/s) = 3.89809 4.21010 4.05710
# Velocity P-wave (km/s) = 7.48046 7.80215 7.64300
#
# Compressibility (1/GPa) = 0.01028031
#
# Stress axis : x y z
#
# Youngs Moduli (GPa) = 146.10396 140.34211 140.98940
#
# Poissons Ratio (x) = 0.17502 0.23725
# Poissons Ratio (y) = 0.18220 0.34702
# Poissons Ratio (z) = 0.24586 0.34543
#
# Static dielectric constant tensor:
#      x y z
#    x 2.175920 0.000000 0.026200 
#    y 0.000000 2.154570 0.000000 
#    z 0.026200 0.000000 2.046040 
# 
# From -- ./inp_files/9375.got.cif
#   From: 2010.05.17/outbox.cif.g08.bks.cpg/sg4_5_cif.got.tgz:9375.got - 2010.06.03 18:43:04.
