data_PCOD9117178
_publ_section_title
;
Structure prediction by ZEFSAII (Michael W. Deem and Ramdas Pophale) SiO2 
 PCOD9117178
Probable space group: P 21
;
_chemical_formula_sum "Si O2"
_cell_formula_units_Z 16
_cell_length_a 13.690345
_cell_length_b 9.838554
_cell_length_c 4.841113
_cell_angle_alpha 90.000000
_cell_angle_beta 69.169071
_cell_angle_gamma 90.000000
_cell_volume 609.442016
_symmetry_space_group_name_H-M "P 21"
_symmetry_group_IT_number 4
_symmetry_cell_setting 'monoclinic'
loop_
_space_group_symop_operation_xyz
x,y,z
-x,1/2+y,-z
loop_
_atom_site_type_symbol
_atom_site_label
_atom_site_fract_x
_atom_site_fract_y
_atom_site_fract_z
Si Si1 0.307023 0.532630 0.852036
Si Si2 0.586575 0.154225 0.716426
Si Si3 0.666937 0.418579 0.318804
Si Si4 0.091490 0.657580 0.866689
Si Si5 0.031730 0.834673 0.437409
Si Si6 0.630911 0.584133 0.853197
Si Si7 0.809765 0.760769 0.907997
Si Si8 0.888775 0.530897 0.220199
O O1 0.395005 0.535463 0.527469
O O2 0.345950 0.610191 0.085593
O O3 0.204086 0.606121 0.837512
O O4 0.268233 0.381935 0.946885
O O5 0.623878 0.284541 0.505463
O O6 0.468641 0.165597 0.940679
O O7 0.637535 0.446721 0.032912
O O8 0.791858 0.434877 0.229632
O O9 0.622798 0.543359 0.544858
O O10 0.005795 0.536994 0.970844
O O11 0.050677 0.773029 0.118342
O O12 0.089469 0.721200 0.567990
O O13 0.910629 0.820664 0.648569
O O14 0.081170 0.976601 0.500429
O O15 0.739763 0.659052 0.796816
O O16 0.847080 0.675309 0.138626
#
# Coordination Sequence:
#
# PCOD9117178 Si02
#       8
#     2   2   2   2   2   2   2   2
#     4  12  25  47  68 110 139 184 230 291 350 415
#     4  12  28  45  76  99 140 187 237 300 350 410
#     4  11  24  47  69 104 136 180 239 285 349 426
#     4  11  23  40  68 102 140 184 225 281 341 413
#     4  11  23  42  70 100 141 183 230 275 340 424
#     4  11  26  45  73 100 138 185 235 296 355 407
#     4  10  25  46  71 106 146 182 231 293 347 426
#     4  10  22  44  69 103 138 189 223 281 350 417
#
# _framework density 26.253523000000001
#
# number of rings (size 3 to 8) (size 9 to 14) (size 15 to 20)
#    0.000    1.000    1.250    4.500    3.500    9.000 
#    0.000    0.000    0.000    0.000    0.000    0.000 
#    0.000    0.000    0.000    0.000    0.000    0.000 
#
# Total GULP energy -89632.865628 kJ/mol
# GULP energy per Si atom -5602.054102 kJ/mol
# Density = 2.619377 g / cm^3
# Si number density = 26.253523 Si / 1000 Ang^3
#
#
#
# Elastic Constant Matrix: (Units=GPa)
#
#
# Indices 1 2 3 4 5 6 
#
# 1 138.9568 22.1950 22.5798 0.0000 -12.6744 0.0000
# 2 22.1950 81.7192 12.1086 0.0000 -10.4200 0.0000
# 3 22.5798 12.1086 85.7614 0.0000 -12.1523 0.0000
# 4 0.0000 0.0000 0.0000 36.6228 0.0000 -7.9683
# 5 -12.6744 -10.4200 -12.1523 0.0000 49.7959 0.0000
# 6 0.0000 0.0000 0.0000 -7.9683 0.0000 32.4328
#
#
#
# Elastic Compliance Matrix: (Units=1/GPa)
#
#
# Indices 1 2 3 4 5 6 
#
# 1 0.007853 -0.001731 -0.001648 0.000000 0.001234 0.000000
# 2 -0.001731 0.013131 -0.001110 0.000000 0.002036 0.000000
# 3 -0.001648 -0.001110 0.012594 0.000000 0.002422 0.000000
# 4 0.000000 0.000000 0.000000 0.028847 0.000000 0.007087
# 5 0.001234 0.002036 0.002422 0.000000 0.021413 0.000000
# 6 0.000000 0.000000 0.000000 0.007087 0.000000 0.032574
#
#
# Mechanical properties :
#
#
# Convention : Reuss Voigt Hill
#
# Bulk Modulus (GPa) = 40.65008 46.68934 43.66971
# Shear Modulus (GPa) = 37.42722 40.40723 38.91723
#
# Velocity S-wave (km/s) = 3.77982 3.92741 3.85432
# Velocity P-wave (km/s) = 5.87934 6.19586 6.03968
#
# Compressibility (1/GPa) = 0.02460020
#
# Stress axis : x y z
#
# Youngs Moduli (GPa) = 127.33241 76.15373 79.40244
#
# Poissons Ratio (x) = 0.13185 0.13088
# Poissons Ratio (y) = 0.22046 0.08811
# Poissons Ratio (z) = 0.20989 0.08450
#
# Static dielectric constant tensor:
#      x y z
#    x 1.989170 0.000000 -0.018470 
#    y 0.000000 2.213430 0.000000 
#    z -0.018470 0.000000 2.044460 
# 
# From -- ./inp_files/3704.got.cif
#   From: 2010.05.17/outbox.cif.g08.bks.cpg/sg4_2_cif.got.tgz:3704.got - 2010.06.03 18:43:04.
