data_PCOD9117770
_publ_section_title
;
Structure prediction by ZEFSAII (Michael W. Deem and Ramdas Pophale) SiO2 
 PCOD9117770
Probable space group: P 21
;
_chemical_formula_sum "Si O2"
_cell_formula_units_Z 14
_cell_length_a 12.242615
_cell_length_b 7.776913
_cell_length_c 9.441382
_cell_angle_alpha 90.000000
_cell_angle_beta 37.285284
_cell_angle_gamma 90.000000
_cell_volume 544.546349
_symmetry_space_group_name_H-M "P 21"
_symmetry_group_IT_number 4
_symmetry_cell_setting 'monoclinic'
loop_
_space_group_symop_operation_xyz
x,y,z
-x,1/2+y,-z
loop_
_atom_site_type_symbol
_atom_site_label
_atom_site_fract_x
_atom_site_fract_y
_atom_site_fract_z
Si Si1 0.661863 0.644250 0.008097
Si Si2 0.403355 0.780743 0.066490
Si Si3 0.001590 0.990130 0.844393
Si Si4 0.555208 0.444086 0.375240
Si Si5 0.858292 0.874883 0.290074
Si Si6 0.395626 0.591299 0.800580
Si Si7 0.070721 0.681123 0.578199
O O1 0.604586 0.465313 0.995417
O O2 0.862299 0.683262 0.753309
O O3 0.523637 0.776330 0.082545
O O4 0.639937 0.600747 0.196992
O O5 0.205531 0.716529 0.312295
O O6 0.470489 0.656795 0.871884
O O7 0.093324 0.176203 0.733772
O O8 0.097307 0.834000 0.664625
O O9 0.796490 0.997334 0.993647
O O10 0.976332 0.943128 0.035557
O O11 0.349597 0.409604 0.536644
O O12 0.536923 0.491311 0.557423
O O13 0.652203 0.266342 0.238790
O O14 0.895290 0.996945 0.385243
#
# Coordination Sequence:
#
# PCOD9117770 Si02
#       7
#     2   2   2   2   2   2   2
#     4  11  27  48  75 107 154 196 254 315 376 458
#     4  11  27  51  72 113 150 203 254 313 384 458
#     4  11  25  44  75 112 150 204 249 316 380 449
#     4  10  23  45  72 109 147 197 250 321 373 450
#     4  11  22  46  74 112 156 192 258 316 375 449
#     4  10  25  45  71 109 146 192 256 309 378 449
#     4  12  27  49  79 110 155 204 255 316 382 455
#
# _framework density 25.709472999999999
#
# number of rings (size 3 to 8) (size 9 to 14) (size 15 to 20)
#    0.000    1.143    2.857    1.714    8.000    3.429 
#    0.000    0.000    0.000    0.000    0.000    0.000 
#    0.000    0.000    0.000    0.000    0.000    0.000 
#
# Total GULP energy -78572.686623 kJ/mol
# GULP energy per Si atom -5612.334759 kJ/mol
# Density = 2.565096 g / cm^3
# Si number density = 25.709473 Si / 1000 Ang^3
#
#
#
# Elastic Constant Matrix: (Units=GPa)
#
#
# Indices 1 2 3 4 5 6 
#
# 1 52.0632 3.1665 11.6915 0.0000 -10.4921 0.0000
# 2 3.1665 121.9096 10.7959 0.0000 3.1463 0.0000
# 3 11.6915 10.7959 97.7168 0.0000 6.3512 0.0000
# 4 0.0000 0.0000 0.0000 31.5212 0.0000 -8.7318
# 5 -10.4921 3.1463 6.3512 0.0000 40.2089 0.0000
# 6 0.0000 0.0000 0.0000 -8.7318 0.0000 26.1325
#
#
#
# Elastic Compliance Matrix: (Units=1/GPa)
#
#
# Indices 1 2 3 4 5 6 
#
# 1 0.021084 -0.000449 -0.002862 0.000000 0.005989 0.000000
# 2 -0.000449 0.008304 -0.000822 0.000000 -0.000637 0.000000
# 3 -0.002862 -0.000822 0.010822 0.000000 -0.002392 0.000000
# 4 0.000000 0.000000 0.000000 0.034961 0.000000 0.011682
# 5 0.005989 -0.000637 -0.002392 0.000000 0.026861 0.000000
# 6 0.000000 0.000000 0.000000 0.011682 0.000000 0.042170
#
#
# Mechanical properties :
#
#
# Convention : Reuss Voigt Hill
#
# Bulk Modulus (GPa) = 31.30503 35.88861 33.59682
# Shear Modulus (GPa) = 30.65297 35.97490 33.31393
#
# Velocity S-wave (km/s) = 3.45669 3.74476 3.60361
# Velocity P-wave (km/s) = 5.30420 5.71728 5.51461
#
# Compressibility (1/GPa) = 0.03194375
#
# Stress axis : x y z
#
# Youngs Moduli (GPa) = 47.42836 120.42801 92.40055
#
# Poissons Ratio (x) = 0.05404 0.26448
# Poissons Ratio (y) = 0.02128 0.07598
# Poissons Ratio (z) = 0.13576 0.09903
#
# Static dielectric constant tensor:
#      x y z
#    x 1.987370 0.000000 -0.010070 
#    y 0.000000 2.046630 0.000000 
#    z -0.010070 0.000000 1.973080 
# 
# From -- ./inp_files/7605.got.cif
#   From: 2010.05.17/outbox.cif.g08.bks.cpg/sg4_4_cif.got.tgz:7605.got - 2010.06.03 18:43:04.
