data_PCOD9117536
_publ_section_title
;
Structure prediction by ZEFSAII (Michael W. Deem and Ramdas Pophale) SiO2 
 PCOD9117536
Probable space group: P 21
;
_chemical_formula_sum "Si O2"
_cell_formula_units_Z 14
_cell_length_a 15.054091
_cell_length_b 8.503736
_cell_length_c 14.373879
_cell_angle_alpha 90.000000
_cell_angle_beta 160.979246
_cell_angle_gamma 90.000000
_cell_volume 599.703811
_symmetry_space_group_name_H-M "P 21"
_symmetry_group_IT_number 4
_symmetry_cell_setting 'monoclinic'
loop_
_space_group_symop_operation_xyz
x,y,z
-x,1/2+y,-z
loop_
_atom_site_type_symbol
_atom_site_label
_atom_site_fract_x
_atom_site_fract_y
_atom_site_fract_z
Si Si1 0.172694 0.125000 0.557342
Si Si2 0.785222 0.082340 0.657947
Si Si3 0.680826 0.956157 0.990270
Si Si4 0.385465 0.460564 0.703032
Si Si5 0.031064 0.399724 0.911358
Si Si6 0.740180 0.619355 0.756033
Si Si7 0.876813 0.627692 0.271175
O O1 0.285980 0.292904 0.639033
O O2 0.174588 0.113876 0.670352
O O3 0.870450 0.092109 0.221478
O O4 0.372007 0.996092 0.708921
O O5 0.834504 0.263333 0.674860
O O6 0.082579 0.032193 0.987686
O O7 0.665477 0.981578 0.456865
O O8 0.574939 0.095401 0.535277
O O9 0.753964 0.946059 0.953949
O O10 0.779319 0.795384 0.136286
O O11 0.189543 0.589121 0.558522
O O12 0.692424 0.500270 0.034783
O O13 0.176184 0.298906 0.138151
O O14 0.856589 0.544286 0.777843
#
# Coordination Sequence:
#
# PCOD9117536 Si02
#       7
#     2   2   2   2   2   2   2
#     4  12  27  41  66 107 137 179 233 286 340 398
#     4  10  23  42  66  97 126 176 223 268 345 393
#     4  12  26  45  70 101 143 179 230 289 341 406
#     4  12  24  45  69  97 139 181 230 282 340 413
#     4  10  25  44  69  98 134 177 225 275 344 402
#     4  10  24  40  70  94 131 169 228 273 336 405
#     4  12  23  45  72  96 138 187 229 281 342 411
#
# _framework density 23.344856
#
# number of rings (size 3 to 8) (size 9 to 14) (size 15 to 20)
#    0.857    0.000    1.429    6.000    4.000    2.286 
#    0.000    0.000    0.000    0.000    0.000    0.000 
#    0.000    0.000    0.000    0.000    0.000    0.000 
#
# Total GULP energy -78331.234794 kJ/mol
# GULP energy per Si atom -5595.088200 kJ/mol
# Density = 2.329172 g / cm^3
# Si number density = 23.344856 Si / 1000 Ang^3
#
#
#
# Elastic Constant Matrix: (Units=GPa)
#
#
# Indices 1 2 3 4 5 6 
#
# 1 106.2288 -13.6076 -12.7722 0.0000 19.9530 0.0000
# 2 -13.6076 88.1496 -2.9081 0.0000 -5.1344 0.0000
# 3 -12.7722 -2.9081 70.5648 0.0000 10.6560 0.0000
# 4 0.0000 0.0000 0.0000 38.7908 0.0000 5.9636
# 5 19.9530 -5.1344 10.6560 0.0000 35.5706 0.0000
# 6 0.0000 0.0000 0.0000 5.9636 0.0000 36.7471
#
#
#
# Elastic Compliance Matrix: (Units=1/GPa)
#
#
# Indices 1 2 3 4 5 6 
#
# 1 0.011311 0.001438 0.003177 0.000000 -0.007089 0.000000
# 2 0.001438 0.011627 0.000637 0.000000 0.000681 0.000000
# 3 0.003177 0.000637 0.015740 0.000000 -0.006406 0.000000
# 4 0.000000 0.000000 0.000000 0.026439 0.000000 -0.004291
# 5 -0.007089 0.000681 -0.006406 0.000000 0.034107 0.000000
# 6 0.000000 0.000000 0.000000 -0.004291 0.000000 0.027909
#
#
# Mechanical properties :
#
#
# Convention : Reuss Voigt Hill
#
# Bulk Modulus (GPa) = 20.33259 22.92970 21.63114
# Shear Modulus (GPa) = 37.58719 41.83712 39.71215
#
# Velocity S-wave (km/s) = 4.01694 4.23795 4.12893
# Velocity P-wave (km/s) = 5.49936 5.81296 5.65833
#
# Compressibility (1/GPa) = 0.04918212
#
# Stress axis : x y z
#
# Youngs Moduli (GPa) = 88.40610 86.00665 63.53248
#
# Poissons Ratio (x) = -0.12368 -0.20185
# Poissons Ratio (y) = -0.12713 -0.04045
# Poissons Ratio (z) = -0.28088 -0.05475
#
# Static dielectric constant tensor:
#      x y z
#    x 1.843210 0.000000 -0.033470 
#    y 0.000000 1.882390 0.000000 
#    z -0.033470 0.000000 1.837370 
# 
# From -- ./inp_files/14198.got.cif
#   From: 2010.05.17/outbox.cif.g08.bks.cpg/sg4_8_cif.got.tgz:14198.got - 2010.06.03 18:43:04.
