data_PCOD9117808
_publ_section_title
;
Structure prediction by ZEFSAII (Michael W. Deem and Ramdas Pophale) SiO2 
 PCOD9117808
Probable space group: P 21
;
_chemical_formula_sum "Si O2"
_cell_formula_units_Z 16
_cell_length_a 5.624536
_cell_length_b 10.022025
_cell_length_c 12.671111
_cell_angle_alpha 90.000000
_cell_angle_beta 76.349333
_cell_angle_gamma 90.000000
_cell_volume 694.084948
_symmetry_space_group_name_H-M "P 21"
_symmetry_group_IT_number 4
_symmetry_cell_setting 'monoclinic'
loop_
_space_group_symop_operation_xyz
x,y,z
-x,1/2+y,-z
loop_
_atom_site_type_symbol
_atom_site_label
_atom_site_fract_x
_atom_site_fract_y
_atom_site_fract_z
Si Si1 0.094704 0.235770 0.986810
Si Si2 0.658784 0.828067 0.247130
Si Si3 0.087822 0.786605 0.367241
Si Si4 0.409298 0.634590 0.702446
Si Si5 0.859293 0.551371 0.513414
Si Si6 0.224709 0.955940 0.917761
Si Si7 0.336049 0.332748 0.172252
Si Si8 0.872032 0.387278 0.314570
O O1 0.281637 0.282766 0.877445
O O2 0.072321 0.079324 0.974384
O O3 0.185677 0.265988 0.094820
O O4 0.856441 0.327284 0.006901
O O5 0.376618 0.789483 0.305126
O O6 0.880347 0.771303 0.297542
O O7 0.676946 0.988251 0.256872
O O8 0.039157 0.666112 0.453500
O O9 0.035684 0.930824 0.426580
O O10 0.636772 0.616124 0.600254
O O11 0.498247 0.717802 0.794860
O O12 0.212804 0.734082 0.672053
O O13 0.764323 0.474230 0.418864
O O14 0.516371 0.955284 0.894196
O O15 0.188880 0.943812 0.795160
O O16 0.165551 0.386702 0.283614
#
# Coordination Sequence:
#
# PCOD9117808 Si02
#       8
#     2   2   2   2   2   2   2   2
#     4  11  26  43  75  99 145 192 242 308 377 446
#     4  11  28  46  74 108 153 189 257 312 376 445
#     4  11  28  47  72 113 146 198 249 316 370 455
#     4  10  25  43  70 106 147 193 248 311 373 447
#     4  11  25  46  77 102 150 198 251 308 385 440
#     4  10  25  44  68 103 137 188 246 304 373 447
#     4  10  24  43  69 104 141 192 240 309 369 457
#     4  10  23  46  69 101 147 190 249 306 377 445
#
# _framework density 23.051935
#
# number of rings (size 3 to 8) (size 9 to 14) (size 15 to 20)
#    0.000    1.500    0.000    1.500   19.250    2.000 
#    0.000    0.000    0.000    0.000    0.000    0.000 
#    0.000    0.000    0.000    0.000    0.000    0.000 
#
# Total GULP energy -89383.143525 kJ/mol
# GULP energy per Si atom -5586.446470 kJ/mol
# Density = 2.299947 g / cm^3
# Si number density = 23.051935 Si / 1000 Ang^3
#
#
#
# Elastic Constant Matrix: (Units=GPa)
#
#
# Indices 1 2 3 4 5 6 
#
# 1 70.7535 22.8033 20.6442 0.0000 -9.3174 0.0000
# 2 22.8033 76.9625 23.5594 0.0000 -25.4500 0.0000
# 3 20.6442 23.5594 89.0251 0.0000 -13.3864 0.0000
# 4 0.0000 0.0000 0.0000 39.8198 0.0000 -7.9677
# 5 -9.3174 -25.4500 -13.3864 0.0000 32.3169 0.0000
# 6 0.0000 0.0000 0.0000 -7.9677 0.0000 25.7498
#
#
#
# Elastic Compliance Matrix: (Units=1/GPa)
#
#
# Indices 1 2 3 4 5 6 
#
# 1 0.016211 -0.003795 -0.002668 0.000000 0.000581 0.000000
# 2 -0.003795 0.019106 -0.002216 0.000000 0.013034 0.000000
# 3 -0.002668 -0.002216 0.012861 0.000000 0.002813 0.000000
# 4 0.000000 0.000000 0.000000 0.026771 0.000000 0.008284
# 5 0.000581 0.013034 0.002813 0.000000 0.042541 0.000000
# 6 0.000000 0.000000 0.000000 0.008284 0.000000 0.041398
#
#
# Mechanical properties :
#
#
# Convention : Reuss Voigt Hill
#
# Bulk Modulus (GPa) = 32.44537 41.19497 36.82017
# Shear Modulus (GPa) = 26.80681 30.89293 28.84987
#
# Velocity S-wave (km/s) = 3.41381 3.66477 3.54152
# Velocity P-wave (km/s) = 5.44466 5.98470 5.72106
#
# Compressibility (1/GPa) = 0.03082104
#
# Stress axis : x y z
#
# Youngs Moduli (GPa) = 61.68490 52.33861 77.75505
#
# Poissons Ratio (x) = 0.19861 0.20743
# Poissons Ratio (y) = 0.23407 0.17233
# Poissons Ratio (z) = 0.16456 0.11600
#
# Static dielectric constant tensor:
#      x y z
#    x 1.987740 0.000000 0.014270 
#    y 0.000000 1.886120 0.000000 
#    z 0.014270 0.000000 1.834100 
# 
# From -- ./inp_files/2633.got.cif
#   From: 2010.05.17/outbox.cif.g08.bks.cpg/sg4_2_cif.got.tgz:2633.got - 2010.06.03 18:43:04.
