data_PCOD9117007
_publ_section_title
;
Structure prediction by ZEFSAII (Michael W. Deem and Ramdas Pophale) SiO2 
 PCOD9117007
Probable space group: P 21
;
_chemical_formula_sum "Si O2"
_cell_formula_units_Z 16
_cell_length_a 16.952332
_cell_length_b 5.431820
_cell_length_c 9.221432
_cell_angle_alpha 90.000000
_cell_angle_beta 49.691078
_cell_angle_gamma 90.000000
_cell_volume 647.517541
_symmetry_space_group_name_H-M "P 21"
_symmetry_group_IT_number 4
_symmetry_cell_setting 'monoclinic'
loop_
_space_group_symop_operation_xyz
x,y,z
-x,1/2+y,-z
loop_
_atom_site_type_symbol
_atom_site_label
_atom_site_fract_x
_atom_site_fract_y
_atom_site_fract_z
Si Si1 0.447981 0.846930 0.619338
Si Si2 0.773222 0.149159 0.148887
Si Si3 0.969503 0.008082 0.761321
Si Si4 0.153820 0.711571 0.620886
Si Si5 0.329300 0.814201 0.230512
Si Si6 0.491194 0.062915 0.859308
Si Si7 0.684137 0.906819 0.987351
Si Si8 0.859566 0.798628 0.612656
O O1 0.498180 0.595037 0.502276
O O2 0.323406 0.839397 0.741038
O O3 0.471390 0.859806 0.761812
O O4 0.801718 0.106355 0.282287
O O5 0.886907 0.185432 0.939241
O O6 0.725753 0.936309 0.101076
O O7 0.905504 0.869363 0.714456
O O8 0.040553 0.833538 0.778126
O O9 0.057042 0.128380 0.558950
O O10 0.238623 0.896224 0.447286
O O11 0.146939 0.513483 0.499597
O O12 0.389642 0.602196 0.251674
O O13 0.297426 0.664170 0.121390
O O14 0.427435 0.983159 0.076490
O O15 0.430362 0.302141 0.873500
O O16 0.747430 0.716958 0.806631
#
# Coordination Sequence:
#
# PCOD9117007 Si02
#       8
#     2   2   2   2   2   2   2   2
#     4  12  28  52  77 110 161 207 252 319 393 464
#     4  11  26  47  69 108 145 199 256 305 394 463
#     4  11  23  45  72  99 140 188 243 311 380 450
#     4  11  25  45  65 102 145 184 252 312 379 455
#     4  11  23  41  70 106 140 194 250 315 375 447
#     4  12  23  42  77 104 150 199 258 311 381 457
#     4  10  22  44  66 103 147 192 250 313 378 452
#     4  10  22  42  70 100 136 185 243 306 374 446
#
# _framework density 24.709755999999999
#
# number of rings (size 3 to 8) (size 9 to 14) (size 15 to 20)
#    0.000    1.000    3.750    2.250    1.750    2.000 
#   11.250    0.000    0.000    0.000    0.000    0.000 
#    0.000    0.000    0.000    0.000    0.000    0.000 
#
# Total GULP energy -89210.103713 kJ/mol
# GULP energy per Si atom -5575.631482 kJ/mol
# Density = 2.465352 g / cm^3
# Si number density = 24.709756 Si / 1000 Ang^3
#
#
#
# Elastic Constant Matrix: (Units=GPa)
#
#
# Indices 1 2 3 4 5 6 
#
# 1 144.8370 3.2654 52.9408 0.0000 3.4791 0.0000
# 2 3.2654 35.3683 24.1915 0.0000 1.7863 0.0000
# 3 52.9408 24.1915 124.9774 0.0000 -13.2055 0.0000
# 4 0.0000 0.0000 0.0000 25.9182 0.0000 9.0447
# 5 3.4791 1.7863 -13.2055 0.0000 42.0610 0.0000
# 6 0.0000 0.0000 0.0000 9.0447 0.0000 18.6271
#
#
#
# Elastic Compliance Matrix: (Units=1/GPa)
#
#
# Indices 1 2 3 4 5 6 
#
# 1 0.008453 0.002224 -0.004236 0.000000 -0.002124 0.000000
# 2 0.002224 0.033674 -0.007893 0.000000 -0.004092 0.000000
# 3 -0.004236 -0.007893 0.011787 0.000000 0.004386 0.000000
# 4 0.000000 0.000000 0.000000 0.046455 0.000000 -0.022557
# 5 -0.002124 -0.004092 0.004386 0.000000 0.025502 0.000000
# 6 0.000000 0.000000 0.000000 -0.022557 0.000000 0.064638
#
#
# Mechanical properties :
#
#
# Convention : Reuss Voigt Hill
#
# Bulk Modulus (GPa) = 29.32092 51.77535 40.54813
# Shear Modulus (GPa) = 22.55447 32.30692 27.43069
#
# Velocity S-wave (km/s) = 3.02450 3.61980 3.33545
# Velocity P-wave (km/s) = 4.90802 6.20238 5.59277
#
# Compressibility (1/GPa) = 0.03410534
#
# Stress axis : x y z
#
# Youngs Moduli (GPa) = 118.29500 29.69678 84.83968
#
# Poissons Ratio (x) = -0.06605 0.35936
# Poissons Ratio (y) = -0.26309 0.66960
# Poissons Ratio (z) = 0.50107 0.23438
#
# Static dielectric constant tensor:
#      x y z
#    x 2.094030 0.000000 -0.087490 
#    y 0.000000 2.123940 0.000000 
#    z -0.087490 0.000000 2.050400 
# 
# From -- ./inp_files/9490.got.cif
#   From: 2010.05.17/outbox.cif.g08.bks.cpg/sg4_5_cif.got.tgz:9490.got - 2010.06.03 18:43:04.
