data_PCOD9117685
_publ_section_title
;
Structure prediction by ZEFSAII (Michael W. Deem and Ramdas Pophale) SiO2 
 PCOD9117685
Probable space group: P 21
;
_chemical_formula_sum "Si O2"
_cell_formula_units_Z 14
_cell_length_a 11.802547
_cell_length_b 11.649760
_cell_length_c 4.951522
_cell_angle_alpha 90.000000
_cell_angle_beta 111.144450
_cell_angle_gamma 90.000000
_cell_volume 634.981812
_symmetry_space_group_name_H-M "P 21"
_symmetry_group_IT_number 4
_symmetry_cell_setting 'monoclinic'
loop_
_space_group_symop_operation_xyz
x,y,z
-x,1/2+y,-z
loop_
_atom_site_type_symbol
_atom_site_label
_atom_site_fract_x
_atom_site_fract_y
_atom_site_fract_z
Si Si1 0.646638 0.660500 0.874205
Si Si2 0.796933 0.099892 0.812963
Si Si3 0.795861 0.590739 0.517947
Si Si4 0.229276 0.826609 0.508385
Si Si5 0.486318 0.857047 0.987683
Si Si6 0.454863 0.488864 0.458428
Si Si7 0.936236 0.144374 0.443266
O O1 0.740944 0.669688 0.707440
O O2 0.586206 0.770721 0.956682
O O3 0.536698 0.589221 0.649939
O O4 0.716963 0.598192 0.177345
O O5 0.755419 0.231040 0.712225
O O6 0.911652 0.086310 0.711449
O O7 0.686020 0.018589 0.644556
O O8 0.840727 0.089044 0.153821
O O9 0.789612 0.456849 0.601693
O O10 0.930533 0.629262 0.554425
O O11 0.349839 0.820101 0.796212
O O12 0.110628 0.775669 0.559258
O O13 0.510866 0.968916 0.822818
O O14 0.508519 0.881785 0.320447
#
# Coordination Sequence:
#
# PCOD9117685 Si02
#       7
#     2   2   2   2   2   2   2
#     4  12  24  43  66 101 137 169 220 282 329 404
#     4  10  23  44  67  96 131 171 223 274 321 395
#     4  12  25  45  67  98 137 178 221 273 339 388
#     4  10  24  41  73  91 129 178 226 263 334 400
#     4  12  25  41  67 102 135 173 220 272 345 393
#     4  12  23  42  68 100 132 174 218 275 336 398
#     4  10  24  44  66  94 131 181 224 271 316 398
#
# _framework density 22.047875000000001
#
# number of rings (size 3 to 8) (size 9 to 14) (size 15 to 20)
#    0.857    0.000    4.286    2.571    4.000    1.143 
#    7.714    0.000    0.000    0.000    0.000    0.000 
#    0.000    0.000    0.000    0.000    0.000    0.000 
#
# Total GULP energy -78211.183457 kJ/mol
# GULP energy per Si atom -5586.513104 kJ/mol
# Density = 2.199769 g / cm^3
# Si number density = 22.047875 Si / 1000 Ang^3
#
#
#
# Elastic Constant Matrix: (Units=GPa)
#
#
# Indices 1 2 3 4 5 6 
#
# 1 115.6243 16.2562 -6.3111 0.0000 6.0116 0.0000
# 2 16.2562 26.2236 5.5291 0.0000 11.1809 0.0000
# 3 -6.3111 5.5291 46.2070 0.0000 -6.6201 0.0000
# 4 0.0000 0.0000 0.0000 21.0696 0.0000 -3.1411
# 5 6.0116 11.1809 -6.6201 0.0000 32.2161 0.0000
# 6 0.0000 0.0000 0.0000 -3.1411 0.0000 36.7512
#
#
#
# Elastic Compliance Matrix: (Units=1/GPa)
#
#
# Indices 1 2 3 4 5 6 
#
# 1 0.009697 -0.006960 0.002312 0.000000 0.001081 0.000000
# 2 -0.006960 0.052666 -0.009979 0.000000 -0.019030 0.000000
# 3 0.002312 -0.009979 0.024301 0.000000 0.008026 0.000000
# 4 0.000000 0.000000 0.000000 0.048074 0.000000 0.004109
# 5 0.001081 -0.019030 0.008026 0.000000 0.039093 0.000000
# 6 0.000000 0.000000 0.000000 0.004109 0.000000 0.027561
#
#
# Mechanical properties :
#
#
# Convention : Reuss Voigt Hill
#
# Bulk Modulus (GPa) = 17.41816 24.33368 20.87592
# Shear Modulus (GPa) = 20.01736 29.51276 24.76506
#
# Velocity S-wave (km/s) = 3.01641 3.66262 3.35511
# Velocity P-wave (km/s) = 4.47761 5.38025 4.94955
#
# Compressibility (1/GPa) = 0.05741134
#
# Stress axis : x y z
#
# Youngs Moduli (GPa) = 103.12247 18.98759 41.14979
#
# Poissons Ratio (x) = 0.13215 -0.09515
# Poissons Ratio (y) = 0.71771 0.41063
# Poissons Ratio (z) = -0.23844 0.18948
#
# Static dielectric constant tensor:
#      x y z
#    x 1.799800 0.000000 -0.018440 
#    y 0.000000 1.852780 0.000000 
#    z -0.018440 0.000000 1.770950 
# 
# From -- ./inp_files/2750.got.cif
#   From: 2010.05.17/outbox.cif.g08.bks.cpg/sg4_2_cif.got.tgz:2750.got - 2010.06.03 18:43:04.
