data_PCOD9117612
_publ_section_title
;
Structure prediction by ZEFSAII (Michael W. Deem and Ramdas Pophale) SiO2 
 PCOD9117612
Probable space group: P 21
;
_chemical_formula_sum "Si O2"
_cell_formula_units_Z 14
_cell_length_a 11.830907
_cell_length_b 8.398108
_cell_length_c 8.683978
_cell_angle_alpha 90.000000
_cell_angle_beta 40.511014
_cell_angle_gamma 90.000000
_cell_volume 560.480304
_symmetry_space_group_name_H-M "P 21"
_symmetry_group_IT_number 4
_symmetry_cell_setting 'monoclinic'
loop_
_space_group_symop_operation_xyz
x,y,z
-x,1/2+y,-z
loop_
_atom_site_type_symbol
_atom_site_label
_atom_site_fract_x
_atom_site_fract_y
_atom_site_fract_z
Si Si1 0.445942 0.437530 0.379800
Si Si2 0.498279 0.594142 0.996759
Si Si3 0.047544 0.546281 0.763500
Si Si4 0.128813 0.759979 0.410784
Si Si5 0.851353 0.622502 0.508212
Si Si6 0.944352 0.216181 0.945512
Si Si7 0.576365 0.077797 0.261133
O O1 0.520299 0.512833 0.142123
O O2 0.240017 0.469497 0.572570
O O3 0.502422 0.255727 0.326308
O O4 0.485496 0.504347 0.511770
O O5 0.325782 0.701329 0.187218
O O6 0.679516 0.681617 0.771158
O O7 0.470333 0.501168 0.858999
O O8 0.031153 0.630790 0.617954
O O9 0.919768 0.404074 0.940626
O O10 0.045821 0.691559 0.882714
O O11 0.012386 0.738511 0.381202
O O12 0.126172 0.938515 0.472951
O O13 0.873624 0.640521 0.303468
O O14 0.784392 0.103134 0.058846
#
# Coordination Sequence:
#
# PCOD9117612 Si02
#       7
#     2   2   2   2   2   2   2
#     4  10  25  44  70 103 139 191 241 299 361 437
#     4  11  25  47  72 101 147 194 242 299 362 433
#     4  10  23  43  67  99 142 183 240 297 362 437
#     4  11  25  45  70 105 139 186 247 290 367 434
#     4  12  25  44  72 103 141 190 234 304 362 431
#     4  11  23  43  69 103 142 185 239 301 366 438
#     4  11  24  46  70 104 144 185 247 300 360 440
#
# _framework density 24.978573000000001
#
# number of rings (size 3 to 8) (size 9 to 14) (size 15 to 20)
#    0.000    1.143    1.429    3.429    2.000   10.286 
#    5.143    0.000    0.000    0.000    0.000    0.000 
#    0.000    0.000    0.000    0.000    0.000    0.000 
#
# Total GULP energy -78175.282662 kJ/mol
# GULP energy per Si atom -5583.948762 kJ/mol
# Density = 2.492172 g / cm^3
# Si number density = 24.978573 Si / 1000 Ang^3
#
#
#
# Elastic Constant Matrix: (Units=GPa)
#
#
# Indices 1 2 3 4 5 6 
#
# 1 78.2897 27.9725 31.6111 0.0000 22.6556 0.0000
# 2 27.9725 92.8891 40.3028 0.0000 17.9366 0.0000
# 3 31.6111 40.3028 125.8188 0.0000 15.9628 0.0000
# 4 0.0000 0.0000 0.0000 37.1744 0.0000 8.4778
# 5 22.6556 17.9366 15.9628 0.0000 47.9682 0.0000
# 6 0.0000 0.0000 0.0000 8.4778 0.0000 38.0146
#
#
#
# Elastic Compliance Matrix: (Units=1/GPa)
#
#
# Indices 1 2 3 4 5 6 
#
# 1 0.016478 -0.002727 -0.002515 0.000000 -0.005926 0.000000
# 2 -0.002727 0.013540 -0.003313 0.000000 -0.002673 0.000000
# 3 -0.002515 -0.003313 0.009745 0.000000 -0.000816 0.000000
# 4 0.000000 0.000000 0.000000 0.028342 0.000000 -0.006321
# 5 -0.005926 -0.002673 -0.000816 0.000000 0.024917 0.000000
# 6 0.000000 0.000000 0.000000 -0.006321 0.000000 0.027715
#
#
# Mechanical properties :
#
#
# Convention : Reuss Voigt Hill
#
# Bulk Modulus (GPa) = 44.14332 55.19671 49.67001
# Shear Modulus (GPa) = 34.38880 37.77220 36.08050
#
# Velocity S-wave (km/s) = 3.71446 3.89290 3.80473
# Velocity P-wave (km/s) = 6.00892 6.50783 6.26334
#
# Compressibility (1/GPa) = 0.02265349
#
# Stress axis : x y z
#
# Youngs Moduli (GPa) = 60.68881 73.85405 102.62162
#
# Poissons Ratio (x) = 0.20138 0.25805
# Poissons Ratio (y) = 0.16548 0.34000
# Poissons Ratio (z) = 0.15261 0.24469
#
# Static dielectric constant tensor:
#      x y z
#    x 2.075960 0.000000 -0.003470 
#    y 0.000000 1.929840 0.000000 
#    z -0.003470 0.000000 2.033590 
# 
# From -- ./inp_files/5705.got.cif
#   From: 2010.05.17/outbox.cif.g08.bks.cpg/sg4_3_cif.got.tgz:5705.got - 2010.06.03 18:43:04.
