data_PCOD9117045
_publ_section_title
;
Structure prediction by ZEFSAII (Michael W. Deem and Ramdas Pophale) SiO2 
 PCOD9117045
Probable space group: P 21
;
_chemical_formula_sum "Si O2"
_cell_formula_units_Z 16
_cell_length_a 7.836949
_cell_length_b 11.030637
_cell_length_c 11.613087
_cell_angle_alpha 90.000000
_cell_angle_beta 37.851122
_cell_angle_gamma 90.000000
_cell_volume 616.011773
_symmetry_space_group_name_H-M "P 21"
_symmetry_group_IT_number 4
_symmetry_cell_setting 'monoclinic'
loop_
_space_group_symop_operation_xyz
x,y,z
-x,1/2+y,-z
loop_
_atom_site_type_symbol
_atom_site_label
_atom_site_fract_x
_atom_site_fract_y
_atom_site_fract_z
Si Si1 0.319302 0.573120 0.444399
Si Si2 0.982979 0.813105 0.168392
Si Si3 0.457957 0.997344 0.448569
Si Si4 0.958792 0.340322 0.617895
Si Si5 0.623911 0.535096 0.045695
Si Si6 0.131342 0.607911 0.913696
Si Si7 0.000244 0.813612 0.649568
Si Si8 0.635000 0.930592 0.028460
O O1 0.551583 0.533219 0.412498
O O2 0.421444 0.568876 0.258672
O O3 0.205249 0.700616 0.548386
O O4 0.079152 0.473049 0.583017
O O5 0.989526 0.762789 0.295400
O O6 0.023312 0.715785 0.049106
O O7 0.703043 0.894098 0.307748
O O8 0.256626 0.897795 0.012839
O O9 0.175523 0.938153 0.558559
O O10 0.571827 0.106322 0.308948
O O11 0.109502 0.299137 0.421899
O O12 0.629807 0.361909 0.775793
O O13 0.481209 0.536016 0.996826
O O14 0.908527 0.600623 0.929299
O O15 0.170593 0.493270 0.980089
O O16 0.787548 0.834400 0.865153
#
# Coordination Sequence:
#
# PCOD9117045 Si02
#       8
#     2   2   2   2   2   2   2   2
#     4  11  24  44  69  99 140 183 224 292 348 401
#     4   9  22  41  67  98 135 186 221 283 351 396
#     4  10  23  43  63 103 143 169 241 284 323 432
#     4  10  23  45  63 101 142 164 237 288 326 430
#     4  10  22  43  64 100 141 170 232 284 328 412
#     4  11  22  42  70  98 138 187 224 281 350 399
#     4  12  24  44  72 101 135 187 223 286 355 400
#     4  11  24  44  68 102 134 178 232 284 335 420
#
# _framework density 25.97353
#
# number of rings (size 3 to 8) (size 9 to 14) (size 15 to 20)
#    0.000    1.500    2.500    2.250    1.750    5.000 
#    6.750    2.500    0.000    0.000    0.000    0.000 
#    0.000    0.000    0.000    0.000    0.000    0.000 
#
# Total GULP energy -89518.437475 kJ/mol
# GULP energy per Si atom -5594.902342 kJ/mol
# Density = 2.591441 g / cm^3
# Si number density = 25.973530 Si / 1000 Ang^3
#
#
#
# Elastic Constant Matrix: (Units=GPa)
#
#
# Indices 1 2 3 4 5 6 
#
# 1 96.2095 23.7665 21.5643 0.0000 26.1806 0.0000
# 2 23.7665 36.5127 5.9129 0.0000 8.8275 0.0000
# 3 21.5643 5.9129 104.1728 0.0000 11.8276 0.0000
# 4 0.0000 0.0000 0.0000 31.9976 0.0000 7.9019
# 5 26.1806 8.8275 11.8276 0.0000 48.8773 0.0000
# 6 0.0000 0.0000 0.0000 7.9019 0.0000 37.3351
#
#
#
# Elastic Compliance Matrix: (Units=1/GPa)
#
#
# Indices 1 2 3 4 5 6 
#
# 1 0.014268 -0.007578 -0.001862 0.000000 -0.005823 0.000000
# 2 -0.007578 0.032779 -0.000083 0.000000 -0.001841 0.000000
# 3 -0.001862 -0.000083 0.010154 0.000000 -0.001445 0.000000
# 4 0.000000 0.000000 0.000000 0.032976 0.000000 -0.006979
# 5 -0.005823 -0.001841 -0.001445 0.000000 0.024261 0.000000
# 6 0.000000 0.000000 0.000000 -0.006979 0.000000 0.028262
#
#
# Mechanical properties :
#
#
# Convention : Reuss Voigt Hill
#
# Bulk Modulus (GPa) = 26.20922 37.70915 31.95919
# Shear Modulus (GPa) = 28.65950 36.01876 32.33913
#
# Velocity S-wave (km/s) = 3.32537 3.72795 3.53240
# Velocity P-wave (km/s) = 4.98565 5.75152 5.38222
#
# Compressibility (1/GPa) = 0.03815452
#
# Stress axis : x y z
#
# Youngs Moduli (GPa) = 70.08729 30.50765 98.48682
#
# Poissons Ratio (x) = 0.23118 0.18341
# Poissons Ratio (y) = 0.53110 0.00816
# Poissons Ratio (z) = 0.13052 0.00253
#
# Static dielectric constant tensor:
#      x y z
#    x 2.046340 0.000000 -0.000370 
#    y 0.000000 2.074920 0.000000 
#    z -0.000370 0.000000 2.027380 
# 
# From -- ./inp_files/8151.got.cif
#   From: 2010.05.17/outbox.cif.g08.bks.cpg/sg4_5_cif.got.tgz:8151.got - 2010.06.03 18:43:04.
