data_PCOD9117965
_publ_section_title
;
Structure prediction by ZEFSAII (Michael W. Deem and Ramdas Pophale) SiO2 
 PCOD9117965
Probable space group: P 21
;
_chemical_formula_sum "Si O2"
_cell_formula_units_Z 16
_cell_length_a 30.007546
_cell_length_b 4.715751
_cell_length_c 9.157686
_cell_angle_alpha 90.000000
_cell_angle_beta 153.139242
_cell_angle_gamma 90.000000
_cell_volume 585.512548
_symmetry_space_group_name_H-M "P 21"
_symmetry_group_IT_number 4
_symmetry_cell_setting 'monoclinic'
loop_
_space_group_symop_operation_xyz
x,y,z
-x,1/2+y,-z
loop_
_atom_site_type_symbol
_atom_site_label
_atom_site_fract_x
_atom_site_fract_y
_atom_site_fract_z
Si Si1 0.515970 0.755920 0.437133
Si Si2 0.963903 0.172104 0.309725
Si Si3 0.443616 0.757353 0.903472
Si Si4 0.972346 0.973316 0.015879
Si Si5 0.250549 0.405707 0.289174
Si Si6 0.249020 0.631834 0.782860
Si Si7 0.732541 0.676778 0.970836
Si Si8 0.238695 0.174496 0.557650
O O1 0.479649 0.967889 0.456952
O O2 0.730854 0.361061 0.029153
O O3 0.623675 0.807282 0.681564
O O4 0.449167 0.773017 0.095910
O O5 0.019486 0.996957 0.599543
O O6 0.003966 0.088146 0.266549
O O7 0.849840 0.083118 0.982474
O O8 0.342732 0.617300 0.554727
O O9 0.530956 0.549881 0.101570
O O10 0.868695 0.819466 0.741144
O O11 0.037575 0.735107 0.126284
O O12 0.240741 0.218734 0.116602
O O13 0.266996 0.198608 0.474101
O O14 0.196831 0.384439 0.728229
O O15 0.233074 0.865269 0.608623
O O16 0.694238 0.892454 0.152550
#
# Coordination Sequence:
#
# PCOD9117965 Si02
#       8
#     2   2   2   2   2   2   2   2
#     4  12  27  48  75 105 152 197 246 308 369 439
#     4  11  27  49  75 110 149 198 249 310 380 443
#     4  12  28  51  77 110 151 202 250 305 373 445
#     4  11  23  42  72 102 146 186 242 309 371 445
#     4  11  28  49  77 110 152 196 253 310 373 449
#     4  10  24  42  67  97 142 182 243 293 358 431
#     4  11  25  46  68 106 144 192 245 302 364 444
#     4  10  24  45  69 106 140 193 248 299 374 442
#
# _framework density 27.326485000000002
#
# number of rings (size 3 to 8) (size 9 to 14) (size 15 to 20)
#    0.000    1.000    1.250    3.000    7.000   13.000 
#    0.000    0.000    0.000    0.000    0.000    0.000 
#    0.000    0.000    0.000    0.000    0.000    0.000 
#
# Total GULP energy -89571.641680 kJ/mol
# GULP energy per Si atom -5598.227605 kJ/mol
# Density = 2.726429 g / cm^3
# Si number density = 27.326485 Si / 1000 Ang^3
#
#
#
# Elastic Constant Matrix: (Units=GPa)
#
#
# Indices 1 2 3 4 5 6 
#
# 1 166.5355 44.1142 36.8284 0.0000 -32.2242 0.0000
# 2 44.1142 149.6323 12.7341 0.0000 -7.2164 0.0000
# 3 36.8284 12.7341 81.9433 0.0000 -10.1387 0.0000
# 4 0.0000 0.0000 0.0000 36.9187 0.0000 -0.0244
# 5 -32.2242 -7.2164 -10.1387 0.0000 65.1856 0.0000
# 6 0.0000 0.0000 0.0000 -0.0244 0.0000 35.0153
#
#
#
# Elastic Compliance Matrix: (Units=1/GPa)
#
#
# Indices 1 2 3 4 5 6 
#
# 1 0.007738 -0.001890 -0.002790 0.000000 0.003182 0.000000
# 2 -0.001890 0.007257 -0.000300 0.000000 -0.000178 0.000000
# 3 -0.002790 -0.000300 0.013591 0.000000 0.000701 0.000000
# 4 0.000000 0.000000 0.000000 0.027087 0.000000 0.000019
# 5 0.003182 -0.000178 0.000701 0.000000 0.017003 0.000000
# 6 0.000000 0.000000 0.000000 0.000019 0.000000 0.028559
#
#
# Mechanical properties :
#
#
# Convention : Reuss Voigt Hill
#
# Bulk Modulus (GPa) = 53.69205 65.05161 59.37183
# Shear Modulus (GPa) = 42.58735 47.71955 45.15345
#
# Velocity S-wave (km/s) = 3.95202 4.18338 4.06934
# Velocity P-wave (km/s) = 6.36519 6.86959 6.62219
#
# Compressibility (1/GPa) = 0.01862473
#
# Stress axis : x y z
#
# Youngs Moduli (GPa) = 129.22727 137.79121 73.57771
#
# Poissons Ratio (x) = 0.26049 0.20531
# Poissons Ratio (y) = 0.24430 0.02208
# Poissons Ratio (z) = 0.36059 0.04136
#
# Static dielectric constant tensor:
#      x y z
#    x 2.118830 0.000000 0.082770 
#    y 0.000000 2.049770 0.000000 
#    z 0.082770 0.000000 2.794400 
# 
# From -- ./inp_files/10175.got.cif
#   From: 2010.05.17/outbox.cif.g08.bks.cpg/sg4_6_cif.got.tgz:10175.got - 2010.06.03 18:43:04.
