data_PCOD9117429
_publ_section_title
;
Structure prediction by ZEFSAII (Michael W. Deem and Ramdas Pophale) SiO2 
 PCOD9117429
Probable space group: P 21
;
_chemical_formula_sum "Si O2"
_cell_formula_units_Z 16
_cell_length_a 8.590955
_cell_length_b 5.310099
_cell_length_c 18.225869
_cell_angle_alpha 90.000000
_cell_angle_beta 47.422117
_cell_angle_gamma 90.000000
_cell_volume 612.239721
_symmetry_space_group_name_H-M "P 21"
_symmetry_group_IT_number 4
_symmetry_cell_setting 'monoclinic'
loop_
_space_group_symop_operation_xyz
x,y,z
-x,1/2+y,-z
loop_
_atom_site_type_symbol
_atom_site_label
_atom_site_fract_x
_atom_site_fract_y
_atom_site_fract_z
Si Si1 0.131831 0.796440 0.475184
Si Si2 0.223769 0.868825 0.099435
Si Si3 0.503697 0.504364 0.379094
Si Si4 0.095708 0.734300 0.788649
Si Si5 0.101309 0.388220 0.998646
Si Si6 0.778414 0.648791 0.428129
Si Si7 0.487448 0.679521 0.888649
Si Si8 0.168058 0.499185 0.243353
O O1 0.356515 0.684178 0.376526
O O2 0.030483 0.058544 0.477234
O O3 0.200161 0.883228 0.535538
O O4 0.356612 0.086118 0.097015
O O5 0.976916 0.946092 0.178464
O O6 0.260625 0.644459 0.144054
O O7 0.315135 0.834801 0.989941
O O8 0.664071 0.321414 0.284622
O O9 0.648902 0.646573 0.393497
O O10 0.344906 0.333462 0.478295
O O11 0.009132 0.818933 0.736847
O O12 0.959855 0.867150 0.896070
O O13 0.345972 0.452025 0.904247
O O14 0.027685 0.126756 0.989083
O O15 0.029155 0.696458 0.333923
O O16 0.639373 0.836354 0.786827
#
# Coordination Sequence:
#
# PCOD9117429 Si02
#       8
#     2   2   2   2   2   2   2   2
#     4  12  26  50  75 107 155 202 243 309 387 448
#     4  11  19  37  74  97 142 174 237 307 372 422
#     4  11  24  45  79 108 151 197 260 315 372 441
#     4  10  24  43  68 111 136 194 244 304 370 436
#     4  12  27  47  67  97 151 198 244 296 349 456
#     4  11  24  45  76 115 145 195 261 319 365 452
#     4  11  21  40  64  99 139 186 230 297 374 423
#     4  10  23  39  73 112 135 180 241 321 371 434
#
# _framework density 26.133551000000001
#
# number of rings (size 3 to 8) (size 9 to 14) (size 15 to 20)
#    0.000    1.000    5.000    1.500    3.500    1.000 
#    4.500    0.000    0.000    0.000    0.000    0.000 
#    0.000    0.000    0.000    0.000    0.000    0.000 
#
# Total GULP energy -89352.976151 kJ/mol
# GULP energy per Si atom -5584.561009 kJ/mol
# Density = 2.607407 g / cm^3
# Si number density = 26.133551 Si / 1000 Ang^3
#
#
#
# Elastic Constant Matrix: (Units=GPa)
#
#
# Indices 1 2 3 4 5 6 
#
# 1 83.1142 33.7830 9.1518 0.0000 -22.9471 0.0000
# 2 33.7830 103.1260 9.6516 0.0000 -8.6529 0.0000
# 3 9.1518 9.6516 77.1422 0.0000 -16.1045 0.0000
# 4 0.0000 0.0000 0.0000 31.9909 0.0000 -0.6931
# 5 -22.9471 -8.6529 -16.1045 0.0000 26.9940 0.0000
# 6 0.0000 0.0000 0.0000 -0.6931 0.0000 41.5098
#
#
#
# Elastic Compliance Matrix: (Units=1/GPa)
#
#
# Indices 1 2 3 4 5 6 
#
# 1 0.017806 -0.004757 0.001513 0.000000 0.014514 0.000000
# 2 -0.004757 0.011265 -0.001069 0.000000 -0.001070 0.000000
# 3 0.001513 -0.001069 0.014980 0.000000 0.009880 0.000000
# 4 0.000000 0.000000 0.000000 0.031270 0.000000 0.000522
# 5 0.014514 -0.001070 0.009880 0.000000 0.054935 0.000000
# 6 0.000000 0.000000 0.000000 0.000522 0.000000 0.024099
#
#
# Mechanical properties :
#
#
# Convention : Reuss Voigt Hill
#
# Bulk Modulus (GPa) = 28.22782 40.95058 34.58920
# Shear Modulus (GPa) = 28.60587 34.15201 31.37894
#
# Velocity S-wave (km/s) = 3.31207 3.61893 3.46889
# Velocity P-wave (km/s) = 5.04492 5.75899 5.41374
#
# Compressibility (1/GPa) = 0.03542604
#
# Stress axis : x y z
#
# Youngs Moduli (GPa) = 56.16181 88.76775 66.75579
#
# Poissons Ratio (x) = 0.42224 -0.10098
# Poissons Ratio (y) = 0.26715 0.07133
# Poissons Ratio (z) = -0.08496 0.09485
#
# Static dielectric constant tensor:
#      x y z
#    x 2.082640 0.000000 -0.000810 
#    y 0.000000 2.171500 0.000000 
#    z -0.000810 0.000000 2.154350 
# 
# From -- ./inp_files/15553.got.cif
#   From: 2010.05.17/outbox.cif.g08.bks.cpg/sg4_8_cif.got.tgz:15553.got - 2010.06.03 18:43:04.
