data_PCOD9117718
_publ_section_title
;
Structure prediction by ZEFSAII (Michael W. Deem and Ramdas Pophale) SiO2 
 PCOD9117718
Probable space group: P 21
;
_chemical_formula_sum "Si O2"
_cell_formula_units_Z 14
_cell_length_a 9.061521
_cell_length_b 4.851541
_cell_length_c 25.126208
_cell_angle_alpha 90.000000
_cell_angle_beta 150.375223
_cell_angle_gamma 90.000000
_cell_volume 546.026888
_symmetry_space_group_name_H-M "P 21"
_symmetry_group_IT_number 4
_symmetry_cell_setting 'monoclinic'
loop_
_space_group_symop_operation_xyz
x,y,z
-x,1/2+y,-z
loop_
_atom_site_type_symbol
_atom_site_label
_atom_site_fract_x
_atom_site_fract_y
_atom_site_fract_z
Si Si1 0.049320 0.921590 0.480246
Si Si2 0.154544 0.961267 0.032374
Si Si3 0.333377 0.267127 0.732457
Si Si4 0.331033 0.125748 0.330950
Si Si5 0.992048 0.120478 0.724183
Si Si6 0.169892 0.420520 0.173362
Si Si7 0.327632 0.264295 0.927216
O O1 0.347442 0.759187 0.557731
O O2 0.893843 0.710114 0.473137
O O3 0.830582 0.953632 0.362185
O O4 0.452884 0.926017 0.159480
O O5 0.081718 0.283627 0.006676
O O6 0.066061 0.839879 0.946840
O O7 0.078639 0.139950 0.690090
O O8 0.543675 0.050583 0.766753
O O9 0.268206 0.198241 0.248649
O O10 0.093517 0.312693 0.287843
O O11 0.267927 0.824893 0.335376
O O12 0.276174 0.206476 0.849241
O O13 0.982033 0.656982 0.144769
O O14 0.416046 0.575447 0.966653
#
# Coordination Sequence:
#
# PCOD9117718 Si02
#       7
#     2   2   2   2   2   2   2
#     4  12  27  47  77 106 137 184 249 302 351 432
#     4  10  24  39  63 101 141 176 223 293 355 410
#     4  11  26  46  72 108 142 187 242 300 362 419
#     4  11  25  47  71 103 143 191 237 288 362 429
#     4  11  26  44  69 103 146 185 234 297 362 428
#     4  10  23  44  71 103 143 191 237 295 347 443
#     4  11  23  41  65  98 140 190 236 279 351 431
#
# _framework density 25.639762000000001
#
# number of rings (size 3 to 8) (size 9 to 14) (size 15 to 20)
#    0.000    1.143    1.429    3.429    4.000   13.714 
#    0.000    0.000    0.000    0.000    0.000    0.000 
#    0.000    0.000    0.000    0.000    0.000    0.000 
#
# Total GULP energy -78357.795241 kJ/mol
# GULP energy per Si atom -5596.985374 kJ/mol
# Density = 2.558140 g / cm^3
# Si number density = 25.639762 Si / 1000 Ang^3
#
#
#
# Elastic Constant Matrix: (Units=GPa)
#
#
# Indices 1 2 3 4 5 6 
#
# 1 127.7979 18.3042 29.6835 0.0000 -10.2013 0.0000
# 2 18.3042 82.1841 1.8249 0.0000 -2.2248 0.0000
# 3 29.6835 1.8249 124.9690 0.0000 -12.9045 0.0000
# 4 0.0000 0.0000 0.0000 27.1848 0.0000 10.0876
# 5 -10.2013 -2.2248 -12.9045 0.0000 40.6210 0.0000
# 6 0.0000 0.0000 0.0000 10.0876 0.0000 24.6307
#
#
#
# Elastic Compliance Matrix: (Units=1/GPa)
#
#
# Indices 1 2 3 4 5 6 
#
# 1 0.008642 -0.001843 -0.001874 0.000000 0.001474 0.000000
# 2 -0.001843 0.012581 0.000287 0.000000 0.000317 0.000000
# 3 -0.001874 0.000287 0.008681 0.000000 0.002303 0.000000
# 4 0.000000 0.000000 0.000000 0.043378 0.000000 -0.017766
# 5 0.001474 0.000317 0.002303 0.000000 0.025737 0.000000
# 6 0.000000 0.000000 0.000000 -0.017766 0.000000 0.047876
#
#
# Mechanical properties :
#
#
# Convention : Reuss Voigt Hill
#
# Bulk Modulus (GPa) = 43.39682 48.28626 45.84154
# Shear Modulus (GPa) = 30.97246 37.49653 34.23449
#
# Velocity S-wave (km/s) = 3.47938 3.82833 3.65802
# Velocity P-wave (km/s) = 5.75359 6.19798 5.97991
#
# Compressibility (1/GPa) = 0.02304316
#
# Stress axis : x y z
#
# Youngs Moduli (GPa) = 115.71834 79.48786 115.19935
#
# Poissons Ratio (x) = 0.14651 0.21583
# Poissons Ratio (y) = 0.21329 -0.03305
# Poissons Ratio (z) = 0.21680 -0.02280
#
# Static dielectric constant tensor:
#      x y z
#    x 2.101570 0.000000 0.037750 
#    y 0.000000 1.973400 0.000000 
#    z 0.037750 0.000000 2.009520 
# 
# From -- ./inp_files/16065.got.cif
#   From: 2010.05.17/outbox.cif.g08.bks.cpg/sg4_9_cif.got.tgz:16065.got - 2010.06.03 18:43:04.
