data_PCOD9117352
_publ_section_title
;
Structure prediction by ZEFSAII (Michael W. Deem and Ramdas Pophale) SiO2 
 PCOD9117352
Probable space group: P 21
;
_chemical_formula_sum "Si O2"
_cell_formula_units_Z 14
_cell_length_a 25.679134
_cell_length_b 5.459211
_cell_length_c 9.174641
_cell_angle_alpha 90.000000
_cell_angle_beta 28.034182
_cell_angle_gamma 90.000000
_cell_volume 604.498964
_symmetry_space_group_name_H-M "P 21"
_symmetry_group_IT_number 4
_symmetry_cell_setting 'monoclinic'
loop_
_space_group_symop_operation_xyz
x,y,z
-x,1/2+y,-z
loop_
_atom_site_type_symbol
_atom_site_label
_atom_site_fract_x
_atom_site_fract_y
_atom_site_fract_z
Si Si1 0.568580 0.920710 0.651379
Si Si2 0.632815 0.554923 0.675447
Si Si3 0.234810 0.112008 0.142540
Si Si4 0.356915 0.602417 0.808304
Si Si5 0.777353 0.157007 0.310101
Si Si6 0.001964 0.525499 0.403582
Si Si7 0.685677 0.895979 0.793825
O O1 0.611330 0.643626 0.565302
O O2 0.549104 0.039863 0.541944
O O3 0.670366 0.075564 0.473549
O O4 0.458708 0.890753 0.020994
O O5 0.755317 0.446134 0.373635
O O6 0.622696 0.776495 0.815709
O O7 0.109240 0.053192 0.416018
O O8 0.256725 0.179706 0.257148
O O9 0.306233 0.871977 0.924575
O O10 0.271242 0.376545 0.983554
O O11 0.381756 0.545217 0.916718
O O12 0.769035 0.065182 0.497014
O O13 0.887329 0.067215 0.963003
O O14 0.998222 0.755655 0.524765
#
# Coordination Sequence:
#
# PCOD9117352 Si02
#       7
#     2   2   2   2   2   2   2
#     4  11  23  41  70 100 136 187 233 297 343 423
#     4  11  23  44  66 102 142 184 241 285 365 410
#     4  10  22  47  65 101 141 176 229 285 346 422
#     4  10  23  44  71  98 139 184 227 288 346 413
#     4  11  24  44  71  99 144 180 233 296 348 420
#     4  12  27  45  73 109 136 182 240 290 356 422
#     4   9  24  45  66 101 140 183 229 287 348 428
#
# _framework density 23.159676999999999
#
# number of rings (size 3 to 8) (size 9 to 14) (size 15 to 20)
#    0.857    0.571    1.429    3.429    8.000    0.000 
#   10.286    0.000    0.000    0.000    0.000    0.000 
#    0.000    0.000    0.000    0.000    0.000    0.000 
#
# Total GULP energy -77983.138549 kJ/mol
# GULP energy per Si atom -5570.224182 kJ/mol
# Density = 2.310696 g / cm^3
# Si number density = 23.159677 Si / 1000 Ang^3
#
#
#
# Elastic Constant Matrix: (Units=GPa)
#
#
# Indices 1 2 3 4 5 6 
#
# 1 66.0574 17.8941 23.3699 0.0000 19.5663 0.0000
# 2 17.8941 107.1621 27.0419 0.0000 13.2757 0.0000
# 3 23.3699 27.0419 74.7703 0.0000 26.3647 0.0000
# 4 0.0000 0.0000 0.0000 31.5910 0.0000 6.4836
# 5 19.5663 13.2757 26.3647 0.0000 39.2382 0.0000
# 6 0.0000 0.0000 0.0000 6.4836 0.0000 31.9523
#
#
#
# Elastic Compliance Matrix: (Units=1/GPa)
#
#
# Indices 1 2 3 4 5 6 
#
# 1 0.018586 -0.001539 -0.002841 0.000000 -0.006838 0.000000
# 2 -0.001539 0.010446 -0.003042 0.000000 -0.000723 0.000000
# 3 -0.002841 -0.003042 0.019002 0.000000 -0.010322 0.000000
# 4 0.000000 0.000000 0.000000 0.033030 0.000000 -0.006702
# 5 -0.006838 -0.000723 -0.010322 0.000000 0.036075 0.000000
# 6 0.000000 0.000000 0.000000 -0.006702 0.000000 0.032657
#
#
# Mechanical properties :
#
#
# Convention : Reuss Voigt Hill
#
# Bulk Modulus (GPa) = 30.13071 42.73350 36.43210
# Shear Modulus (GPa) = 28.45698 32.53523 30.49610
#
# Velocity S-wave (km/s) = 3.50913 3.75216 3.63268
# Velocity P-wave (km/s) = 5.42742 6.10437 5.77582
#
# Compressibility (1/GPa) = 0.03318873
#
# Stress axis : x y z
#
# Youngs Moduli (GPa) = 53.80401 95.73169 52.62584
#
# Poissons Ratio (x) = 0.14737 0.14952
# Poissons Ratio (y) = 0.08283 0.16008
# Poissons Ratio (z) = 0.15287 0.29121
#
# Static dielectric constant tensor:
#      x y z
#    x 1.890710 0.000000 0.027540 
#    y 0.000000 2.106720 0.000000 
#    z 0.027540 0.000000 1.945250 
# 
# From -- ./inp_files/10108.got.cif
#   From: 2010.05.17/outbox.cif.g08.bks.cpg/sg4_6_cif.got.tgz:10108.got - 2010.06.03 18:43:04.
