data_PCOD9117079
_publ_section_title
;
Structure prediction by ZEFSAII (Michael W. Deem and Ramdas Pophale) SiO2 
 PCOD9117079
Probable space group: P 21
;
_chemical_formula_sum "Si O2"
_cell_formula_units_Z 16
_cell_length_a 5.530406
_cell_length_b 12.830352
_cell_length_c 9.578333
_cell_angle_alpha 90.000000
_cell_angle_beta 83.878793
_cell_angle_gamma 90.000000
_cell_volume 675.775312
_symmetry_space_group_name_H-M "P 21"
_symmetry_group_IT_number 4
_symmetry_cell_setting 'monoclinic'
loop_
_space_group_symop_operation_xyz
x,y,z
-x,1/2+y,-z
loop_
_atom_site_type_symbol
_atom_site_label
_atom_site_fract_x
_atom_site_fract_y
_atom_site_fract_z
Si Si1 0.050043 0.394570 0.025722
Si Si2 0.279043 0.834584 0.199144
Si Si3 0.993914 0.149782 0.658158
Si Si4 0.596679 0.729196 0.943416
Si Si5 0.592182 0.020580 0.161303
Si Si6 0.184307 0.647356 0.613836
Si Si7 0.499617 0.569736 0.357193
Si Si8 0.685948 0.359709 0.272491
O O1 0.277065 0.466931 0.978728
O O2 0.891146 0.396164 0.897091
O O3 0.139444 0.275002 0.039449
O O4 0.883971 0.418977 0.166270
O O5 0.108774 0.766224 0.309633
O O6 0.457285 0.924029 0.245917
O O7 0.432960 0.756712 0.088718
O O8 0.019740 0.126030 0.490058
O O9 0.752682 0.083071 0.712965
O O10 0.254095 0.126579 0.709318
O O11 0.576616 0.612304 0.889548
O O12 0.493312 0.801173 0.823884
O O13 0.784342 0.076963 0.251961
O O14 0.424283 0.623588 0.506867
O O15 0.184317 0.768096 0.652246
O O16 0.553935 0.448021 0.368157
#
# Coordination Sequence:
#
# PCOD9117079 Si02
#       8
#     2   2   2   2   2   2   2   2
#     4  10  23  39  68  99 133 187 226 299 353 418
#     4  10  23  39  63 101 135 179 230 289 350 421
#     4  10  25  44  66 105 134 182 230 285 346 415
#     4   9  22  41  63  95 137 178 233 293 347 421
#     4  10  22  43  67  97 135 180 235 288 363 414
#     4   9  24  44  66  99 137 181 233 290 347 420
#     4  10  25  44  67 100 135 185 226 286 351 407
#     4  10  22  44  66 100 132 182 235 286 353 422
#
# _framework density 23.676507999999998
#
# number of rings (size 3 to 8) (size 9 to 14) (size 15 to 20)
#    0.750    1.500    0.000    0.000    8.750    8.000 
#    0.000    0.000    0.000    0.000    0.000    0.000 
#    0.000    0.000    0.000    0.000    0.000    0.000 
#
# Total GULP energy -89255.503886 kJ/mol
# GULP energy per Si atom -5578.468993 kJ/mol
# Density = 2.362262 g / cm^3
# Si number density = 23.676508 Si / 1000 Ang^3
#
#
#
# Elastic Constant Matrix: (Units=GPa)
#
#
# Indices 1 2 3 4 5 6 
#
# 1 82.0935 14.6006 7.4898 0.0000 0.5510 0.0000
# 2 14.6006 105.0097 26.6347 0.0000 -6.1014 0.0000
# 3 7.4898 26.6347 48.5517 0.0000 -1.4669 0.0000
# 4 0.0000 0.0000 0.0000 17.5491 0.0000 -10.4106
# 5 0.5510 -6.1014 -1.4669 0.0000 19.9222 0.0000
# 6 0.0000 0.0000 0.0000 -10.4106 0.0000 17.8435
#
#
#
# Elastic Compliance Matrix: (Units=1/GPa)
#
#
# Indices 1 2 3 4 5 6 
#
# 1 0.012559 -0.001510 -0.001136 0.000000 -0.000893 0.000000
# 2 -0.001510 0.011419 -0.005938 0.000000 0.003102 0.000000
# 3 -0.001136 -0.005938 0.024029 0.000000 -0.000018 0.000000
# 4 0.000000 0.000000 0.000000 0.087144 0.000000 0.050843
# 5 -0.000893 0.003102 -0.000018 0.000000 0.051169 0.000000
# 6 0.000000 0.000000 0.000000 0.050843 0.000000 0.085707
#
#
# Mechanical properties :
#
#
# Convention : Reuss Voigt Hill
#
# Bulk Modulus (GPa) = 32.42586 37.01170 34.71878
# Shear Modulus (GPa) = 16.69590 23.52495 20.11042
#
# Velocity S-wave (km/s) = 2.65838 3.15556 2.91758
# Velocity P-wave (km/s) = 4.81121 5.37986 5.10346
#
# Compressibility (1/GPa) = 0.03083958
#
# Stress axis : x y z
#
# Youngs Moduli (GPa) = 79.62139 87.57220 41.61697
#
# Poissons Ratio (x) = 0.13224 0.04728
# Poissons Ratio (y) = 0.12023 0.24711
# Poissons Ratio (z) = 0.09046 0.51998
#
# Static dielectric constant tensor:
#      x y z
#    x 1.915130 0.000000 0.006720 
#    y 0.000000 1.880390 0.000000 
#    z 0.006720 0.000000 1.908560 
# 
# From -- ./inp_files/2968.got.cif
#   From: 2010.05.17/outbox.cif.g08.bks.cpg/sg4_2_cif.got.tgz:2968.got - 2010.06.03 18:43:04.
