data_PCOD9117535
_publ_section_title
;
Structure prediction by ZEFSAII (Michael W. Deem and Ramdas Pophale) SiO2 
 PCOD9117535
Probable space group: P 21
;
_chemical_formula_sum "Si O2"
_cell_formula_units_Z 16
_cell_length_a 8.325862
_cell_length_b 13.901011
_cell_length_c 6.669563
_cell_angle_alpha 90.000000
_cell_angle_beta 57.717743
_cell_angle_gamma 90.000000
_cell_volume 652.603240
_symmetry_space_group_name_H-M "P 21"
_symmetry_group_IT_number 4
_symmetry_cell_setting 'monoclinic'
loop_
_space_group_symop_operation_xyz
x,y,z
-x,1/2+y,-z
loop_
_atom_site_type_symbol
_atom_site_label
_atom_site_fract_x
_atom_site_fract_y
_atom_site_fract_z
Si Si1 0.414566 0.167900 0.083276
Si Si2 0.229889 0.432213 0.047303
Si Si3 0.379801 0.853069 0.096078
Si Si4 0.441434 0.005231 0.750735
Si Si5 0.803665 0.076348 0.259224
Si Si6 0.062837 0.243886 0.046784
Si Si7 0.984095 0.470782 0.562341
Si Si8 0.792665 0.619494 0.400382
O O1 0.227021 0.211133 0.096332
O O2 0.374389 0.158302 0.345140
O O3 0.588701 0.239476 0.928768
O O4 0.442309 0.066812 0.955844
O O5 0.082481 0.358099 0.042342
O O6 0.166005 0.431726 0.321370
O O7 0.444041 0.393053 0.888068
O O8 0.218228 0.535084 0.948961
O O9 0.181645 0.892508 0.310075
O O10 0.413543 0.897914 0.850960
O O11 0.623435 0.041659 0.506037
O O12 0.275893 0.041961 0.716391
O O13 0.869276 0.186947 0.226276
O O14 0.969898 0.014943 0.254365
O O15 0.118961 0.204595 0.789547
O O16 0.920210 0.561172 0.470541
#
# Coordination Sequence:
#
# PCOD9117535 Si02
#       8
#     2   2   2   2   2   2   2   2
#     4  10  23  44  67  96 128 179 222 266 335 385
#     4  11  26  44  66 102 133 175 221 273 334 384
#     4  11  24  46  68  97 136 173 221 277 323 393
#     4  11  24  41  66 100 132 170 223 271 329 395
#     4  12  24  43  66 101 134 173 220 273 329 396
#     4  10  23  42  66  96 133 170 224 273 325 394
#     4  12  23  44  70  91 133 177 215 271 329 391
#     4  11  21  44  69  87 131 179 214 272 330 386
#
# _framework density 24.517195000000001
#
# number of rings (size 3 to 8) (size 9 to 14) (size 15 to 20)
#    0.000    1.000    5.000    1.500    3.500    0.000 
#    4.500    0.000    0.000    0.000    0.000    0.000 
#    0.000    0.000    0.000    0.000    0.000    0.000 
#
# Total GULP energy -89514.550159 kJ/mol
# GULP energy per Si atom -5594.659385 kJ/mol
# Density = 2.446139 g / cm^3
# Si number density = 24.517195 Si / 1000 Ang^3
#
#
#
# Elastic Constant Matrix: (Units=GPa)
#
#
# Indices 1 2 3 4 5 6 
#
# 1 43.1720 -6.9507 12.8168 0.0000 6.0794 0.0000
# 2 -6.9507 47.2830 -11.9929 0.0000 11.2652 0.0000
# 3 12.8168 -11.9929 108.1604 0.0000 0.6735 0.0000
# 4 0.0000 0.0000 0.0000 31.2108 0.0000 -0.2029
# 5 6.0794 11.2652 0.6735 0.0000 37.6665 0.0000
# 6 0.0000 0.0000 0.0000 -0.2029 0.0000 28.1969
#
#
#
# Elastic Compliance Matrix: (Units=1/GPa)
#
#
# Indices 1 2 3 4 5 6 
#
# 1 0.025360 0.004373 -0.002487 0.000000 -0.005357 0.000000
# 2 0.004373 0.024262 0.002222 0.000000 -0.008002 0.000000
# 3 -0.002487 0.002222 0.009789 0.000000 -0.000438 0.000000
# 4 0.000000 0.000000 0.000000 0.032042 0.000000 0.000231
# 5 -0.005357 -0.008002 -0.000438 0.000000 0.029814 0.000000
# 6 0.000000 0.000000 0.000000 0.000231 0.000000 0.035466
#
#
# Mechanical properties :
#
#
# Convention : Reuss Voigt Hill
#
# Bulk Modulus (GPa) = 14.78673 20.70686 17.74680
# Shear Modulus (GPa) = 29.22954 33.06433 31.14694
#
# Velocity S-wave (km/s) = 3.45658 3.67634 3.56815
# Velocity P-wave (km/s) = 4.68773 5.14634 4.92238
#
# Compressibility (1/GPa) = 0.06762820
#
# Stress axis : x y z
#
# Youngs Moduli (GPa) = 39.43234 41.21642 102.15245
#
# Poissons Ratio (x) = -0.18026 0.25403
# Poissons Ratio (y) = -0.17246 -0.22696
# Poissons Ratio (z) = 0.09806 -0.09157
#
# Static dielectric constant tensor:
#      x y z
#    x 2.023410 0.000000 -0.040270 
#    y 0.000000 1.916870 0.000000 
#    z -0.040270 0.000000 1.945770 
# 
# From -- ./inp_files/1577.got.cif
#   From: 2010.05.17/outbox.cif.g08.bks.cpg/sg4_1_cif.got.tgz:1577.got - 2010.06.03 18:43:04.
