data_PCOD9117943
_publ_section_title
;
Structure prediction by ZEFSAII (Michael W. Deem and Ramdas Pophale) SiO2 
 PCOD9117943
Probable space group: P 21
;
_chemical_formula_sum "Si O2"
_cell_formula_units_Z 14
_cell_length_a 5.728834
_cell_length_b 8.887264
_cell_length_c 11.691413
_cell_angle_alpha 90.000000
_cell_angle_beta 81.940176
_cell_angle_gamma 90.000000
_cell_volume 589.372851
_symmetry_space_group_name_H-M "P 21"
_symmetry_group_IT_number 4
_symmetry_cell_setting 'monoclinic'
loop_
_space_group_symop_operation_xyz
x,y,z
-x,1/2+y,-z
loop_
_atom_site_type_symbol
_atom_site_label
_atom_site_fract_x
_atom_site_fract_y
_atom_site_fract_z
Si Si1 0.446919 0.640820 0.065605
Si Si2 0.811675 0.875102 0.030323
Si Si3 0.303770 0.704796 0.473805
Si Si4 0.523389 0.354790 0.755471
Si Si5 0.958672 0.927826 0.625741
Si Si6 0.776488 0.400589 0.162758
Si Si7 0.556596 0.678796 0.688280
O O1 0.280967 0.537801 0.002757
O O2 0.331479 0.757687 0.161706
O O3 0.591666 0.524661 0.134974
O O4 0.641808 0.744268 0.988627
O O5 0.065462 0.859988 0.957799
O O6 0.736233 0.862942 0.168082
O O7 0.471225 0.769937 0.364013
O O8 0.145924 0.573309 0.429696
O O9 0.451164 0.643760 0.570467
O O10 0.149588 0.842739 0.533843
O O11 0.627687 0.520622 0.737046
O O12 0.757290 0.803191 0.661319
O O13 0.067437 0.962935 0.742818
O O14 0.647940 0.256396 0.223711
#
# Coordination Sequence:
#
# PCOD9117943 Si02
#       7
#     2   2   2   2   2   2   2
#     4  10  25  42  65  95 134 172 222 274 330 400
#     4  10  25  43  67  97 135 173 220 277 329 401
#     4  11  23  45  66 102 130 181 224 277 335 395
#     4  10  24  41  68  96 132 176 224 275 333 397
#     4  11  25  43  70  96 139 173 226 280 333 393
#     4  11  24  42  67  96 134 175 219 275 339 395
#     4  11  24  42  69  96 136 176 223 278 331 399
#
# _framework density 23.754062000000001
#
# number of rings (size 3 to 8) (size 9 to 14) (size 15 to 20)
#    0.857    0.571    0.000    4.286    6.000    4.571 
#    0.000    2.857    0.000    0.000    0.000    0.000 
#    0.000    0.000    0.000    0.000    0.000    0.000 
#
# Total GULP energy -78336.563407 kJ/mol
# GULP energy per Si atom -5595.468815 kJ/mol
# Density = 2.370000 g / cm^3
# Si number density = 23.754062 Si / 1000 Ang^3
#
#
#
# Elastic Constant Matrix: (Units=GPa)
#
#
# Indices 1 2 3 4 5 6 
#
# 1 49.2162 17.9129 50.1226 0.0000 -3.9449 0.0000
# 2 17.9129 132.0528 56.1991 0.0000 4.5878 0.0000
# 3 50.1226 56.1991 158.8264 0.0000 -21.6645 0.0000
# 4 0.0000 0.0000 0.0000 41.1676 0.0000 -0.7381
# 5 -3.9449 4.5878 -21.6645 0.0000 38.9233 0.0000
# 6 0.0000 0.0000 0.0000 -0.7381 0.0000 24.3310
#
#
#
# Elastic Compliance Matrix: (Units=1/GPa)
#
#
# Indices 1 2 3 4 5 6 
#
# 1 0.030157 0.000226 -0.009938 0.000000 -0.002502 0.000000
# 2 0.000226 0.009262 -0.003781 0.000000 -0.003173 0.000000
# 3 -0.009938 -0.003781 0.011572 0.000000 0.005880 0.000000
# 4 0.000000 0.000000 0.000000 0.024304 0.000000 0.000737
# 5 -0.002502 -0.003173 0.005880 0.000000 0.029085 0.000000
# 6 0.000000 0.000000 0.000000 0.000737 0.000000 0.041122
#
#
# Mechanical properties :
#
#
# Convention : Reuss Voigt Hill
#
# Bulk Modulus (GPa) = 41.66031 65.39606 53.52819
# Shear Modulus (GPa) = 27.70236 35.27510 31.48873
#
# Velocity S-wave (km/s) = 3.41869 3.85777 3.64485
# Velocity P-wave (km/s) = 5.75843 6.88719 6.34795
#
# Compressibility (1/GPa) = 0.02400366
#
# Stress axis : x y z
#
# Youngs Moduli (GPa) = 33.15989 107.97310 86.41308
#
# Poissons Ratio (x) = -0.02435 0.85877
# Poissons Ratio (y) = -0.00748 0.32674
# Poissons Ratio (z) = 0.32954 0.40826
#
# Static dielectric constant tensor:
#      x y z
#    x 1.894930 0.000000 -0.003780 
#    y 0.000000 1.876600 0.000000 
#    z -0.003780 0.000000 1.915480 
# 
# From -- ./inp_files/3645.got.cif
#   From: 2010.05.17/outbox.cif.g08.bks.cpg/sg4_2_cif.got.tgz:3645.got - 2010.06.03 18:43:04.
