data_PCOD9117512
_publ_section_title
;
Structure prediction by ZEFSAII (Michael W. Deem and Ramdas Pophale) SiO2 
 PCOD9117512
Probable space group: P 21
;
_chemical_formula_sum "Si O2"
_cell_formula_units_Z 14
_cell_length_a 5.322967
_cell_length_b 14.765928
_cell_length_c 7.611297
_cell_angle_alpha 90.000000
_cell_angle_beta 66.313848
_cell_angle_gamma 90.000000
_cell_volume 547.841242
_symmetry_space_group_name_H-M "P 21"
_symmetry_group_IT_number 4
_symmetry_cell_setting 'monoclinic'
loop_
_space_group_symop_operation_xyz
x,y,z
-x,1/2+y,-z
loop_
_atom_site_type_symbol
_atom_site_label
_atom_site_fract_x
_atom_site_fract_y
_atom_site_fract_z
Si Si1 0.262862 0.952610 0.316611
Si Si2 0.787631 0.516089 0.054987
Si Si3 0.455006 0.757903 0.591819
Si Si4 0.569997 0.255769 0.793761
Si Si5 0.758501 0.166399 0.037860
Si Si6 0.356745 0.457561 0.455017
Si Si7 0.964768 0.829653 0.905259
O O1 0.960195 0.984940 0.458722
O O2 0.245379 0.843927 0.297352
O O3 0.500608 0.967969 0.393476
O O4 0.319975 0.996448 0.111123
O O5 0.545904 0.508624 0.263533
O O6 0.991527 0.600832 0.994262
O O7 0.982696 0.432540 0.063948
O O8 0.530981 0.730283 0.374450
O O9 0.615307 0.849696 0.595933
O O10 0.452515 0.678951 0.739871
O O11 0.135716 0.793333 0.690950
O O12 0.648141 0.163846 0.872578
O O13 0.342627 0.299623 0.986465
O O14 0.882178 0.268353 0.993116
#
# Coordination Sequence:
#
# PCOD9117512 Si02
#       7
#     2   2   2   2   2   2   2
#     4  11  23  41  71  96 128 179 225 272 340 398
#     4  11  22  45  66  96 140 174 224 289 330 411
#     4   8  20  38  61  91 128 164 222 269 327 398
#     4  11  20  41  70  88 134 179 218 283 339 397
#     4  10  23  42  61 102 127 176 227 268 348 399
#     4  10  23  42  66 100 126 178 225 271 341 395
#     4   9  21  45  59  97 131 172 225 272 339 396
#
# _framework density 25.554848
#
# number of rings (size 3 to 8) (size 9 to 14) (size 15 to 20)
#    0.857    1.143    1.429    1.714    0.000    9.143 
#   10.286    0.000    0.000    0.000    0.000    0.000 
#    0.000    0.000    0.000    0.000    0.000    0.000 
#
# Total GULP energy -78195.601579 kJ/mol
# GULP energy per Si atom -5585.400113 kJ/mol
# Density = 2.549668 g / cm^3
# Si number density = 25.554848 Si / 1000 Ang^3
#
#
#
# Elastic Constant Matrix: (Units=GPa)
#
#
# Indices 1 2 3 4 5 6 
#
# 1 69.4631 9.7987 12.2161 0.0000 -8.1209 0.0000
# 2 9.7987 65.3446 15.7578 0.0000 18.0431 0.0000
# 3 12.2161 15.7578 116.5363 0.0000 5.7125 0.0000
# 4 0.0000 0.0000 0.0000 26.8741 0.0000 5.7591
# 5 -8.1209 18.0431 5.7125 0.0000 47.9170 0.0000
# 6 0.0000 0.0000 0.0000 5.7591 0.0000 38.4699
#
#
#
# Elastic Compliance Matrix: (Units=1/GPa)
#
#
# Indices 1 2 3 4 5 6 
#
# 1 0.015542 -0.003086 -0.001406 0.000000 0.003964 0.000000
# 2 -0.003086 0.018171 -0.001783 0.000000 -0.007153 0.000000
# 3 -0.001406 -0.001783 0.009001 0.000000 -0.000640 0.000000
# 4 0.000000 0.000000 0.000000 0.038444 0.000000 -0.005755
# 5 0.003964 -0.007153 -0.000640 0.000000 0.024311 0.000000
# 6 0.000000 0.000000 0.000000 -0.005755 0.000000 0.026856
#
#
# Mechanical properties :
#
#
# Convention : Reuss Voigt Hill
#
# Bulk Modulus (GPa) = 33.15216 36.32101 34.73658
# Shear Modulus (GPa) = 32.27264 36.89029 34.58146
#
# Velocity S-wave (km/s) = 3.55755 3.80356 3.68261
# Velocity P-wave (km/s) = 5.46590 5.79079 5.63069
#
# Compressibility (1/GPa) = 0.03016394
#
# Stress axis : x y z
#
# Youngs Moduli (GPa) = 64.34112 55.03198 111.10007
#
# Poissons Ratio (x) = 0.16983 0.15623
# Poissons Ratio (y) = 0.19855 0.19809
# Poissons Ratio (z) = 0.09048 0.09812
#
# Static dielectric constant tensor:
#      x y z
#    x 2.104270 0.000000 0.044100 
#    y 0.000000 2.049740 0.000000 
#    z 0.044100 0.000000 2.007410 
# 
# From -- ./inp_files/4918.got.cif
#   From: 2010.05.17/outbox.cif.g08.bks.cpg/sg4_3_cif.got.tgz:4918.got - 2010.06.03 18:43:04.
