data_PCOD9117677
_publ_section_title
;
Structure prediction by ZEFSAII (Michael W. Deem and Ramdas Pophale) SiO2 
 PCOD9117677
Probable space group: P 21
;
_chemical_formula_sum "Si O2"
_cell_formula_units_Z 16
_cell_length_a 8.871922
_cell_length_b 8.251710
_cell_length_c 17.402943
_cell_angle_alpha 90.000000
_cell_angle_beta 31.054818
_cell_angle_gamma 90.000000
_cell_volume 657.225623
_symmetry_space_group_name_H-M "P 21"
_symmetry_group_IT_number 4
_symmetry_cell_setting 'monoclinic'
loop_
_space_group_symop_operation_xyz
x,y,z
-x,1/2+y,-z
loop_
_atom_site_type_symbol
_atom_site_label
_atom_site_fract_x
_atom_site_fract_y
_atom_site_fract_z
Si Si1 0.552542 0.160760 0.172323
Si Si2 0.654301 0.130163 0.719731
Si Si3 0.789268 0.756869 0.833126
Si Si4 0.715052 0.117415 0.867962
Si Si5 0.033460 0.954093 0.446292
Si Si6 0.228222 0.306283 0.712469
Si Si7 0.685768 0.058822 0.452221
Si Si8 0.874744 0.837452 0.062935
O O1 0.408124 0.229740 0.157421
O O2 0.282776 0.093988 0.340761
O O3 0.740294 0.993177 0.078178
O O4 0.789917 0.289787 0.098041
O O5 0.775960 0.118111 0.751591
O O6 0.797038 0.287671 0.617440
O O7 0.317011 0.177206 0.872445
O O8 0.777622 0.981224 0.618528
O O9 0.108214 0.697471 0.673000
O O10 0.791448 0.938729 0.861967
O O11 0.624083 0.648616 0.967597
O O12 0.908517 0.256504 0.821579
O O13 0.885363 0.965353 0.427322
O O14 0.423835 0.145159 0.612348
O O15 0.372036 0.441374 0.594465
O O16 0.183946 0.359032 0.819703
#
# Coordination Sequence:
#
# PCOD9117677 Si02
#       8
#     2   2   2   2   2   2   2   2
#     4  10  25  44  69  99 141 179 230 286 345 409
#     4  11  25  43  72  98 138 181 227 278 348 413
#     4  11  26  45  70 101 141 185 235 284 349 420
#     4  12  26  44  74 102 137 186 232 287 349 417
#     4  10  23  44  66 101 137 180 224 280 340 416
#     4  12  24  46  70 107 141 181 231 289 349 413
#     4  11  24  46  68 100 141 178 229 288 343 412
#     4  11  25  44  67 104 140 178 226 290 345 414
#
# _framework density 24.344760000000001
#
# number of rings (size 3 to 8) (size 9 to 14) (size 15 to 20)
#    0.000    1.000    3.750    1.500    8.750    2.000 
#    0.000    0.000    0.000    0.000    0.000    0.000 
#    0.000    0.000    0.000    0.000    0.000    0.000 
#
# Total GULP energy -89538.910942 kJ/mol
# GULP energy per Si atom -5596.181934 kJ/mol
# Density = 2.428935 g / cm^3
# Si number density = 24.344760 Si / 1000 Ang^3
#
#
#
# Elastic Constant Matrix: (Units=GPa)
#
#
# Indices 1 2 3 4 5 6 
#
# 1 55.5829 6.0678 2.9219 0.0000 7.8038 0.0000
# 2 6.0678 72.1002 15.2333 0.0000 -5.5552 0.0000
# 3 2.9219 15.2333 100.8419 0.0000 -11.5713 0.0000
# 4 0.0000 0.0000 0.0000 45.5935 0.0000 -6.1114
# 5 7.8038 -5.5552 -11.5713 0.0000 24.9860 0.0000
# 6 0.0000 0.0000 0.0000 -6.1114 0.0000 25.8337
#
#
#
# Elastic Compliance Matrix: (Units=1/GPa)
#
#
# Indices 1 2 3 4 5 6 
#
# 1 0.019230 -0.001928 -0.001061 0.000000 -0.006926 0.000000
# 2 -0.001928 0.014647 -0.001810 0.000000 0.003020 0.000000
# 3 -0.001061 -0.001810 0.010786 0.000000 0.004924 0.000000
# 4 0.000000 0.000000 0.000000 0.022651 0.000000 0.005359
# 5 -0.006926 0.003020 0.004924 0.000000 0.045137 0.000000
# 6 0.000000 0.000000 0.000000 0.005359 0.000000 0.039977
#
#
# Mechanical properties :
#
#
# Convention : Reuss Voigt Hill
#
# Bulk Modulus (GPa) = 28.51842 30.77454 29.64648
# Shear Modulus (GPa) = 28.78303 32.90278 30.84291
#
# Velocity S-wave (km/s) = 3.44220 3.68031 3.56325
# Velocity P-wave (km/s) = 5.24768 5.54330 5.39751
#
# Compressibility (1/GPa) = 0.03506506
#
# Stress axis : x y z
#
# Youngs Moduli (GPa) = 52.00277 68.27336 92.71555
#
# Poissons Ratio (x) = 0.13162 0.09834
# Poissons Ratio (y) = 0.10025 0.16783
# Poissons Ratio (z) = 0.05516 0.12359
#
# Static dielectric constant tensor:
#      x y z
#    x 1.913240 0.000000 -0.015240 
#    y 0.000000 1.954790 0.000000 
#    z -0.015240 0.000000 1.907730 
# 
# From -- ./inp_files/5398.got.cif
#   From: 2010.05.17/outbox.cif.g08.bks.cpg/sg4_3_cif.got.tgz:5398.got - 2010.06.03 18:43:04.
