data_PCOD9117477
_publ_section_title
;
Structure prediction by ZEFSAII (Michael W. Deem and Ramdas Pophale) SiO2 
 PCOD9117477
Probable space group: P 21
;
_chemical_formula_sum "Si O2"
_cell_formula_units_Z 16
_cell_length_a 11.382107
_cell_length_b 9.888894
_cell_length_c 8.346198
_cell_angle_alpha 90.000000
_cell_angle_beta 41.156958
_cell_angle_gamma 90.000000
_cell_volume 618.253844
_symmetry_space_group_name_H-M "P 21"
_symmetry_group_IT_number 4
_symmetry_cell_setting 'monoclinic'
loop_
_space_group_symop_operation_xyz
x,y,z
-x,1/2+y,-z
loop_
_atom_site_type_symbol
_atom_site_label
_atom_site_fract_x
_atom_site_fract_y
_atom_site_fract_z
Si Si1 0.641013 0.258300 0.853148
Si Si2 0.040382 0.299243 0.318447
Si Si3 0.502947 0.004025 0.173780
Si Si4 0.383346 0.621728 0.612529
Si Si5 0.100655 0.049895 0.698501
Si Si6 0.865486 0.828873 0.434620
Si Si7 0.006142 0.074938 0.133375
Si Si8 0.472022 0.883278 0.705610
O O1 0.517901 0.349908 0.862920
O O2 0.839134 0.254527 0.576435
O O3 0.639820 0.341874 0.022549
O O4 0.574324 0.107698 0.964820
O O5 0.153478 0.290972 0.361737
O O6 0.021360 0.451155 0.277486
O O7 0.098545 0.204322 0.114309
O O8 0.609859 0.038372 0.226318
O O9 0.299070 0.044937 0.424412
O O10 0.190269 0.614701 0.729624
O O11 0.428564 0.775418 0.611000
O O12 0.520314 0.537951 0.359682
O O13 0.039395 0.204174 0.749773
O O14 0.101099 0.009932 0.883174
O O15 0.675833 0.851640 0.547901
O O16 0.978304 0.963837 0.298110
#
# Coordination Sequence:
#
# PCOD9117477 Si02
#       8
#     2   2   2   2   2   2   2   2
#     4  10  23  41  66  96 132 170 218 267 329 393
#     4  11  26  43  69  99 131 178 220 276 328 392
#     4  10  23  42  64  98 132 173 216 272 324 395
#     4  10  23  41  66  96 132 170 218 267 329 393
#     4  11  23  45  66  98 135 173 226 269 328 392
#     4  11  23  45  66  98 135 173 226 269 328 392
#     4  11  26  43  69  99 131 178 220 276 328 392
#     4  10  23  42  64  98 132 173 216 272 324 395
#
# _framework density 25.879339999999999
#
# number of rings (size 3 to 8) (size 9 to 14) (size 15 to 20)
#    0.000    1.500    2.500    1.500   10.500    2.000 
#    0.000    1.250    0.000    0.000    0.000    0.000 
#    0.000    0.000    0.000    0.000    0.000    0.000 
#
# Total GULP energy -89712.945681 kJ/mol
# GULP energy per Si atom -5607.059105 kJ/mol
# Density = 2.582044 g / cm^3
# Si number density = 25.879340 Si / 1000 Ang^3
#
#
#
# Elastic Constant Matrix: (Units=GPa)
#
#
# Indices 1 2 3 4 5 6 
#
# 1 88.9589 37.6865 -4.0004 0.0000 14.1225 0.0000
# 2 37.6865 79.9557 17.6438 0.0000 -3.4994 0.0000
# 3 -4.0004 17.6438 67.1883 0.0000 4.5407 0.0000
# 4 0.0000 0.0000 0.0000 28.3409 0.0000 17.2114
# 5 14.1225 -3.4994 4.5407 0.0000 35.0935 0.0000
# 6 0.0000 0.0000 0.0000 17.2114 0.0000 39.1228
#
#
#
# Elastic Compliance Matrix: (Units=1/GPa)
#
#
# Indices 1 2 3 4 5 6 
#
# 1 0.016499 -0.008986 0.003885 0.000000 -0.008038 0.000000
# 2 -0.008986 0.018283 -0.005754 0.000000 0.006184 0.000000
# 3 0.003885 -0.005754 0.016918 0.000000 -0.004326 0.000000
# 4 0.000000 0.000000 0.000000 0.048149 0.000000 -0.021182
# 5 -0.008038 0.006184 -0.004326 0.000000 0.032906 0.000000
# 6 0.000000 0.000000 0.000000 -0.021182 0.000000 0.034879
#
#
# Mechanical properties :
#
#
# Convention : Reuss Voigt Hill
#
# Bulk Modulus (GPa) = 33.34368 37.64030 35.49199
# Shear Modulus (GPa) = 25.08285 32.82964 28.95624
#
# Velocity S-wave (km/s) = 3.11661 3.56556 3.34862
# Velocity P-wave (km/s) = 5.08560 5.61489 5.35679
#
# Compressibility (1/GPa) = 0.02999069
#
# Stress axis : x y z
#
# Youngs Moduli (GPa) = 60.61114 54.69681 59.10771
#
# Poissons Ratio (x) = 0.49149 -0.22965
# Poissons Ratio (y) = 0.54463 0.34010
# Poissons Ratio (z) = -0.23549 0.31472
#
# Static dielectric constant tensor:
#      x y z
#    x 2.001520 0.000000 -0.000140 
#    y 0.000000 2.014040 0.000000 
#    z -0.000140 0.000000 2.045780 
# 
# From -- ./inp_files/7952.got.cif
#   From: 2010.05.17/outbox.cif.g08.bks.cpg/sg4_4_cif.got.tgz:7952.got - 2010.06.03 18:43:04.
