data_PCOD9117843
_publ_section_title
;
Structure prediction by ZEFSAII (Michael W. Deem and Ramdas Pophale) SiO2 
 PCOD9117843
Probable space group: P 21
;
_chemical_formula_sum "Si O2"
_cell_formula_units_Z 12
_cell_length_a 16.094941
_cell_length_b 5.129869
_cell_length_c 8.925004
_cell_angle_alpha 90.000000
_cell_angle_beta 142.525480
_cell_angle_gamma 90.000000
_cell_volume 448.331648
_symmetry_space_group_name_H-M "P 21"
_symmetry_group_IT_number 4
_symmetry_cell_setting 'monoclinic'
loop_
_space_group_symop_operation_xyz
x,y,z
-x,1/2+y,-z
loop_
_atom_site_type_symbol
_atom_site_label
_atom_site_fract_x
_atom_site_fract_y
_atom_site_fract_z
Si Si1 0.697571 0.200600 0.464302
Si Si2 0.905127 0.726091 0.199515
Si Si3 0.329056 0.331109 0.321897
Si Si4 0.456796 0.515706 0.198153
Si Si5 0.802071 0.973542 0.332205
Si Si6 0.037537 0.032989 0.149910
O O1 0.543591 0.306933 0.226433
O O2 0.738841 0.975376 0.406439
O O3 0.809291 0.428906 0.600048
O O4 0.717501 0.092839 0.660781
O O5 0.045323 0.578864 0.427215
O O6 0.958098 0.995599 0.195111
O O7 0.827982 0.747843 0.247428
O O8 0.793528 0.648488 0.914380
O O9 0.410771 0.389592 0.288590
O O10 0.430615 0.217863 0.589046
O O11 0.320396 0.627777 0.928080
O O12 0.980213 0.813725 0.950816
#
# Coordination Sequence:
#
# PCOD9117843 Si02
#       6
#     2   2   2   2   2   2
#     4  11  24  44  69 107 144 201 252 313 382 471
#     4  10  23  47  67 107 145 197 249 316 381 457
#     4  11  22  44  73 101 140 191 258 307 376 456
#     4  11  24  44  70 105 142 193 244 317 383 463
#     4  10  26  46  67 104 151 193 243 309 403 454
#     4  11  23  43  76 112 148 197 262 328 377 459
#
# _framework density 26.765900999999999
#
# number of rings (size 3 to 8) (size 9 to 14) (size 15 to 20)
#    0.000    1.333    3.333    1.000    2.333    4.000 
#    3.000    0.000    0.000    0.000    0.000    0.000 
#    0.000    0.000    0.000    0.000    0.000    0.000 
#
# Total GULP energy -67030.096161 kJ/mol
# GULP energy per Si atom -5585.841347 kJ/mol
# Density = 2.670498 g / cm^3
# Si number density = 26.765901 Si / 1000 Ang^3
#
#
#
# Elastic Constant Matrix: (Units=GPa)
#
#
# Indices 1 2 3 4 5 6 
#
# 1 147.7513 24.2348 -9.5395 0.0000 4.9780 0.0000
# 2 24.2348 77.7852 47.1422 0.0000 -0.3014 0.0000
# 3 -9.5395 47.1422 155.4144 0.0000 8.6487 0.0000
# 4 0.0000 0.0000 0.0000 35.3184 0.0000 -0.9143
# 5 4.9780 -0.3014 8.6487 0.0000 31.1642 0.0000
# 6 0.0000 0.0000 0.0000 -0.9143 0.0000 21.9635
#
#
#
# Elastic Compliance Matrix: (Units=1/GPa)
#
#
# Indices 1 2 3 4 5 6 
#
# 1 0.007458 -0.003263 0.001539 0.000000 -0.001650 0.000000
# 2 -0.003263 0.017249 -0.005556 0.000000 0.002230 0.000000
# 3 0.001539 -0.005556 0.008360 0.000000 -0.002620 0.000000
# 4 0.000000 0.000000 0.000000 0.028344 0.000000 0.001180
# 5 -0.001650 0.002230 -0.002620 0.000000 0.033100 0.000000
# 6 0.000000 0.000000 0.000000 0.001180 0.000000 0.045579
#
#
# Mechanical properties :
#
#
# Convention : Reuss Voigt Hill
#
# Bulk Modulus (GPa) = 54.03384 56.06955 55.05169
# Shear Modulus (GPa) = 31.09056 38.96344 35.02700
#
# Velocity S-wave (km/s) = 3.41188 3.81952 3.62144
# Velocity P-wave (km/s) = 5.97935 6.35966 6.17243
#
# Compressibility (1/GPa) = 0.01850692
#
# Stress axis : x y z
#
# Youngs Moduli (GPa) = 134.07802 57.97519 119.61505
#
# Poissons Ratio (x) = 0.18918 -0.18414
# Poissons Ratio (y) = 0.43751 0.66464
# Poissons Ratio (z) = -0.20640 0.32214
#
# Static dielectric constant tensor:
#      x y z
#    x 2.103540 0.000000 0.036990 
#    y 0.000000 2.236170 0.000000 
#    z 0.036990 0.000000 2.146980 
# 
# From -- ./inp_files/7233.got.cif
#   From: 2010.05.17/outbox.cif.g08.bks.cpg/sg4_4_cif.got.tgz:7233.got - 2010.06.03 18:43:04.
