data_PCOD9117541
_publ_section_title
;
Structure prediction by ZEFSAII (Michael W. Deem and Ramdas Pophale) SiO2 
 PCOD9117541
Probable space group: P 21
;
_chemical_formula_sum "Si O2"
_cell_formula_units_Z 12
_cell_length_a 8.135175
_cell_length_b 8.613856
_cell_length_c 10.138353
_cell_angle_alpha 90.000000
_cell_angle_beta 45.770525
_cell_angle_gamma 90.000000
_cell_volume 509.072394
_symmetry_space_group_name_H-M "P 21"
_symmetry_group_IT_number 4
_symmetry_cell_setting 'monoclinic'
loop_
_space_group_symop_operation_xyz
x,y,z
-x,1/2+y,-z
loop_
_atom_site_type_symbol
_atom_site_label
_atom_site_fract_x
_atom_site_fract_y
_atom_site_fract_z
Si Si1 0.321519 0.312400 0.094783
Si Si2 0.232590 0.656887 0.224440
Si Si3 0.867980 0.722451 0.079561
Si Si4 0.568117 0.048943 0.608840
Si Si5 0.273195 0.210892 0.412502
Si Si6 0.294330 0.558780 0.756196
O O1 0.270626 0.494469 0.128782
O O2 0.234158 0.237585 0.279301
O O3 0.594635 0.282908 0.931681
O O4 0.207158 0.235743 0.031643
O O5 0.314081 0.625374 0.329462
O O6 0.966602 0.697194 0.378832
O O7 0.697404 0.598539 0.241056
O O8 0.813357 0.888653 0.171864
O O9 0.129935 0.670828 0.931516
O O10 0.685406 0.102354 0.408402
O O11 0.598409 0.864727 0.607231
O O12 0.445733 0.067923 0.336342
#
# Coordination Sequence:
#
# PCOD9117541 Si02
#       6
#     2   2   2   2   2   2
#     4  10  23  43  66  93 127 165 215 262 312 375
#     4  10  23  42  67  96 126 167 213 263 315 372
#     4  11  25  43  65  93 129 171 212 260 316 377
#     4  10  24  43  64  91 128 169 212 259 316 376
#     4  11  24  41  67  96 126 168 213 263 316 371
#     4  12  25  42  65  95 130 168 211 261 319 379
#
# _framework density 23.572285999999998
#
# number of rings (size 3 to 8) (size 9 to 14) (size 15 to 20)
#    0.000    1.333    0.000    4.000    0.000   20.000 
#    0.000    0.000    0.000    0.000    0.000    0.000 
#    0.000    0.000    0.000    0.000    0.000    0.000 
#
# Total GULP energy -67255.485685 kJ/mol
# GULP energy per Si atom -5604.623807 kJ/mol
# Density = 2.351863 g / cm^3
# Si number density = 23.572286 Si / 1000 Ang^3
#
#
#
# Elastic Constant Matrix: (Units=GPa)
#
#
# Indices 1 2 3 4 5 6 
#
# 1 48.5426 8.1310 22.4666 0.0000 -5.6320 0.0000
# 2 8.1310 72.5777 62.8725 0.0000 -3.8071 0.0000
# 3 22.4666 62.8725 167.9678 0.0000 -29.7733 0.0000
# 4 0.0000 0.0000 0.0000 30.5869 0.0000 0.9527
# 5 -5.6320 -3.8071 -29.7733 0.0000 39.9500 0.0000
# 6 0.0000 0.0000 0.0000 0.9527 0.0000 22.7146
#
#
#
# Elastic Compliance Matrix: (Units=1/GPa)
#
#
# Indices 1 2 3 4 5 6 
#
# 1 0.021998 -0.000033 -0.002743 0.000000 0.001054 0.000000
# 2 -0.000033 0.021057 -0.008668 0.000000 -0.004458 0.000000
# 3 -0.002743 -0.008668 0.010773 0.000000 0.006816 0.000000
# 4 0.000000 0.000000 0.000000 0.032737 0.000000 -0.001373
# 5 0.001054 -0.004458 0.006816 0.000000 0.029835 0.000000
# 6 0.000000 0.000000 0.000000 -0.001373 0.000000 0.044082
#
#
# Mechanical properties :
#
#
# Convention : Reuss Voigt Hill
#
# Bulk Modulus (GPa) = 32.32021 52.89204 42.60613
# Shear Modulus (GPa) = 25.81555 31.69148 28.75352
#
# Velocity S-wave (km/s) = 3.31292 3.67064 3.49636
# Velocity P-wave (km/s) = 5.32680 6.36017 5.86628
#
# Compressibility (1/GPa) = 0.03094039
#
# Stress axis : x y z
#
# Youngs Moduli (GPa) = 45.45898 47.49082 92.82440
#
# Poissons Ratio (x) = 0.00155 0.25465
# Poissons Ratio (y) = 0.00148 0.80456
# Poissons Ratio (z) = 0.12471 0.41163
#
# Static dielectric constant tensor:
#      x y z
#    x 1.907900 0.000000 0.012690 
#    y 0.000000 1.861580 0.000000 
#    z 0.012690 0.000000 1.854990 
# 
# From -- ./inp_files/7451.got.cif
#   From: 2010.05.17/outbox.cif.g08.bks.cpg/sg4_4_cif.got.tgz:7451.got - 2010.06.03 18:43:04.
