data_PCOD9117783
_publ_section_title
;
Structure prediction by ZEFSAII (Michael W. Deem and Ramdas Pophale) SiO2 
 PCOD9117783
Probable space group: P 21
;
_chemical_formula_sum "Si O2"
_cell_formula_units_Z 12
_cell_length_a 13.765262
_cell_length_b 5.476844
_cell_length_c 8.396127
_cell_angle_alpha 90.000000
_cell_angle_beta 43.466498
_cell_angle_gamma 90.000000
_cell_volume 435.450006
_symmetry_space_group_name_H-M "P 21"
_symmetry_group_IT_number 4
_symmetry_cell_setting 'monoclinic'
loop_
_space_group_symop_operation_xyz
x,y,z
-x,1/2+y,-z
loop_
_atom_site_type_symbol
_atom_site_label
_atom_site_fract_x
_atom_site_fract_y
_atom_site_fract_z
Si Si1 0.193663 0.929310 0.684857
Si Si2 0.691371 0.678458 0.746320
Si Si3 0.877383 0.098093 0.992505
Si Si4 0.473833 0.967200 0.802616
Si Si5 0.019830 0.419365 0.568798
Si Si6 0.374673 0.292543 0.690374
O O1 0.194425 0.659767 0.752632
O O2 0.268367 0.980027 0.432569
O O3 0.266435 0.100301 0.732688
O O4 0.026372 0.974716 0.854029
O O5 0.817136 0.871961 0.589704
O O6 0.559326 0.834077 0.839794
O O7 0.671913 0.527152 0.931857
O O8 0.742970 0.961595 0.080922
O O9 0.925656 0.329053 0.829441
O O10 0.481962 0.231789 0.706953
O O11 0.516773 0.830398 0.587746
O O12 0.003544 0.697778 0.532213
#
# Coordination Sequence:
#
# PCOD9117783 Si02
#       6
#     2   2   2   2   2   2
#     4  10  23  45  74 112 147 195 256 325 403 462
#     4  10  26  49  74 116 155 211 256 328 399 477
#     4  11  23  43  80 108 153 196 260 332 396 474
#     4  11  27  48  72 106 161 199 262 309 391 479
#     4  11  27  48  79 120 157 202 263 339 407 468
#     4  11  26  45  73 114 145 207 259 319 390 472
#
# _framework density 27.557700000000001
#
# number of rings (size 3 to 8) (size 9 to 14) (size 15 to 20)
#    0.000    1.333    1.667    1.000    9.333    2.667 
#    0.000    0.000    0.000    0.000    0.000    0.000 
#    0.000    0.000    0.000    0.000    0.000    0.000 
#
# Total GULP energy -66879.250458 kJ/mol
# GULP energy per Si atom -5573.270871 kJ/mol
# Density = 2.749498 g / cm^3
# Si number density = 27.557700 Si / 1000 Ang^3
#
#
#
# Elastic Constant Matrix: (Units=GPa)
#
#
# Indices 1 2 3 4 5 6 
#
# 1 66.2683 25.8951 23.7607 0.0000 -15.5341 0.0000
# 2 25.8951 42.0380 21.2041 0.0000 -9.2400 0.0000
# 3 23.7607 21.2041 143.9137 0.0000 3.9786 0.0000
# 4 0.0000 0.0000 0.0000 48.4940 0.0000 5.1924
# 5 -15.5341 -9.2400 3.9786 0.0000 37.1443 0.0000
# 6 0.0000 0.0000 0.0000 5.1924 0.0000 54.3704
#
#
#
# Elastic Compliance Matrix: (Units=1/GPa)
#
#
# Indices 1 2 3 4 5 6 
#
# 1 0.021624 -0.010779 -0.002164 0.000000 0.006594 0.000000
# 2 -0.010779 0.032916 -0.003181 0.000000 0.004021 0.000000
# 3 -0.002164 -0.003181 0.007845 0.000000 -0.002537 0.000000
# 4 0.000000 0.000000 0.000000 0.020834 0.000000 -0.001990
# 5 0.006594 0.004021 -0.002537 0.000000 0.030952 0.000000
# 6 0.000000 0.000000 0.000000 -0.001990 0.000000 0.018582
#
#
# Mechanical properties :
#
#
# Convention : Reuss Voigt Hill
#
# Bulk Modulus (GPa) = 33.18348 43.77110 38.47729
# Shear Modulus (GPa) = 28.56359 40.09243 34.32801
#
# Velocity S-wave (km/s) = 3.22297 3.81839 3.53324
# Velocity P-wave (km/s) = 5.09093 5.94627 5.53515
#
# Compressibility (1/GPa) = 0.03013548
#
# Stress axis : x y z
#
# Youngs Moduli (GPa) = 46.24508 30.37998 127.47279
#
# Poissons Ratio (x) = 0.32747 0.27589
# Poissons Ratio (y) = 0.49848 0.40554
# Poissons Ratio (z) = 0.10009 0.09665
#
# Static dielectric constant tensor:
#      x y z
#    x 2.287210 0.000000 -0.005580 
#    y 0.000000 2.307280 0.000000 
#    z -0.005580 0.000000 2.066840 
# 
# From -- ./inp_files/8769.got.cif
#   From: 2010.05.17/outbox.cif.g08.bks.cpg/sg4_5_cif.got.tgz:8769.got - 2010.06.03 18:43:04.
