data_PCOD9117695
_publ_section_title
;
Structure prediction by ZEFSAII (Michael W. Deem and Ramdas Pophale) SiO2 
 PCOD9117695
Probable space group: P 21
;
_chemical_formula_sum "Si O2"
_cell_formula_units_Z 14
_cell_length_a 14.589873
_cell_length_b 6.225706
_cell_length_c 15.157771
_cell_angle_alpha 90.000000
_cell_angle_beta 150.609299
_cell_angle_gamma 90.000000
_cell_volume 675.688767
_symmetry_space_group_name_H-M "P 21"
_symmetry_group_IT_number 4
_symmetry_cell_setting 'monoclinic'
loop_
_space_group_symop_operation_xyz
x,y,z
-x,1/2+y,-z
loop_
_atom_site_type_symbol
_atom_site_label
_atom_site_fract_x
_atom_site_fract_y
_atom_site_fract_z
Si Si1 0.160756 0.835900 0.094696
Si Si2 0.733727 0.763562 0.439838
Si Si3 0.475279 0.584982 0.602635
Si Si4 0.051707 0.430332 0.757308
Si Si5 0.099805 0.642880 0.216965
Si Si6 0.919661 0.870248 0.421315
Si Si7 0.384536 0.490856 0.170666
O O1 0.046335 0.784859 0.086834
O O2 0.273107 0.639065 0.146472
O O3 0.327445 0.993904 0.262427
O O4 0.023391 0.933014 0.905201
O O5 0.778373 0.878204 0.385195
O O6 0.569065 0.595992 0.285158
O O7 0.913347 0.635445 0.629268
O O8 0.640938 0.921682 0.432875
O O9 0.323663 0.623763 0.399681
O O10 0.537020 0.785681 0.712832
O O11 0.112512 0.360327 0.710553
O O12 0.943559 0.253434 0.726092
O O13 0.237340 0.460905 0.969522
O O14 0.995393 0.618952 0.500375
#
# Coordination Sequence:
#
# PCOD9117695 Si02
#       7
#     2   2   2   2   2   2   2
#     4  11  27  41  64  99 133 176 237 281 337 426
#     4  10  23  44  68  98 134 181 222 287 347 417
#     4  11  24  42  68  94 135 175 228 283 346 410
#     4  11  22  44  70  97 135 180 225 286 345 416
#     4  12  24  42  69  92 136 183 220 289 349 405
#     4  10  23  44  72 104 137 181 234 284 348 421
#     4  11  23  45  63 100 134 174 232 280 340 413
#
# _framework density 20.719598000000001
#
# number of rings (size 3 to 8) (size 9 to 14) (size 15 to 20)
#    0.000    1.143    2.857    2.571    4.000    1.143 
#    2.571    0.000    0.000    0.000    0.000    0.000 
#    0.000    0.000    0.000    0.000    0.000    0.000 
#
# Total GULP energy -77951.780694 kJ/mol
# GULP energy per Si atom -5567.984335 kJ/mol
# Density = 2.067244 g / cm^3
# Si number density = 20.719598 Si / 1000 Ang^3
#
#
#
# Elastic Constant Matrix: (Units=GPa)
#
#
# Indices 1 2 3 4 5 6 
#
# 1 47.5560 -5.2837 18.2896 0.0000 -10.3779 0.0000
# 2 -5.2837 64.4004 44.0385 0.0000 8.6005 0.0000
# 3 18.2896 44.0385 129.9019 0.0000 -2.5776 0.0000
# 4 0.0000 0.0000 0.0000 39.8931 0.0000 4.9839
# 5 -10.3779 8.6005 -2.5776 0.0000 25.3961 0.0000
# 6 0.0000 0.0000 0.0000 4.9839 0.0000 39.6548
#
#
#
# Elastic Compliance Matrix: (Units=1/GPa)
#
#
# Indices 1 2 3 4 5 6 
#
# 1 0.025177 0.004243 -0.004817 0.000000 0.008362 0.000000
# 2 0.004243 0.022488 -0.008355 0.000000 -0.006730 0.000000
# 3 -0.004817 -0.008355 0.011248 0.000000 0.002002 0.000000
# 4 0.000000 0.000000 0.000000 0.025467 0.000000 -0.003201
# 5 0.008362 -0.006730 0.002002 0.000000 0.045276 0.000000
# 6 0.000000 0.000000 0.000000 -0.003201 0.000000 0.025620
#
#
# Mechanical properties :
#
#
# Convention : Reuss Voigt Hill
#
# Bulk Modulus (GPa) = 24.35742 39.54970 31.95356
# Shear Modulus (GPa) = 26.76400 33.30972 30.03686
#
# Velocity S-wave (km/s) = 3.59795 4.01389 3.81160
# Velocity P-wave (km/s) = 5.38903 6.37270 5.90139
#
# Compressibility (1/GPa) = 0.04105524
#
# Stress axis : x y z
#
# Youngs Moduli (GPa) = 39.71908 44.46865 88.90130
#
# Poissons Ratio (x) = -0.18868 0.42826
# Poissons Ratio (y) = -0.16853 0.74273
# Poissons Ratio (z) = 0.19134 0.37152
#
# Static dielectric constant tensor:
#      x y z
#    x 1.723900 0.000000 0.023950 
#    y 0.000000 1.879290 0.000000 
#    z 0.023950 0.000000 1.800970 
# 
# From -- ./inp_files/14042.got.cif
#   From: 2010.05.17/outbox.cif.g08.bks.cpg/sg4_8_cif.got.tgz:14042.got - 2010.06.03 18:43:04.
