data_PCOD9117614
_publ_section_title
;
Structure prediction by ZEFSAII (Michael W. Deem and Ramdas Pophale) SiO2 
 PCOD9117614
Probable space group: P 21
;
_chemical_formula_sum "Si O2"
_cell_formula_units_Z 12
_cell_length_a 5.146555
_cell_length_b 11.628812
_cell_length_c 8.792483
_cell_angle_alpha 90.000000
_cell_angle_beta 69.779362
_cell_angle_gamma 90.000000
_cell_volume 493.783945
_symmetry_space_group_name_H-M "P 21"
_symmetry_group_IT_number 4
_symmetry_cell_setting 'monoclinic'
loop_
_space_group_symop_operation_xyz
x,y,z
-x,1/2+y,-z
loop_
_atom_site_type_symbol
_atom_site_label
_atom_site_fract_x
_atom_site_fract_y
_atom_site_fract_z
Si Si1 0.140519 0.904240 0.837101
Si Si2 0.443332 0.256842 0.419754
Si Si3 0.458183 0.129692 0.742391
Si Si4 0.502872 0.020351 0.306812
Si Si5 0.530307 0.839683 0.031695
Si Si6 0.888620 0.965495 0.510568
O O1 0.317251 0.847367 0.666032
O O2 0.203060 0.041165 0.818216
O O3 0.282923 0.859414 0.963828
O O4 0.828462 0.860191 0.894719
O O5 0.441894 0.202099 0.588112
O O6 0.492936 0.156625 0.287895
O O7 0.167056 0.330686 0.456324
O O8 0.485195 0.219642 0.874021
O O9 0.720850 0.045040 0.663031
O O10 0.521166 0.941800 0.157306
O O11 0.747658 0.992502 0.375178
O O12 0.205447 0.996609 0.440925
#
# Coordination Sequence:
#
# PCOD9117614 Si02
#       6
#     2   2   2   2   2   2
#     4  11  29  47  71 110 143 186 241 289 363 431
#     4  10  24  47  75 102 141 187 246 296 345 422
#     4  10  25  48  77 101 147 187 241 299 347 424
#     4  11  24  40  71 100 140 182 232 288 356 408
#     4  12  27  47  72 104 150 189 232 291 371 417
#     4  10  23  43  68 109 129 183 242 291 338 410
#
# _framework density 24.302126000000001
#
# number of rings (size 3 to 8) (size 9 to 14) (size 15 to 20)
#    0.000    1.333    1.667    1.000    7.000   12.000 
#    0.000    0.000    0.000    0.000    0.000    0.000 
#    0.000    0.000    0.000    0.000    0.000    0.000 
#
# Total GULP energy -67230.797278 kJ/mol
# GULP energy per Si atom -5602.566440 kJ/mol
# Density = 2.424681 g / cm^3
# Si number density = 24.302126 Si / 1000 Ang^3
#
#
#
# Elastic Constant Matrix: (Units=GPa)
#
#
# Indices 1 2 3 4 5 6 
#
# 1 63.3883 8.2693 12.6393 0.0000 17.3743 0.0000
# 2 8.2693 144.3128 39.5733 0.0000 22.4283 0.0000
# 3 12.6393 39.5733 73.8498 0.0000 16.2246 0.0000
# 4 0.0000 0.0000 0.0000 57.5357 0.0000 -3.2273
# 5 17.3743 22.4283 16.2246 0.0000 35.6025 0.0000
# 6 0.0000 0.0000 0.0000 -3.2273 0.0000 11.3879
#
#
#
# Elastic Compliance Matrix: (Units=1/GPa)
#
#
# Indices 1 2 3 4 5 6 
#
# 1 0.018389 0.000747 -0.001636 0.000000 -0.008699 0.000000
# 2 0.000747 0.008561 -0.003834 0.000000 -0.004010 0.000000
# 3 -0.001636 -0.003834 0.016857 0.000000 -0.004468 0.000000
# 4 0.000000 0.000000 0.000000 0.017661 0.000000 0.005005
# 5 -0.008699 -0.004010 -0.004468 0.000000 0.036896 0.000000
# 6 0.000000 0.000000 0.000000 0.005005 0.000000 0.089231
#
#
# Mechanical properties :
#
#
# Convention : Reuss Voigt Hill
#
# Bulk Modulus (GPa) = 29.10377 44.72384 36.91380
# Shear Modulus (GPa) = 23.98120 35.64315 29.81218
#
# Velocity S-wave (km/s) = 3.14474 3.83386 3.50627
# Velocity P-wave (km/s) = 5.01873 6.16776 5.62267
#
# Compressibility (1/GPa) = 0.03435981
#
# Stress axis : x y z
#
# Youngs Moduli (GPa) = 54.38069 116.80400 59.32108
#
# Poissons Ratio (x) = -0.08724 0.09707
# Poissons Ratio (y) = -0.04062 0.22746
# Poissons Ratio (z) = 0.08899 0.44788
#
# Static dielectric constant tensor:
#      x y z
#    x 1.918760 0.000000 0.018950 
#    y 0.000000 1.938500 0.000000 
#    z 0.018950 0.000000 1.958700 
# 
# From -- ./inp_files/2907.got.cif
#   From: 2010.05.17/outbox.cif.g08.bks.cpg/sg4_2_cif.got.tgz:2907.got - 2010.06.03 18:43:04.
