data_PCOD9117412
_publ_section_title
;
Structure prediction by ZEFSAII (Michael W. Deem and Ramdas Pophale) SiO2 
 PCOD9117412
Probable space group: P 21
;
_chemical_formula_sum "Si O2"
_cell_formula_units_Z 16
_cell_length_a 8.021408
_cell_length_b 8.028922
_cell_length_c 11.309716
_cell_angle_alpha 90.000000
_cell_angle_beta 59.791837
_cell_angle_gamma 90.000000
_cell_volume 629.470495
_symmetry_space_group_name_H-M "P 21"
_symmetry_group_IT_number 4
_symmetry_cell_setting 'monoclinic'
loop_
_space_group_symop_operation_xyz
x,y,z
-x,1/2+y,-z
loop_
_atom_site_type_symbol
_atom_site_label
_atom_site_fract_x
_atom_site_fract_y
_atom_site_fract_z
Si Si1 0.602223 0.666390 0.485927
Si Si2 0.439004 0.051084 0.003107
Si Si3 0.785693 0.213179 0.916977
Si Si4 0.910207 0.045726 0.071422
Si Si5 0.998057 0.823633 0.383830
Si Si6 0.098835 0.169244 0.246628
Si Si7 0.769307 0.316903 0.471662
Si Si8 0.260167 0.176569 0.830088
O O1 0.651082 0.488088 0.523970
O O2 0.374902 0.710671 0.562054
O O3 0.643980 0.660210 0.330445
O O4 0.769393 0.785672 0.482686
O O5 0.326129 0.163451 0.141789
O O6 0.347382 0.872649 0.056937
O O7 0.666520 0.048114 0.933560
O O8 0.395128 0.124844 0.890111
O O9 0.950879 0.242556 0.761711
O O10 0.793950 0.197635 0.056275
O O11 0.012269 0.104982 0.153216
O O12 0.810710 0.868295 0.124013
O O13 0.077374 0.052602 0.911425
O O14 0.155372 0.764099 0.424730
O O15 0.037261 0.020445 0.357390
O O16 0.976857 0.327316 0.331794
#
# Coordination Sequence:
#
# PCOD9117412 Si02
#       8
#     2   2   2   2   2   2   2   2
#     4  12  26  46  72 104 143 189 250 290 359 422
#     4  10  23  38  65 100 141 176 235 290 364 435
#     4  11  22  41  66 104 138 185 226 293 372 427
#     4  11  21  39  70  95 141 168 223 289 361 427
#     4  11  23  50  70  99 142 189 236 305 350 425
#     4  10  23  45  65  99 137 182 234 288 363 419
#     4  12  28  45  73 101 142 195 246 299 348 424
#     4  11  22  40  67  98 132 178 222 292 355 427
#
# _framework density 25.418188000000001
#
# number of rings (size 3 to 8) (size 9 to 14) (size 15 to 20)
#    0.000    1.000    2.500    4.500    5.250    2.000 
#    2.250    1.250    0.000    0.000    0.000    0.000 
#    0.000    0.000    0.000    0.000    0.000    0.000 
#
# Total GULP energy -89253.029873 kJ/mol
# GULP energy per Si atom -5578.314367 kJ/mol
# Density = 2.536033 g / cm^3
# Si number density = 25.418188 Si / 1000 Ang^3
#
#
#
# Elastic Constant Matrix: (Units=GPa)
#
#
# Indices 1 2 3 4 5 6 
#
# 1 83.3959 -2.9466 13.6572 0.0000 3.3050 0.0000
# 2 -2.9466 42.3959 4.0960 0.0000 7.5160 0.0000
# 3 13.6572 4.0960 54.3232 0.0000 -2.1183 0.0000
# 4 0.0000 0.0000 0.0000 32.6707 0.0000 -3.4990
# 5 3.3050 7.5160 -2.1183 0.0000 37.9345 0.0000
# 6 0.0000 0.0000 0.0000 -3.4990 0.0000 44.1347
#
#
#
# Elastic Compliance Matrix: (Units=1/GPa)
#
#
# Indices 1 2 3 4 5 6 
#
# 1 0.012656 0.001485 -0.003355 0.000000 -0.001584 0.000000
# 2 0.001485 0.024847 -0.002449 0.000000 -0.005189 0.000000
# 3 -0.003355 -0.002449 0.019509 0.000000 0.001867 0.000000
# 4 0.000000 0.000000 0.000000 0.030871 0.000000 0.002447
# 5 -0.001584 -0.005189 0.001867 0.000000 0.027632 0.000000
# 6 0.000000 0.000000 0.000000 0.002447 0.000000 0.022852
#
#
# Mechanical properties :
#
#
# Convention : Reuss Voigt Hill
#
# Bulk Modulus (GPa) = 20.67299 23.30312 21.98805
# Shear Modulus (GPa) = 30.65041 33.96854 32.30948
#
# Velocity S-wave (km/s) = 3.47630 3.65963 3.56914
# Velocity P-wave (km/s) = 4.92581 5.20048 5.06501
#
# Compressibility (1/GPa) = 0.04837229
#
# Stress axis : x y z
#
# Youngs Moduli (GPa) = 79.01564 40.24645 51.25745
#
# Poissons Ratio (x) = -0.05975 0.17199
# Poissons Ratio (y) = -0.11731 0.12553
# Poissons Ratio (z) = 0.26513 0.09857
#
# Static dielectric constant tensor:
#      x y z
#    x 2.512680 0.000000 0.007450 
#    y 0.000000 2.068000 0.000000 
#    z 0.007450 0.000000 1.981540 
# 
# From -- ./inp_files/10852.got.cif
#   From: 2010.05.17/outbox.cif.g08.bks.cpg/sg4_6_cif.got.tgz:10852.got - 2010.06.03 18:43:04.
