data_PCOD9117245
_publ_section_title
;
Structure prediction by ZEFSAII (Michael W. Deem and Ramdas Pophale) SiO2 
 PCOD9117245
Probable space group: P 21
;
_chemical_formula_sum "Si O2"
_cell_formula_units_Z 16
_cell_length_a 6.992811
_cell_length_b 17.198526
_cell_length_c 9.056099
_cell_angle_alpha 90.000000
_cell_angle_beta 144.705319
_cell_angle_gamma 90.000000
_cell_volume 629.286013
_symmetry_space_group_name_H-M "P 21"
_symmetry_group_IT_number 4
_symmetry_cell_setting 'monoclinic'
loop_
_space_group_symop_operation_xyz
x,y,z
-x,1/2+y,-z
loop_
_atom_site_type_symbol
_atom_site_label
_atom_site_fract_x
_atom_site_fract_y
_atom_site_fract_z
Si Si1 0.545129 0.029300 0.104484
Si Si2 0.362835 0.152055 0.219038
Si Si3 0.485240 0.890792 0.310096
Si Si4 0.185748 0.959717 0.398098
Si Si5 0.259740 0.233173 0.639851
Si Si6 0.504494 0.771609 0.904208
Si Si7 0.376663 0.602753 0.301848
Si Si8 0.809971 0.420222 0.277085
O O1 0.537063 0.106461 0.193501
O O2 0.875883 0.017742 0.218400
O O3 0.479811 0.959535 0.183626
O O4 0.260468 0.009436 0.807209
O O5 0.356592 0.241576 0.163940
O O6 0.554600 0.135876 0.490111
O O7 0.995737 0.116605 0.986412
O O8 0.490160 0.803100 0.252751
O O9 0.864546 0.897828 0.607048
O O10 0.230342 0.911373 0.277650
O O11 0.510177 0.013577 0.620787
O O12 0.140840 0.909659 0.517281
O O13 0.389905 0.153622 0.655481
O O14 0.889082 0.251435 0.350423
O O15 0.290436 0.232066 0.835607
O O16 0.498759 0.863027 0.938821
#
# Coordination Sequence:
#
# PCOD9117245 Si02
#       8
#     2   2   2   2   2   2   2   2
#     4  11  23  43  68  97 134 181 223 277 340 396
#     4  12  27  44  70  96 142 176 229 282 333 403
#     4  10  22  45  65  99 136 174 222 284 332 402
#     4  11  25  41  70 100 136 178 229 276 339 404
#     4  11  24  45  71  96 137 177 226 277 342 401
#     4  11  24  46  69  98 135 180 225 278 338 407
#     4  12  27  45  66 104 134 181 228 279 341 397
#     4  10  24  41  69  98 134 179 226 275 343 400
#
# _framework density 25.425640999999999
#
# number of rings (size 3 to 8) (size 9 to 14) (size 15 to 20)
#    0.000    1.000    2.500    3.000    7.000    2.000 
#    0.000    0.000    0.000    0.000    0.000    0.000 
#    0.000    0.000    0.000    0.000    0.000    0.000 
#
# Total GULP energy -89491.816972 kJ/mol
# GULP energy per Si atom -5593.238561 kJ/mol
# Density = 2.536777 g / cm^3
# Si number density = 25.425641 Si / 1000 Ang^3
#
#
#
# Elastic Constant Matrix: (Units=GPa)
#
#
# Indices 1 2 3 4 5 6 
#
# 1 83.0816 -5.5604 18.2874 0.0000 -2.3366 0.0000
# 2 -5.5604 58.0061 -2.6327 0.0000 -6.4865 0.0000
# 3 18.2874 -2.6327 75.0149 0.0000 -0.5740 0.0000
# 4 0.0000 0.0000 0.0000 31.3675 0.0000 -1.4745
# 5 -2.3366 -6.4865 -0.5740 0.0000 41.3867 0.0000
# 6 0.0000 0.0000 0.0000 -1.4745 0.0000 38.3905
#
#
#
# Elastic Compliance Matrix: (Units=1/GPa)
#
#
# Indices 1 2 3 4 5 6 
#
# 1 0.012817 0.001186 -0.003076 0.000000 0.000867 0.000000
# 2 0.001186 0.017687 0.000353 0.000000 0.002844 0.000000
# 3 -0.003076 0.000353 0.014094 0.000000 0.000077 0.000000
# 4 0.000000 0.000000 0.000000 0.031938 0.000000 0.001227
# 5 0.000867 0.002844 0.000077 0.000000 0.024658 0.000000
# 6 0.000000 0.000000 0.000000 0.001227 0.000000 0.026095
#
#
# Mechanical properties :
#
#
# Convention : Reuss Voigt Hill
#
# Bulk Modulus (GPa) = 24.08238 26.25459 25.16849
# Shear Modulus (GPa) = 34.67292 35.96284 35.31788
#
# Velocity S-wave (km/s) = 3.69684 3.76497 3.73106
# Velocity P-wave (km/s) = 5.26444 5.40819 5.33680
#
# Compressibility (1/GPa) = 0.04152414
#
# Stress axis : x y z
#
# Youngs Moduli (GPa) = 78.01974 56.53768 70.95397
#
# Poissons Ratio (x) = -0.06705 0.21828
# Poissons Ratio (y) = -0.09253 -0.02507
# Poissons Ratio (z) = 0.24002 -0.01998
#
# Static dielectric constant tensor:
#      x y z
#    x 1.953670 0.000000 -0.003790 
#    y 0.000000 2.039850 0.000000 
#    z -0.003790 0.000000 2.067310 
# 
# From -- ./inp_files/453.got.cif
#   From: 2010.05.17/outbox.cif.g08.bks.cpg/sg4_1_cif.got.tgz:453.got - 2010.06.03 18:43:04.
