data_PCOD9117572
_publ_section_title
;
Structure prediction by ZEFSAII (Michael W. Deem and Ramdas Pophale) SiO2 
 PCOD9117572
Probable space group: P 21
;
_chemical_formula_sum "Si O2"
_cell_formula_units_Z 14
_cell_length_a 11.901455
_cell_length_b 10.326253
_cell_length_c 14.820677
_cell_angle_alpha 90.000000
_cell_angle_beta 162.508931
_cell_angle_gamma 90.000000
_cell_volume 547.441737
_symmetry_space_group_name_H-M "P 21"
_symmetry_group_IT_number 4
_symmetry_cell_setting 'monoclinic'
loop_
_space_group_symop_operation_xyz
x,y,z
-x,1/2+y,-z
loop_
_atom_site_type_symbol
_atom_site_label
_atom_site_fract_x
_atom_site_fract_y
_atom_site_fract_z
Si Si1 0.416590 0.561870 0.480698
Si Si2 0.150108 0.246843 0.848415
Si Si3 0.609988 0.658518 0.432971
Si Si4 0.106330 0.421612 0.527789
Si Si5 0.665267 0.432806 0.355558
Si Si6 0.250567 0.931054 0.104140
Si Si7 0.596442 0.242629 0.023808
O O1 0.139972 0.657434 0.322149
O O2 0.554961 0.624859 0.494884
O O3 0.725051 0.516576 0.787563
O O4 0.152625 0.440455 0.249749
O O5 0.936260 0.361480 0.632744
O O6 0.382976 0.179215 0.945399
O O7 0.413862 0.319756 0.121140
O O8 0.467068 0.544583 0.258599
O O9 0.396470 0.789527 0.242017
O O10 0.054449 0.669014 0.751804
O O11 0.440126 0.487566 0.729004
O O12 0.304318 0.297367 0.727528
O O13 0.799632 0.368495 0.223666
O O14 0.895069 0.491760 0.447021
#
# Coordination Sequence:
#
# PCOD9117572 Si02
#       7
#     2   2   2   2   2   2   2
#     4  12  28  43  73  95 142 186 225 289 340 416
#     4  10  23  46  68 104 136 175 230 281 352 407
#     4  11  27  45  72 102 140 182 232 286 343 413
#     4   9  19  42  68  97 132 171 222 279 334 404
#     4  10  23  42  74 102 135 175 230 289 339 409
#     4  11  26  47  68 102 138 184 232 278 354 401
#     4   9  20  41  67  98 131 173 221 280 334 400
#
# _framework density 25.573499000000002
#
# number of rings (size 3 to 8) (size 9 to 14) (size 15 to 20)
#    0.000    1.714    0.000    2.571    6.000    6.857 
#    5.143    0.000    0.000    0.000    0.000    0.000 
#    0.000    0.000    0.000    0.000    0.000    0.000 
#
# Total GULP energy -78523.542806 kJ/mol
# GULP energy per Si atom -5608.824486 kJ/mol
# Density = 2.551529 g / cm^3
# Si number density = 25.573499 Si / 1000 Ang^3
#
#
#
# Elastic Constant Matrix: (Units=GPa)
#
#
# Indices 1 2 3 4 5 6 
#
# 1 203.7337 54.2025 9.0739 0.0000 20.3994 0.0000
# 2 54.2025 72.8501 11.7854 0.0000 9.8970 0.0000
# 3 9.0739 11.7854 68.7583 0.0000 2.3239 0.0000
# 4 0.0000 0.0000 0.0000 6.4299 0.0000 -4.9101
# 5 20.3994 9.8970 2.3239 0.0000 33.2554 0.0000
# 6 0.0000 0.0000 0.0000 -4.9101 0.0000 32.1889
#
#
#
# Elastic Compliance Matrix: (Units=1/GPa)
#
#
# Indices 1 2 3 4 5 6 
#
# 1 0.006326 -0.004355 -0.000001 0.000000 -0.002584 0.000000
# 2 -0.004355 0.017681 -0.002374 0.000000 -0.002424 0.000000
# 3 -0.000001 -0.002374 0.014962 0.000000 -0.000339 0.000000
# 4 0.000000 0.000000 0.000000 0.176027 0.000000 0.026851
# 5 -0.002584 -0.002424 -0.000339 0.000000 0.032401 0.000000
# 6 0.000000 0.000000 0.000000 0.026851 0.000000 0.035162
#
#
# Mechanical properties :
#
#
# Convention : Reuss Voigt Hill
#
# Bulk Modulus (GPa) = 39.20275 55.05175 47.12725
# Shear Modulus (GPa) = 16.41919 32.39354 24.40637
#
# Velocity S-wave (km/s) = 2.53660 3.56291 3.09263
# Velocity P-wave (km/s) = 4.89304 6.20479 5.58754
#
# Compressibility (1/GPa) = 0.02550842
#
# Stress axis : x y z
#
# Youngs Moduli (GPa) = 158.08041 56.55869 66.83538
#
# Poissons Ratio (x) = 0.24634 0.00006
# Poissons Ratio (y) = 0.68851 0.15865
# Poissons Ratio (z) = 0.00015 0.13426
#
# Static dielectric constant tensor:
#      x y z
#    x 2.003150 0.000000 0.043120 
#    y 0.000000 1.977770 0.000000 
#    z 0.043120 0.000000 1.965950 
# 
# From -- ./inp_files/16192.got.cif
#   From: 2010.05.17/outbox.cif.g08.bks.cpg/sg4_9_cif.got.tgz:16192.got - 2010.06.03 18:43:04.
