data_PCOD9117096
_publ_section_title
;
Structure prediction by ZEFSAII (Michael W. Deem and Ramdas Pophale) SiO2 
 PCOD9117096
Probable space group: P 21
;
_chemical_formula_sum "Si O2"
_cell_formula_units_Z 14
_cell_length_a 8.474640
_cell_length_b 11.206379
_cell_length_c 6.403623
_cell_angle_alpha 90.000000
_cell_angle_beta 96.775015
_cell_angle_gamma 90.000000
_cell_volume 603.905555
_symmetry_space_group_name_H-M "P 21"
_symmetry_group_IT_number 4
_symmetry_cell_setting 'monoclinic'
loop_
_space_group_symop_operation_xyz
x,y,z
-x,1/2+y,-z
loop_
_atom_site_type_symbol
_atom_site_label
_atom_site_fract_x
_atom_site_fract_y
_atom_site_fract_z
Si Si1 0.955630 0.388380 0.855073
Si Si2 0.238321 0.880712 0.776906
Si Si3 0.746101 0.576058 0.553960
Si Si4 0.231531 0.696625 0.394243
Si Si5 0.599246 0.029482 0.319992
Si Si6 0.736831 0.793605 0.281481
Si Si7 0.545470 0.205353 0.951909
O O1 0.863163 0.496005 0.719066
O O2 0.897424 0.254141 0.778656
O O3 0.135084 0.378529 0.808890
O O4 0.909866 0.397099 0.090340
O O5 0.220758 0.786410 0.587279
O O6 0.380579 0.825189 0.935031
O O7 0.271282 0.001431 0.662183
O O8 0.572158 0.576166 0.628916
O O9 0.794423 0.707895 0.478782
O O10 0.252298 0.571793 0.513204
O O11 0.384567 0.696733 0.268779
O O12 0.607894 0.093706 0.096472
O O13 0.604475 0.888161 0.334829
O O14 0.643516 0.716717 0.093222
#
# Coordination Sequence:
#
# PCOD9117096 Si02
#       7
#     2   2   2   2   2   2   2
#     4  10  24  45  65  99 143 179 225 289 346 418
#     4   9  20  45  71  92 139 182 223 293 343 394
#     4  11  25  45  70  99 142 180 234 289 342 417
#     4   9  19  44  72  96 135 178 224 286 345 403
#     4  11  24  43  71 102 134 178 234 293 335 412
#     4  12  26  43  70 106 133 187 232 275 365 407
#     4  10  22  43  69 102 130 176 232 289 340 405
#
# _framework density 23.18243
#
# number of rings (size 3 to 8) (size 9 to 14) (size 15 to 20)
#    0.000    1.714    1.429    2.571    8.000    0.000 
#   12.857    0.000    0.000    0.000    0.000    0.000 
#    0.000    0.000    0.000    0.000    0.000    0.000 
#
# Total GULP energy -78026.800784 kJ/mol
# GULP energy per Si atom -5573.342913 kJ/mol
# Density = 2.312967 g / cm^3
# Si number density = 23.182430 Si / 1000 Ang^3
#
#
#
# Elastic Constant Matrix: (Units=GPa)
#
#
# Indices 1 2 3 4 5 6 
#
# 1 38.1572 -0.9411 16.5439 0.0000 -19.0511 0.0000
# 2 -0.9411 93.9961 35.6154 0.0000 -10.9920 0.0000
# 3 16.5439 35.6154 105.0055 0.0000 -29.6356 0.0000
# 4 0.0000 0.0000 0.0000 27.8822 0.0000 -1.3960
# 5 -19.0511 -10.9920 -29.6356 0.0000 24.6457 0.0000
# 6 0.0000 0.0000 0.0000 -1.3960 0.0000 27.2534
#
#
#
# Elastic Compliance Matrix: (Units=1/GPa)
#
#
# Indices 1 2 3 4 5 6 
#
# 1 0.045084 0.004066 0.002823 0.000000 0.040058 0.000000
# 2 0.004066 0.012582 -0.003690 0.000000 0.004318 0.000000
# 3 0.002823 -0.003690 0.015866 0.000000 0.019615 0.000000
# 4 0.000000 0.000000 0.000000 0.035957 0.000000 0.001842
# 5 0.040058 0.004318 0.019615 0.000000 0.097052 0.000000
# 6 0.000000 0.000000 0.000000 0.001842 0.000000 0.036787
#
#
# Mechanical properties :
#
#
# Convention : Reuss Voigt Hill
#
# Bulk Modulus (GPa) = 12.51069 37.73281 25.12175
# Shear Modulus (GPa) = 18.97008 28.35228 23.66118
#
# Velocity S-wave (km/s) = 2.86369 3.50095 3.19823
# Velocity P-wave (km/s) = 4.04260 5.71437 4.94958
#
# Compressibility (1/GPa) = 0.07993164
#
# Stress axis : x y z
#
# Youngs Moduli (GPa) = 22.18100 79.47608 63.02848
#
# Poissons Ratio (x) = -0.32315 -0.17796
# Poissons Ratio (y) = -0.09019 0.23255
# Poissons Ratio (z) = -0.06263 0.29323
#
# Static dielectric constant tensor:
#      x y z
#    x 1.993790 0.000000 0.012870 
#    y 0.000000 1.884130 0.000000 
#    z 0.012870 0.000000 1.902010 
# 
# From -- ./inp_files/1229.got.cif
#   From: 2010.05.17/outbox.cif.g08.bks.cpg/sg4_1_cif.got.tgz:1229.got - 2010.06.03 18:43:04.
