data_PCOD9117555
_publ_section_title
;
Structure prediction by ZEFSAII (Michael W. Deem and Ramdas Pophale) SiO2 
 PCOD9117555
Probable space group: P 21
;
_chemical_formula_sum "Si O2"
_cell_formula_units_Z 16
_cell_length_a 19.026859
_cell_length_b 5.403756
_cell_length_c 11.637219
_cell_angle_alpha 90.000000
_cell_angle_beta 150.571705
_cell_angle_gamma 90.000000
_cell_volume 587.880153
_symmetry_space_group_name_H-M "P 21"
_symmetry_group_IT_number 4
_symmetry_cell_setting 'monoclinic'
loop_
_space_group_symop_operation_xyz
x,y,z
-x,1/2+y,-z
loop_
_atom_site_type_symbol
_atom_site_label
_atom_site_fract_x
_atom_site_fract_y
_atom_site_fract_z
Si Si1 0.365650 0.232240 0.800868
Si Si2 0.578340 0.507164 0.768673
Si Si3 0.703591 0.781535 0.741117
Si Si4 0.595110 0.357740 0.312639
Si Si5 0.092978 0.390360 0.786242
Si Si6 0.190636 0.033425 0.737231
Si Si7 0.848697 0.083960 0.567535
Si Si8 0.076593 0.224050 0.136668
O O1 0.268806 0.472474 0.684547
O O2 0.395394 0.146193 0.713134
O O3 0.268927 0.029853 0.726748
O O4 0.504382 0.254647 0.075111
O O5 0.667309 0.577588 0.783107
O O6 0.443437 0.363920 0.525238
O O7 0.495916 0.743614 0.712655
O O8 0.693712 0.378435 0.019827
O O9 0.793068 0.674865 0.763032
O O10 0.798547 0.971105 0.956738
O O11 0.754089 0.240203 0.525216
O O12 0.975372 0.532912 0.541264
O O13 0.984890 0.202611 0.700844
O O14 0.186697 0.263791 0.819690
O O15 0.895772 0.830360 0.698199
O O16 0.008955 0.471146 0.983843
#
# Coordination Sequence:
#
# PCOD9117555 Si02
#       8
#     2   2   2   2   2   2   2   2
#     4  11  23  40  69  99 143 192 238 314 381 464
#     4  10  25  46  68 105 147 200 255 312 383 459
#     4  11  25  48  72 108 155 200 263 317 389 466
#     4  11  22  43  66 106 144 189 254 306 389 459
#     4  11  23  45  68 108 144 191 251 314 387 461
#     4  10  23  42  68  98 148 183 247 304 384 456
#     4  12  24  41  73 104 143 195 252 316 388 461
#     4  12  29  51  80 114 156 208 266 327 393 470
#
# _framework density 27.216429000000002
#
# number of rings (size 3 to 8) (size 9 to 14) (size 15 to 20)
#    0.000    1.000    5.000    0.750    3.500    3.000 
#    0.000    0.000    0.000    0.000    0.000    0.000 
#    0.000    0.000    0.000    0.000    0.000    0.000 
#
# Total GULP energy -89199.102270 kJ/mol
# GULP energy per Si atom -5574.943892 kJ/mol
# Density = 2.715448 g / cm^3
# Si number density = 27.216429 Si / 1000 Ang^3
#
#
#
# Elastic Constant Matrix: (Units=GPa)
#
#
# Indices 1 2 3 4 5 6 
#
# 1 108.1000 4.9377 -15.9422 0.0000 -9.3477 0.0000
# 2 4.9377 40.1795 0.3212 0.0000 2.4583 0.0000
# 3 -15.9422 0.3212 124.3791 0.0000 -31.1609 0.0000
# 4 0.0000 0.0000 0.0000 48.7063 0.0000 -1.6365
# 5 -9.3477 2.4583 -31.1609 0.0000 50.1105 0.0000
# 6 0.0000 0.0000 0.0000 -1.6365 0.0000 25.9742
#
#
#
# Elastic Compliance Matrix: (Units=1/GPa)
#
#
# Indices 1 2 3 4 5 6 
#
# 1 0.009900 -0.001429 0.002076 0.000000 0.003208 0.000000
# 2 -0.001429 0.025190 -0.000740 0.000000 -0.001963 0.000000
# 3 0.002076 -0.000740 0.009967 0.000000 0.006621 0.000000
# 4 0.000000 0.000000 0.000000 0.020575 0.000000 0.001296
# 5 0.003208 -0.001963 0.006621 0.000000 0.024768 0.000000
# 6 0.000000 0.000000 0.000000 0.001296 0.000000 0.038581
#
#
# Mechanical properties :
#
#
# Convention : Reuss Voigt Hill
#
# Bulk Modulus (GPa) = 22.28655 27.92135 25.10395
# Shear Modulus (GPa) = 34.69243 43.84765 39.27004
#
# Velocity S-wave (km/s) = 3.57415 4.01817 3.80265
# Velocity P-wave (km/s) = 5.02386 5.63994 5.34079
#
# Compressibility (1/GPa) = 0.04487011
#
# Stress axis : x y z
#
# Youngs Moduli (GPa) = 101.01439 39.69834 100.33269
#
# Poissons Ratio (x) = 0.05675 -0.20831
# Poissons Ratio (y) = 0.14439 0.07424
# Poissons Ratio (z) = -0.20973 0.02937
#
# Static dielectric constant tensor:
#      x y z
#    x 2.012150 0.000000 0.002890 
#    y 0.000000 2.351990 0.000000 
#    z 0.002890 0.000000 2.298080 
# 
# From -- ./inp_files/12840.got.cif
#   From: 2010.05.17/outbox.cif.g08.bks.cpg/sg4_7_cif.got.tgz:12840.got - 2010.06.03 18:43:04.
