data_PCOD9117566
_publ_section_title
;
Structure prediction by ZEFSAII (Michael W. Deem and Ramdas Pophale) SiO2 
 PCOD9117566
Probable space group: P 21
;
_chemical_formula_sum "Si O2"
_cell_formula_units_Z 14
_cell_length_a 11.671230
_cell_length_b 8.391630
_cell_length_c 9.749968
_cell_angle_alpha 90.000000
_cell_angle_beta 139.750839
_cell_angle_gamma 90.000000
_cell_volume 616.984838
_symmetry_space_group_name_H-M "P 21"
_symmetry_group_IT_number 4
_symmetry_cell_setting 'monoclinic'
loop_
_space_group_symop_operation_xyz
x,y,z
-x,1/2+y,-z
loop_
_atom_site_type_symbol
_atom_site_label
_atom_site_fract_x
_atom_site_fract_y
_atom_site_fract_z
Si Si1 0.193373 0.323190 0.873430
Si Si2 0.883441 0.934048 0.500317
Si Si3 0.802596 0.266383 0.529679
Si Si4 0.550572 0.654416 0.688830
Si Si5 0.716550 0.451848 0.194074
Si Si6 0.624208 0.806267 0.480667
Si Si7 0.418052 0.631791 0.066314
O O1 0.161526 0.330910 0.677347
O O2 0.001718 0.288772 0.764309
O O3 0.336414 0.203698 0.072718
O O4 0.270645 0.500142 0.965841
O O5 0.802599 0.847546 0.558842
O O6 0.090288 0.979936 0.694152
O O7 0.794538 0.108156 0.425690
O O8 0.640316 0.243536 0.482985
O O9 0.766819 0.410841 0.396624
O O10 0.654301 0.730637 0.656281
O O11 0.495768 0.468677 0.626731
O O12 0.548919 0.562730 0.069652
O O13 0.650298 0.298301 0.052885
O O14 0.521200 0.675432 0.298189
#
# Coordination Sequence:
#
# PCOD9117566 Si02
#       7
#     2   2   2   2   2   2   2
#     4  11  23  44  73 106 143 191 235 301 358 424
#     4  10  24  42  72 110 143 179 244 301 356 425
#     4  10  23  42  71 103 141 185 235 298 350 422
#     4  11  25  51  70 101 152 191 239 296 357 433
#     4  11  25  40  69 110 143 179 239 299 356 425
#     4  11  27  47  73 106 142 196 241 295 360 430
#     4  12  25  40  72 106 144 189 235 296 371 419
#
# _framework density 22.690992999999999
#
# number of rings (size 3 to 8) (size 9 to 14) (size 15 to 20)
#    0.000    1.143    2.857    1.714   10.000    0.000 
#    2.571    0.000    0.000    0.000    0.000    0.000 
#    0.000    0.000    0.000    0.000    0.000    0.000 
#
# Total GULP energy -78185.972345 kJ/mol
# GULP energy per Si atom -5584.712310 kJ/mol
# Density = 2.263935 g / cm^3
# Si number density = 22.690993 Si / 1000 Ang^3
#
#
#
# Elastic Constant Matrix: (Units=GPa)
#
#
# Indices 1 2 3 4 5 6 
#
# 1 115.7943 28.9272 40.6113 0.0000 7.4004 0.0000
# 2 28.9272 48.2413 28.3328 0.0000 2.4801 0.0000
# 3 40.6113 28.3328 77.2543 0.0000 9.1381 0.0000
# 4 0.0000 0.0000 0.0000 43.4614 0.0000 2.9086
# 5 7.4004 2.4801 9.1381 0.0000 30.1234 0.0000
# 6 0.0000 0.0000 0.0000 2.9086 0.0000 37.1262
#
#
#
# Elastic Compliance Matrix: (Units=1/GPa)
#
#
# Indices 1 2 3 4 5 6 
#
# 1 0.011242 -0.004194 -0.004238 0.000000 -0.001131 0.000000
# 2 -0.004194 0.028003 -0.008209 0.000000 0.001215 0.000000
# 3 -0.004238 -0.008209 0.018649 0.000000 -0.003940 0.000000
# 4 0.000000 0.000000 0.000000 0.023130 0.000000 -0.001812
# 5 -0.001131 0.001215 -0.003940 0.000000 0.034570 0.000000
# 6 0.000000 0.000000 0.000000 -0.001812 0.000000 0.027077
#
#
# Mechanical properties :
#
#
# Convention : Reuss Voigt Hill
#
# Bulk Modulus (GPa) = 40.63069 48.55916 44.59492
# Shear Modulus (GPa) = 27.15073 31.70344 29.42708
#
# Velocity S-wave (km/s) = 3.46286 3.74194 3.60510
# Velocity P-wave (km/s) = 5.82525 6.33373 6.08480
#
# Compressibility (1/GPa) = 0.02461194
#
# Stress axis : x y z
#
# Youngs Moduli (GPa) = 88.94908 35.71068 53.62299
#
# Poissons Ratio (x) = 0.14978 0.22725
# Poissons Ratio (y) = 0.37307 0.44018
# Poissons Ratio (z) = 0.37696 0.29314
#
# Static dielectric constant tensor:
#      x y z
#    x 1.868030 0.000000 0.007430 
#    y 0.000000 1.923680 0.000000 
#    z 0.007430 0.000000 1.871160 
# 
# From -- ./inp_files/8083.got.cif
#   From: 2010.05.17/outbox.cif.g08.bks.cpg/sg4_5_cif.got.tgz:8083.got - 2010.06.03 18:43:04.
