data_PCOD9117451
_publ_section_title
;
Structure prediction by ZEFSAII (Michael W. Deem and Ramdas Pophale) SiO2 
 PCOD9117451
Probable space group: P 21
;
_chemical_formula_sum "Si O2"
_cell_formula_units_Z 14
_cell_length_a 9.935479
_cell_length_b 5.244231
_cell_length_c 18.263756
_cell_angle_alpha 90.000000
_cell_angle_beta 144.651496
_cell_angle_gamma 90.000000
_cell_volume 550.554552
_symmetry_space_group_name_H-M "P 21"
_symmetry_group_IT_number 4
_symmetry_cell_setting 'monoclinic'
loop_
_space_group_symop_operation_xyz
x,y,z
-x,1/2+y,-z
loop_
_atom_site_type_symbol
_atom_site_label
_atom_site_fract_x
_atom_site_fract_y
_atom_site_fract_z
Si Si1 0.888618 0.451640 0.915809
Si Si2 0.549284 0.886602 0.192066
Si Si3 0.327614 0.225097 0.485619
Si Si4 0.805659 0.441081 0.712520
Si Si5 0.370124 0.816548 0.960725
Si Si6 0.060394 0.082767 0.718151
Si Si7 0.021508 0.583165 0.557440
O O1 0.624961 0.361340 0.817813
O O2 0.903416 0.508763 0.835448
O O3 0.952186 0.713919 0.986846
O O4 0.736851 0.677559 0.246259
O O5 0.372181 0.908387 0.045311
O O6 0.729226 0.111213 0.291636
O O7 0.589145 0.248716 0.627940
O O8 0.171549 0.480050 0.422297
O O9 0.178843 0.040839 0.471552
O O10 0.315762 0.145572 0.395351
O O11 0.995007 0.302100 0.746365
O O12 0.546780 0.026824 0.005334
O O13 0.150328 0.858386 0.811896
O O14 0.034895 0.333705 0.513454
#
# Coordination Sequence:
#
# PCOD9117451 Si02
#       7
#     2   2   2   2   2   2   2
#     4  12  32  54  77 115 165 215 263 323 405 478
#     4  11  25  49  74 110 145 201 260 317 380 460
#     4  12  26  47  78 117 155 210 260 327 402 472
#     4  12  27  47  78 112 161 210 260 326 397 476
#     4  10  23  40  69 105 140 184 244 317 373 438
#     4  11  24  46  76 110 148 198 258 324 383 461
#     4  12  27  47  76 113 158 200 261 328 390 465
#
# _framework density 25.428906999999999
#
# number of rings (size 3 to 8) (size 9 to 14) (size 15 to 20)
#    0.000    0.571    2.857    3.429    6.000   10.286 
#    0.000    0.000    0.000    0.000    0.000    0.000 
#    0.000    0.000    0.000    0.000    0.000    0.000 
#
# Total GULP energy -78296.263836 kJ/mol
# GULP energy per Si atom -5592.590274 kJ/mol
# Density = 2.537103 g / cm^3
# Si number density = 25.428907 Si / 1000 Ang^3
#
#
#
# Elastic Constant Matrix: (Units=GPa)
#
#
# Indices 1 2 3 4 5 6 
#
# 1 107.5557 24.7328 29.4327 0.0000 -20.9348 0.0000
# 2 24.7328 81.4609 33.7400 0.0000 -8.0313 0.0000
# 3 29.4327 33.7400 96.1929 0.0000 -11.2707 0.0000
# 4 0.0000 0.0000 0.0000 36.6558 0.0000 -0.3429
# 5 -20.9348 -8.0313 -11.2707 0.0000 57.8033 0.0000
# 6 0.0000 0.0000 0.0000 -0.3429 0.0000 33.5180
#
#
#
# Elastic Compliance Matrix: (Units=1/GPa)
#
#
# Indices 1 2 3 4 5 6 
#
# 1 0.011032 -0.002092 -0.002259 0.000000 0.003264 0.000000
# 2 -0.002092 0.014820 -0.004509 0.000000 0.000422 0.000000
# 3 -0.002259 -0.004509 0.012791 0.000000 0.001049 0.000000
# 4 0.000000 0.000000 0.000000 0.027283 0.000000 0.000279
# 5 0.003264 0.000422 0.001049 0.000000 0.018746 0.000000
# 6 0.000000 0.000000 0.000000 0.000279 0.000000 0.029838
#
#
# Mechanical properties :
#
#
# Convention : Reuss Voigt Hill
#
# Bulk Modulus (GPa) = 47.79223 51.22450 49.50837
# Shear Modulus (GPa) = 35.91831 38.74900 37.33365
#
# Velocity S-wave (km/s) = 3.76240 3.90784 3.83581
# Velocity P-wave (km/s) = 6.14080 6.36786 6.25536
#
# Compressibility (1/GPa) = 0.02092390
#
# Stress axis : x y z
#
# Youngs Moduli (GPa) = 90.64360 67.47632 78.17720
#
# Poissons Ratio (x) = 0.14116 0.17663
# Poissons Ratio (y) = 0.18962 0.35247
# Poissons Ratio (z) = 0.20480 0.30422
#
# Static dielectric constant tensor:
#      x y z
#    x 2.039660 0.000000 -0.021280 
#    y 0.000000 2.030290 0.000000 
#    z -0.021280 0.000000 2.047170 
# 
# From -- ./inp_files/7083.got.cif
#   From: 2010.05.17/outbox.cif.g08.bks.cpg/sg4_4_cif.got.tgz:7083.got - 2010.06.03 18:43:04.
