data_PCOD9117756
_publ_section_title
;
Structure prediction by ZEFSAII (Michael W. Deem and Ramdas Pophale) SiO2 
 PCOD9117756
Probable space group: P 21
;
_chemical_formula_sum "Si O2"
_cell_formula_units_Z 14
_cell_length_a 5.189405
_cell_length_b 12.055189
_cell_length_c 9.365994
_cell_angle_alpha 90.000000
_cell_angle_beta 80.006222
_cell_angle_gamma 90.000000
_cell_volume 577.039094
_symmetry_space_group_name_H-M "P 21"
_symmetry_group_IT_number 4
_symmetry_cell_setting 'monoclinic'
loop_
_space_group_symop_operation_xyz
x,y,z
-x,1/2+y,-z
loop_
_atom_site_type_symbol
_atom_site_label
_atom_site_fract_x
_atom_site_fract_y
_atom_site_fract_z
Si Si1 0.521915 0.167420 0.817172
Si Si2 0.484753 0.392766 0.872152
Si Si3 0.200726 0.511424 0.663047
Si Si4 0.137485 0.455029 0.148737
Si Si5 0.843377 0.576529 0.928168
Si Si6 0.451019 0.196464 0.509059
Si Si7 0.972399 0.345599 0.454451
O O1 0.658981 0.285956 0.825022
O O2 0.386166 0.163875 0.677634
O O3 0.716625 0.065755 0.811828
O O4 0.306299 0.165165 0.963011
O O5 0.289510 0.410932 0.758640
O O6 0.634011 0.508002 0.859483
O O7 0.354152 0.387211 0.040088
O O8 0.430723 0.584551 0.571817
O O9 0.029785 0.449184 0.557425
O O10 0.061906 0.596715 0.788701
O O11 0.008467 0.392387 0.291399
O O12 0.946608 0.493824 0.041181
O O13 0.201028 0.254353 0.461450
O O14 0.691181 0.285681 0.492534
#
# Coordination Sequence:
#
# PCOD9117756 Si02
#       7
#     2   2   2   2   2   2   2
#     4  11  23  45  73 102 143 197 246 298 374 432
#     4  10  23  45  70 102 145 194 243 305 366 429
#     4  11  25  48  72 109 149 187 254 303 366 438
#     4  10  25  43  69 108 142 193 240 309 355 450
#     4  10  25  45  72 100 147 194 244 309 360 440
#     4  12  29  44  79 109 151 195 244 301 377 429
#     4  12  28  48  75 114 147 196 241 311 366 436
#
# _framework density 24.261790000000001
#
# number of rings (size 3 to 8) (size 9 to 14) (size 15 to 20)
#    0.000    1.143    2.857    0.857   10.000    4.571 
#    0.000    0.000    0.000    0.000    0.000    0.000 
#    0.000    0.000    0.000    0.000    0.000    0.000 
#
# Total GULP energy -78252.401618 kJ/mol
# GULP energy per Si atom -5589.457258 kJ/mol
# Density = 2.420657 g / cm^3
# Si number density = 24.261790 Si / 1000 Ang^3
#
#
#
# Elastic Constant Matrix: (Units=GPa)
#
#
# Indices 1 2 3 4 5 6 
#
# 1 61.6620 4.2464 3.3364 0.0000 4.2121 0.0000
# 2 4.2464 74.3884 47.0622 0.0000 -13.1449 0.0000
# 3 3.3364 47.0622 97.2236 0.0000 6.7014 0.0000
# 4 0.0000 0.0000 0.0000 26.8031 0.0000 -1.7270
# 5 4.2121 -13.1449 6.7014 0.0000 34.4133 0.0000
# 6 0.0000 0.0000 0.0000 -1.7270 0.0000 21.6445
#
#
#
# Elastic Compliance Matrix: (Units=1/GPa)
#
#
# Indices 1 2 3 4 5 6 
#
# 1 0.016500 -0.001719 0.000457 0.000000 -0.002765 0.000000
# 2 -0.001719 0.023064 -0.011887 0.000000 0.011335 0.000000
# 3 0.000457 -0.011887 0.016563 0.000000 -0.007822 0.000000
# 4 0.000000 0.000000 0.000000 0.037502 0.000000 0.002992
# 5 -0.002765 0.011335 -0.007822 0.000000 0.035250 0.000000
# 6 0.000000 0.000000 0.000000 0.002992 0.000000 0.046440
#
#
# Mechanical properties :
#
#
# Convention : Reuss Voigt Hill
#
# Bulk Modulus (GPa) = 33.52538 38.06267 35.79402
# Shear Modulus (GPa) = 23.63380 28.48078 26.05729
#
# Velocity S-wave (km/s) = 3.12447 3.42993 3.28076
# Velocity P-wave (km/s) = 5.18311 5.60431 5.39782
#
# Compressibility (1/GPa) = 0.02982815
#
# Stress axis : x y z
#
# Youngs Moduli (GPa) = 60.60592 43.35673 60.37535
#
# Poissons Ratio (x) = 0.07455 -0.02757
# Poissons Ratio (y) = 0.10421 0.71768
# Poissons Ratio (z) = -0.02768 0.51538
#
# Static dielectric constant tensor:
#      x y z
#    x 2.020750 0.000000 -0.063500 
#    y 0.000000 1.957490 0.000000 
#    z -0.063500 0.000000 1.940730 
# 
# From -- ./inp_files/1123.got.cif
#   From: 2010.05.17/outbox.cif.g08.bks.cpg/sg4_1_cif.got.tgz:1123.got - 2010.06.03 18:43:04.
