data_PCOD9117928
_publ_section_title
;
Structure prediction by ZEFSAII (Michael W. Deem and Ramdas Pophale) SiO2 
 PCOD9117928
Probable space group: P 21
;
_chemical_formula_sum "Si O2"
_cell_formula_units_Z 10
_cell_length_a 10.032960
_cell_length_b 6.843816
_cell_length_c 7.016635
_cell_angle_alpha 90.000000
_cell_angle_beta 135.034714
_cell_angle_gamma 90.000000
_cell_volume 340.469338
_symmetry_space_group_name_H-M "P 21"
_symmetry_group_IT_number 4
_symmetry_cell_setting 'monoclinic'
loop_
_space_group_symop_operation_xyz
x,y,z
-x,1/2+y,-z
loop_
_atom_site_type_symbol
_atom_site_label
_atom_site_fract_x
_atom_site_fract_y
_atom_site_fract_z
Si Si1 0.308240 0.889240 0.697648
Si Si2 0.534719 0.409774 0.764778
Si Si3 0.097607 0.666285 0.915150
Si Si4 0.273056 0.157975 0.301019
Si Si5 0.058958 0.505814 0.504800
O O1 0.194069 0.682318 0.569804
O O2 0.333635 0.999170 0.525518
O O3 0.165106 0.028171 0.674431
O O4 0.477491 0.874318 0.021537
O O5 0.349460 0.359567 0.460517
O O6 0.611055 0.615557 0.771202
O O7 0.700770 0.263611 0.858055
O O8 0.952835 0.630381 0.940270
O O9 0.122975 0.486973 0.793555
O O10 0.972536 0.824141 0.666760
#
# Coordination Sequence:
#
# PCOD9117928 Si02
#       5
#     2   2   2   2   2
#     4   9  19  38  62  87 116 152 189 242 294 334
#     4  10  24  40  56  90 118 148 200 236 282 354
#     4   9  19  38  62  87 116 152 189 242 294 334
#     4  11  24  39  60  86 118 155 194 239 288 342
#     4   7  14  33  60  88 112 141 192 229 278 356
#
# _framework density 29.371220999999998
#
# number of rings (size 3 to 8) (size 9 to 14) (size 15 to 20)
#    0.000    3.200    0.000    0.000    0.000   11.200 
#    0.000   16.000    0.000    0.000    0.000    0.000 
#    0.000    0.000    0.000    0.000    0.000    0.000 
#
# Total GULP energy -55797.485440 kJ/mol
# GULP energy per Si atom -5579.748544 kJ/mol
# Density = 2.930437 g / cm^3
# Si number density = 29.371221 Si / 1000 Ang^3
#
#
#
# Elastic Constant Matrix: (Units=GPa)
#
#
# Indices 1 2 3 4 5 6 
#
# 1 102.9968 22.8208 10.6880 0.0000 8.3318 0.0000
# 2 22.8208 107.5497 14.3474 0.0000 -8.2245 0.0000
# 3 10.6880 14.3474 69.5150 0.0000 -3.1759 0.0000
# 4 0.0000 0.0000 0.0000 57.1487 0.0000 1.4029
# 5 8.3318 -8.2245 -3.1759 0.0000 45.1730 0.0000
# 6 0.0000 0.0000 0.0000 1.4029 0.0000 57.4627
#
#
#
# Elastic Compliance Matrix: (Units=1/GPa)
#
#
# Indices 1 2 3 4 5 6 
#
# 1 0.010537 -0.002254 -0.001267 0.000000 -0.002443 0.000000
# 2 -0.002254 0.010161 -0.001652 0.000000 0.002150 0.000000
# 3 -0.001267 -0.001652 0.014966 0.000000 0.000985 0.000000
# 4 0.000000 0.000000 0.000000 0.017509 0.000000 -0.000427
# 5 -0.002443 0.002150 0.000985 0.000000 0.023048 0.000000
# 6 0.000000 0.000000 0.000000 -0.000427 0.000000 0.017413
#
#
# Mechanical properties :
#
#
# Convention : Reuss Voigt Hill
#
# Bulk Modulus (GPa) = 39.49591 41.75265 40.62428
# Shear Modulus (GPa) = 44.47605 47.43724 45.95664
#
# Velocity S-wave (km/s) = 3.89559 4.02318 3.95990
# Velocity P-wave (km/s) = 5.80607 5.98562 5.89653
#
# Compressibility (1/GPa) = 0.02531908
#
# Stress axis : x y z
#
# Youngs Moduli (GPa) = 94.89959 98.41481 66.81729
#
# Poissons Ratio (x) = 0.22180 0.08463
# Poissons Ratio (y) = 0.21388 0.11041
# Poissons Ratio (z) = 0.12020 0.16263
#
# Static dielectric constant tensor:
#      x y z
#    x 2.378890 0.000000 -0.057150 
#    y 0.000000 2.452680 0.000000 
#    z -0.057150 0.000000 2.307660 
# 
# From -- ./inp_files/7428.got.cif
#   From: 2010.05.17/outbox.cif.g08.bks.cpg/sg4_4_cif.got.tgz:7428.got - 2010.06.03 18:43:04.
