data_PCOD9117502
_publ_section_title
;
Structure prediction by ZEFSAII (Michael W. Deem and Ramdas Pophale) SiO2 
 PCOD9117502
Probable space group: P 21
;
_chemical_formula_sum "Si O2"
_cell_formula_units_Z 14
_cell_length_a 5.109885
_cell_length_b 11.976865
_cell_length_c 8.862645
_cell_angle_alpha 90.000000
_cell_angle_beta 97.118237
_cell_angle_gamma 90.000000
_cell_volume 538.216941
_symmetry_space_group_name_H-M "P 21"
_symmetry_group_IT_number 4
_symmetry_cell_setting 'monoclinic'
loop_
_space_group_symop_operation_xyz
x,y,z
-x,1/2+y,-z
loop_
_atom_site_type_symbol
_atom_site_label
_atom_site_fract_x
_atom_site_fract_y
_atom_site_fract_z
Si Si1 0.256532 0.293940 0.381643
Si Si2 0.290352 0.813950 0.802769
Si Si3 0.528426 0.365415 0.694201
Si Si4 0.538696 0.117578 0.792215
Si Si5 0.212909 0.053570 0.468196
Si Si6 0.207949 0.561863 0.775501
Si Si7 0.908218 0.523913 0.047309
O O1 0.443696 0.343243 0.265993
O O2 0.313338 0.329687 0.554538
O O3 0.315552 0.161372 0.382634
O O4 0.956962 0.321145 0.327404
O O5 0.298640 0.682941 0.839033
O O6 0.202862 0.900723 0.923180
O O7 0.611681 0.247544 0.769573
O O8 0.724195 0.435857 0.602810
O O9 0.401533 0.456934 0.795106
O O10 0.362006 0.069863 0.637760
O O11 0.322143 0.104437 0.908935
O O12 0.815184 0.055303 0.847824
O O13 0.900895 0.069104 0.406564
O O14 0.976454 0.534419 0.877326
#
# Coordination Sequence:
#
# PCOD9117502 Si02
#       7
#     2   2   2   2   2   2   2
#     4  10  23  41  71 105 135 189 232 301 346 430
#     4  11  23  47  71  99 148 186 238 285 367 427
#     4  11  24  43  74 105 148 181 247 302 360 420
#     4  11  29  47  76 103 149 190 245 294 366 430
#     4  10  23  45  71 107 140 186 245 295 363 422
#     4  11  28  44  75 109 145 191 242 300 366 426
#     4  12  28  49  70 108 147 197 237 295 362 439
#
# _framework density 26.011814999999999
#
# number of rings (size 3 to 8) (size 9 to 14) (size 15 to 20)
#    0.000    1.143    1.429    2.571   12.000    2.286 
#    0.000    0.000    0.000    0.000    0.000    0.000 
#    0.000    0.000    0.000    0.000    0.000    0.000 
#
# Total GULP energy -78280.435111 kJ/mol
# GULP energy per Si atom -5591.459651 kJ/mol
# Density = 2.595261 g / cm^3
# Si number density = 26.011815 Si / 1000 Ang^3
#
#
#
# Elastic Constant Matrix: (Units=GPa)
#
#
# Indices 1 2 3 4 5 6 
#
# 1 134.7991 45.9849 41.4441 0.0000 6.8743 0.0000
# 2 45.9849 181.7491 43.5186 0.0000 -0.4280 0.0000
# 3 41.4441 43.5186 112.1062 0.0000 21.3158 0.0000
# 4 0.0000 0.0000 0.0000 34.8819 0.0000 -14.4160
# 5 6.8743 -0.4280 21.3158 0.0000 59.2772 0.0000
# 6 0.0000 0.0000 0.0000 -14.4160 0.0000 35.9874
#
#
#
# Elastic Compliance Matrix: (Units=1/GPa)
#
#
# Indices 1 2 3 4 5 6 
#
# 1 0.008768 -0.001595 -0.002605 0.000000 -0.000092 0.000000
# 2 -0.001595 0.006407 -0.002084 0.000000 0.000981 0.000000
# 3 -0.002605 -0.002084 0.011418 0.000000 -0.003819 0.000000
# 4 0.000000 0.000000 0.000000 0.034356 0.000000 0.013762
# 5 -0.000092 0.000981 -0.003819 0.000000 0.018261 0.000000
# 6 0.000000 0.000000 0.000000 0.013762 0.000000 0.033301
#
#
# Mechanical properties :
#
#
# Convention : Reuss Voigt Hill
#
# Bulk Modulus (GPa) = 71.29771 76.72776 74.01274
# Shear Modulus (GPa) = 38.53469 45.87642 42.20556
#
# Velocity S-wave (km/s) = 3.85311 4.20417 4.03246
# Velocity P-wave (km/s) = 6.87492 7.28890 7.08493
#
# Compressibility (1/GPa) = 0.01402570
#
# Stress axis : x y z
#
# Youngs Moduli (GPa) = 114.05002 156.08113 87.57964
#
# Poissons Ratio (x) = 0.24894 0.22813
# Poissons Ratio (y) = 0.18190 0.18251
# Poissons Ratio (z) = 0.29709 0.32526
#
# Static dielectric constant tensor:
#      x y z
#    x 2.077610 0.000000 0.051380 
#    y 0.000000 2.105100 0.000000 
#    z 0.051380 0.000000 2.070570 
# 
# From -- ./inp_files/4644.got.cif
#   From: 2010.05.17/outbox.cif.g08.bks.cpg/sg4_3_cif.got.tgz:4644.got - 2010.06.03 18:43:04.
