data_PCOD9117162
_publ_section_title
;
Structure prediction by ZEFSAII (Michael W. Deem and Ramdas Pophale) SiO2 
 PCOD9117162
Probable space group: P 21
;
_chemical_formula_sum "Si O2"
_cell_formula_units_Z 16
_cell_length_a 7.947263
_cell_length_b 11.567935
_cell_length_c 8.020051
_cell_angle_alpha 90.000000
_cell_angle_beta 120.898811
_cell_angle_gamma 90.000000
_cell_volume 632.668321
_symmetry_space_group_name_H-M "P 21"
_symmetry_group_IT_number 4
_symmetry_cell_setting 'monoclinic'
loop_
_space_group_symop_operation_xyz
x,y,z
-x,1/2+y,-z
loop_
_atom_site_type_symbol
_atom_site_label
_atom_site_fract_x
_atom_site_fract_y
_atom_site_fract_z
Si Si1 0.523929 0.956190 0.407683
Si Si2 0.907452 0.012233 0.180794
Si Si3 0.811098 0.297081 0.696798
Si Si4 0.281370 0.046470 0.965612
Si Si5 0.235225 0.722780 0.667846
Si Si6 0.891019 0.710138 0.915045
Si Si7 0.479985 0.444460 0.209210
Si Si8 0.074425 0.388208 0.318103
O O1 0.404226 0.837773 0.364961
O O2 0.509768 0.995325 0.596205
O O3 0.752470 0.941773 0.487419
O O4 0.415541 0.014744 0.195055
O O5 0.793311 0.105074 0.241836
O O6 0.060723 0.095480 0.162789
O O7 0.052227 0.904401 0.300451
O O8 0.736995 0.959156 0.978197
O O9 0.799476 0.203167 0.545826
O O10 0.902839 0.255106 0.914127
O O11 0.224022 0.177136 0.977388
O O12 0.388335 0.022747 0.847762
O O13 0.076469 0.975739 0.846441
O O14 0.418626 0.815642 0.760124
O O15 0.060324 0.801260 0.649491
O O16 0.809223 0.807801 0.754800
#
# Coordination Sequence:
#
# PCOD9117162 Si02
#       8
#     2   2   2   2   2   2   2   2
#     4  11  22  44  67  97 137 191 233 300 364 429
#     4  11  23  46  71 100 152 193 233 317 369 427
#     4  11  23  42  69 102 146 186 248 307 359 449
#     4  11  23  44  66 100 138 185 243 297 366 437
#     4   9  24  44  69 106 140 188 250 294 375 448
#     4  11  21  43  67  96 145 187 236 304 373 421
#     4  10  24  43  68 102 143 184 246 303 356 444
#     4  10  22  44  67  97 139 182 237 302 354 441
#
# _framework density 25.289712999999999
#
# number of rings (size 3 to 8) (size 9 to 14) (size 15 to 20)
#    0.000    1.500    2.500    1.500    1.750    6.000 
#    6.750    0.000    0.000    0.000    0.000    0.000 
#    0.000    0.000    0.000    0.000    0.000    0.000 
#
# Total GULP energy -89320.149586 kJ/mol
# GULP energy per Si atom -5582.509349 kJ/mol
# Density = 2.523215 g / cm^3
# Si number density = 25.289713 Si / 1000 Ang^3
#
#
#
# Elastic Constant Matrix: (Units=GPa)
#
#
# Indices 1 2 3 4 5 6 
#
# 1 86.1856 23.4547 16.8696 0.0000 17.4365 0.0000
# 2 23.4547 80.5828 27.8292 0.0000 3.0758 0.0000
# 3 16.8696 27.8292 122.0359 0.0000 24.4960 0.0000
# 4 0.0000 0.0000 0.0000 30.6660 0.0000 -11.7794
# 5 17.4365 3.0758 24.4960 0.0000 47.3487 0.0000
# 6 0.0000 0.0000 0.0000 -11.7794 0.0000 40.1399
#
#
#
# Elastic Compliance Matrix: (Units=1/GPa)
#
#
# Indices 1 2 3 4 5 6 
#
# 1 0.013594 -0.003750 -0.000076 0.000000 -0.004723 0.000000
# 2 -0.003750 0.014532 -0.003217 0.000000 0.002102 0.000000
# 3 -0.000076 -0.003217 0.009921 0.000000 -0.004896 0.000000
# 4 0.000000 0.000000 0.000000 0.036752 0.000000 0.010785
# 5 -0.004723 0.002102 -0.004896 0.000000 0.025256 0.000000
# 6 0.000000 0.000000 0.000000 0.010785 0.000000 0.028078
#
#
# Mechanical properties :
#
#
# Convention : Reuss Voigt Hill
#
# Bulk Modulus (GPa) = 41.73569 47.23460 44.48515
# Shear Modulus (GPa) = 33.28755 38.34098 35.81426
#
# Velocity S-wave (km/s) = 3.63195 3.89790 3.76727
# Velocity P-wave (km/s) = 5.84183 6.24308 6.04579
#
# Compressibility (1/GPa) = 0.02396031
#
# Stress axis : x y z
#
# Youngs Moduli (GPa) = 73.56258 68.81354 100.79424
#
# Poissons Ratio (x) = 0.25806 0.00765
# Poissons Ratio (y) = 0.27587 0.32429
# Poissons Ratio (z) = 0.00558 0.22140
#
# Static dielectric constant tensor:
#      x y z
#    x 2.055510 0.000000 -0.026350 
#    y 0.000000 1.988920 0.000000 
#    z -0.026350 0.000000 2.019930 
# 
# From -- ./inp_files/6485.got.cif
#   From: 2010.05.17/outbox.cif.g08.bks.cpg/sg4_4_cif.got.tgz:6485.got - 2010.06.03 18:43:04.
