data_PCOD9117954
_publ_section_title
;
Structure prediction by ZEFSAII (Michael W. Deem and Ramdas Pophale) SiO2 
 PCOD9117954
Probable space group: P 21
;
_chemical_formula_sum "Si O2"
_cell_formula_units_Z 12
_cell_length_a 17.437903
_cell_length_b 5.040415
_cell_length_c 5.010466
_cell_angle_alpha 90.000000
_cell_angle_beta 74.237529
_cell_angle_gamma 90.000000
_cell_volume 423.830827
_symmetry_space_group_name_H-M "P 21"
_symmetry_group_IT_number 4
_symmetry_cell_setting 'monoclinic'
loop_
_space_group_symop_operation_xyz
x,y,z
-x,1/2+y,-z
loop_
_atom_site_type_symbol
_atom_site_label
_atom_site_fract_x
_atom_site_fract_y
_atom_site_fract_z
Si Si1 0.485881 0.763340 0.835446
Si Si2 0.062862 0.289418 0.719830
Si Si3 0.628384 0.964621 0.397591
Si Si4 0.780786 0.667966 0.281168
Si Si5 0.098594 0.790097 0.312198
Si Si6 0.747874 0.154350 0.643909
O O1 0.403910 0.681518 0.773289
O O2 0.553853 0.784315 0.543585
O O3 0.516041 0.536944 0.006260
O O4 0.224899 0.355781 0.448375
O O5 0.077535 0.560096 0.545910
O O6 0.128860 0.239321 0.890071
O O7 0.967613 0.266907 0.858296
O O8 0.655967 0.109054 0.647019
O O9 0.703064 0.794344 0.211734
O O10 0.918085 0.555084 0.507002
O O11 0.769614 0.372220 0.395541
O O12 0.194192 0.757421 0.175174
#
# Coordination Sequence:
#
# PCOD9117954 Si02
#       6
#     2   2   2   2   2   2
#     4  12  28  42  66  96 118 166 216 256 326 382
#     4   8  12  20  35  65 104 138 179 233 272 337
#     4  10  24  42  64  80 130 154 200 268 304 362
#     4   8  16  27  50  74 103 159 185 228 312 341
#     4   8  12  20  35  65 104 138 179 233 272 337
#     4   8  16  27  50  74 103 159 185 228 312 341
#
# _framework density 28.313186000000002
#
# number of rings (size 3 to 8) (size 9 to 14) (size 15 to 20)
#    1.000    2.000    0.000    1.000    7.000    0.000 
#    0.000    0.000    0.000    0.000    0.000    0.000 
#    0.000    5.333    0.000    0.333    0.000    0.000 
#
# Total GULP energy -66968.151305 kJ/mol
# GULP energy per Si atom -5580.679275 kJ/mol
# Density = 2.824874 g / cm^3
# Si number density = 28.313186 Si / 1000 Ang^3
#
#
#
# Elastic Constant Matrix: (Units=GPa)
#
#
# Indices 1 2 3 4 5 6 
#
# 1 180.9798 2.8222 25.8811 0.0000 31.4563 0.0000
# 2 2.8222 148.6692 36.5450 0.0000 -6.3277 0.0000
# 3 25.8811 36.5450 83.3696 0.0000 2.3973 0.0000
# 4 0.0000 0.0000 0.0000 15.1302 0.0000 -0.3668
# 5 31.4563 -6.3277 2.3973 0.0000 21.5599 0.0000
# 6 0.0000 0.0000 0.0000 -0.3668 0.0000 51.6293
#
#
#
# Elastic Compliance Matrix: (Units=1/GPa)
#
#
# Indices 1 2 3 4 5 6 
#
# 1 0.007750 -0.000120 -0.002034 0.000000 -0.011117 0.000000
# 2 -0.000120 0.007687 -0.003413 0.000000 0.002811 0.000000
# 3 -0.002034 -0.003413 0.014111 0.000000 0.000396 0.000000
# 4 0.000000 0.000000 0.000000 0.066104 0.000000 0.000470
# 5 -0.011117 0.002811 0.000396 0.000000 0.063384 0.000000
# 6 0.000000 0.000000 0.000000 0.000470 0.000000 0.019372
#
#
# Mechanical properties :
#
#
# Convention : Reuss Voigt Hill
#
# Bulk Modulus (GPa) = 54.30570 60.39059 57.34814
# Shear Modulus (GPa) = 25.55173 40.84856 33.20015
#
# Velocity S-wave (km/s) = 3.00737 3.80246 3.42805
# Velocity P-wave (km/s) = 5.59294 6.37606 5.99730
#
# Compressibility (1/GPa) = 0.01841427
#
# Stress axis : x y z
#
# Youngs Moduli (GPa) = 129.02422 130.08472 70.86739
#
# Poissons Ratio (x) = 0.01567 0.14411
# Poissons Ratio (y) = 0.01554 0.24188
# Poissons Ratio (z) = 0.26238 0.44400
#
# Static dielectric constant tensor:
#      x y z
#    x 2.460970 0.000000 -0.063040 
#    y 0.000000 2.111020 0.000000 
#    z -0.063040 0.000000 2.223660 
# 
# From -- ./inp_files/3979.got.cif
#   From: 2010.05.17/outbox.cif.g08.bks.cpg/sg4_2_cif.got.tgz:3979.got - 2010.06.03 18:43:04.
