data_PCOD9117326
_publ_section_title
;
Structure prediction by ZEFSAII (Michael W. Deem and Ramdas Pophale) SiO2 
 PCOD9117326
Probable space group: P 21
;
_chemical_formula_sum "Si O2"
_cell_formula_units_Z 16
_cell_length_a 9.900882
_cell_length_b 5.152047
_cell_length_c 20.299710
_cell_angle_alpha 90.000000
_cell_angle_beta 37.034412
_cell_angle_gamma 90.000000
_cell_volume 623.666602
_symmetry_space_group_name_H-M "P 21"
_symmetry_group_IT_number 4
_symmetry_cell_setting 'monoclinic'
loop_
_space_group_symop_operation_xyz
x,y,z
-x,1/2+y,-z
loop_
_atom_site_type_symbol
_atom_site_label
_atom_site_fract_x
_atom_site_fract_y
_atom_site_fract_z
Si Si1 0.519859 0.820300 0.255734
Si Si2 0.799819 0.139635 0.983104
Si Si3 0.967843 0.728158 0.242626
Si Si4 0.016110 0.872307 0.646952
Si Si5 0.795156 0.322202 0.128659
Si Si6 0.891405 0.597899 0.515515
Si Si7 0.518885 0.155856 0.533144
Si Si8 0.324506 0.990612 0.198150
O O1 0.626427 0.537791 0.224536
O O2 0.336093 0.952092 0.374676
O O3 0.409386 0.816817 0.225581
O O4 0.716466 0.034761 0.177246
O O5 0.912879 0.243054 0.873335
O O6 0.791437 0.324601 0.050426
O O7 0.959688 0.901804 0.942557
O O8 0.544688 0.053038 0.070514
O O9 0.119076 0.900289 0.232877
O O10 0.983062 0.457402 0.277290
O O11 0.698167 0.759592 0.342392
O O12 0.068561 0.110454 0.578167
O O13 0.225402 0.691634 0.545245
O O14 0.779070 0.742614 0.726278
O O15 0.925924 0.883784 0.530930
O O16 0.510983 0.356703 0.474409
#
# Coordination Sequence:
#
# PCOD9117326 Si02
#       8
#     2   2   2   2   2   2   2   2
#     4  11  25  47  79 109 153 202 254 318 380 459
#     4  11  27  49  78 109 152 204 257 323 383 459
#     4  11  26  47  73 109 146 203 249 313 388 456
#     4  11  25  46  70 106 151 190 250 313 376 464
#     4  11  26  53  72 112 150 199 260 317 381 454
#     4  12  25  43  75 114 150 199 252 310 390 455
#     4  10  22  46  68  99 142 187 234 298 364 442
#     4  11  24  45  71 106 148 194 244 320 370 455
#
# _framework density 25.654731000000002
#
# number of rings (size 3 to 8) (size 9 to 14) (size 15 to 20)
#    0.000    1.000    2.500    3.000    8.750    0.000 
#   15.750    0.000    0.000    0.000    0.000    0.000 
#    0.000    0.000    0.000    0.000    0.000    0.000 
#
# Total GULP energy -89472.217717 kJ/mol
# GULP energy per Si atom -5592.013607 kJ/mol
# Density = 2.559634 g / cm^3
# Si number density = 25.654731 Si / 1000 Ang^3
#
#
#
# Elastic Constant Matrix: (Units=GPa)
#
#
# Indices 1 2 3 4 5 6 
#
# 1 69.8375 30.3672 44.8302 0.0000 -2.0864 0.0000
# 2 30.3672 89.3263 2.7020 0.0000 -15.3331 0.0000
# 3 44.8302 2.7020 177.5373 0.0000 -20.9196 0.0000
# 4 0.0000 0.0000 0.0000 39.7416 0.0000 -13.3413
# 5 -2.0864 -15.3331 -20.9196 0.0000 46.6889 0.0000
# 6 0.0000 0.0000 0.0000 -13.3413 0.0000 37.8404
#
#
#
# Elastic Compliance Matrix: (Units=1/GPa)
#
#
# Indices 1 2 3 4 5 6 
#
# 1 0.021258 -0.007770 -0.005742 0.000000 -0.004174 0.000000
# 2 -0.007770 0.014718 0.002393 0.000000 0.005559 0.000000
# 3 -0.005742 0.002393 0.007505 0.000000 0.003892 0.000000
# 4 0.000000 0.000000 0.000000 0.028541 0.000000 0.010062
# 5 -0.004174 0.005559 0.003892 0.000000 0.024801 0.000000
# 6 0.000000 0.000000 0.000000 0.010062 0.000000 0.029974
#
#
# Mechanical properties :
#
#
# Convention : Reuss Voigt Hill
#
# Bulk Modulus (GPa) = 47.07182 54.72219 50.89700
# Shear Modulus (GPa) = 32.02755 42.10765 37.06760
#
# Velocity S-wave (km/s) = 3.53711 4.05572 3.80526
# Velocity P-wave (km/s) = 5.92196 6.58091 6.26011
#
# Compressibility (1/GPa) = 0.02124413
#
# Stress axis : x y z
#
# Youngs Moduli (GPa) = 47.04010 67.94363 133.25151
#
# Poissons Ratio (x) = 0.52791 0.76508
# Poissons Ratio (y) = 0.36549 -0.31886
# Poissons Ratio (z) = 0.27009 -0.16259
#
# Static dielectric constant tensor:
#      x y z
#    x 2.108520 0.000000 -0.008920 
#    y 0.000000 2.044270 0.000000 
#    z -0.008920 0.000000 1.997150 
# 
# From -- ./inp_files/16110.got.cif
#   From: 2010.05.17/outbox.cif.g08.bks.cpg/sg4_9_cif.got.tgz:16110.got - 2010.06.03 18:43:04.
