data_PCOD9117953
_publ_section_title
;
Structure prediction by ZEFSAII (Michael W. Deem and Ramdas Pophale) SiO2 
 PCOD9117953
Probable space group: P 21
;
_chemical_formula_sum "Si O2"
_cell_formula_units_Z 14
_cell_length_a 4.965343
_cell_length_b 25.511565
_cell_length_c 4.965351
_cell_angle_alpha 90.000000
_cell_angle_beta 127.059289
_cell_angle_gamma 90.000000
_cell_volume 501.933188
_symmetry_space_group_name_H-M "P 21"
_symmetry_group_IT_number 4
_symmetry_cell_setting 'monoclinic'
loop_
_space_group_symop_operation_xyz
x,y,z
-x,1/2+y,-z
loop_
_atom_site_type_symbol
_atom_site_label
_atom_site_fract_x
_atom_site_fract_y
_atom_site_fract_z
Si Si1 0.839698 0.287000 0.160278
Si Si2 0.668650 0.709780 0.299117
Si Si3 0.241228 0.936476 0.395627
Si Si4 0.975977 0.568841 0.343552
Si Si5 0.700944 0.864219 0.331303
Si Si6 0.343507 0.505155 0.976022
Si Si7 0.395687 0.137522 0.241175
O O1 0.665739 0.245476 0.854738
O O2 0.527024 0.327067 0.993346
O O3 0.006666 0.246924 0.472909
O O4 0.145195 0.328532 0.334274
O O5 0.660052 0.683940 0.003489
O O6 0.654760 0.663001 0.502189
O O7 0.996568 0.890057 0.339889
O O8 0.497856 0.910999 0.345160
O O9 0.422952 0.958444 0.771380
O O10 0.016531 0.983348 0.129889
O O11 0.596397 0.552929 0.216046
O O12 0.870062 0.590651 0.983518
O O13 0.216002 0.521067 0.596441
O O14 0.228565 0.615552 0.577104
#
# Coordination Sequence:
#
# PCOD9117953 Si02
#       7
#     2   2   2   2   2   2   2
#     4  10  24  42  64 100 138 178 236 286 348 408
#     4  11  24  42  67  98 138 184 231 290 348 419
#     4  11  22  42  67  96 138 184 231 284 354 419
#     4   9  20  40  65  98 136 176 229 286 346 415
#     4  11  24  42  67  98 138 184 231 290 348 419
#     4   9  20  40  65  98 136 176 229 286 346 415
#     4  11  22  42  67  96 138 184 231 284 354 419
#
# _framework density 27.892154999999999
#
# number of rings (size 3 to 8) (size 9 to 14) (size 15 to 20)
#    0.000    1.714    0.000    3.429    0.000    4.571 
#    0.000   21.429    0.000    0.000    0.000    0.000 
#    0.000    0.000    0.000    0.000    0.000    0.000 
#
# Total GULP energy -78053.231189 kJ/mol
# GULP energy per Si atom -5575.230799 kJ/mol
# Density = 2.782867 g / cm^3
# Si number density = 27.892155 Si / 1000 Ang^3
#
#
#
# Elastic Constant Matrix: (Units=GPa)
#
#
# Indices 1 2 3 4 5 6 
#
# 1 68.0702 33.9939 48.3368 0.0000 8.7857 0.0000
# 2 33.9939 150.8780 79.9910 0.0000 19.3029 0.0000
# 3 48.3368 79.9910 195.5652 0.0000 44.7048 0.0000
# 4 0.0000 0.0000 0.0000 92.0431 0.0000 59.6910
# 5 8.7857 19.3029 44.7048 0.0000 35.4082 0.0000
# 6 0.0000 0.0000 0.0000 59.6910 0.0000 -50.2329
#
#
#
# Elastic Compliance Matrix: (Units=1/GPa)
#
#
# Indices 1 2 3 4 5 6 
#
# 1 0.018455 -0.002237 -0.004046 0.000000 0.001749 0.000000
# 2 -0.002237 0.008737 -0.002894 0.000000 -0.000554 0.000000
# 3 -0.004046 -0.002894 0.009428 0.000000 -0.009322 0.000000
# 4 0.000000 0.000000 0.000000 0.006136 0.000000 0.007291
# 5 0.001749 -0.000554 -0.009322 0.000000 0.039879 0.000000
# 6 0.000000 0.000000 0.000000 0.007291 0.000000 -0.011243
#
#
# Mechanical properties :
#
#
# Convention : Reuss Voigt Hill
#
# Bulk Modulus (GPa) = 54.74627 82.12855 68.43741
# Shear Modulus (GPa) = 52.17233 32.25646 42.21440
#
# Velocity S-wave (km/s) = 4.32962 3.40438 3.89458
# Velocity P-wave (km/s) = 6.68316 6.70537 6.69428
#
# Compressibility (1/GPa) = 0.01826608
#
# Stress axis : x y z
#
# Youngs Moduli (GPa) = 54.18490 114.45438 106.06403
#
# Poissons Ratio (x) = 0.25598 0.42919
# Poissons Ratio (y) = 0.12119 0.30698
# Poissons Ratio (z) = 0.21926 0.33126
#
# Static dielectric constant tensor:
#      x y z
#    x 2.187710 0.000000 -0.018770 
#    y 0.000000 2.235450 0.000000 
#    z -0.018770 0.000000 2.142970 
# 
# From -- ./inp_files/817.got.cif
#   From: 2010.05.17/outbox.cif.g08.bks.cpg/sg4_1_cif.got.tgz:817.got - 2010.06.03 18:43:04.
