data_PCOD9117070
_publ_section_title
;
Structure prediction by ZEFSAII (Michael W. Deem and Ramdas Pophale) SiO2 
 PCOD9117070
Probable space group: P 21
;
_chemical_formula_sum "Si O2"
_cell_formula_units_Z 16
_cell_length_a 6.262743
_cell_length_b 11.728521
_cell_length_c 9.460447
_cell_angle_alpha 90.000000
_cell_angle_beta 112.877469
_cell_angle_gamma 90.000000
_cell_volume 640.233872
_symmetry_space_group_name_H-M "P 21"
_symmetry_group_IT_number 4
_symmetry_cell_setting 'monoclinic'
loop_
_space_group_symop_operation_xyz
x,y,z
-x,1/2+y,-z
loop_
_atom_site_type_symbol
_atom_site_label
_atom_site_fract_x
_atom_site_fract_y
_atom_site_fract_z
Si Si1 0.921931 0.915660 0.506457
Si Si2 0.007993 0.135451 0.220351
Si Si3 0.593647 0.737825 0.479349
Si Si4 0.227499 0.093660 0.732302
Si Si5 0.891937 0.164986 0.875731
Si Si6 0.363850 0.432407 0.124317
Si Si7 0.324635 0.741793 0.670496
Si Si8 0.979424 0.387740 0.797689
O O1 0.112625 0.830044 0.620588
O O2 0.668286 0.870982 0.484803
O O3 0.950742 0.893681 0.347897
O O4 0.021864 0.034587 0.588240
O O5 0.205297 0.185863 0.368791
O O6 0.767735 0.141650 0.250952
O O7 0.115502 0.014269 0.203384
O O8 0.939534 0.188759 0.052641
O O9 0.631947 0.672399 0.341528
O O10 0.372087 0.712763 0.519378
O O11 0.115961 0.159020 0.833182
O O12 0.400014 0.001086 0.843994
O O13 0.802003 0.287695 0.794311
O O14 0.780752 0.037118 0.837638
O O15 0.454303 0.317937 0.224687
O O16 0.206840 0.391812 0.955103
#
# Coordination Sequence:
#
# PCOD9117070 Si02
#       8
#     2   2   2   2   2   2   2   2
#     4  10  22  43  66  99 136 180 228 289 346 421
#     4  10  24  43  67  98 140 184 226 293 349 420
#     4  11  21  41  71  96 132 179 227 289 348 412
#     4  11  23  42  69 100 136 177 237 285 353 418
#     4  11  24  44  72  99 141 185 234 290 355 417
#     4  10  25  43  67 100 138 186 230 296 346 417
#     4  10  23  44  67  98 132 180 234 281 350 416
#     4  11  22  42  65 100 139 179 230 283 359 413
#
# _framework density 24.990867999999999
#
# number of rings (size 3 to 8) (size 9 to 14) (size 15 to 20)
#    0.000    1.500    2.500    1.500    1.750    9.000 
#    4.500    3.750    0.000    0.000    0.000    0.000 
#    0.000    0.000    0.000    0.000    0.000    0.000 
#
# Total GULP energy -89208.138074 kJ/mol
# GULP energy per Si atom -5575.508630 kJ/mol
# Density = 2.493399 g / cm^3
# Si number density = 24.990868 Si / 1000 Ang^3
#
#
#
# Elastic Constant Matrix: (Units=GPa)
#
#
# Indices 1 2 3 4 5 6 
#
# 1 75.4732 24.3637 20.6468 0.0000 -10.4715 0.0000
# 2 24.3637 94.4596 14.1084 0.0000 6.7660 0.0000
# 3 20.6468 14.1084 92.5942 0.0000 -3.9069 0.0000
# 4 0.0000 0.0000 0.0000 32.3484 0.0000 -7.9051
# 5 -10.4715 6.7660 -3.9069 0.0000 35.1480 0.0000
# 6 0.0000 0.0000 0.0000 -7.9051 0.0000 36.2198
#
#
#
# Elastic Compliance Matrix: (Units=1/GPa)
#
#
# Indices 1 2 3 4 5 6 
#
# 1 0.016055 -0.004111 -0.002731 0.000000 0.005271 0.000000
# 2 -0.004111 0.012070 -0.001077 0.000000 -0.003668 0.000000
# 3 -0.002731 -0.001077 0.011602 0.000000 0.000683 0.000000
# 4 0.000000 0.000000 0.000000 0.032655 0.000000 0.007127
# 5 0.005271 -0.003668 0.000683 0.000000 0.030804 0.000000
# 6 0.000000 0.000000 0.000000 0.007127 0.000000 0.029165
#
#
# Mechanical properties :
#
#
# Convention : Reuss Voigt Hill
#
# Bulk Modulus (GPa) = 41.86042 42.30721 42.08382
# Shear Modulus (GPa) = 32.02000 34.30376 33.16188
#
# Velocity S-wave (km/s) = 3.58336 3.70895 3.64670
# Velocity P-wave (km/s) = 5.82300 5.94202 5.88281
#
# Compressibility (1/GPa) = 0.02388891
#
# Stress axis : x y z
#
# Youngs Moduli (GPa) = 62.28496 82.84695 86.19337
#
# Poissons Ratio (x) = 0.34056 0.23542
# Poissons Ratio (y) = 0.25604 0.09286
# Poissons Ratio (z) = 0.17012 0.08925
#
# Static dielectric constant tensor:
#      x y z
#    x 2.028660 0.000000 0.062530 
#    y 0.000000 2.129030 0.000000 
#    z 0.062530 0.000000 2.065650 
# 
# From -- ./inp_files/4650.got.cif
#   From: 2010.05.17/outbox.cif.g08.bks.cpg/sg4_3_cif.got.tgz:4650.got - 2010.06.03 18:43:04.
