data_PCOD9117456
_publ_section_title
;
Structure prediction by ZEFSAII (Michael W. Deem and Ramdas Pophale) SiO2 
 PCOD9117456
Probable space group: P 21
;
_chemical_formula_sum "Si O2"
_cell_formula_units_Z 16
_cell_length_a 11.416459
_cell_length_b 8.227136
_cell_length_c 14.350009
_cell_angle_alpha 90.000000
_cell_angle_beta 151.459623
_cell_angle_gamma 90.000000
_cell_volume 643.959238
_symmetry_space_group_name_H-M "P 21"
_symmetry_group_IT_number 4
_symmetry_cell_setting 'monoclinic'
loop_
_space_group_symop_operation_xyz
x,y,z
-x,1/2+y,-z
loop_
_atom_site_type_symbol
_atom_site_label
_atom_site_fract_x
_atom_site_fract_y
_atom_site_fract_z
Si Si1 0.831811 0.360470 0.477330
Si Si2 0.343055 0.379440 0.413440
Si Si3 0.315567 0.981970 0.175115
Si Si4 0.428690 0.529011 0.117459
Si Si5 0.879333 0.844852 0.974234
Si Si6 0.252245 0.339491 0.630497
Si Si7 0.786136 0.229183 0.630273
Si Si8 0.027027 0.157276 0.308129
O O1 0.602302 0.367533 0.245775
O O2 0.841397 0.212756 0.558312
O O3 0.822049 0.506669 0.545309
O O4 0.077504 0.393343 0.591483
O O5 0.524549 0.414882 0.627081
O O6 0.524626 0.316515 0.461466
O O7 0.221773 0.555498 0.323475
O O8 0.157776 0.236568 0.310675
O O9 0.503807 0.942883 0.222809
O O10 0.062355 0.885701 0.017939
O O11 0.248685 0.171253 0.129243
O O12 0.629473 0.668760 0.258079
O O13 0.285112 0.502071 0.115080
O O14 0.237124 0.586108 0.904931
O O15 0.017817 0.825811 0.171018
O O16 0.069919 0.297527 0.416251
#
# Coordination Sequence:
#
# PCOD9117456 Si02
#       8
#     2   2   2   2   2   2   2   2
#     4  11  24  47  71 102 149 191 242 296 366 437
#     4  10  23  40  71  98 150 191 237 309 372 428
#     4  10  23  43  65 107 142 188 246 302 365 432
#     4  11  24  44  73 101 137 193 231 305 361 420
#     4  11  23  41  71 107 147 183 249 311 364 430
#     4  10  25  46  72 101 144 195 239 299 361 435
#     4  11  23  41  67 107 143 199 238 299 373 436
#     4  10  23  46  70 103 138 184 246 295 362 428
#
# _framework density 24.846291999999998
#
# number of rings (size 3 to 8) (size 9 to 14) (size 15 to 20)
#    0.000    1.500    1.250    2.250    3.500   11.000 
#    2.250    0.000    0.000    0.000    0.000    0.000 
#    0.000    0.000    0.000    0.000    0.000    0.000 
#
# Total GULP energy -89268.175538 kJ/mol
# GULP energy per Si atom -5579.260971 kJ/mol
# Density = 2.478974 g / cm^3
# Si number density = 24.846292 Si / 1000 Ang^3
#
#
#
# Elastic Constant Matrix: (Units=GPa)
#
#
# Indices 1 2 3 4 5 6 
#
# 1 141.4997 28.1097 32.5776 0.0000 23.7512 0.0000
# 2 28.1097 80.1291 12.0012 0.0000 10.0676 0.0000
# 3 32.5776 12.0012 100.0573 0.0000 -0.1636 0.0000
# 4 0.0000 0.0000 0.0000 40.9450 0.0000 1.4277
# 5 23.7512 10.0676 -0.1636 0.0000 31.0726 0.0000
# 6 0.0000 0.0000 0.0000 1.4277 0.0000 23.3372
#
#
#
# Elastic Compliance Matrix: (Units=1/GPa)
#
#
# Indices 1 2 3 4 5 6 
#
# 1 0.009169 -0.002003 -0.002756 0.000000 -0.006374 0.000000
# 2 -0.002003 0.013698 -0.000996 0.000000 -0.002912 0.000000
# 3 -0.002756 -0.000996 0.011015 0.000000 0.002487 0.000000
# 4 0.000000 0.000000 0.000000 0.024475 0.000000 -0.001497
# 5 -0.006374 -0.002912 0.002487 0.000000 0.038012 0.000000
# 6 0.000000 0.000000 0.000000 -0.001497 0.000000 0.042942
#
#
# Mechanical properties :
#
#
# Convention : Reuss Voigt Hill
#
# Bulk Modulus (GPa) = 44.69574 51.89592 48.29583
# Shear Modulus (GPa) = 31.59018 35.67080 33.63049
#
# Velocity S-wave (km/s) = 3.56957 3.79312 3.68304
# Velocity P-wave (km/s) = 5.91752 6.33370 6.12915
#
# Compressibility (1/GPa) = 0.02237350
#
# Stress axis : x y z
#
# Youngs Moduli (GPa) = 109.05733 73.00579 90.78561
#
# Poissons Ratio (x) = 0.14624 0.25017
# Poissons Ratio (y) = 0.21845 0.09038
# Poissons Ratio (z) = 0.30052 0.07268
#
# Static dielectric constant tensor:
#      x y z
#    x 2.024370 0.000000 -0.036350 
#    y 0.000000 2.062300 0.000000 
#    z -0.036350 0.000000 2.114230 
# 
# From -- ./inp_files/13966.got.cif
#   From: 2010.05.17/outbox.cif.g08.bks.cpg/sg4_7_cif.got.tgz:13966.got - 2010.06.03 18:43:04.
