data_PCOD9117302
_publ_section_title
;
Structure prediction by ZEFSAII (Michael W. Deem and Ramdas Pophale) SiO2 
 PCOD9117302
Probable space group: P 21
;
_chemical_formula_sum "Si O2"
_cell_formula_units_Z 14
_cell_length_a 5.074808
_cell_length_b 11.411987
_cell_length_c 9.129361
_cell_angle_alpha 90.000000
_cell_angle_beta 85.744707
_cell_angle_gamma 90.000000
_cell_volume 527.257064
_symmetry_space_group_name_H-M "P 21"
_symmetry_group_IT_number 4
_symmetry_cell_setting 'monoclinic'
loop_
_space_group_symop_operation_xyz
x,y,z
-x,1/2+y,-z
loop_
_atom_site_type_symbol
_atom_site_label
_atom_site_fract_x
_atom_site_fract_y
_atom_site_fract_z
Si Si1 0.090750 0.543270 0.080165
Si Si2 0.539679 0.617430 0.508087
Si Si3 0.417574 0.980781 0.758117
Si Si4 0.873560 0.272156 0.326165
Si Si5 0.410781 0.322187 0.732426
Si Si6 0.930956 0.435281 0.609712
Si Si7 0.096044 0.283915 0.024129
O O1 0.382700 0.518387 0.125616
O O2 0.010314 0.420620 0.005452
O O3 0.866644 0.544637 0.215605
O O4 0.076778 0.669240 0.007154
O O5 0.449912 0.515765 0.400241
O O6 0.298080 0.663039 0.613890
O O7 0.604307 0.723356 0.393637
O O8 0.793469 0.560520 0.577334
O O9 0.342183 0.846560 0.756807
O O10 0.943264 0.355309 0.461261
O O11 0.111821 0.266845 0.199914
O O12 0.704521 0.371452 0.715445
O O13 0.201171 0.419292 0.686720
O O14 0.334079 0.277790 0.897005
#
# Coordination Sequence:
#
# PCOD9117302 Si02
#       7
#     2   2   2   2   2   2   2
#     4  11  26  46  74 102 146 187 240 292 367 430
#     4  10  22  45  74 103 144 190 246 300 363 434
#     4  10  23  46  70 100 142 192 229 297 367 428
#     4   9  23  43  70 107 140 184 243 304 358 434
#     4  11  25  45  73 104 144 189 242 296 363 441
#     4  10  25  45  71 104 141 189 242 298 364 430
#     4  11  26  48  74 110 145 193 240 307 366 435
#
# _framework density 26.552513999999999
#
# number of rings (size 3 to 8) (size 9 to 14) (size 15 to 20)
#    0.000    1.714    1.429    0.000    6.000   17.143 
#    2.571    0.000    0.000    0.000    0.000    0.000 
#    0.000    0.000    0.000    0.000    0.000    0.000 
#
# Total GULP energy -78230.009172 kJ/mol
# GULP energy per Si atom -5587.857798 kJ/mol
# Density = 2.649208 g / cm^3
# Si number density = 26.552514 Si / 1000 Ang^3
#
#
#
# Elastic Constant Matrix: (Units=GPa)
#
#
# Indices 1 2 3 4 5 6 
#
# 1 91.1800 25.6707 24.2299 0.0000 2.2730 0.0000
# 2 25.6707 112.7483 16.9738 0.0000 -8.6212 0.0000
# 3 24.2299 16.9738 137.9278 0.0000 -35.2844 0.0000
# 4 0.0000 0.0000 0.0000 43.4513 0.0000 -10.8557
# 5 2.2730 -8.6212 -35.2844 0.0000 29.6916 0.0000
# 6 0.0000 0.0000 0.0000 -10.8557 0.0000 31.8772
#
#
#
# Elastic Compliance Matrix: (Units=1/GPa)
#
#
# Indices 1 2 3 4 5 6 
#
# 1 0.012819 -0.002854 -0.003396 0.000000 -0.005846 0.000000
# 2 -0.002854 0.009745 0.000118 0.000000 0.003188 0.000000
# 3 -0.003396 0.000118 0.011362 0.000000 0.013796 0.000000
# 4 0.000000 0.000000 0.000000 0.025154 0.000000 0.008566
# 5 -0.005846 0.003188 0.013796 0.000000 0.051447 0.000000
# 6 0.000000 0.000000 0.000000 0.008566 0.000000 0.034288
#
#
# Mechanical properties :
#
#
# Convention : Reuss Voigt Hill
#
# Bulk Modulus (GPa) = 46.16787 52.84500 49.50644
# Shear Modulus (GPa) = 30.43192 39.33615 34.88403
#
# Velocity S-wave (km/s) = 3.38909 3.85313 3.62854
# Velocity P-wave (km/s) = 5.72186 6.30403 6.01999
#
# Compressibility (1/GPa) = 0.02166008
#
# Stress axis : x y z
#
# Youngs Moduli (GPa) = 78.00805 102.61396 88.01644
#
# Poissons Ratio (x) = 0.29290 0.29892
# Poissons Ratio (y) = 0.22267 -0.01036
# Poissons Ratio (z) = 0.26493 -0.01208
#
# Static dielectric constant tensor:
#      x y z
#    x 2.051670 0.000000 -0.019830 
#    y 0.000000 2.159070 0.000000 
#    z -0.019830 0.000000 2.125770 
# 
# From -- ./inp_files/4621.got.cif
#   From: 2010.05.17/outbox.cif.g08.bks.cpg/sg4_3_cif.got.tgz:4621.got - 2010.06.03 18:43:04.
