data_PCOD9117403
_publ_section_title
;
Structure prediction by ZEFSAII (Michael W. Deem and Ramdas Pophale) SiO2 
 PCOD9117403
Probable space group: P 21
;
_chemical_formula_sum "Si O2"
_cell_formula_units_Z 16
_cell_length_a 9.902043
_cell_length_b 4.848032
_cell_length_c 16.501528
_cell_angle_alpha 90.000000
_cell_angle_beta 65.074721
_cell_angle_gamma 90.000000
_cell_volume 718.379306
_symmetry_space_group_name_H-M "P 21"
_symmetry_group_IT_number 4
_symmetry_cell_setting 'monoclinic'
loop_
_space_group_symop_operation_xyz
x,y,z
-x,1/2+y,-z
loop_
_atom_site_type_symbol
_atom_site_label
_atom_site_fract_x
_atom_site_fract_y
_atom_site_fract_z
Si Si1 0.021103 0.015940 0.940999
Si Si2 0.286563 0.325688 0.777932
Si Si3 0.573973 0.536583 0.018766
Si Si4 0.983777 0.274670 0.559713
Si Si5 0.818988 0.203309 0.868123
Si Si6 0.465390 0.844278 0.787411
Si Si7 0.207320 0.418141 0.282038
Si Si8 0.062533 0.513448 0.701366
O O1 0.158838 0.168901 0.863091
O O2 0.896330 0.979195 0.904697
O O3 0.953319 0.226199 0.023768
O O4 0.368468 0.569960 0.804013
O O5 0.211659 0.480371 0.718381
O O6 0.407116 0.077324 0.738613
O O7 0.566295 0.470531 0.115271
O O8 0.547167 0.851987 0.000570
O O9 0.724706 0.415243 0.943575
O O10 0.840485 0.136515 0.637910
O O11 0.051385 0.045070 0.483518
O O12 0.086180 0.361912 0.609572
O O13 0.737435 0.068772 0.813401
O O14 0.950401 0.358361 0.789051
O O15 0.640511 0.766416 0.731840
O O16 0.049963 0.265991 0.297999
#
# Coordination Sequence:
#
# PCOD9117403 Si02
#       8
#     2   2   2   2   2   2   2   2
#     4  11  23  39  58  84 125 177 237 294 331 378
#     4  11  26  42  64  95 137 182 234 276 348 414
#     4  12  23  38  58  87 135 183 235 288 334 387
#     4  11  23  43  76 113 131 162 219 283 340 415
#     4  10  23  36  61  88 129 176 233 277 330 380
#     4  12  26  43  64  98 140 187 231 282 344 409
#     4  11  24  44  72 101 138 174 227 279 347 409
#     4  10  24  43  73 100 137 175 226 281 344 404
#
# _framework density 22.272358000000001
#
# number of rings (size 3 to 8) (size 9 to 14) (size 15 to 20)
#    0.000    1.000    2.500    3.750   12.250    0.000 
#    0.000    0.000    0.000    3.000    0.000    0.000 
#    0.000    0.000    0.000    0.000    0.000    0.000 
#
# Total GULP energy -89282.358466 kJ/mol
# GULP energy per Si atom -5580.147404 kJ/mol
# Density = 2.222166 g / cm^3
# Si number density = 22.272358 Si / 1000 Ang^3
#
#
#
# Elastic Constant Matrix: (Units=GPa)
#
#
# Indices 1 2 3 4 5 6 
#
# 1 72.5564 19.9005 17.3563 0.0000 6.3383 0.0000
# 2 19.9005 92.5168 14.4870 0.0000 2.7480 0.0000
# 3 17.3563 14.4870 84.6134 0.0000 14.2030 0.0000
# 4 0.0000 0.0000 0.0000 33.1192 0.0000 3.5237
# 5 6.3383 2.7480 14.2030 0.0000 10.1655 0.0000
# 6 0.0000 0.0000 0.0000 3.5237 0.0000 39.7059
#
#
#
# Elastic Compliance Matrix: (Units=1/GPa)
#
#
# Indices 1 2 3 4 5 6 
#
# 1 0.015538 -0.002898 -0.001563 0.000000 -0.006721 0.000000
# 2 -0.002898 0.011649 -0.001535 0.000000 0.000802 0.000000
# 3 -0.001563 -0.001535 0.015897 0.000000 -0.020821 0.000000
# 4 0.000000 0.000000 0.000000 0.030482 0.000000 -0.002705
# 5 -0.006721 0.000802 -0.020821 0.000000 0.131437 0.000000
# 6 0.000000 0.000000 0.000000 -0.002705 0.000000 0.025425
#
#
# Mechanical properties :
#
#
# Convention : Reuss Voigt Hill
#
# Bulk Modulus (GPa) = 32.16175 39.24158 35.70166
# Shear Modulus (GPa) = 19.77983 29.79431 24.78707
#
# Velocity S-wave (km/s) = 2.98331 3.66146 3.33965
# Velocity P-wave (km/s) = 5.13210 5.96090 5.56196
#
# Compressibility (1/GPa) = 0.03109284
#
# Stress axis : x y z
#
# Youngs Moduli (GPa) = 64.35746 85.84667 62.90572
#
# Poissons Ratio (x) = 0.24878 0.09831
# Poissons Ratio (y) = 0.18650 0.09654
# Poissons Ratio (z) = 0.10058 0.13174
#
# Static dielectric constant tensor:
#      x y z
#    x 1.972770 0.000000 0.019780 
#    y 0.000000 1.862250 0.000000 
#    z 0.019780 0.000000 1.805980 
# 
# From -- ./inp_files/8615.got.cif
#   From: 2010.05.17/outbox.cif.g08.bks.cpg/sg4_5_cif.got.tgz:8615.got - 2010.06.03 18:43:04.
