data_PCOD9117269
_publ_section_title
;
Structure prediction by ZEFSAII (Michael W. Deem and Ramdas Pophale) SiO2 
 PCOD9117269
Probable space group: P 21
;
_chemical_formula_sum "Si O2"
_cell_formula_units_Z 16
_cell_length_a 7.916977
_cell_length_b 16.029153
_cell_length_c 6.247263
_cell_angle_alpha 90.000000
_cell_angle_beta 117.224674
_cell_angle_gamma 90.000000
_cell_volume 704.966854
_symmetry_space_group_name_H-M "P 21"
_symmetry_group_IT_number 4
_symmetry_cell_setting 'monoclinic'
loop_
_space_group_symop_operation_xyz
x,y,z
-x,1/2+y,-z
loop_
_atom_site_type_symbol
_atom_site_label
_atom_site_fract_x
_atom_site_fract_y
_atom_site_fract_z
Si Si1 0.706763 0.431180 0.613194
Si Si2 0.833018 0.844606 0.521283
Si Si3 0.239488 0.775296 0.654083
Si Si4 0.974699 0.975260 0.891599
Si Si5 0.694819 0.541151 0.224961
Si Si6 0.737751 0.123809 0.640377
Si Si7 0.540509 0.710705 0.184153
Si Si8 0.387430 0.478104 0.751065
O O1 0.689070 0.353955 0.443192
O O2 0.703971 0.516584 0.476605
O O3 0.543241 0.431185 0.695128
O O4 0.903728 0.434993 0.851810
O O5 0.675483 0.775834 0.383573
O O6 0.040947 0.804623 0.641449
O O7 0.829023 0.904644 0.726429
O O8 0.787898 0.916215 0.317753
O O9 0.189441 0.701065 0.459429
O O10 0.398080 0.748341 0.921407
O O11 0.130016 0.997940 0.795668
O O12 0.874171 0.064649 0.862510
O O13 0.678010 0.639000 0.167951
O O14 0.497695 0.503192 0.025585
O O15 0.585664 0.163737 0.711526
O O16 0.666393 0.059404 0.416611
#
# Coordination Sequence:
#
# PCOD9117269 Si02
#       8
#     2   2   2   2   2   2   2   2
#     4  11  23  44  72 102 138 186 231 285 353 419
#     4  11  25  45  67  99 143 180 227 291 348 408
#     4  12  26  46  69 105 141 184 232 296 349 415
#     4  10  25  45  70 104 139 186 235 289 343 430
#     4  11  21  45  72 100 141 180 235 285 351 417
#     4  11  24  45  68 100 140 181 234 289 348 410
#     4  12  26  45  71 104 141 186 229 298 350 414
#     4  10  22  45  69 100 137 183 233 285 344 421
#
# _framework density 22.696100999999999
#
# number of rings (size 3 to 8) (size 9 to 14) (size 15 to 20)
#    0.000    1.000    3.750    2.250    3.500    3.000 
#    6.750    0.000    0.000    0.000    0.000    0.000 
#    0.000    0.000    0.000    0.000    0.000    0.000 
#
# Total GULP energy -89382.480414 kJ/mol
# GULP energy per Si atom -5586.405026 kJ/mol
# Density = 2.264444 g / cm^3
# Si number density = 22.696101 Si / 1000 Ang^3
#
#
#
# Elastic Constant Matrix: (Units=GPa)
#
#
# Indices 1 2 3 4 5 6 
#
# 1 63.2585 35.3020 24.7062 0.0000 4.0552 0.0000
# 2 35.3020 144.2730 48.6240 0.0000 18.0135 0.0000
# 3 24.7062 48.6240 90.5118 0.0000 28.8344 0.0000
# 4 0.0000 0.0000 0.0000 45.1647 0.0000 10.0416
# 5 4.0552 18.0135 28.8344 0.0000 32.2546 0.0000
# 6 0.0000 0.0000 0.0000 10.0416 0.0000 41.2352
#
#
#
# Elastic Compliance Matrix: (Units=1/GPa)
#
#
# Indices 1 2 3 4 5 6 
#
# 1 0.019376 -0.003690 -0.004456 0.000000 0.003608 0.000000
# 2 -0.003690 0.009186 -0.003413 0.000000 -0.001615 0.000000
# 3 -0.004456 -0.003413 0.018613 0.000000 -0.014173 0.000000
# 4 0.000000 0.000000 0.000000 0.023409 0.000000 -0.005700
# 5 0.003608 -0.001615 -0.014173 0.000000 0.044122 0.000000
# 6 0.000000 0.000000 0.000000 -0.005700 0.000000 0.025639
#
#
# Mechanical properties :
#
#
# Convention : Reuss Voigt Hill
#
# Bulk Modulus (GPa) = 41.56726 57.25639 49.41183
# Shear Modulus (GPa) = 29.15728 36.35830 32.75779
#
# Velocity S-wave (km/s) = 3.58813 4.00679 3.80323
# Velocity P-wave (km/s) = 5.95993 6.83287 6.41127
#
# Compressibility (1/GPa) = 0.02405739
#
# Stress axis : x y z
#
# Youngs Moduli (GPa) = 51.60910 108.85936 53.72456
#
# Poissons Ratio (x) = 0.40167 0.23941
# Poissons Ratio (y) = 0.19043 0.18337
# Poissons Ratio (z) = 0.22999 0.37156
#
# Static dielectric constant tensor:
#      x y z
#    x 1.879180 0.000000 0.009020 
#    y 0.000000 1.862020 0.000000 
#    z 0.009020 0.000000 1.837940 
# 
# From -- ./inp_files/1520.got.cif
#   From: 2010.05.17/outbox.cif.g08.bks.cpg/sg4_1_cif.got.tgz:1520.got - 2010.06.03 18:43:04.
