data_PCOD9117522
_publ_section_title
;
Structure prediction by ZEFSAII (Michael W. Deem and Ramdas Pophale) SiO2 
 PCOD9117522
Probable space group: P 21
;
_chemical_formula_sum "Si O2"
_cell_formula_units_Z 14
_cell_length_a 4.865595
_cell_length_b 5.211510
_cell_length_c 18.923803
_cell_angle_alpha 90.000000
_cell_angle_beta 81.238420
_cell_angle_gamma 90.000000
_cell_volume 474.253185
_symmetry_space_group_name_H-M "P 21"
_symmetry_group_IT_number 4
_symmetry_cell_setting 'monoclinic'
loop_
_space_group_symop_operation_xyz
x,y,z
-x,1/2+y,-z
loop_
_atom_site_type_symbol
_atom_site_label
_atom_site_fract_x
_atom_site_fract_y
_atom_site_fract_z
Si Si1 0.162894 0.512070 0.017721
Si Si2 0.522442 0.495427 0.876225
Si Si3 0.510266 0.801146 0.267690
Si Si4 0.246489 0.339551 0.445020
Si Si5 0.868246 0.808038 0.698139
Si Si6 0.633645 0.840145 0.411025
Si Si7 0.045300 0.814108 0.841683
O O1 0.436455 0.447610 0.960655
O O2 0.133667 0.511789 0.103720
O O3 0.972487 0.270185 0.004575
O O4 0.413711 0.309128 0.818177
O O5 0.843132 0.565847 0.857505
O O6 0.343119 0.747735 0.861579
O O7 0.306642 0.047476 0.284320
O O8 0.341800 0.544214 0.286544
O O9 0.724836 0.833453 0.325068
O O10 0.033638 0.322934 0.387306
O O11 0.433013 0.594364 0.428988
O O12 0.154761 0.333409 0.530776
O O13 0.446664 0.094114 0.427109
O O14 0.068832 0.850063 0.756927
#
# Coordination Sequence:
#
# PCOD9117522 Si02
#       7
#     2   2   2   2   2   2   2
#     4  10  24  44  66  92 122 158 200 246 298 356
#     4  10  23  42  64  91 122 158 200 246 298 355
#     4   9  18  32  52  81 115 152 194 240 291 347
#     4   8  13  23  42  71 106 144 186 232 282 337
#     4   9  18  32  52  81 115 152 194 240 291 347
#     4   8  13  23  42  71 106 144 186 232 282 337
#     4  10  23  42  64  91 122 158 200 246 298 355
#
# _framework density 29.520098999999998
#
# number of rings (size 3 to 8) (size 9 to 14) (size 15 to 20)
#    0.000    2.857    0.000    0.000    0.000   14.857 
#    0.000    0.000    0.000    0.000    0.000   40.000 
#    0.000    0.000    0.000    0.000    0.000    0.000 
#
# Total GULP energy -78438.615548 kJ/mol
# GULP energy per Si atom -5602.758253 kJ/mol
# Density = 2.945291 g / cm^3
# Si number density = 29.520099 Si / 1000 Ang^3
#
#
#
# Elastic Constant Matrix: (Units=GPa)
#
#
# Indices 1 2 3 4 5 6 
#
# 1 105.3545 39.7363 46.5536 0.0000 0.9130 0.0000
# 2 39.7363 159.4189 44.2167 0.0000 -15.2279 0.0000
# 3 46.5536 44.2167 210.4507 0.0000 24.4449 0.0000
# 4 0.0000 0.0000 0.0000 55.3032 0.0000 -3.2942
# 5 0.9130 -15.2279 24.4449 0.0000 41.8451 0.0000
# 6 0.0000 0.0000 0.0000 -3.2942 0.0000 19.8656
#
#
#
# Elastic Compliance Matrix: (Units=1/GPa)
#
#
# Indices 1 2 3 4 5 6 
#
# 1 0.011227 -0.002222 -0.002032 0.000000 0.000134 0.000000
# 2 -0.002222 0.007608 -0.001539 0.000000 0.003716 0.000000
# 3 -0.002032 -0.001539 0.005991 0.000000 -0.004015 0.000000
# 4 0.000000 0.000000 0.000000 0.018263 0.000000 0.003028
# 5 0.000134 0.003716 -0.004015 0.000000 0.027593 0.000000
# 6 0.000000 0.000000 0.000000 0.003028 0.000000 0.050840
#
#
# Mechanical properties :
#
#
# Convention : Reuss Voigt Hill
#
# Bulk Modulus (GPa) = 75.52626 81.80416 78.66521
# Shear Modulus (GPa) = 36.35824 46.38396 41.37110
#
# Velocity S-wave (km/s) = 3.51329 3.96822 3.74766
# Velocity P-wave (km/s) = 6.48828 6.98335 6.74036
#
# Compressibility (1/GPa) = 0.01324043
#
# Stress axis : x y z
#
# Youngs Moduli (GPa) = 89.07434 131.43445 166.91941
#
# Poissons Ratio (x) = 0.29204 0.33920
# Poissons Ratio (y) = 0.19792 0.25684
# Poissons Ratio (z) = 0.18101 0.20224
#
# Static dielectric constant tensor:
#      x y z
#    x 2.151310 0.000000 0.027690 
#    y 0.000000 2.283940 0.000000 
#    z 0.027690 0.000000 2.513240 
# 
# From -- ./inp_files/4382.got.cif
#   From: 2010.05.17/outbox.cif.g08.bks.cpg/sg4_3_cif.got.tgz:4382.got - 2010.06.03 18:43:04.
