data_PCOD9117549
_publ_section_title
;
Structure prediction by ZEFSAII (Michael W. Deem and Ramdas Pophale) SiO2 
 PCOD9117549
Probable space group: P 21
;
_chemical_formula_sum "Si O2"
_cell_formula_units_Z 16
_cell_length_a 6.923122
_cell_length_b 7.558044
_cell_length_c 16.882267
_cell_angle_alpha 90.000000
_cell_angle_beta 132.689390
_cell_angle_gamma 90.000000
_cell_volume 649.311711
_symmetry_space_group_name_H-M "P 21"
_symmetry_group_IT_number 4
_symmetry_cell_setting 'monoclinic'
loop_
_space_group_symop_operation_xyz
x,y,z
-x,1/2+y,-z
loop_
_atom_site_type_symbol
_atom_site_label
_atom_site_fract_x
_atom_site_fract_y
_atom_site_fract_z
Si Si1 0.583174 0.558750 0.718744
Si Si2 0.365002 0.126156 0.854298
Si Si3 0.802193 0.774021 0.347204
Si Si4 0.707391 0.757982 0.609090
Si Si5 0.901799 0.056142 0.040465
Si Si6 0.321206 0.755836 0.781609
Si Si7 0.237328 0.146234 0.987064
Si Si8 0.726443 0.531389 0.467023
O O1 0.476403 0.365766 0.709523
O O2 0.588679 0.597849 0.628051
O O3 0.866058 0.601608 0.834669
O O4 0.382846 0.683241 0.711749
O O5 0.204968 0.245562 0.749294
O O6 0.222112 0.071906 0.894943
O O7 0.430144 0.952830 0.821347
O O8 0.650534 0.185996 0.965917
O O9 0.807015 0.598606 0.402351
O O10 0.042554 0.901590 0.437404
O O11 0.696451 0.704167 0.514411
O O12 0.015110 0.768580 0.712247
O O13 0.543815 0.924763 0.594801
O O14 0.817970 0.856404 0.037899
O O15 0.031727 0.063622 0.990104
O O16 0.481445 0.636586 0.889434
#
# Coordination Sequence:
#
# PCOD9117549 Si02
#       8
#     2   2   2   2   2   2   2   2
#     4  11  23  45  74 103 149 188 241 300 381 439
#     4  11  25  42  72 105 145 192 243 295 373 447
#     4  12  27  49  75 106 150 195 247 325 375 438
#     4  12  26  47  73 104 133 195 249 305 371 449
#     4  10  23  42  69 106 147 183 236 289 366 445
#     4  10  24  44  69 103 147 186 239 301 371 437
#     4  10  23  42  68 105 146 190 233 294 360 451
#     4  12  29  47  78 104 149 191 264 315 381 434
#
# _framework density 24.641476999999998
#
# number of rings (size 3 to 8) (size 9 to 14) (size 15 to 20)
#    0.000    1.000    1.250    3.750    5.250   11.000 
#    0.000    0.000    0.000    0.000    0.000    0.000 
#    0.000    0.000    0.000    0.000    0.000    0.000 
#
# Total GULP energy -89533.419819 kJ/mol
# GULP energy per Si atom -5595.838739 kJ/mol
# Density = 2.458539 g / cm^3
# Si number density = 24.641477 Si / 1000 Ang^3
#
#
#
# Elastic Constant Matrix: (Units=GPa)
#
#
# Indices 1 2 3 4 5 6 
#
# 1 72.6050 -1.2869 50.8962 0.0000 7.2616 0.0000
# 2 -1.2869 44.9908 16.6711 0.0000 11.5595 0.0000
# 3 50.8962 16.6711 80.6924 0.0000 -4.5015 0.0000
# 4 0.0000 0.0000 0.0000 41.5357 0.0000 -0.9428
# 5 7.2616 11.5595 -4.5015 0.0000 41.5246 0.0000
# 6 0.0000 0.0000 0.0000 -0.9428 0.0000 40.3784
#
#
#
# Elastic Compliance Matrix: (Units=1/GPa)
#
#
# Indices 1 2 3 4 5 6 
#
# 1 0.031071 0.012224 -0.022754 0.000000 -0.011303 0.000000
# 2 0.012224 0.031287 -0.014869 0.000000 -0.012459 0.000000
# 3 -0.022754 -0.014869 0.030453 0.000000 0.011420 0.000000
# 4 0.000000 0.000000 0.000000 0.024088 0.000000 0.000562
# 5 -0.011303 -0.012459 0.011420 0.000000 0.030765 0.000000
# 6 0.000000 0.000000 0.000000 0.000562 0.000000 0.024779
#
#
# Mechanical properties :
#
#
# Convention : Reuss Voigt Hill
#
# Bulk Modulus (GPa) = 23.80177 36.76101 30.28139
# Shear Modulus (GPa) = 21.07519 33.48826 27.28173
#
# Velocity S-wave (km/s) = 2.92768 3.69049 3.33099
# Velocity P-wave (km/s) = 4.59441 5.75416 5.20668
#
# Compressibility (1/GPa) = 0.04201369
#
# Stress axis : x y z
#
# Youngs Moduli (GPa) = 32.18481 31.96188 32.83702
#
# Poissons Ratio (x) = -0.39070 0.74716
# Poissons Ratio (y) = -0.39343 0.48826
# Poissons Ratio (z) = 0.73232 0.47525
#
# Static dielectric constant tensor:
#      x y z
#    x 1.927690 0.000000 0.025960 
#    y 0.000000 1.998870 0.000000 
#    z 0.025960 0.000000 1.990450 
# 
# From -- ./inp_files/13294.got.cif
#   From: 2010.05.17/outbox.cif.g08.bks.cpg/sg4_7_cif.got.tgz:13294.got - 2010.06.03 18:43:04.
