data_PCOD9117191
_publ_section_title
;
Structure prediction by ZEFSAII (Michael W. Deem and Ramdas Pophale) SiO2 
 PCOD9117191
Probable space group: P 21
;
_chemical_formula_sum "Si O2"
_cell_formula_units_Z 16
_cell_length_a 5.273464
_cell_length_b 13.944943
_cell_length_c 8.630247
_cell_angle_alpha 90.000000
_cell_angle_beta 107.955149
_cell_angle_gamma 90.000000
_cell_volume 603.743675
_symmetry_space_group_name_H-M "P 21"
_symmetry_group_IT_number 4
_symmetry_cell_setting 'monoclinic'
loop_
_space_group_symop_operation_xyz
x,y,z
-x,1/2+y,-z
loop_
_atom_site_type_symbol
_atom_site_label
_atom_site_fract_x
_atom_site_fract_y
_atom_site_fract_z
Si Si1 0.450114 0.487160 0.170175
Si Si2 0.882943 0.416087 0.424072
Si Si3 0.360366 0.939685 0.114619
Si Si4 0.935059 0.826392 0.869219
Si Si5 0.679051 0.055284 0.364279
Si Si6 0.641636 0.751023 0.191091
Si Si7 0.238350 0.732627 0.396183
Si Si8 0.195560 0.635910 0.945427
O O1 0.656109 0.496391 0.347640
O O2 0.343825 0.379610 0.172640
O O3 0.611343 0.495534 0.041038
O O4 0.209811 0.560185 0.090867
O O5 0.946540 0.359884 0.274428
O O6 0.787502 0.335918 0.525928
O O7 0.143492 0.473579 0.522928
O O8 0.607139 0.865040 0.164017
O O9 0.392774 0.008896 0.265705
O O10 0.106606 0.873021 0.041742
O O11 0.960027 0.713376 0.893781
O O12 0.693470 0.149973 0.468892
O O13 0.791436 0.082741 0.215486
O O14 0.474043 0.732514 0.316179
O O15 0.943932 0.717873 0.266857
O O16 0.462278 0.699911 0.026264
#
# Coordination Sequence:
#
# PCOD9117191 Si02
#       8
#     2   2   2   2   2   2   2   2
#     4  10  23  43  70 104 149 197 249 313 380 442
#     4  11  24  44  72 106 154 191 245 315 389 444
#     4   9  22  44  69  99 136 195 244 305 360 446
#     4  10  22  44  70 104 147 191 251 311 379 442
#     4  11  23  47  73 108 148 189 256 305 383 451
#     4  11  26  48  73 104 153 194 250 300 380 439
#     4  12  27  48  74 113 148 202 239 317 376 456
#     4  10  23  46  73 110 139 203 254 310 369 458
#
# _framework density 26.501311000000001
#
# number of rings (size 3 to 8) (size 9 to 14) (size 15 to 20)
#    0.000    1.500    2.500    0.750    7.000    0.000 
#    9.000    0.000    0.000    0.000    0.000    0.000 
#    0.000    0.000    0.000    0.000    0.000    0.000 
#
# Total GULP energy -89623.934120 kJ/mol
# GULP energy per Si atom -5601.495882 kJ/mol
# Density = 2.644099 g / cm^3
# Si number density = 26.501311 Si / 1000 Ang^3
#
#
#
# Elastic Constant Matrix: (Units=GPa)
#
#
# Indices 1 2 3 4 5 6 
#
# 1 93.5566 14.5384 39.3768 0.0000 -13.1954 0.0000
# 2 14.5384 125.8786 39.5609 0.0000 -9.3871 0.0000
# 3 39.3768 39.5609 112.3700 0.0000 2.9841 0.0000
# 4 0.0000 0.0000 0.0000 62.0585 0.0000 4.6314
# 5 -13.1954 -9.3871 2.9841 0.0000 24.5539 0.0000
# 6 0.0000 0.0000 0.0000 4.6314 0.0000 30.0833
#
#
#
# Elastic Compliance Matrix: (Units=1/GPa)
#
#
# Indices 1 2 3 4 5 6 
#
# 1 0.014045 0.000705 -0.005395 0.000000 0.008473 0.000000
# 2 0.000705 0.009338 -0.003651 0.000000 0.004393 0.000000
# 3 -0.005395 -0.003651 0.012229 0.000000 -0.005781 0.000000
# 4 0.000000 0.000000 0.000000 0.016301 0.000000 -0.002510
# 5 0.008473 0.004393 -0.005781 0.000000 0.047662 0.000000
# 6 0.000000 0.000000 0.000000 -0.002510 0.000000 0.033627
#
#
# Mechanical properties :
#
#
# Convention : Reuss Voigt Hill
#
# Bulk Modulus (GPa) = 52.82770 57.63971 55.23371
# Shear Modulus (GPa) = 32.01159 39.22775 35.61967
#
# Velocity S-wave (km/s) = 3.47929 3.85154 3.67014
# Velocity P-wave (km/s) = 6.00982 6.44795 6.23274
#
# Compressibility (1/GPa) = 0.01892946
#
# Stress axis : x y z
#
# Youngs Moduli (GPa) = 71.20064 107.09178 81.77531
#
# Poissons Ratio (x) = -0.07553 0.44117
# Poissons Ratio (y) = -0.05021 0.29858
# Poissons Ratio (z) = 0.38412 0.39102
#
# Static dielectric constant tensor:
#      x y z
#    x 2.052290 0.000000 0.014990 
#    y 0.000000 2.121020 0.000000 
#    z 0.014990 0.000000 2.064270 
# 
# From -- ./inp_files/4848.got.cif
#   From: 2010.05.17/outbox.cif.g08.bks.cpg/sg4_3_cif.got.tgz:4848.got - 2010.06.03 18:43:04.
