data_PCOD9117341
_publ_section_title
;
Structure prediction by ZEFSAII (Michael W. Deem and Ramdas Pophale) SiO2 
 PCOD9117341
Probable space group: P 21
;
_chemical_formula_sum "Si O2"
_cell_formula_units_Z 14
_cell_length_a 7.391015
_cell_length_b 12.273707
_cell_length_c 8.539087
_cell_angle_alpha 90.000000
_cell_angle_beta 53.511089
_cell_angle_gamma 90.000000
_cell_volume 622.776447
_symmetry_space_group_name_H-M "P 21"
_symmetry_group_IT_number 4
_symmetry_cell_setting 'monoclinic'
loop_
_space_group_symop_operation_xyz
x,y,z
-x,1/2+y,-z
loop_
_atom_site_type_symbol
_atom_site_label
_atom_site_fract_x
_atom_site_fract_y
_atom_site_fract_z
Si Si1 0.893398 0.917110 0.297282
Si Si2 0.084782 0.904083 0.853743
Si Si3 0.716112 0.272231 0.498104
Si Si4 0.694001 0.494939 0.696255
Si Si5 0.485055 0.550800 0.364333
Si Si6 0.276409 0.534373 0.130641
Si Si7 0.061498 0.193767 0.574913
O O1 0.834827 0.802827 0.409597
O O2 0.102521 0.967075 0.288081
O O3 0.973190 0.895391 0.080175
O O4 0.682594 0.997673 0.422321
O O5 0.211844 0.800495 0.715332
O O6 0.270122 0.999437 0.763114
O O7 0.894923 0.938876 0.827084
O O8 0.655451 0.384598 0.617368
O O9 0.527148 0.180415 0.610898
O O10 0.929821 0.224267 0.482907
O O11 0.773239 0.594858 0.548107
O O12 0.477829 0.530709 0.905022
O O13 0.373360 0.520861 0.254513
O O14 0.132090 0.645678 0.210808
#
# Coordination Sequence:
#
# PCOD9117341 Si02
#       7
#     2   2   2   2   2   2   2
#     4  11  24  44  70 105 141 184 241 296 353 425
#     4  12  26  45  71 110 144 184 241 295 358 424
#     4  10  23  47  71 102 147 187 237 295 359 423
#     4  11  21  47  73 103 140 191 232 295 354 427
#     4  11  25  50  71 103 145 190 236 296 357 431
#     4  11  23  45  72 102 139 188 234 285 359 424
#     4  10  22  46  72 101 144 188 239 288 360 428
#
# _framework density 22.479976000000001
#
# number of rings (size 3 to 8) (size 9 to 14) (size 15 to 20)
#    0.000    1.143    5.714    0.857    2.000    3.429 
#   12.857    0.000    0.000    0.000    0.000    0.000 
#    0.000    0.000    0.000    0.000    0.000    0.000 
#
# Total GULP energy -78397.456249 kJ/mol
# GULP energy per Si atom -5599.818303 kJ/mol
# Density = 2.242881 g / cm^3
# Si number density = 22.479976 Si / 1000 Ang^3
#
#
#
# Elastic Constant Matrix: (Units=GPa)
#
#
# Indices 1 2 3 4 5 6 
#
# 1 74.6617 24.3360 17.9050 0.0000 -4.2174 0.0000
# 2 24.3360 135.3542 56.0148 0.0000 -8.6067 0.0000
# 3 17.9050 56.0148 145.0772 0.0000 -4.9369 0.0000
# 4 0.0000 0.0000 0.0000 19.8843 0.0000 2.4958
# 5 -4.2174 -8.6067 -4.9369 0.0000 35.9987 0.0000
# 6 0.0000 0.0000 0.0000 2.4958 0.0000 32.6092
#
#
#
# Elastic Compliance Matrix: (Units=1/GPa)
#
#
# Indices 1 2 3 4 5 6 
#
# 1 0.014369 -0.002140 -0.000912 0.000000 0.001047 0.000000
# 2 -0.002140 0.009210 -0.003241 0.000000 0.001507 0.000000
# 3 -0.000912 -0.003241 0.008265 0.000000 0.000252 0.000000
# 4 0.000000 0.000000 0.000000 0.050779 0.000000 -0.003886
# 5 0.001047 0.001507 0.000252 0.000000 0.028296 0.000000
# 6 0.000000 0.000000 0.000000 -0.003886 0.000000 0.030964
#
#
# Mechanical properties :
#
#
# Convention : Reuss Voigt Hill
#
# Bulk Modulus (GPa) = 51.92083 61.28941 56.60512
# Shear Modulus (GPa) = 31.07797 34.82094 32.94946
#
# Velocity S-wave (km/s) = 3.72220 3.93997 3.83263
# Velocity P-wave (km/s) = 6.45133 6.92972 6.69480
#
# Compressibility (1/GPa) = 0.01926009
#
# Stress axis : x y z
#
# Youngs Moduli (GPa) = 69.59471 108.58266 120.99019
#
# Poissons Ratio (x) = 0.23233 0.11030
# Poissons Ratio (y) = 0.14891 0.39207
# Poissons Ratio (z) = 0.06345 0.35186
#
# Static dielectric constant tensor:
#      x y z
#    x 1.864530 0.000000 0.022690 
#    y 0.000000 1.808910 0.000000 
#    z 0.022690 0.000000 1.796310 
# 
# From -- ./inp_files/6359.got.cif
#   From: 2010.05.17/outbox.cif.g08.bks.cpg/sg4_4_cif.got.tgz:6359.got - 2010.06.03 18:43:04.
