data_PCOD9117069
_publ_section_title
;
Structure prediction by ZEFSAII (Michael W. Deem and Ramdas Pophale) SiO2 
 PCOD9117069
Probable space group: P 21
;
_chemical_formula_sum "Si O2"
_cell_formula_units_Z 16
_cell_length_a 17.033008
_cell_length_b 8.314370
_cell_length_c 13.739944
_cell_angle_alpha 90.000000
_cell_angle_beta 156.920934
_cell_angle_gamma 90.000000
_cell_volume 762.768685
_symmetry_space_group_name_H-M "P 21"
_symmetry_group_IT_number 4
_symmetry_cell_setting 'monoclinic'
loop_
_space_group_symop_operation_xyz
x,y,z
-x,1/2+y,-z
loop_
_atom_site_type_symbol
_atom_site_label
_atom_site_fract_x
_atom_site_fract_y
_atom_site_fract_z
Si Si1 0.358377 0.826520 0.705455
Si Si2 0.470418 0.679737 0.430031
Si Si3 0.329075 0.453256 0.428131
Si Si4 0.245370 0.331929 0.720126
Si Si5 0.946944 0.293010 0.012293
Si Si6 0.458133 0.454004 0.781946
Si Si7 0.237620 0.984760 0.366202
Si Si8 0.155274 0.959212 0.652949
O O1 0.399525 0.642598 0.721807
O O2 0.299277 0.929133 0.543759
O O3 0.190763 0.850829 0.597561
O O4 0.562398 0.877406 0.994177
O O5 0.423647 0.604610 0.481977
O O6 0.639838 0.815930 0.617954
O O7 0.564564 0.544999 0.466580
O O8 0.257435 0.762878 0.160943
O O9 0.449980 0.405016 0.661279
O O10 0.099770 0.442314 0.203283
O O11 0.301634 0.365216 0.673056
O O12 0.194715 0.144501 0.672007
O O13 0.059338 0.432668 0.545766
O O14 0.867256 0.340666 0.813645
O O15 0.080257 0.133781 0.182454
O O16 0.673451 0.419245 0.073404
#
# Coordination Sequence:
#
# PCOD9117069 Si02
#       8
#     2   2   2   2   2   2   2   2
#     4  10  23  43  67  92 134 173 216 269 337 386
#     4  11  23  42  62  92 130 170 219 273 327 395
#     4  11  24  42  66  93 131 176 220 275 333 395
#     4  10  22  43  66  99 132 170 219 273 330 397
#     4  11  23  42  62  93 129 168 221 275 326 390
#     4  10  23  43  67  92 133 175 214 271 337 389
#     4  11  24  42  66  93 131 176 219 276 331 394
#     4  10  22  43  68 100 130 170 222 274 325 398
#
# _framework density 20.976215
#
# number of rings (size 3 to 8) (size 9 to 14) (size 15 to 20)
#    0.000    1.500    2.500    1.500    3.500    3.000 
#    0.000    1.250    0.000    0.000    0.000    0.000 
#    0.000    0.000    0.000    0.000    0.000    0.000 
#
# Total GULP energy -89212.070353 kJ/mol
# GULP energy per Si atom -5575.754397 kJ/mol
# Density = 2.092847 g / cm^3
# Si number density = 20.976215 Si / 1000 Ang^3
#
#
#
# Elastic Constant Matrix: (Units=GPa)
#
#
# Indices 1 2 3 4 5 6 
#
# 1 93.5977 13.8247 45.4337 0.0000 3.2787 0.0000
# 2 13.8247 22.9423 13.9122 0.0000 1.4630 0.0000
# 3 45.4337 13.9122 60.8831 0.0000 18.4543 0.0000
# 4 0.0000 0.0000 0.0000 37.2908 0.0000 8.3325
# 5 3.2787 1.4630 18.4543 0.0000 35.9697 0.0000
# 6 0.0000 0.0000 0.0000 8.3325 0.0000 33.0120
#
#
#
# Elastic Compliance Matrix: (Units=1/GPa)
#
#
# Indices 1 2 3 4 5 6 
#
# 1 0.017937 -0.002290 -0.014677 0.000000 0.005988 0.000000
# 2 -0.002290 0.051539 -0.011244 0.000000 0.003882 0.000000
# 3 -0.014677 -0.011244 0.034818 0.000000 -0.016068 0.000000
# 4 0.000000 0.000000 0.000000 0.028419 0.000000 -0.007173
# 5 0.005988 0.003882 -0.016068 0.000000 0.035341 0.000000
# 6 0.000000 0.000000 0.000000 -0.007173 0.000000 0.032103
#
#
# Mechanical properties :
#
#
# Convention : Reuss Voigt Hill
#
# Bulk Modulus (GPa) = 20.89005 35.97379 28.43192
# Shear Modulus (GPa) = 18.34615 28.20465 23.27540
#
# Velocity S-wave (km/s) = 2.96060 3.67086 3.33469
# Velocity P-wave (km/s) = 4.65483 5.92908 5.33017
#
# Compressibility (1/GPa) = 0.04786969
#
# Stress axis : x y z
#
# Youngs Moduli (GPa) = 55.75045 19.40285 28.72115
#
# Poissons Ratio (x) = 0.04444 0.42155
# Poissons Ratio (y) = 0.12768 0.32295
# Poissons Ratio (z) = 0.81826 0.21817
#
# Static dielectric constant tensor:
#      x y z
#    x 1.715760 0.000000 0.007310 
#    y 0.000000 1.838370 0.000000 
#    z 0.007310 0.000000 1.762130 
# 
# From -- ./inp_files/14312.got.cif
#   From: 2010.05.17/outbox.cif.g08.bks.cpg/sg4_8_cif.got.tgz:14312.got - 2010.06.03 18:43:04.
