data_PCOD9117072
_publ_section_title
;
Structure prediction by ZEFSAII (Michael W. Deem and Ramdas Pophale) SiO2 
 PCOD9117072
Probable space group: P 21
;
_chemical_formula_sum "Si O2"
_cell_formula_units_Z 16
_cell_length_a 10.215369
_cell_length_b 7.893630
_cell_length_c 12.120096
_cell_angle_alpha 90.000000
_cell_angle_beta 142.735305
_cell_angle_gamma 90.000000
_cell_volume 591.765560
_symmetry_space_group_name_H-M "P 21"
_symmetry_group_IT_number 4
_symmetry_cell_setting 'monoclinic'
loop_
_space_group_symop_operation_xyz
x,y,z
-x,1/2+y,-z
loop_
_atom_site_type_symbol
_atom_site_label
_atom_site_fract_x
_atom_site_fract_y
_atom_site_fract_z
Si Si1 0.914594 0.784560 0.169831
Si Si2 0.167236 0.259681 0.638946
Si Si3 0.676687 0.396099 0.478822
Si Si4 0.204904 0.038868 0.107880
Si Si5 0.788647 0.859186 0.755641
Si Si6 0.032167 0.236041 0.325677
Si Si7 0.400933 0.607542 0.007411
Si Si8 0.595205 0.095889 0.247228
O O1 0.917100 0.719311 0.296944
O O2 0.836145 0.665950 0.021867
O O3 0.173348 0.809353 0.326127
O O4 0.738582 0.938902 0.058203
O O5 0.989205 0.257311 0.425024
O O6 0.228182 0.455735 0.665894
O O7 0.388480 0.149161 0.779800
O O8 0.436232 0.437536 0.357975
O O9 0.827584 0.562655 0.568722
O O10 0.639828 0.265111 0.350795
O O11 0.220450 0.157345 0.225112
O O12 0.439844 0.982894 0.225217
O O13 0.993705 0.923979 0.963196
O O14 0.834406 0.869595 0.656283
O O15 0.797423 0.237933 0.111560
O O16 0.477348 0.626150 0.930298
#
# Coordination Sequence:
#
# PCOD9117072 Si02
#       8
#     2   2   2   2   2   2   2   2
#     4  10  23  44  70 103 137 190 234 298 362 429
#     4  11  23  41  75 104 142 180 231 301 362 433
#     4  10  25  44  68  95 147 185 235 295 354 424
#     4  11  25  46  71  98 138 186 246 293 355 426
#     4  11  28  45  70 103 137 199 242 305 351 429
#     4  11  26  44  66 107 139 183 239 291 360 435
#     4  10  22  43  69 104 143 179 233 293 362 428
#     4  10  22  43  67 106 135 182 234 290 364 430
#
# _framework density 27.037732999999999
#
# number of rings (size 3 to 8) (size 9 to 14) (size 15 to 20)
#    0.000    1.500    1.250    1.500   10.500    2.000 
#    2.250    0.000    0.000    0.000    0.000    0.000 
#    0.000    0.000    0.000    0.000    0.000    0.000 
#
# Total GULP energy -89260.783126 kJ/mol
# GULP energy per Si atom -5578.798945 kJ/mol
# Density = 2.697619 g / cm^3
# Si number density = 27.037733 Si / 1000 Ang^3
#
#
#
# Elastic Constant Matrix: (Units=GPa)
#
#
# Indices 1 2 3 4 5 6 
#
# 1 91.3944 10.4813 11.0002 0.0000 24.6341 0.0000
# 2 10.4813 40.5911 -0.6457 0.0000 10.7162 0.0000
# 3 11.0002 -0.6457 99.5448 0.0000 3.6823 0.0000
# 4 0.0000 0.0000 0.0000 39.4772 0.0000 -8.3258
# 5 24.6341 10.7162 3.6823 0.0000 46.1634 0.0000
# 6 0.0000 0.0000 0.0000 -8.3258 0.0000 23.5667
#
#
#
# Elastic Compliance Matrix: (Units=1/GPa)
#
#
# Indices 1 2 3 4 5 6 
#
# 1 0.013021 -0.001675 -0.001211 0.000000 -0.006463 0.000000
# 2 -0.001675 0.026476 0.000553 0.000000 -0.005296 0.000000
# 3 -0.001211 0.000553 0.010194 0.000000 -0.000295 0.000000
# 4 0.000000 0.000000 0.000000 0.027370 0.000000 0.009670
# 5 -0.006463 -0.005296 -0.000295 0.000000 0.026364 0.000000
# 6 0.000000 0.000000 0.000000 0.009670 0.000000 0.045849
#
#
# Mechanical properties :
#
#
# Convention : Reuss Voigt Hill
#
# Bulk Modulus (GPa) = 22.21015 30.35577 26.28296
# Shear Modulus (GPa) = 29.59473 35.88778 32.74125
#
# Velocity S-wave (km/s) = 3.31202 3.64720 3.48364
# Velocity P-wave (km/s) = 4.78104 5.38401 5.09146
#
# Compressibility (1/GPa) = 0.04502447
#
# Stress axis : x y z
#
# Youngs Moduli (GPa) = 76.79617 37.77072 98.09664
#
# Poissons Ratio (x) = 0.06328 0.11877
# Poissons Ratio (y) = 0.12866 -0.05422
# Poissons Ratio (z) = 0.09298 -0.02088
#
# Static dielectric constant tensor:
#      x y z
#    x 2.172070 0.000000 0.111470 
#    y 0.000000 2.276120 0.000000 
#    z 0.111470 0.000000 2.345100 
# 
# From -- ./inp_files/13963.got.cif
#   From: 2010.05.17/outbox.cif.g08.bks.cpg/sg4_7_cif.got.tgz:13963.got - 2010.06.03 18:43:04.
