data_PCOD9117594
_publ_section_title
;
Structure prediction by ZEFSAII (Michael W. Deem and Ramdas Pophale) SiO2 
 PCOD9117594
Probable space group: P 21
;
_chemical_formula_sum "Si O2"
_cell_formula_units_Z 16
_cell_length_a 16.696425
_cell_length_b 5.137559
_cell_length_c 19.796543
_cell_angle_alpha 90.000000
_cell_angle_beta 159.040931
_cell_angle_gamma 90.000000
_cell_volume 607.420907
_symmetry_space_group_name_H-M "P 21"
_symmetry_group_IT_number 4
_symmetry_cell_setting 'monoclinic'
loop_
_space_group_symop_operation_xyz
x,y,z
-x,1/2+y,-z
loop_
_atom_site_type_symbol
_atom_site_label
_atom_site_fract_x
_atom_site_fract_y
_atom_site_fract_z
Si Si1 0.730661 0.795970 0.432057
Si Si2 0.668364 0.180426 0.261058
Si Si3 0.919405 0.897712 0.358441
Si Si4 0.540414 0.918750 0.560968
Si Si5 0.847168 0.582724 0.656234
Si Si6 0.801448 0.694427 0.129602
Si Si7 0.244055 0.825920 0.032181
Si Si8 0.989843 0.603944 0.037837
O O1 0.932267 0.619576 0.562307
O O2 0.794474 0.812227 0.560974
O O3 0.690383 0.044681 0.352179
O O4 0.477479 0.678998 0.229050
O O5 0.902178 0.329166 0.442895
O O6 0.440496 0.335291 0.070015
O O7 0.694729 0.981461 0.219827
O O8 0.853576 0.682838 0.250225
O O9 0.417801 0.111667 0.410385
O O10 0.391684 0.979772 0.508614
O O11 0.773371 0.072781 0.738655
O O12 0.994272 0.358969 0.738199
O O13 0.013876 0.665419 0.847569
O O14 0.756516 0.453739 0.043650
O O15 0.203525 0.033196 0.060569
O O16 0.017989 0.381245 0.003278
#
# Coordination Sequence:
#
# PCOD9117594 Si02
#       8
#     2   2   2   2   2   2   2   2
#     4  10  23  43  66 102 129 181 233 287 358 424
#     4  11  22  42  67  95 140 180 227 295 353 423
#     4  11  22  42  66  98 137 180 233 289 354 428
#     4  12  25  46  74 105 145 193 241 302 372 435
#     4  11  23  44  71  98 138 181 238 294 354 436
#     4  10  25  42  66 103 132 184 236 291 359 433
#     4  11  23  46  71  96 142 181 233 300 354 428
#     4  12  27  47  73 109 147 192 247 302 372 443
#
# _framework density 26.340881
#
# number of rings (size 3 to 8) (size 9 to 14) (size 15 to 20)
#    0.000    1.000    2.500    3.750    1.750    1.000 
#   18.000    0.000    0.000    0.000    0.000    0.000 
#    0.000    0.000    0.000    0.000    0.000    0.000 
#
# Total GULP energy -89288.941384 kJ/mol
# GULP energy per Si atom -5580.558836 kJ/mol
# Density = 2.628093 g / cm^3
# Si number density = 26.340881 Si / 1000 Ang^3
#
#
#
# Elastic Constant Matrix: (Units=GPa)
#
#
# Indices 1 2 3 4 5 6 
#
# 1 112.2684 20.4218 19.1158 0.0000 6.3350 0.0000
# 2 20.4218 72.9779 5.0494 0.0000 -4.4150 0.0000
# 3 19.1158 5.0494 84.7621 0.0000 -0.9580 0.0000
# 4 0.0000 0.0000 0.0000 31.6146 0.0000 -10.8838
# 5 6.3350 -4.4150 -0.9580 0.0000 39.5569 0.0000
# 6 0.0000 0.0000 0.0000 -10.8838 0.0000 26.3334
#
#
#
# Elastic Compliance Matrix: (Units=1/GPa)
#
#
# Indices 1 2 3 4 5 6 
#
# 1 0.009869 -0.002735 -0.002085 0.000000 -0.001936 0.000000
# 2 -0.002735 0.014609 -0.000230 0.000000 0.002063 0.000000
# 3 -0.002085 -0.000230 0.012288 0.000000 0.000606 0.000000
# 4 0.000000 0.000000 0.000000 0.036878 0.000000 0.015242
# 5 -0.001936 0.002063 0.000606 0.000000 0.025835 0.000000
# 6 0.000000 0.000000 0.000000 0.015242 0.000000 0.044274
#
#
# Mechanical properties :
#
#
# Convention : Reuss Voigt Hill
#
# Bulk Modulus (GPa) = 37.49932 39.90914 38.70423
# Shear Modulus (GPa) = 30.72357 34.52907 32.62632
#
# Velocity S-wave (km/s) = 3.41894 3.62450 3.52322
# Velocity P-wave (km/s) = 5.46375 5.71838 5.59252
#
# Compressibility (1/GPa) = 0.02666715
#
# Stress axis : x y z
#
# Youngs Moduli (GPa) = 101.32897 68.45216 81.37739
#
# Poissons Ratio (x) = 0.18719 0.16964
# Poissons Ratio (y) = 0.27709 0.01874
# Poissons Ratio (z) = 0.21123 0.01576
#
# Static dielectric constant tensor:
#      x y z
#    x 2.170740 0.000000 0.030630 
#    y 0.000000 2.213020 0.000000 
#    z 0.030630 0.000000 2.149090 
# 
# From -- ./inp_files/15358.got.cif
#   From: 2010.05.17/outbox.cif.g08.bks.cpg/sg4_8_cif.got.tgz:15358.got - 2010.06.03 18:43:04.
