data_PCOD9117024
_publ_section_title
;
Structure prediction by ZEFSAII (Michael W. Deem and Ramdas Pophale) SiO2 
 PCOD9117024
Probable space group: P 21
;
_chemical_formula_sum "Si O2"
_cell_formula_units_Z 16
_cell_length_a 5.135832
_cell_length_b 12.671623
_cell_length_c 12.090700
_cell_angle_alpha 90.000000
_cell_angle_beta 60.316344
_cell_angle_gamma 90.000000
_cell_volume 683.597899
_symmetry_space_group_name_H-M "P 21"
_symmetry_group_IT_number 4
_symmetry_cell_setting 'monoclinic'
loop_
_space_group_symop_operation_xyz
x,y,z
-x,1/2+y,-z
loop_
_atom_site_type_symbol
_atom_site_label
_atom_site_fract_x
_atom_site_fract_y
_atom_site_fract_z
Si Si1 0.280460 0.886970 0.283817
Si Si2 0.150763 0.263765 0.792690
Si Si3 0.137831 0.550201 0.520275
Si Si4 0.507085 0.040887 0.068484
Si Si5 0.276376 0.393692 0.165936
Si Si6 0.967629 0.164003 0.229562
Si Si7 0.841988 0.559982 0.358399
Si Si8 0.227874 0.751463 0.928557
O O1 0.513478 0.808504 0.292295
O O2 0.096762 0.832830 0.221732
O O3 0.484881 0.980708 0.190026
O O4 0.041062 0.942730 0.413646
O O5 0.134757 0.149477 0.739836
O O6 0.080038 0.268131 0.939365
O O7 0.104419 0.625474 0.634231
O O8 0.491868 0.529631 0.433698
O O9 0.970663 0.599580 0.449280
O O10 0.647296 0.156326 0.021945
O O11 0.157191 0.073074 0.127068
O O12 0.675578 0.960863 0.954092
O O13 0.619547 0.364299 0.121889
O O14 0.141706 0.276065 0.187698
O O15 0.063216 0.462802 0.286459
O O16 0.706183 0.193998 0.202067
#
# Coordination Sequence:
#
# PCOD9117024 Si02
#       8
#     2   2   2   2   2   2   2   2
#     4  11  25  46  75 106 146 198 245 296 373 447
#     4  12  25  45  74 117 147 187 243 313 379 441
#     4  11  28  51  74 103 149 207 257 302 360 440
#     4  10  22  42  71 109 150 183 239 306 376 452
#     4  11  24  45  71 113 145 193 244 307 387 442
#     4  10  26  43  74 104 148 199 245 306 372 450
#     4  12  28  48  76 107 150 199 252 309 361 442
#     4  11  24  42  75 111 151 186 241 315 382 452
#
# _framework density 23.405570000000001
#
# number of rings (size 3 to 8) (size 9 to 14) (size 15 to 20)
#    0.000    1.000    2.500    2.250   12.250    5.000 
#    0.000    0.000    0.000    0.000    0.000    0.000 
#    0.000    0.000    0.000    0.000    0.000    0.000 
#
# Total GULP energy -89187.800598 kJ/mol
# GULP energy per Si atom -5574.237537 kJ/mol
# Density = 2.335230 g / cm^3
# Si number density = 23.405570 Si / 1000 Ang^3
#
#
#
# Elastic Constant Matrix: (Units=GPa)
#
#
# Indices 1 2 3 4 5 6 
#
# 1 91.4229 33.6727 49.6483 0.0000 -3.0135 0.0000
# 2 33.6727 118.8792 48.5210 0.0000 -10.9322 0.0000
# 3 49.6483 48.5210 119.4629 0.0000 -16.6814 0.0000
# 4 0.0000 0.0000 0.0000 23.2840 0.0000 -8.1822
# 5 -3.0135 -10.9322 -16.6814 0.0000 28.1562 0.0000
# 6 0.0000 0.0000 0.0000 -8.1822 0.0000 31.3284
#
#
#
# Elastic Compliance Matrix: (Units=1/GPa)
#
#
# Indices 1 2 3 4 5 6 
#
# 1 0.014670 -0.002106 -0.005600 0.000000 -0.002565 0.000000
# 2 -0.002106 0.010454 -0.003091 0.000000 0.002002 0.000000
# 3 -0.005600 -0.003091 0.012758 0.000000 0.005759 0.000000
# 4 0.000000 0.000000 0.000000 0.047288 0.000000 0.012350
# 5 -0.002565 0.002002 0.005759 0.000000 0.039431 0.000000
# 6 0.000000 0.000000 0.000000 0.012350 0.000000 0.035146
#
#
# Mechanical properties :
#
#
# Convention : Reuss Voigt Hill
#
# Bulk Modulus (GPa) = 61.39311 65.93878 63.66594
# Shear Modulus (GPa) = 26.77089 29.74858 28.25973
#
# Velocity S-wave (km/s) = 3.38565 3.56898 3.47853
# Velocity P-wave (km/s) = 6.44753 6.72435 6.58740
#
# Compressibility (1/GPa) = 0.01628847
#
# Stress axis : x y z
#
# Youngs Moduli (GPa) = 68.16518 95.65513 78.38324
#
# Poissons Ratio (x) = 0.20142 0.43893
# Poissons Ratio (y) = 0.14353 0.24231
# Poissons Ratio (z) = 0.38171 0.29571
#
# Static dielectric constant tensor:
#      x y z
#    x 2.180150 0.000000 0.045320 
#    y 0.000000 1.913320 0.000000 
#    z 0.045320 0.000000 1.879940 
# 
# From -- ./inp_files/10391.got.cif
#   From: 2010.05.17/outbox.cif.g08.bks.cpg/sg4_6_cif.got.tgz:10391.got - 2010.06.03 18:43:04.
