data_PCOD9117485
_publ_section_title
;
Structure prediction by ZEFSAII (Michael W. Deem and Ramdas Pophale) SiO2 
 PCOD9117485
Probable space group: P 21
;
_chemical_formula_sum "Si O2"
_cell_formula_units_Z 12
_cell_length_a 5.337054
_cell_length_b 18.253952
_cell_length_c 5.147980
_cell_angle_alpha 90.000000
_cell_angle_beta 60.930991
_cell_angle_gamma 90.000000
_cell_volume 438.353271
_symmetry_space_group_name_H-M "P 21"
_symmetry_group_IT_number 4
_symmetry_cell_setting 'monoclinic'
loop_
_space_group_symop_operation_xyz
x,y,z
-x,1/2+y,-z
loop_
_atom_site_type_symbol
_atom_site_label
_atom_site_fract_x
_atom_site_fract_y
_atom_site_fract_z
Si Si1 0.149248 0.157080 0.673787
Si Si2 0.619152 0.380585 0.499360
Si Si3 0.504495 0.711114 0.005150
Si Si4 0.705460 0.482498 0.956620
Si Si5 0.129327 0.517470 0.362929
Si Si6 0.190688 0.345526 0.335244
O O1 0.326451 0.177362 0.326924
O O2 0.077055 0.070449 0.690707
O O3 0.832716 0.193840 0.836875
O O4 0.991402 0.017279 0.282187
O O5 0.705493 0.424107 0.189312
O O6 0.311437 0.347888 0.569009
O O7 0.866000 0.321432 0.438597
O O8 0.621471 0.439587 0.730268
O O9 0.582771 0.797260 0.932025
O O10 0.662822 0.683600 0.182107
O O11 0.456125 0.539905 0.149220
O O12 0.158096 0.431424 0.284285
#
# Coordination Sequence:
#
# PCOD9117485 Si02
#       6
#     2   2   2   2   2   2
#     4  12  28  49  73 105 148 192 235 293 364 428
#     4  10  23  41  68 107 142 178 232 300 354 407
#     4  12  28  49  73 105 148 192 235 293 364 428
#     4  10  23  41  68 107 142 178 232 300 354 407
#     4  10  24  44  73 104 140 186 242 293 348 421
#     4  10  24  44  73 104 140 186 242 293 348 421
#
# _framework density 27.375177999999998
#
# number of rings (size 3 to 8) (size 9 to 14) (size 15 to 20)
#    0.000    1.333    0.000    3.000    0.000   33.333 
#    0.000    0.000    0.000    0.000    0.000    0.000 
#    0.000    0.000    0.000    0.000    0.000    0.000 
#
# Total GULP energy -67154.984561 kJ/mol
# GULP energy per Si atom -5596.248713 kJ/mol
# Density = 2.731287 g / cm^3
# Si number density = 27.375178 Si / 1000 Ang^3
#
#
#
# Elastic Constant Matrix: (Units=GPa)
#
#
# Indices 1 2 3 4 5 6 
#
# 1 202.8598 12.9721 70.4871 0.0000 18.4939 0.0000
# 2 12.9721 137.5050 21.1544 0.0000 16.7892 0.0000
# 3 70.4871 21.1544 214.5670 0.0000 -4.8553 0.0000
# 4 0.0000 0.0000 0.0000 37.5382 0.0000 -4.6806
# 5 18.4939 16.7892 -4.8553 0.0000 61.8482 0.0000
# 6 0.0000 0.0000 0.0000 -4.6806 0.0000 39.8312
#
#
#
# Elastic Compliance Matrix: (Units=1/GPa)
#
#
# Indices 1 2 3 4 5 6 
#
# 1 0.005775 -0.000018 -0.001938 0.000000 -0.001874 0.000000
# 2 -0.000018 0.007658 -0.000797 0.000000 -0.002136 0.000000
# 3 -0.001938 -0.000797 0.005403 0.000000 0.001220 0.000000
# 4 0.000000 0.000000 0.000000 0.027036 0.000000 0.003177
# 5 -0.001874 -0.002136 0.001220 0.000000 0.017405 0.000000
# 6 0.000000 0.000000 0.000000 0.003177 0.000000 0.025479
#
#
# Mechanical properties :
#
#
# Convention : Reuss Voigt Hill
#
# Bulk Modulus (GPa) = 75.02032 84.90658 79.96345
# Shear Modulus (GPa) = 50.65621 57.86473 54.26047
#
# Velocity S-wave (km/s) = 4.30634 4.60256 4.45691
# Velocity P-wave (km/s) = 7.22427 7.70247 7.46720
#
# Compressibility (1/GPa) = 0.01332972
#
# Stress axis : x y z
#
# Youngs Moduli (GPa) = 173.16624 130.58869 185.07097
#
# Poissons Ratio (x) = 0.00233 0.35861
# Poissons Ratio (y) = 0.00309 0.14758
# Poissons Ratio (z) = 0.33555 0.10414
#
# Static dielectric constant tensor:
#      x y z
#    x 2.338800 0.000000 -0.107090 
#    y 0.000000 2.245560 0.000000 
#    z -0.107090 0.000000 2.204990 
# 
# From -- ./inp_files/472.got.cif
#   From: 2010.05.17/outbox.cif.g08.bks.cpg/sg4_1_cif.got.tgz:472.got - 2010.06.03 18:43:04.
