data_PCOD9117952
_publ_section_title
;
Structure prediction by ZEFSAII (Michael W. Deem and Ramdas Pophale) SiO2 
 PCOD9117952
Probable space group: P 21
;
_chemical_formula_sum "Si O2"
_cell_formula_units_Z 14
_cell_length_a 13.377216
_cell_length_b 4.844160
_cell_length_c 8.934619
_cell_angle_alpha 90.000000
_cell_angle_beta 71.127344
_cell_angle_gamma 90.000000
_cell_volume 547.849772
_symmetry_space_group_name_H-M "P 21"
_symmetry_group_IT_number 4
_symmetry_cell_setting 'monoclinic'
loop_
_space_group_symop_operation_xyz
x,y,z
-x,1/2+y,-z
loop_
_atom_site_type_symbol
_atom_site_label
_atom_site_fract_x
_atom_site_fract_y
_atom_site_fract_z
Si Si1 0.678402 0.511540 0.654710
Si Si2 0.434266 0.357943 0.542330
Si Si3 0.531475 0.038980 0.063103
Si Si4 0.743985 0.665387 0.211898
Si Si5 0.813978 0.184621 0.358526
Si Si6 0.985861 0.930073 0.891853
Si Si7 0.235266 0.346347 0.110517
O O1 0.641262 0.732487 0.547700
O O2 0.563215 0.431976 0.778955
O O3 0.755781 0.279581 0.541511
O O4 0.743355 0.674897 0.750317
O O5 0.461466 0.674265 0.514973
O O6 0.373286 0.288719 0.722399
O O7 0.506151 0.362716 0.064137
O O8 0.658517 0.014725 0.982329
O O9 0.746623 0.360995 0.272700
O O10 0.807857 0.876088 0.292172
O O11 0.774838 0.645442 0.026550
O O12 0.929642 0.313753 0.270930
O O13 0.877679 0.993926 0.853684
O O14 0.983363 0.695819 0.023841
#
# Coordination Sequence:
#
# PCOD9117952 Si02
#       7
#     2   2   2   2   2   2   2
#     4  10  25  44  70 106 150 183 243 310 368 438
#     4  11  23  41  63  95 137 191 234 286 360 441
#     4  10  24  42  62  97 143 183 225 289 367 440
#     4  11  23  40  69  96 138 185 239 288 359 440
#     4  11  23  46  68 102 140 187 239 299 366 437
#     4  12  24  47  75 102 140 193 253 306 364 453
#     4  11  24  44  73 106 138 192 243 302 366 429
#
# _framework density 25.554451
#
# number of rings (size 3 to 8) (size 9 to 14) (size 15 to 20)
#    0.000    1.143    2.857    2.571    0.000   16.000 
#    0.000    5.714    0.000    0.000    0.000    0.000 
#    0.000    0.000    0.000    0.000    0.000    0.000 
#
# Total GULP energy -78039.622189 kJ/mol
# GULP energy per Si atom -5574.258728 kJ/mol
# Density = 2.549629 g / cm^3
# Si number density = 25.554451 Si / 1000 Ang^3
#
#
#
# Elastic Constant Matrix: (Units=GPa)
#
#
# Indices 1 2 3 4 5 6 
#
# 1 197.7444 31.4428 42.4369 0.0000 -22.7043 0.0000
# 2 31.4428 92.2349 26.9849 0.0000 7.7807 0.0000
# 3 42.4369 26.9849 113.5816 0.0000 -10.5099 0.0000
# 4 0.0000 0.0000 0.0000 26.0124 0.0000 -4.5742
# 5 -22.7043 7.7807 -10.5099 0.0000 45.4285 0.0000
# 6 0.0000 0.0000 0.0000 -4.5742 0.0000 33.4064
#
#
#
# Elastic Compliance Matrix: (Units=1/GPa)
#
#
# Indices 1 2 3 4 5 6 
#
# 1 0.006023 -0.001855 -0.001534 0.000000 0.002973 0.000000
# 2 -0.001855 0.012555 -0.002631 0.000000 -0.003686 0.000000
# 3 -0.001534 -0.002631 0.010191 0.000000 0.002042 0.000000
# 4 0.000000 0.000000 0.000000 0.039392 0.000000 0.005394
# 5 0.002973 -0.003686 0.002042 0.000000 0.024602 0.000000
# 6 0.000000 0.000000 0.000000 0.005394 0.000000 0.030673
#
#
# Mechanical properties :
#
#
# Convention : Reuss Voigt Hill
#
# Bulk Modulus (GPa) = 59.77800 67.25445 63.51623
# Shear Modulus (GPa) = 35.44791 41.14922 38.29857
#
# Velocity S-wave (km/s) = 3.72849 4.01715 3.87551
# Velocity P-wave (km/s) = 6.47910 6.92040 6.70338
#
# Compressibility (1/GPa) = 0.01672856
#
# Stress axis : x y z
#
# Youngs Moduli (GPa) = 166.04145 79.65035 98.12123
#
# Poissons Ratio (x) = 0.14775 0.15056
# Poissons Ratio (y) = 0.30800 0.25814
# Poissons Ratio (z) = 0.25478 0.20955
#
# Static dielectric constant tensor:
#      x y z
#    x 2.130670 0.000000 -0.051220 
#    y 0.000000 1.977740 0.000000 
#    z -0.051220 0.000000 2.130920 
# 
# From -- ./inp_files/7114.got.cif
#   From: 2010.05.17/outbox.cif.g08.bks.cpg/sg4_4_cif.got.tgz:7114.got - 2010.06.03 18:43:04.
