data_PCOD9117084
_publ_section_title
;
Structure prediction by ZEFSAII (Michael W. Deem and Ramdas Pophale) SiO2 
 PCOD9117084
Probable space group: P 21
;
_chemical_formula_sum "Si O2"
_cell_formula_units_Z 14
_cell_length_a 13.454369
_cell_length_b 4.923475
_cell_length_c 15.814200
_cell_angle_alpha 90.000000
_cell_angle_beta 30.402772
_cell_angle_gamma 90.000000
_cell_volume 530.148583
_symmetry_space_group_name_H-M "P 21"
_symmetry_group_IT_number 4
_symmetry_cell_setting 'monoclinic'
loop_
_space_group_symop_operation_xyz
x,y,z
-x,1/2+y,-z
loop_
_atom_site_type_symbol
_atom_site_label
_atom_site_fract_x
_atom_site_fract_y
_atom_site_fract_z
Si Si1 0.558707 0.563490 0.134420
Si Si2 0.388303 0.833967 0.543903
Si Si3 0.051360 0.622241 0.013090
Si Si4 0.237039 0.312891 0.271490
Si Si5 0.027729 0.812067 0.366134
Si Si6 0.512029 0.043858 0.276581
Si Si7 0.018141 0.482598 0.784167
O O1 0.450796 0.431205 0.133372
O O2 0.516881 0.351712 0.241352
O O3 0.466861 0.848947 0.230431
O O4 0.792287 0.584264 0.950690
O O5 0.540863 0.582444 0.448176
O O6 0.263058 0.485404 0.864014
O O7 0.395004 0.960257 0.444960
O O8 0.982233 0.719419 0.155379
O O9 0.178704 0.685076 0.704221
O O10 0.926577 0.405308 0.053353
O O11 0.936250 0.903869 0.345326
O O12 0.125455 0.330196 0.444293
O O13 0.115931 0.511770 0.298702
O O14 0.795705 0.514181 0.738904
#
# Coordination Sequence:
#
# PCOD9117084 Si02
#       7
#     2   2   2   2   2   2   2
#     4  11  24  43  70 101 138 182 232 285 352 419
#     4  12  28  46  68 100 140 184 239 301 360 420
#     4  11  24  44  70  98 138 184 236 294 358 420
#     4  10  22  43  68 100 139 183 221 278 355 421
#     4  10  23  42  69 100 137 178 229 282 343 422
#     4  11  24  43  66  94 133 184 228 282 354 425
#     4  11  27  45  71 105 137 181 241 298 346 417
#
# _framework density 26.407689999999999
#
# number of rings (size 3 to 8) (size 9 to 14) (size 15 to 20)
#    0.000    1.143    0.000    5.143    0.000   16.000 
#    0.000    0.000    0.000    0.000    0.000    0.000 
#    0.000    0.000    0.000    0.000    0.000    0.000 
#
# Total GULP energy -78526.919170 kJ/mol
# GULP energy per Si atom -5609.065655 kJ/mol
# Density = 2.634758 g / cm^3
# Si number density = 26.407690 Si / 1000 Ang^3
#
#
#
# Elastic Constant Matrix: (Units=GPa)
#
#
# Indices 1 2 3 4 5 6 
#
# 1 104.1647 23.3624 33.0935 0.0000 -4.8290 0.0000
# 2 23.3624 111.8373 31.3921 0.0000 6.6097 0.0000
# 3 33.0935 31.3921 91.0323 0.0000 -7.8037 0.0000
# 4 0.0000 0.0000 0.0000 30.2071 0.0000 -0.4573
# 5 -4.8290 6.6097 -7.8037 0.0000 51.9859 0.0000
# 6 0.0000 0.0000 0.0000 -0.4573 0.0000 42.2857
#
#
#
# Elastic Compliance Matrix: (Units=1/GPa)
#
#
# Indices 1 2 3 4 5 6 
#
# 1 0.011046 -0.001369 -0.003485 0.000000 0.000677 0.000000
# 2 -0.001369 0.010238 -0.003196 0.000000 -0.001909 0.000000
# 3 -0.003485 -0.003196 0.013536 0.000000 0.002114 0.000000
# 4 0.000000 0.000000 0.000000 0.033110 0.000000 0.000358
# 5 0.000677 -0.001909 0.002114 0.000000 0.019859 0.000000
# 6 0.000000 0.000000 0.000000 0.000358 0.000000 0.023653
#
#
# Mechanical properties :
#
#
# Convention : Reuss Voigt Hill
#
# Bulk Modulus (GPa) = 53.42586 53.63672 53.53129
# Shear Modulus (GPa) = 37.37430 39.50815 38.44123
#
# Velocity S-wave (km/s) = 3.76610 3.87212 3.81948
# Velocity P-wave (km/s) = 6.25991 6.35187 6.30606
#
# Compressibility (1/GPa) = 0.01871753
#
# Stress axis : x y z
#
# Youngs Moduli (GPa) = 90.53074 97.67974 73.87880
#
# Poissons Ratio (x) = 0.13374 0.25750
# Poissons Ratio (y) = 0.12395 0.23614
# Poissons Ratio (z) = 0.31554 0.31221
#
# Static dielectric constant tensor:
#      x y z
#    x 2.049170 0.000000 -0.038750 
#    y 0.000000 1.967520 0.000000 
#    z -0.038750 0.000000 2.107060 
# 
# From -- ./inp_files/13841.got.cif
#   From: 2010.05.17/outbox.cif.g08.bks.cpg/sg4_7_cif.got.tgz:13841.got - 2010.06.03 18:43:04.
