data_PCOD9117853
_publ_section_title
;
Structure prediction by ZEFSAII (Michael W. Deem and Ramdas Pophale) SiO2 
 PCOD9117853
Probable space group: P 21
;
_chemical_formula_sum "Si O2"
_cell_formula_units_Z 16
_cell_length_a 5.130853
_cell_length_b 11.026225
_cell_length_c 12.626243
_cell_angle_alpha 90.000000
_cell_angle_beta 88.426000
_cell_angle_gamma 90.000000
_cell_volume 714.046785
_symmetry_space_group_name_H-M "P 21"
_symmetry_group_IT_number 4
_symmetry_cell_setting 'monoclinic'
loop_
_space_group_symop_operation_xyz
x,y,z
-x,1/2+y,-z
loop_
_atom_site_type_symbol
_atom_site_label
_atom_site_fract_x
_atom_site_fract_y
_atom_site_fract_z
Si Si1 0.718795 0.310480 0.881948
Si Si2 0.775485 0.919022 0.217366
Si Si3 0.809060 0.734002 0.389108
Si Si4 0.207718 0.871935 0.882605
Si Si5 0.679916 0.249368 0.472611
Si Si6 0.994618 0.177451 0.265488
Si Si7 0.602467 0.870484 0.684841
Si Si8 0.917171 0.075711 0.782878
O O1 0.510743 0.399664 0.828519
O O2 0.712371 0.174056 0.832588
O O3 0.019258 0.343570 0.855218
O O4 0.682443 0.330589 0.006782
O O5 0.750053 0.861851 0.334045
O O6 0.926218 0.045293 0.225145
O O7 0.561438 0.694093 0.460146
O O8 0.071995 0.753205 0.453477
O O9 0.871100 0.645725 0.290533
O O10 0.037799 0.763418 0.836228
O O11 0.426009 0.883935 0.790241
O O12 0.042658 0.996256 0.876349
O O13 0.788956 0.190960 0.363772
O O14 0.559156 0.372526 0.422255
O O15 0.253673 0.238900 0.312027
O O16 0.804059 0.978654 0.699867
#
# Coordination Sequence:
#
# PCOD9117853 Si02
#       8
#     2   2   2   2   2   2   2   2
#     4  11  27  46  74 108 139 194 238 290 381 432
#     4  11  27  48  68 105 148 182 235 304 359 434
#     4  11  24  46  68 102 143 180 237 295 357 431
#     4  10  25  44  77 103 144 187 245 297 360 439
#     4  11  23  46  69 105 132 191 239 281 369 427
#     4  10  24  48  68 106 142 185 238 299 355 427
#     4  10  23  47  70 105 145 185 246 300 356 438
#     4  10  25  47  70 106 149 188 240 308 357 434
#
# _framework density 22.407495999999998
#
# number of rings (size 3 to 8) (size 9 to 14) (size 15 to 20)
#    0.000    1.500    1.250    1.500   14.000    1.000 
#    6.750    0.000    0.000    0.000    0.000    0.000 
#    0.000    0.000    0.000    0.000    0.000    0.000 
#
# Total GULP energy -89187.906426 kJ/mol
# GULP energy per Si atom -5574.244152 kJ/mol
# Density = 2.235650 g / cm^3
# Si number density = 22.407496 Si / 1000 Ang^3
#
#
#
# Elastic Constant Matrix: (Units=GPa)
#
#
# Indices 1 2 3 4 5 6 
#
# 1 96.5348 0.0858 27.9669 0.0000 12.7925 0.0000
# 2 0.0858 60.7212 35.0064 0.0000 10.5600 0.0000
# 3 27.9669 35.0064 99.2446 0.0000 21.8858 0.0000
# 4 0.0000 0.0000 0.0000 7.7173 0.0000 -1.5466
# 5 12.7925 10.5600 21.8858 0.0000 32.3788 0.0000
# 6 0.0000 0.0000 0.0000 -1.5466 0.0000 8.7152
#
#
#
# Elastic Compliance Matrix: (Units=1/GPa)
#
#
# Indices 1 2 3 4 5 6 
#
# 1 0.011795 0.002566 -0.003545 0.000000 -0.003101 0.000000
# 2 0.002566 0.021357 -0.007635 0.000000 -0.002819 0.000000
# 3 -0.003545 -0.007635 0.015172 0.000000 -0.006364 0.000000
# 4 0.000000 0.000000 0.000000 0.134357 0.000000 0.023842
# 5 -0.003101 -0.002819 -0.006364 0.000000 0.037331 0.000000
# 6 0.000000 0.000000 0.000000 0.023842 0.000000 0.118972
#
#
# Mechanical properties :
#
#
# Convention : Reuss Voigt Hill
#
# Bulk Modulus (GPa) = 32.15855 42.51319 37.33587
# Shear Modulus (GPa) = 13.63976 22.65837 18.14906
#
# Velocity S-wave (km/s) = 2.46989 3.18338 2.84906
# Velocity P-wave (km/s) = 4.74517 5.70314 5.24607
#
# Compressibility (1/GPa) = 0.03109593
#
# Stress axis : x y z
#
# Youngs Moduli (GPa) = 84.78435 46.82356 65.91262
#
# Poissons Ratio (x) = -0.12017 0.23367
# Poissons Ratio (y) = -0.21759 0.50323
# Poissons Ratio (z) = 0.30057 0.35749
#
# Static dielectric constant tensor:
#      x y z
#    x 1.921500 0.000000 0.044580 
#    y 0.000000 1.938480 0.000000 
#    z 0.044580 0.000000 1.812540 
# 
# From -- ./inp_files/10470.got.cif
#   From: 2010.05.17/outbox.cif.g08.bks.cpg/sg4_6_cif.got.tgz:10470.got - 2010.06.03 18:43:04.
