data_PCOD9117691
_publ_section_title
;
Structure prediction by ZEFSAII (Michael W. Deem and Ramdas Pophale) SiO2 
 PCOD9117691
Probable space group: P 21
;
_chemical_formula_sum "Si O2"
_cell_formula_units_Z 16
_cell_length_a 7.499031
_cell_length_b 11.959537
_cell_length_c 9.343294
_cell_angle_alpha 90.000000
_cell_angle_beta 113.220884
_cell_angle_gamma 90.000000
_cell_volume 770.071612
_symmetry_space_group_name_H-M "P 21"
_symmetry_group_IT_number 4
_symmetry_cell_setting 'monoclinic'
loop_
_space_group_symop_operation_xyz
x,y,z
-x,1/2+y,-z
loop_
_atom_site_type_symbol
_atom_site_label
_atom_site_fract_x
_atom_site_fract_y
_atom_site_fract_z
Si Si1 0.871389 0.733510 0.634541
Si Si2 0.181962 0.489511 0.066057
Si Si3 0.509681 0.306926 0.191290
Si Si4 0.123866 0.867003 0.520667
Si Si5 0.779477 0.223233 0.030200
Si Si6 0.447014 0.087661 0.356402
Si Si7 0.182025 0.482415 0.393151
Si Si8 0.815743 0.393585 0.792924
O O1 0.722012 0.632000 0.590008
O O2 0.014995 0.755314 0.546533
O O3 0.016423 0.727626 0.817113
O O4 0.752885 0.850973 0.600536
O O5 0.325141 0.384285 0.107920
O O6 0.128866 0.514604 0.214641
O O7 0.275882 0.596364 0.020309
O O8 0.988656 0.462841 0.918921
O O9 0.662136 0.367322 0.345440
O O10 0.624969 0.284153 0.081737
O O11 0.462608 0.187245 0.247107
O O12 0.132225 0.868162 0.354161
O O13 0.996376 0.966028 0.553102
O O14 0.793904 0.286091 0.884756
O O15 0.649663 0.061325 0.495928
O O16 0.372572 0.972329 0.265998
#
# Coordination Sequence:
#
# PCOD9117691 Si02
#       8
#     2   2   2   2   2   2   2   2
#     4   9  20  48  64  97 139 181 221 281 344 406
#     4  12  24  46  71  99 143 184 224 293 354 408
#     4  11  24  47  69  98 144 182 233 283 349 418
#     4   9  23  45  69  94 139 181 228 283 334 417
#     4  11  25  43  70 102 142 183 226 291 352 408
#     4  12  24  40  78  98 135 185 231 288 346 415
#     4  10  23  44  68  95 136 180 230 276 347 408
#     4  12  25  43  71 105 136 176 237 285 346 424
#
# _framework density 20.777291000000002
#
# number of rings (size 3 to 8) (size 9 to 14) (size 15 to 20)
#    0.750    0.500    3.750    0.750    5.250    0.000 
#    2.250    0.000    0.000    0.000    0.000    0.000 
#    0.000    0.000    0.000    0.000    0.000    0.000 
#
# Total GULP energy -89355.105239 kJ/mol
# GULP energy per Si atom -5584.694077 kJ/mol
# Density = 2.073000 g / cm^3
# Si number density = 20.777291 Si / 1000 Ang^3
#
#
#
# Elastic Constant Matrix: (Units=GPa)
#
#
# Indices 1 2 3 4 5 6 
#
# 1 69.7179 1.0326 39.8724 0.0000 -13.8126 0.0000
# 2 1.0326 64.4882 21.5089 0.0000 -8.1753 0.0000
# 3 39.8724 21.5089 128.2297 0.0000 -25.2528 0.0000
# 4 0.0000 0.0000 0.0000 27.4580 0.0000 14.5990
# 5 -13.8126 -8.1753 -25.2528 0.0000 20.9077 0.0000
# 6 0.0000 0.0000 0.0000 14.5990 0.0000 35.8383
#
#
#
# Elastic Compliance Matrix: (Units=1/GPa)
#
#
# Indices 1 2 3 4 5 6 
#
# 1 0.018436 0.002194 -0.004636 0.000000 0.007438 0.000000
# 2 0.002194 0.016954 -0.002539 0.000000 0.005012 0.000000
# 3 -0.004636 -0.002539 0.011635 0.000000 0.009997 0.000000
# 4 0.000000 0.000000 0.000000 0.046488 0.000000 -0.018937
# 5 0.007438 0.005012 0.009997 0.000000 0.066778 0.000000
# 6 0.000000 0.000000 0.000000 -0.018937 0.000000 0.035617
#
#
# Mechanical properties :
#
#
# Convention : Reuss Voigt Hill
#
# Bulk Modulus (GPa) = 26.98113 43.02929 35.00521
# Shear Modulus (GPa) = 22.91232 30.17559 26.54396
#
# Velocity S-wave (km/s) = 3.32438 3.81509 3.57816
# Velocity P-wave (km/s) = 5.26777 6.33729 5.82712
#
# Compressibility (1/GPa) = 0.03706294
#
# Stress axis : x y z
#
# Youngs Moduli (GPa) = 54.24196 58.98384 85.95043
#
# Poissons Ratio (x) = -0.12941 0.39844
# Poissons Ratio (y) = -0.11900 0.21822
# Poissons Ratio (z) = 0.25145 0.14976
#
# Static dielectric constant tensor:
#      x y z
#    x 1.764270 0.000000 -0.028420 
#    y 0.000000 1.767080 0.000000 
#    z -0.028420 0.000000 1.707900 
# 
# From -- ./inp_files/6430.got.cif
#   From: 2010.05.17/outbox.cif.g08.bks.cpg/sg4_4_cif.got.tgz:6430.got - 2010.06.03 18:43:04.
