data_PCOD9117660
_publ_section_title
;
Structure prediction by ZEFSAII (Michael W. Deem and Ramdas Pophale) SiO2 
 PCOD9117660
Probable space group: P 21
;
_chemical_formula_sum "Si O2"
_cell_formula_units_Z 14
_cell_length_a 8.005262
_cell_length_b 8.797558
_cell_length_c 15.629878
_cell_angle_alpha 90.000000
_cell_angle_beta 145.359868
_cell_angle_gamma 90.000000
_cell_volume 625.695093
_symmetry_space_group_name_H-M "P 21"
_symmetry_group_IT_number 4
_symmetry_cell_setting 'monoclinic'
loop_
_space_group_symop_operation_xyz
x,y,z
-x,1/2+y,-z
loop_
_atom_site_type_symbol
_atom_site_label
_atom_site_fract_x
_atom_site_fract_y
_atom_site_fract_z
Si Si1 0.244130 0.976300 0.418868
Si Si2 0.909612 0.531361 0.158566
Si Si3 0.573957 0.823188 0.698784
Si Si4 0.338050 0.493890 0.630466
Si Si5 0.748879 0.431110 0.273035
Si Si6 0.572070 0.257993 0.634630
Si Si7 0.321743 0.587577 0.813630
O O1 0.303760 0.857986 0.520199
O O2 0.450676 0.908236 0.432816
O O3 0.936562 0.006480 0.243183
O O4 0.353902 0.134095 0.504563
O O5 0.772559 0.530462 0.196558
O O6 0.134016 0.394201 0.223384
O O7 0.115745 0.678987 0.238384
O O8 0.639510 0.545084 0.980341
O O9 0.545830 0.641807 0.699911
O O10 0.500679 0.912615 0.757192
O O11 0.493672 0.329077 0.691874
O O12 0.250886 0.521972 0.690785
O O13 0.042061 0.474768 0.449680
O O14 0.730935 0.265688 0.220187
#
# Coordination Sequence:
#
# PCOD9117660 Si02
#       7
#     2   2   2   2   2   2   2
#     4  11  21  42  67 102 131 178 235 283 343 412
#     4  11  27  47  65 106 147 180 229 288 358 419
#     4  10  23  43  75  98 136 183 232 287 345 412
#     4  11  22  44  73 100 133 180 243 289 336 414
#     4  11  23  45  71 102 138 182 233 289 341 416
#     4  11  24  40  71 101 138 182 232 289 349 417
#     4  11  26  43  68 103 141 177 230 289 350 414
#
# _framework density 22.375116999999999
#
# number of rings (size 3 to 8) (size 9 to 14) (size 15 to 20)
#    0.000    1.143    2.857    3.429    4.000    2.286 
#    5.143    0.000    0.000    0.000    0.000    0.000 
#    0.000    0.000    0.000    0.000    0.000    0.000 
#
# Total GULP energy -77996.454681 kJ/mol
# GULP energy per Si atom -5571.175334 kJ/mol
# Density = 2.232419 g / cm^3
# Si number density = 22.375117 Si / 1000 Ang^3
#
#
#
# Elastic Constant Matrix: (Units=GPa)
#
#
# Indices 1 2 3 4 5 6 
#
# 1 36.2165 17.3477 3.1401 0.0000 13.1713 0.0000
# 2 17.3477 57.2231 17.6048 0.0000 7.1247 0.0000
# 3 3.1401 17.6048 121.6431 0.0000 12.6635 0.0000
# 4 0.0000 0.0000 0.0000 14.9713 0.0000 5.7602
# 5 13.1713 7.1247 12.6635 0.0000 13.5413 0.0000
# 6 0.0000 0.0000 0.0000 5.7602 0.0000 45.3622
#
#
#
# Elastic Compliance Matrix: (Units=1/GPa)
#
#
# Indices 1 2 3 4 5 6 
#
# 1 0.049538 -0.010717 0.005208 0.000000 -0.047416 0.000000
# 2 -0.010717 0.021408 -0.003029 0.000000 0.001993 0.000000
# 3 0.005208 -0.003029 0.009845 0.000000 -0.012679 0.000000
# 4 0.000000 0.000000 0.000000 0.070225 0.000000 -0.008917
# 5 -0.047416 0.001993 -0.012679 0.000000 0.130777 0.000000
# 6 0.000000 0.000000 0.000000 -0.008917 0.000000 0.023177
#
#
# Mechanical properties :
#
#
# Convention : Reuss Voigt Hill
#
# Bulk Modulus (GPa) = 15.69460 32.36312 24.02886
# Shear Modulus (GPa) = 14.56522 26.57431 20.56976
#
# Velocity S-wave (km/s) = 2.55415 3.45000 3.03531
# Velocity P-wave (km/s) = 3.96583 5.51047 4.80068
#
# Compressibility (1/GPa) = 0.06371618
#
# Stress axis : x y z
#
# Youngs Moduli (GPa) = 20.18657 46.71132 101.57835
#
# Poissons Ratio (x) = 0.50058 -0.52906
# Poissons Ratio (y) = 0.21633 0.30769
# Poissons Ratio (z) = -0.10514 0.14149
#
# Static dielectric constant tensor:
#      x y z
#    x 1.961560 0.000000 0.001090 
#    y 0.000000 1.870600 0.000000 
#    z 0.001090 0.000000 1.819260 
# 
# From -- ./inp_files/14970.got.cif
#   From: 2010.05.17/outbox.cif.g08.bks.cpg/sg4_8_cif.got.tgz:14970.got - 2010.06.03 18:43:04.
