data_PCOD9117152
_publ_section_title
;
Structure prediction by ZEFSAII (Michael W. Deem and Ramdas Pophale) SiO2 
 PCOD9117152
Probable space group: P 21
;
_chemical_formula_sum "Si O2"
_cell_formula_units_Z 16
_cell_length_a 12.175606
_cell_length_b 5.664055
_cell_length_c 22.742553
_cell_angle_alpha 90.000000
_cell_angle_beta 155.822261
_cell_angle_gamma 90.000000
_cell_volume 642.368057
_symmetry_space_group_name_H-M "P 21"
_symmetry_group_IT_number 4
_symmetry_cell_setting 'monoclinic'
loop_
_space_group_symop_operation_xyz
x,y,z
-x,1/2+y,-z
loop_
_atom_site_type_symbol
_atom_site_label
_atom_site_fract_x
_atom_site_fract_y
_atom_site_fract_z
Si Si1 0.212841 0.919270 0.034878
Si Si2 0.451337 0.493911 0.009838
Si Si3 0.289416 0.659919 0.671721
Si Si4 0.992389 0.568783 0.308475
Si Si5 0.369784 0.557720 0.207798
Si Si6 0.010144 0.287373 0.193546
Si Si7 0.449281 0.857795 0.507954
Si Si8 0.234176 0.316223 0.534501
O O1 0.164633 0.904894 0.942470
O O2 0.918154 0.953239 0.918211
O O3 0.327512 0.697218 0.126451
O O4 0.436933 0.109554 0.159440
O O5 0.678254 0.545667 0.170358
O O6 0.490198 0.229385 0.002967
O O7 0.140390 0.535903 0.874611
O O8 0.375578 0.894279 0.679631
O O9 0.228841 0.477333 0.590241
O O10 0.035162 0.663141 0.589645
O O11 0.137430 0.821458 0.372125
O O12 0.182107 0.449710 0.449023
O O13 0.999677 0.427346 0.250159
O O14 0.472341 0.706412 0.314247
O O15 0.324988 0.300111 0.332659
O O16 0.507239 0.625400 0.494166
#
# Coordination Sequence:
#
# PCOD9117152 Si02
#       8
#     2   2   2   2   2   2   2   2
#     4  11  25  44  72 101 136 185 233 297 356 422
#     4  10  22  44  66  97 145 189 234 282 346 434
#     4  11  24  46  68 101 134 178 241 290 351 415
#     4  10  24  43  66 104 139 184 231 286 364 428
#     4  11  24  46  68 101 134 178 241 290 351 415
#     4  10  24  43  66 104 139 184 231 286 364 428
#     4  10  22  44  66  97 145 189 234 282 346 434
#     4  11  25  44  72 101 136 185 233 297 356 422
#
# _framework density 24.907837000000001
#
# number of rings (size 3 to 8) (size 9 to 14) (size 15 to 20)
#    0.000    1.500    2.500    0.750    3.500    8.000 
#    9.000    0.000    0.000    0.000    0.000    0.000 
#    0.000    0.000    0.000    0.000    0.000    0.000 
#
# Total GULP energy -89226.701154 kJ/mol
# GULP energy per Si atom -5576.668822 kJ/mol
# Density = 2.485115 g / cm^3
# Si number density = 24.907837 Si / 1000 Ang^3
#
#
#
# Elastic Constant Matrix: (Units=GPa)
#
#
# Indices 1 2 3 4 5 6 
#
# 1 53.3576 14.5202 25.5242 0.0000 -5.7708 0.0000
# 2 14.5202 64.6081 15.7833 0.0000 7.8319 0.0000
# 3 25.5242 15.7833 161.8518 0.0000 -3.5145 0.0000
# 4 0.0000 0.0000 0.0000 30.4287 0.0000 5.3289
# 5 -5.7708 7.8319 -3.5145 0.0000 42.0227 0.0000
# 6 0.0000 0.0000 0.0000 5.3289 0.0000 28.0901
#
#
#
# Elastic Compliance Matrix: (Units=1/GPa)
#
#
# Indices 1 2 3 4 5 6 
#
# 1 0.021780 -0.004623 -0.002906 0.000000 0.003609 0.000000
# 2 -0.004623 0.017248 -0.001038 0.000000 -0.003936 0.000000
# 3 -0.002906 -0.001038 0.006746 0.000000 0.000359 0.000000
# 4 0.000000 0.000000 0.000000 0.033993 0.000000 -0.006449
# 5 0.003609 -0.003936 0.000359 0.000000 0.025056 0.000000
# 6 0.000000 0.000000 0.000000 -0.006449 0.000000 0.036823
#
#
# Mechanical properties :
#
#
# Convention : Reuss Voigt Hill
#
# Bulk Modulus (GPa) = 34.91615 43.49699 39.20657
# Shear Modulus (GPa) = 29.70447 35.04096 32.37272
#
# Velocity S-wave (km/s) = 3.45711 3.75484 3.60905
# Velocity P-wave (km/s) = 5.47577 6.02490 5.75689
#
# Compressibility (1/GPa) = 0.02864004
#
# Stress axis : x y z
#
# Youngs Moduli (GPa) = 45.91442 57.97897 148.24147
#
# Poissons Ratio (x) = 0.26801 0.43072
# Poissons Ratio (y) = 0.21224 0.15394
# Poissons Ratio (z) = 0.13341 0.06021
#
# Static dielectric constant tensor:
#      x y z
#    x 2.059090 0.000000 0.066570 
#    y 0.000000 2.077120 0.000000 
#    z 0.066570 0.000000 1.980050 
# 
# From -- ./inp_files/16153.got.cif
#   From: 2010.05.17/outbox.cif.g08.bks.cpg/sg4_9_cif.got.tgz:16153.got - 2010.06.03 18:43:04.
