data_PCOD9117964
_publ_section_title
;
Structure prediction by ZEFSAII (Michael W. Deem and Ramdas Pophale) SiO2 
 PCOD9117964
Probable space group: P 21
;
_chemical_formula_sum "Si O2"
_cell_formula_units_Z 14
_cell_length_a 10.094835
_cell_length_b 8.013987
_cell_length_c 6.753318
_cell_angle_alpha 90.000000
_cell_angle_beta 100.919086
_cell_angle_gamma 90.000000
_cell_volume 536.451424
_symmetry_space_group_name_H-M "P 21"
_symmetry_group_IT_number 4
_symmetry_cell_setting 'monoclinic'
loop_
_space_group_symop_operation_xyz
x,y,z
-x,1/2+y,-z
loop_
_atom_site_type_symbol
_atom_site_label
_atom_site_fract_x
_atom_site_fract_y
_atom_site_fract_z
Si Si1 0.377774 0.422040 0.748046
Si Si2 0.563211 0.623445 0.526136
Si Si3 0.060220 0.989336 0.473282
Si Si4 0.982422 0.166276 0.815050
Si Si5 0.153283 0.624906 0.816912
Si Si6 0.708817 0.706632 0.946914
Si Si7 0.669850 0.437091 0.245404
O O1 0.448719 0.575904 0.655886
O O2 0.432948 0.263369 0.644138
O O3 0.219380 0.471882 0.711473
O O4 0.376353 0.360030 0.979090
O O5 0.559921 0.455769 0.384649
O O6 0.681447 0.678660 0.710917
O O7 0.058962 0.827961 0.328346
O O8 0.211125 0.021730 0.588209
O O9 0.989766 0.009990 0.668517
O O10 0.991742 0.134375 0.325661
O O11 0.131532 0.203008 0.950624
O O12 0.878091 0.122955 0.959834
O O13 0.258417 0.770672 0.806716
O O14 0.648551 0.545490 0.044589
#
# Coordination Sequence:
#
# PCOD9117964 Si02
#       7
#     2   2   2   2   2   2   2
#     4  11  26  47  70 107 130 191 242 285 357 412
#     4  11  25  49  75  95 149 181 235 301 342 415
#     4  11  23  43  66 102 141 188 229 281 353 424
#     4  11  25  43  69 102 145 185 232 289 352 420
#     4  12  25  41  69 104 142 179 243 284 349 423
#     4  10  24  45  70 101 139 181 237 287 354 413
#     4  10  24  42  67 105 136 187 232 283 353 415
#
# _framework density 26.097422999999999
#
# number of rings (size 3 to 8) (size 9 to 14) (size 15 to 20)
#    0.000    1.143    2.857    1.714    6.000    5.714 
#    0.000    0.000    0.000    0.000    0.000    0.000 
#    0.000    0.000    0.000    0.000    0.000    0.000 
#
# Total GULP energy -77945.724929 kJ/mol
# GULP energy per Si atom -5567.551781 kJ/mol
# Density = 2.603802 g / cm^3
# Si number density = 26.097423 Si / 1000 Ang^3
#
#
#
# Elastic Constant Matrix: (Units=GPa)
#
#
# Indices 1 2 3 4 5 6 
#
# 1 58.1733 29.8673 44.6404 0.0000 -36.1599 0.0000
# 2 29.8673 76.1525 25.0177 0.0000 -29.8931 0.0000
# 3 44.6404 25.0177 171.5597 0.0000 -39.4474 0.0000
# 4 0.0000 0.0000 0.0000 38.2226 0.0000 -4.8704
# 5 -36.1599 -29.8931 -39.4474 0.0000 39.2453 0.0000
# 6 0.0000 0.0000 0.0000 -4.8704 0.0000 33.7472
#
#
#
# Elastic Compliance Matrix: (Units=1/GPa)
#
#
# Indices 1 2 3 4 5 6 
#
# 1 0.041316 -0.002051 -0.002676 0.000000 0.033816 0.000000
# 2 -0.002051 0.018902 0.000850 0.000000 0.013362 0.000000
# 3 -0.002676 0.000850 0.007782 0.000000 0.006003 0.000000
# 4 0.000000 0.000000 0.000000 0.026653 0.000000 0.003846
# 5 0.033816 0.013362 0.006003 0.000000 0.072850 0.000000
# 6 0.000000 0.000000 0.000000 0.003846 0.000000 0.030187
#
#
# Mechanical properties :
#
#
# Convention : Reuss Voigt Hill
#
# Bulk Modulus (GPa) = 16.59898 56.10404 36.35151
# Shear Modulus (GPa) = 22.17041 36.00036 29.08539
#
# Velocity S-wave (km/s) = 2.91782 3.71814 3.34202
# Velocity P-wave (km/s) = 4.21020 6.32276 5.37136
#
# Compressibility (1/GPa) = 0.06024468
#
# Stress axis : x y z
#
# Youngs Moduli (GPa) = 24.20363 52.90471 128.50752
#
# Poissons Ratio (x) = 0.10851 0.34390
# Poissons Ratio (y) = 0.04964 -0.10919
# Poissons Ratio (z) = 0.06477 -0.04495
#
# Static dielectric constant tensor:
#      x y z
#    x 2.228140 0.000000 0.062060 
#    y 0.000000 2.226360 0.000000 
#    z 0.062060 0.000000 2.038350 
# 
# From -- ./inp_files/2527.got.cif
#   From: 2010.05.17/outbox.cif.g08.bks.cpg/sg4_2_cif.got.tgz:2527.got - 2010.06.03 18:43:04.
