data_PCOD9117515
_publ_section_title
;
Structure prediction by ZEFSAII (Michael W. Deem and Ramdas Pophale) SiO2 
 PCOD9117515
Probable space group: P 21
;
_chemical_formula_sum "Si O2"
_cell_formula_units_Z 14
_cell_length_a 11.793081
_cell_length_b 10.978216
_cell_length_c 7.210671
_cell_angle_alpha 90.000000
_cell_angle_beta 142.016812
_cell_angle_gamma 90.000000
_cell_volume 574.531118
_symmetry_space_group_name_H-M "P 21"
_symmetry_group_IT_number 4
_symmetry_cell_setting 'monoclinic'
loop_
_space_group_symop_operation_xyz
x,y,z
-x,1/2+y,-z
loop_
_atom_site_type_symbol
_atom_site_label
_atom_site_fract_x
_atom_site_fract_y
_atom_site_fract_z
Si Si1 0.123754 0.614170 0.112082
Si Si2 0.534075 0.697732 0.207808
Si Si3 0.483574 0.191403 0.238261
Si Si4 0.875091 0.240303 0.258006
Si Si5 0.369962 0.450970 0.072446
Si Si6 0.123071 0.252668 0.932938
Si Si7 0.838496 0.900970 0.571030
O O1 0.334304 0.637899 0.442208
O O2 0.993425 0.716209 0.038560
O O3 0.089288 0.490113 0.177579
O O4 0.108173 0.631165 0.870973
O O5 0.694852 0.795383 0.455568
O O6 0.565312 0.656295 0.035087
O O7 0.337689 0.765049 0.975600
O O8 0.488550 0.572316 0.257140
O O9 0.510388 0.337342 0.253622
O O10 0.305956 0.171928 0.137626
O O11 0.984075 0.219410 0.587009
O O12 0.983000 0.347589 0.298022
O O13 0.275039 0.463005 0.746589
O O14 0.213089 0.386192 0.002193
#
# Coordination Sequence:
#
# PCOD9117515 Si02
#       7
#     2   2   2   2   2   2   2
#     4  12  23  44  68  95 135 175 226 272 332 405
#     4  11  19  43  67  92 138 174 220 276 336 403
#     4   9  20  39  66  99 123 175 219 266 339 389
#     4  11  24  40  64  98 129 178 219 270 343 382
#     4   8  18  39  67  95 125 175 218 262 335 393
#     4   9  21  43  64  98 134 165 230 272 327 402
#     4  10  23  42  62 101 138 172 224 284 332 398
#
# _framework density 24.367695000000001
#
# number of rings (size 3 to 8) (size 9 to 14) (size 15 to 20)
#    0.857    1.143    4.286    0.000    0.000    3.429 
#    7.714    0.000    0.000    0.000    0.000    0.000 
#    0.000    0.000    0.000    0.000    0.000    0.000 
#
# Total GULP energy -78094.420731 kJ/mol
# GULP energy per Si atom -5578.172909 kJ/mol
# Density = 2.431223 g / cm^3
# Si number density = 24.367695 Si / 1000 Ang^3
#
#
#
# Elastic Constant Matrix: (Units=GPa)
#
#
# Indices 1 2 3 4 5 6 
#
# 1 94.6078 -39.6404 -10.3022 0.0000 -29.8747 0.0000
# 2 -39.6404 -3.5494 -35.3917 0.0000 -41.5294 0.0000
# 3 -10.3022 -35.3917 42.8758 0.0000 -26.4010 0.0000
# 4 0.0000 0.0000 0.0000 32.1194 0.0000 5.3346
# 5 -29.8747 -41.5294 -26.4010 0.0000 17.4224 0.0000
# 6 0.0000 0.0000 0.0000 5.3346 0.0000 23.8274
#
#
#
# Elastic Compliance Matrix: (Units=1/GPa)
#
#
# Indices 1 2 3 4 5 6 
#
# 1 0.007313 -0.004245 -0.003818 0.000000 -0.003364 0.000000
# 2 -0.004245 0.002176 -0.007654 0.000000 -0.013691 0.000000
# 3 -0.003818 -0.007654 0.012287 0.000000 -0.006173 0.000000
# 4 0.000000 0.000000 0.000000 0.032336 0.000000 -0.007240
# 5 -0.003364 -0.013691 -0.006173 0.000000 0.009641 0.000000
# 6 0.000000 0.000000 0.000000 -0.007240 0.000000 0.043589
#
#
# Mechanical properties :
#
#
# Convention : Reuss Voigt Hill
#
# Bulk Modulus (GPa) = -103.54351 -4.08157 -53.81254
# Shear Modulus (GPa) = 36.88460 29.29174 33.08817
#
# Velocity S-wave (km/s) = 3.89481 3.47085 3.68893
# Velocity P-wave (km/s) = 4.72846 3.79260 1.99681
#
# Compressibility (1/GPa) = -0.00965778
#
# Stress axis : x y z
#
# Youngs Moduli (GPa) = 136.73720 459.57811 81.38643
#
# Poissons Ratio (x) = 1.95088 0.31074
# Poissons Ratio (y) = 0.58044 0.62293
# Poissons Ratio (z) = 0.52208 3.51760
#
# Static dielectric constant tensor:
#      x y z
#    x 2.000280 0.000000 -0.077870 
#    y 0.000000 2.039750 0.000000 
#    z -0.077870 0.000000 1.938390 
# 
# From -- ./inp_files/8455.got.cif
#   From: 2010.05.17/outbox.cif.g08.bks.cpg/sg4_5_cif.got.tgz:8455.got - 2010.06.03 18:43:04.
