data_PCOD9117988
_publ_section_title
;
Structure prediction by ZEFSAII (Michael W. Deem and Ramdas Pophale) SiO2 
 PCOD9117988
Probable space group: P 21
;
_chemical_formula_sum "Si O2"
_cell_formula_units_Z 14
_cell_length_a 15.775454
_cell_length_b 5.700915
_cell_length_c 20.005105
_cell_angle_alpha 90.000000
_cell_angle_beta 19.544832
_cell_angle_gamma 90.000000
_cell_volume 601.895306
_symmetry_space_group_name_H-M "P 21"
_symmetry_group_IT_number 4
_symmetry_cell_setting 'monoclinic'
loop_
_space_group_symop_operation_xyz
x,y,z
-x,1/2+y,-z
loop_
_atom_site_type_symbol
_atom_site_label
_atom_site_fract_x
_atom_site_fract_y
_atom_site_fract_z
Si Si1 0.721307 0.213420 0.181931
Si Si2 0.399414 0.844793 0.229235
Si Si3 0.636367 0.325957 0.495625
Si Si4 0.800632 0.534005 0.244425
Si Si5 0.975696 0.669443 0.441663
Si Si6 0.366129 0.384255 0.078275
Si Si7 0.700388 0.045035 0.568838
O O1 0.810352 0.311051 0.187610
O O2 0.524587 0.388944 0.294407
O O3 0.565685 0.979128 0.312771
O O4 0.960975 0.183843 0.956306
O O5 0.297004 0.098308 0.327213
O O6 0.166039 0.739444 0.358881
O O7 0.417510 0.693863 0.282594
O O8 0.623303 0.859335 0.009666
O O9 0.800072 0.476041 0.322645
O O10 0.464619 0.158967 0.576432
O O11 0.788485 0.190366 0.438994
O O12 0.924116 0.882551 0.430452
O O13 0.101705 0.449524 0.309855
O O14 0.521460 0.633467 0.978135
#
# Coordination Sequence:
#
# PCOD9117988 Si02
#       7
#     2   2   2   2   2   2   2
#     4  11  23  44  71 108 141 179 239 289 364 448
#     4  11  22  44  75  99 140 199 247 303 367 437
#     4  11  23  44  71 108 141 179 239 289 364 448
#     4  11  22  42  81  98 134 190 224 288 364 450
#     4  11  22  44  75  99 140 199 247 303 367 437
#     4  10  24  42  75 109 136 188 266 313 364 445
#     4  11  26  44  70 107 148 184 246 307 362 431
#
# _framework density 23.259861000000001
#
# number of rings (size 3 to 8) (size 9 to 14) (size 15 to 20)
#    0.000    1.143    4.286    1.714    4.000    0.000 
#    0.000    8.571    0.000    0.000    0.000    0.000 
#    0.000    0.000    0.000    0.000    0.000    0.000 
#
# Total GULP energy -78289.292311 kJ/mol
# GULP energy per Si atom -5592.092308 kJ/mol
# Density = 2.320692 g / cm^3
# Si number density = 23.259861 Si / 1000 Ang^3
#
#
#
# Elastic Constant Matrix: (Units=GPa)
#
#
# Indices 1 2 3 4 5 6 
#
# 1 129.5538 38.2691 25.2748 0.0000 26.4478 0.0000
# 2 38.2691 69.5981 5.6723 0.0000 4.6520 0.0000
# 3 25.2748 5.6723 89.9589 0.0000 24.0498 0.0000
# 4 0.0000 0.0000 0.0000 18.0370 0.0000 21.7948
# 5 26.4478 4.6520 24.0498 0.0000 25.8386 0.0000
# 6 0.0000 0.0000 0.0000 21.7948 0.0000 30.7720
#
#
#
# Elastic Compliance Matrix: (Units=1/GPa)
#
#
# Indices 1 2 3 4 5 6 
#
# 1 0.011607 -0.005656 -0.000001 0.000000 -0.010862 0.000000
# 2 -0.005656 0.017305 -0.000289 0.000000 0.002943 0.000000
# 3 -0.000001 -0.000289 0.014804 0.000000 -0.013727 0.000000
# 4 0.000000 0.000000 0.000000 0.384540 0.000000 -0.272357
# 5 -0.010862 0.002943 -0.013727 0.000000 0.062066 0.000000
# 6 0.000000 0.000000 0.000000 -0.272357 0.000000 0.225398
#
#
# Mechanical properties :
#
#
# Convention : Reuss Voigt Hill
#
# Bulk Modulus (GPa) = 31.42138 47.50479 39.46308
# Shear Modulus (GPa) = 6.77304 29.58918 18.18111
#
# Velocity S-wave (km/s) = 1.70828 3.57054 2.79884
# Velocity P-wave (km/s) = 4.17482 6.12096 5.23905
#
# Compressibility (1/GPa) = 0.03182547
#
# Stress axis : x y z
#
# Youngs Moduli (GPa) = 86.15416 57.78624 67.54788
#
# Poissons Ratio (x) = 0.32685 0.00004
# Poissons Ratio (y) = 0.48730 0.01950
# Poissons Ratio (z) = 0.00006 0.01668
#
# Static dielectric constant tensor:
#      x y z
#    x 1.845100 0.000000 -0.006430 
#    y 0.000000 1.954810 0.000000 
#    z -0.006430 0.000000 1.856160 
# 
# From -- ./inp_files/15858.got.cif
#   From: 2010.05.17/outbox.cif.g08.bks.cpg/sg4_8_cif.got.tgz:15858.got - 2010.06.03 18:43:04.
