data_PCOD9117109
_publ_section_title
;
Structure prediction by ZEFSAII (Michael W. Deem and Ramdas Pophale) SiO2 
 PCOD9117109
Probable space group: P 21
;
_chemical_formula_sum "Si O2"
_cell_formula_units_Z 16
_cell_length_a 13.847537
_cell_length_b 9.254387
_cell_length_c 10.751685
_cell_angle_alpha 90.000000
_cell_angle_beta 28.818792
_cell_angle_gamma 90.000000
_cell_volume 664.172297
_symmetry_space_group_name_H-M "P 21"
_symmetry_group_IT_number 4
_symmetry_cell_setting 'monoclinic'
loop_
_space_group_symop_operation_xyz
x,y,z
-x,1/2+y,-z
loop_
_atom_site_type_symbol
_atom_site_label
_atom_site_fract_x
_atom_site_fract_y
_atom_site_fract_z
Si Si1 0.387748 0.759340 0.047282
Si Si2 0.758387 0.990644 0.909509
Si Si3 0.455305 0.840904 0.596169
Si Si4 0.662007 0.903332 0.591688
Si Si5 0.212461 0.561969 0.845630
Si Si6 0.529349 0.698463 0.132634
Si Si7 0.054066 0.006800 0.085205
Si Si8 0.106751 0.010733 0.310264
O O1 0.396540 0.603849 0.975409
O O2 0.208888 0.852753 0.189831
O O3 0.594087 0.850086 0.801537
O O4 0.361454 0.745965 0.224011
O O5 0.639558 0.839053 0.063628
O O6 0.932364 0.995876 0.607749
O O7 0.843029 0.050480 0.946056
O O8 0.522686 0.810000 0.660230
O O9 0.361872 0.695207 0.651620
O O10 0.653942 0.916910 0.321650
O O11 0.273195 0.953810 0.804754
O O12 0.889354 0.882779 0.298840
O O13 0.583046 0.068915 0.665344
O O14 0.040933 0.574970 0.933127
O O15 0.710180 0.614580 0.858362
O O16 0.058554 0.066817 0.223010
#
# Coordination Sequence:
#
# PCOD9117109 Si02
#       8
#     2   2   2   2   2   2   2   2
#     4  11  21  43  65  98 146 188 230 291 367 422
#     4  12  24  42  67 110 139 180 241 305 347 423
#     4  11  24  51  70 101 148 195 239 300 359 436
#     4  10  22  43  70  94 140 192 229 281 370 419
#     4  11  28  45  76 106 146 192 245 302 362 431
#     4  11  23  39  68 102 145 186 231 296 360 429
#     4  11  23  45  77  99 135 194 242 282 369 430
#     4  11  23  44  71 100 145 187 237 301 360 434
#
# _framework density 24.090136000000001
#
# number of rings (size 3 to 8) (size 9 to 14) (size 15 to 20)
#    0.000    1.000    3.750    3.750    3.500    4.000 
#    4.500    0.000    0.000    0.000    0.000    0.000 
#    0.000    0.000    0.000    0.000    0.000    0.000 
#
# Total GULP energy -89137.823256 kJ/mol
# GULP energy per Si atom -5571.113954 kJ/mol
# Density = 2.403531 g / cm^3
# Si number density = 24.090136 Si / 1000 Ang^3
#
#
#
# Elastic Constant Matrix: (Units=GPa)
#
#
# Indices 1 2 3 4 5 6 
#
# 1 132.9776 6.6244 27.1908 0.0000 1.4590 0.0000
# 2 6.6244 33.6267 11.6833 0.0000 -0.0148 0.0000
# 3 27.1908 11.6833 45.6872 0.0000 9.2701 0.0000
# 4 0.0000 0.0000 0.0000 9.4687 0.0000 4.9086
# 5 1.4590 -0.0148 9.2701 0.0000 34.9487 0.0000
# 6 0.0000 0.0000 0.0000 4.9086 0.0000 31.6700
#
#
#
# Elastic Compliance Matrix: (Units=1/GPa)
#
#
# Indices 1 2 3 4 5 6 
#
# 1 0.008600 0.000175 -0.005380 0.000000 0.001068 0.000000
# 2 0.000175 0.032826 -0.008984 0.000000 0.002390 0.000000
# 3 -0.005380 -0.008984 0.028897 0.000000 -0.007444 0.000000
# 4 0.000000 0.000000 0.000000 0.114838 0.000000 -0.017799
# 5 0.001068 0.002390 -0.007444 0.000000 0.030544 0.000000
# 6 0.000000 0.000000 0.000000 -0.017799 0.000000 0.034334
#
#
# Mechanical properties :
#
#
# Convention : Reuss Voigt Hill
#
# Bulk Modulus (GPa) = 23.83936 33.69873 28.76904
# Shear Modulus (GPa) = 17.10000 26.33702 21.71851
#
# Velocity S-wave (km/s) = 2.66716 3.31005 3.00584
# Velocity P-wave (km/s) = 4.40481 5.35047 4.90051
#
# Compressibility (1/GPa) = 0.04194743
#
# Stress axis : x y z
#
# Youngs Moduli (GPa) = 116.28426 30.46355 34.60510
#
# Poissons Ratio (x) = -0.00535 0.18616
# Poissons Ratio (y) = -0.02041 0.31088
# Poissons Ratio (z) = 0.62557 0.27368
#
# Static dielectric constant tensor:
#      x y z
#    x 2.001020 0.000000 0.047600 
#    y 0.000000 1.955300 0.000000 
#    z 0.047600 0.000000 1.948290 
# 
# From -- ./inp_files/12559.got.cif
#   From: 2010.05.17/outbox.cif.g08.bks.cpg/sg4_7_cif.got.tgz:12559.got - 2010.06.03 18:43:04.
