data_PCOD9117538
_publ_section_title
;
Structure prediction by ZEFSAII (Michael W. Deem and Ramdas Pophale) SiO2 
 PCOD9117538
Probable space group: P 21
;
_chemical_formula_sum "Si O2"
_cell_formula_units_Z 14
_cell_length_a 10.682764
_cell_length_b 8.554937
_cell_length_c 7.965140
_cell_angle_alpha 90.000000
_cell_angle_beta 133.315157
_cell_angle_gamma 90.000000
_cell_volume 529.640717
_symmetry_space_group_name_H-M "P 21"
_symmetry_group_IT_number 4
_symmetry_cell_setting 'monoclinic'
loop_
_space_group_symop_operation_xyz
x,y,z
-x,1/2+y,-z
loop_
_atom_site_type_symbol
_atom_site_label
_atom_site_fract_x
_atom_site_fract_y
_atom_site_fract_z
Si Si1 0.376780 0.362760 0.988971
Si Si2 0.836706 0.433622 0.687443
Si Si3 0.303452 0.675857 0.815681
Si Si4 0.099461 0.149223 0.575395
Si Si5 0.482994 0.251265 0.432973
Si Si6 0.963642 0.607736 0.118075
Si Si7 0.672313 0.976450 0.500522
O O1 0.350263 0.546492 0.996973
O O2 0.230283 0.292136 0.729957
O O3 0.561791 0.316253 0.078082
O O4 0.365576 0.279485 0.160370
O O5 0.856246 0.533095 0.535070
O O6 0.658076 0.343277 0.545050
O O7 0.973546 0.288779 0.818609
O O8 0.859056 0.552435 0.861866
O O9 0.341512 0.566808 0.687223
O O10 0.099285 0.705140 0.631065
O O11 0.108837 0.065637 0.765402
O O12 0.546896 0.075989 0.503833
O O13 0.395662 0.305657 0.524173
O O14 0.135284 0.501877 0.264021
#
# Coordination Sequence:
#
# PCOD9117538 Si02
#       7
#     2   2   2   2   2   2   2
#     4  11  24  44  72 103 143 187 239 304 364 434
#     4  11  25  46  71 108 146 188 246 301 368 439
#     4  10  24  44  68 106 138 186 241 296 365 433
#     4  11  25  46  72 103 148 192 244 298 357 441
#     4  10  23  42  67 100 140 184 234 300 360 435
#     4  10  25  44  71 105 142 188 242 299 366 434
#     4   9  22  42  61  97 139 175 236 292 352 432
#
# _framework density 26.433012000000002
#
# number of rings (size 3 to 8) (size 9 to 14) (size 15 to 20)
#    0.000    1.714    0.000    2.571    8.000    6.857 
#    2.571    0.000    0.000    0.000    0.000    0.000 
#    0.000    0.000    0.000    0.000    0.000    0.000 
#
# Total GULP energy -78395.682716 kJ/mol
# GULP energy per Si atom -5599.691623 kJ/mol
# Density = 2.637285 g / cm^3
# Si number density = 26.433012 Si / 1000 Ang^3
#
#
#
# Elastic Constant Matrix: (Units=GPa)
#
#
# Indices 1 2 3 4 5 6 
#
# 1 95.6680 39.1846 44.8769 0.0000 -2.0614 0.0000
# 2 39.1846 70.3229 36.4102 0.0000 -11.4388 0.0000
# 3 44.8769 36.4102 126.5411 0.0000 -0.4250 0.0000
# 4 0.0000 0.0000 0.0000 51.9984 0.0000 1.3306
# 5 -2.0614 -11.4388 -0.4250 0.0000 51.2284 0.0000
# 6 0.0000 0.0000 0.0000 1.3306 0.0000 41.2304
#
#
#
# Elastic Compliance Matrix: (Units=1/GPa)
#
#
# Indices 1 2 3 4 5 6 
#
# 1 0.014700 -0.006626 -0.003310 0.000000 -0.000915 0.000000
# 2 -0.006626 0.020425 -0.003513 0.000000 0.004265 0.000000
# 3 -0.003310 -0.003513 0.010084 0.000000 -0.000834 0.000000
# 4 0.000000 0.000000 0.000000 0.019247 0.000000 -0.000621
# 5 -0.000915 0.004265 -0.000834 0.000000 0.020429 0.000000
# 6 0.000000 0.000000 0.000000 -0.000621 0.000000 0.024274
#
#
# Mechanical properties :
#
#
# Convention : Reuss Voigt Hill
#
# Bulk Modulus (GPa) = 54.60979 59.27504 56.94242
# Shear Modulus (GPa) = 35.17182 40.36213 37.76697
#
# Velocity S-wave (km/s) = 3.65170 3.91187 3.78402
# Velocity P-wave (km/s) = 6.20358 6.54805 6.37814
#
# Compressibility (1/GPa) = 0.01831173
#
# Stress axis : x y z
#
# Youngs Moduli (GPa) = 68.02923 48.96046 99.16487
#
# Poissons Ratio (x) = 0.32442 0.32820
# Poissons Ratio (y) = 0.45077 0.34833
# Poissons Ratio (z) = 0.22515 0.17198
#
# Static dielectric constant tensor:
#      x y z
#    x 2.101960 0.000000 -0.026830 
#    y 0.000000 2.111930 0.000000 
#    z -0.026830 0.000000 2.103760 
# 
# From -- ./inp_files/7595.got.cif
#   From: 2010.05.17/outbox.cif.g08.bks.cpg/sg4_4_cif.got.tgz:7595.got - 2010.06.03 18:43:04.
