data_PCOD9117113
_publ_section_title
;
Structure prediction by ZEFSAII (Michael W. Deem and Ramdas Pophale) SiO2 
 PCOD9117113
Probable space group: P 21
;
_chemical_formula_sum "Si O2"
_cell_formula_units_Z 14
_cell_length_a 9.425834
_cell_length_b 7.424938
_cell_length_c 12.224710
_cell_angle_alpha 90.000000
_cell_angle_beta 39.787692
_cell_angle_gamma 90.000000
_cell_volume 547.511939
_symmetry_space_group_name_H-M "P 21"
_symmetry_group_IT_number 4
_symmetry_cell_setting 'monoclinic'
loop_
_space_group_symop_operation_xyz
x,y,z
-x,1/2+y,-z
loop_
_atom_site_type_symbol
_atom_site_label
_atom_site_fract_x
_atom_site_fract_y
_atom_site_fract_z
Si Si1 0.604115 0.633930 0.865959
Si Si2 0.175564 0.702144 0.026593
Si Si3 0.793757 0.634785 0.405102
Si Si4 0.101504 0.756259 0.567725
Si Si5 0.786141 0.854321 0.128700
Si Si6 0.415852 0.724184 0.204014
Si Si7 0.604925 0.990165 0.470516
O O1 0.618453 0.432638 0.811200
O O2 0.842617 0.723664 0.732957
O O3 0.429415 0.747196 0.896845
O O4 0.491972 0.623402 0.051349
O O5 0.026764 0.711920 0.223867
O O6 0.029041 0.795194 0.021563
O O7 0.181074 0.495789 0.987053
O O8 0.833986 0.466843 0.459787
O O9 0.650470 0.812479 0.516583
O O10 0.649039 0.551287 0.390241
O O11 0.192711 0.675948 0.400034
O O12 0.236562 0.647898 0.580711
O O13 0.612699 0.715774 0.178005
O O14 0.676161 0.941105 0.302892
#
# Coordination Sequence:
#
# PCOD9117113 Si02
#       7
#     2   2   2   2   2   2   2
#     4  11  28  49  75 110 162 206 264 330 393 486
#     4  10  24  42  71 108 148 199 255 329 395 458
#     4  11  22  44  71 110 154 196 261 327 387 469
#     4  12  25  49  81 109 159 209 258 328 401 473
#     4  10  22  43  71 106 146 187 266 318 388 468
#     4  11  26  52  73 113 151 207 265 325 404 472
#     4  11  23  43  76 114 152 196 259 333 390 462
#
# _framework density 25.570217
#
# number of rings (size 3 to 8) (size 9 to 14) (size 15 to 20)
#    0.000    1.143    2.857    2.571    8.000    2.286 
#    2.571    0.000    0.000    0.000    0.000    0.000 
#    0.000    0.000    0.000    0.000    0.000    0.000 
#
# Total GULP energy -78377.650972 kJ/mol
# GULP energy per Si atom -5598.403641 kJ/mol
# Density = 2.551202 g / cm^3
# Si number density = 25.570217 Si / 1000 Ang^3
#
#
#
# Elastic Constant Matrix: (Units=GPa)
#
#
# Indices 1 2 3 4 5 6 
#
# 1 124.1849 22.2678 32.4127 0.0000 -36.8672 0.0000
# 2 22.2678 71.7567 -13.2890 0.0000 -17.7698 0.0000
# 3 32.4127 -13.2890 64.7918 0.0000 -23.4176 0.0000
# 4 0.0000 0.0000 0.0000 25.9996 0.0000 8.3613
# 5 -36.8672 -17.7698 -23.4176 0.0000 44.8676 0.0000
# 6 0.0000 0.0000 0.0000 8.3613 0.0000 49.5157
#
#
#
# Elastic Compliance Matrix: (Units=1/GPa)
#
#
# Indices 1 2 3 4 5 6 
#
# 1 0.011446 -0.002770 -0.004057 0.000000 0.006191 0.000000
# 2 -0.002770 0.018841 0.008781 0.000000 0.009769 0.000000
# 3 -0.004057 0.008781 0.023808 0.000000 0.012570 0.000000
# 4 0.000000 0.000000 0.000000 0.040671 0.000000 -0.006868
# 5 0.006191 0.009769 0.012570 0.000000 0.037804 0.000000
# 6 0.000000 0.000000 0.000000 -0.006868 0.000000 0.021355
#
#
# Mechanical properties :
#
#
# Convention : Reuss Voigt Hill
#
# Bulk Modulus (GPa) = 17.24071 38.16849 27.70460
# Shear Modulus (GPa) = 29.52457 38.69938 34.11197
#
# Velocity S-wave (km/s) = 3.40170 3.89454 3.65643
# Velocity P-wave (km/s) = 4.71019 5.93149 5.35576
#
# Compressibility (1/GPa) = 0.05800226
#
# Stress axis : x y z
#
# Youngs Moduli (GPa) = 87.36800 53.07609 42.00343
#
# Poissons Ratio (x) = 0.14703 0.17039
# Poissons Ratio (y) = 0.24202 -0.36882
# Poissons Ratio (z) = 0.35442 -0.46605
#
# Static dielectric constant tensor:
#      x y z
#    x 2.029700 0.000000 -0.026390 
#    y 0.000000 2.032180 0.000000 
#    z -0.026390 0.000000 2.008000 
# 
# From -- ./inp_files/10785.got.cif
#   From: 2010.05.17/outbox.cif.g08.bks.cpg/sg4_6_cif.got.tgz:10785.got - 2010.06.03 18:43:04.
