data_PCOD9117680
_publ_section_title
;
Structure prediction by ZEFSAII (Michael W. Deem and Ramdas Pophale) SiO2 
 PCOD9117680
Probable space group: P 21
;
_chemical_formula_sum "Si O2"
_cell_formula_units_Z 16
_cell_length_a 8.380186
_cell_length_b 10.020821
_cell_length_c 16.813449
_cell_angle_alpha 90.000000
_cell_angle_beta 29.831414
_cell_angle_gamma 90.000000
_cell_volume 702.365085
_symmetry_space_group_name_H-M "P 21"
_symmetry_group_IT_number 4
_symmetry_cell_setting 'monoclinic'
loop_
_space_group_symop_operation_xyz
x,y,z
-x,1/2+y,-z
loop_
_atom_site_type_symbol
_atom_site_label
_atom_site_fract_x
_atom_site_fract_y
_atom_site_fract_z
Si Si1 0.673211 0.277070 0.435004
Si Si2 0.526194 0.852408 0.175472
Si Si3 0.667608 0.175836 0.009450
Si Si4 0.143283 0.095389 0.343356
Si Si5 0.615604 0.069057 0.680978
Si Si6 0.131185 0.205201 0.110667
Si Si7 0.755109 0.556341 0.324446
Si Si8 0.874294 0.442789 0.988399
O O1 0.699676 0.438231 0.413570
O O2 0.343729 0.200135 0.595847
O O3 0.909889 0.200401 0.396709
O O4 0.792831 0.237816 0.295439
O O5 0.455159 0.717516 0.255516
O O6 0.793044 0.932916 0.109108
O O7 0.213213 0.940099 0.288247
O O8 0.719335 0.808307 0.014710
O O9 0.856630 0.309291 0.945121
O O10 0.892955 0.071262 0.866062
O O11 0.496610 0.148070 0.168113
O O12 0.376685 0.199704 0.076634
O O13 0.993534 0.074771 0.495657
O O14 0.460873 0.036495 0.661528
O O15 0.436012 0.969952 0.820140
O O16 0.119059 0.065859 0.072843
#
# Coordination Sequence:
#
# PCOD9117680 Si02
#       8
#     2   2   2   2   2   2   2   2
#     4  10  24  42  70  99 143 183 234 292 357 414
#     4  11  23  45  67  99 140 185 234 292 354 427
#     4  11  24  41  71  95 139 186 233 299 349 422
#     4  10  24  40  69  97 142 180 231 291 354 419
#     4  10  23  44  67 105 138 183 239 294 350 424
#     4  10  25  41  66 100 134 180 234 291 353 420
#     4  11  23  45  70 103 144 186 240 294 353 429
#     4  11  24  42  72  98 134 189 239 285 362 419
#
# _framework density 22.780173999999999
#
# number of rings (size 3 to 8) (size 9 to 14) (size 15 to 20)
#    0.000    1.500    1.250    2.250   12.250    1.000 
#    0.000    2.500    0.000    0.000    0.000    0.000 
#    0.000    0.000    0.000    0.000    0.000    0.000 
#
# Total GULP energy -89080.070247 kJ/mol
# GULP energy per Si atom -5567.504390 kJ/mol
# Density = 2.272833 g / cm^3
# Si number density = 22.780174 Si / 1000 Ang^3
#
#
#
# Elastic Constant Matrix: (Units=GPa)
#
#
# Indices 1 2 3 4 5 6 
#
# 1 43.9480 15.0356 -16.3606 0.0000 5.2171 0.0000
# 2 15.0356 126.7926 39.9894 0.0000 5.3939 0.0000
# 3 -16.3606 39.9894 133.0512 0.0000 15.1181 0.0000
# 4 0.0000 0.0000 0.0000 31.4685 0.0000 2.7937
# 5 5.2171 5.3939 15.1181 0.0000 17.8195 0.0000
# 6 0.0000 0.0000 0.0000 2.7937 0.0000 27.2520
#
#
#
# Elastic Compliance Matrix: (Units=1/GPa)
#
#
# Indices 1 2 3 4 5 6 
#
# 1 0.028181 -0.004809 0.006289 0.000000 -0.012131 0.000000
# 2 -0.004809 0.009537 -0.003641 0.000000 0.001610 0.000000
# 3 0.006289 -0.003641 0.010478 0.000000 -0.009628 0.000000
# 4 0.000000 0.000000 0.000000 0.032070 0.000000 -0.003288
# 5 -0.012131 0.001610 -0.009628 0.000000 0.067351 0.000000
# 6 0.000000 0.000000 0.000000 -0.003288 0.000000 0.037032
#
#
# Mechanical properties :
#
#
# Convention : Reuss Voigt Hill
#
# Bulk Modulus (GPa) = 22.79285 42.34672 32.56978
# Shear Modulus (GPa) = 24.55865 32.98314 28.77090
#
# Velocity S-wave (km/s) = 3.28696 3.80924 3.55770
# Velocity P-wave (km/s) = 4.94295 6.16253 5.58612
#
# Compressibility (1/GPa) = 0.04387342
#
# Stress axis : x y z
#
# Youngs Moduli (GPa) = 35.48517 104.85518 95.44243
#
# Poissons Ratio (x) = 0.50428 -0.60024
# Poissons Ratio (y) = 0.17066 0.34748
# Poissons Ratio (z) = -0.22317 0.38175
#
# Static dielectric constant tensor:
#      x y z
#    x 1.865710 0.000000 -0.045250 
#    y 0.000000 1.916340 0.000000 
#    z -0.045250 0.000000 1.986140 
# 
# From -- ./inp_files/5491.got.cif
#   From: 2010.05.17/outbox.cif.g08.bks.cpg/sg4_3_cif.got.tgz:5491.got - 2010.06.03 18:43:04.
