data_PCOD9117399
_publ_section_title
;
Structure prediction by ZEFSAII (Michael W. Deem and Ramdas Pophale) SiO2 
 PCOD9117399
Probable space group: P 21
;
_chemical_formula_sum "Si O2"
_cell_formula_units_Z 12
_cell_length_a 7.105806
_cell_length_b 7.750866
_cell_length_c 9.858827
_cell_angle_alpha 90.000000
_cell_angle_beta 86.223440
_cell_angle_gamma 90.000000
_cell_volume 541.807140
_symmetry_space_group_name_H-M "P 21"
_symmetry_group_IT_number 4
_symmetry_cell_setting 'monoclinic'
loop_
_space_group_symop_operation_xyz
x,y,z
-x,1/2+y,-z
loop_
_atom_site_type_symbol
_atom_site_label
_atom_site_fract_x
_atom_site_fract_y
_atom_site_fract_z
Si Si1 0.853541 0.183690 0.499838
Si Si2 0.927182 0.081345 0.788665
Si Si3 0.346400 0.040615 0.854061
Si Si4 0.221599 0.041168 0.397307
Si Si5 0.632800 0.895303 0.638718
Si Si6 0.620014 0.346720 0.870273
O O1 0.685911 0.048160 0.532143
O O2 0.006380 0.109268 0.389838
O O3 0.790198 0.381114 0.497396
O O4 0.961485 0.175618 0.641659
O O5 0.122513 0.041916 0.848748
O O6 0.789983 0.207709 0.878164
O O7 0.797947 0.921068 0.746154
O O8 0.437904 0.231311 0.843579
O O9 0.445092 0.930925 0.730571
O O10 0.402639 0.957260 0.994451
O O11 0.337228 0.211647 0.429854
O O12 0.317899 0.964996 0.258490
#
# Coordination Sequence:
#
# PCOD9117399 Si02
#       6
#     2   2   2   2   2   2
#     4   9  18  35  61  83 114 155 190 235 288 332
#     4   8  20  38  55  83 112 153 189 235 286 338
#     4  11  20  41  57  85 123 145 195 242 279 352
#     4  11  17  37  61  86 115 157 192 233 289 344
#     4   9  20  35  61  84 112 153 186 235 292 328
#     4  10  23  34  59  87 112 161 188 234 296 332
#
# _framework density 22.148102999999999
#
# number of rings (size 3 to 8) (size 9 to 14) (size 15 to 20)
#    1.000    1.333    3.333    1.000    0.000    4.000 
#    0.000    6.667    0.000    0.000    0.000    0.000 
#    0.000    0.000    0.000    0.000    0.000    0.000 
#
# Total GULP energy -66941.814186 kJ/mol
# GULP energy per Si atom -5578.484516 kJ/mol
# Density = 2.209769 g / cm^3
# Si number density = 22.148103 Si / 1000 Ang^3
#
#
#
# Elastic Constant Matrix: (Units=GPa)
#
#
# Indices 1 2 3 4 5 6 
#
# 1 84.0859 27.8462 23.7087 0.0000 0.4233 0.0000
# 2 27.8462 149.4275 31.0318 0.0000 -10.0695 0.0000
# 3 23.7087 31.0318 59.4207 0.0000 -12.0413 0.0000
# 4 0.0000 0.0000 0.0000 39.8142 0.0000 -23.8907
# 5 0.4233 -10.0695 -12.0413 0.0000 24.6528 0.0000
# 6 0.0000 0.0000 0.0000 -23.8907 0.0000 22.9995
#
#
#
# Elastic Compliance Matrix: (Units=1/GPa)
#
#
# Indices 1 2 3 4 5 6 
#
# 1 0.014010 -0.001728 -0.005415 0.000000 -0.003591 0.000000
# 2 -0.001728 0.007756 -0.003011 0.000000 0.001727 0.000000
# 3 -0.005415 -0.003011 0.022565 0.000000 0.009885 0.000000
# 4 0.000000 0.000000 0.000000 0.066676 0.000000 0.069260
# 5 -0.003591 0.001727 0.009885 0.000000 0.046158 0.000000
# 6 0.000000 0.000000 0.000000 0.069260 0.000000 0.115422
#
#
# Mechanical properties :
#
#
# Convention : Reuss Voigt Hill
#
# Bulk Modulus (GPa) = 41.62759 50.90084 46.26421
# Shear Modulus (GPa) = 16.61658 31.51646 24.06652
#
# Velocity S-wave (km/s) = 2.74204 3.77634 3.29996
# Velocity P-wave (km/s) = 5.37224 6.48431 5.95429
#
# Compressibility (1/GPa) = 0.02402253
#
# Stress axis : x y z
#
# Youngs Moduli (GPa) = 71.37837 128.93358 44.31575
#
# Poissons Ratio (x) = 0.22283 0.23998
# Poissons Ratio (y) = 0.12336 0.13343
# Poissons Ratio (z) = 0.38652 0.38821
#
# Static dielectric constant tensor:
#      x y z
#    x 1.865240 0.000000 0.002830 
#    y 0.000000 1.840980 0.000000 
#    z 0.002830 0.000000 1.793310 
# 
# From -- ./inp_files/10312.got.cif
#   From: 2010.05.17/outbox.cif.g08.bks.cpg/sg4_6_cif.got.tgz:10312.got - 2010.06.03 18:43:04.
