data_PCOD9117832
_publ_section_title
;
Structure prediction by ZEFSAII (Michael W. Deem and Ramdas Pophale) SiO2 
 PCOD9117832
Probable space group: P 21
;
_chemical_formula_sum "Si O2"
_cell_formula_units_Z 16
_cell_length_a 7.512610
_cell_length_b 14.591307
_cell_length_c 6.438666
_cell_angle_alpha 90.000000
_cell_angle_beta 70.282717
_cell_angle_gamma 90.000000
_cell_volume 664.417014
_symmetry_space_group_name_H-M "P 21"
_symmetry_group_IT_number 4
_symmetry_cell_setting 'monoclinic'
loop_
_space_group_symop_operation_xyz
x,y,z
-x,1/2+y,-z
loop_
_atom_site_type_symbol
_atom_site_label
_atom_site_fract_x
_atom_site_fract_y
_atom_site_fract_z
Si Si1 0.039385 0.598010 0.964661
Si Si2 0.854757 0.339913 0.830542
Si Si3 0.711635 0.529830 0.783401
Si Si4 0.673146 0.951778 0.966701
Si Si5 0.477940 0.776910 0.258644
Si Si6 0.727848 0.652323 0.402769
Si Si7 0.169051 0.324336 0.424150
Si Si8 0.190791 0.782916 0.719872
O O1 0.929995 0.633548 0.214364
O O2 0.875563 0.576913 0.857779
O O3 0.164224 0.509994 0.981400
O O4 0.166632 0.679991 0.819490
O O5 0.788968 0.427468 0.730387
O O6 0.703973 0.262925 0.818372
O O7 0.072981 0.332542 0.688133
O O8 0.822434 0.351802 0.084116
O O9 0.509974 0.517035 0.973499
O O10 0.679055 0.566576 0.564425
O O11 0.604524 0.858831 0.114540
O O12 0.735034 0.911412 0.718185
O O13 0.597328 0.687386 0.266854
O O14 0.377537 0.800018 0.516048
O O15 0.716121 0.731894 0.584830
O O16 0.992070 0.299505 0.348831
#
# Coordination Sequence:
#
# PCOD9117832 Si02
#       8
#     2   2   2   2   2   2   2   2
#     4  12  25  46  74 104 150 194 238 308 364 425
#     4  10  23  46  74 105 139 192 246 294 361 436
#     4  11  26  46  69 109 148 185 242 304 360 428
#     4  11  26  49  71 106 149 192 242 303 365 430
#     4  10  26  42  73 108 142 190 243 297 364 435
#     4  12  25  45  70 107 146 184 242 300 361 434
#     4  11  23  44  72 103 139 192 240 288 365 432
#     4  11  22  46  75 106 143 193 247 294 360 440
#
# _framework density 24.081263
#
# number of rings (size 3 to 8) (size 9 to 14) (size 15 to 20)
#    0.000    1.000    2.500    3.000    5.250    3.000 
#    0.000    0.000    0.000    0.000    0.000    0.000 
#    0.000    0.000    0.000    0.000    0.000    0.000 
#
# Total GULP energy -89359.546449 kJ/mol
# GULP energy per Si atom -5584.971653 kJ/mol
# Density = 2.402645 g / cm^3
# Si number density = 24.081263 Si / 1000 Ang^3
#
#
#
# Elastic Constant Matrix: (Units=GPa)
#
#
# Indices 1 2 3 4 5 6 
#
# 1 79.4765 28.3686 19.0643 0.0000 5.4089 0.0000
# 2 28.3686 65.7144 18.1690 0.0000 2.5836 0.0000
# 3 19.0643 18.1690 90.9254 0.0000 -14.7584 0.0000
# 4 0.0000 0.0000 0.0000 49.5882 0.0000 -0.2696
# 5 5.4089 2.5836 -14.7584 0.0000 28.4961 0.0000
# 6 0.0000 0.0000 0.0000 -0.2696 0.0000 35.6358
#
#
#
# Elastic Compliance Matrix: (Units=1/GPa)
#
#
# Indices 1 2 3 4 5 6 
#
# 1 0.015575 -0.005819 -0.002726 0.000000 -0.003841 0.000000
# 2 -0.005819 0.018591 -0.002827 0.000000 -0.002045 0.000000
# 3 -0.002726 -0.002827 0.013385 0.000000 0.007706 0.000000
# 4 0.000000 0.000000 0.000000 0.020167 0.000000 0.000153
# 5 -0.003841 -0.002045 0.007706 0.000000 0.039998 0.000000
# 6 0.000000 0.000000 0.000000 0.000153 0.000000 0.028063
#
#
# Mechanical properties :
#
#
# Convention : Reuss Voigt Hill
#
# Bulk Modulus (GPa) = 40.31033 40.81333 40.56183
# Shear Modulus (GPa) = 29.97749 34.11166 32.04457
#
# Velocity S-wave (km/s) = 3.53207 3.76776 3.65181
# Velocity P-wave (km/s) = 5.78011 5.99274 5.88738
#
# Compressibility (1/GPa) = 0.02480753
#
# Stress axis : x y z
#
# Youngs Moduli (GPa) = 64.20707 53.78859 74.70867
#
# Poissons Ratio (x) = 0.31298 0.20367
# Poissons Ratio (y) = 0.37360 0.21120
# Poissons Ratio (z) = 0.17504 0.15206
#
# Static dielectric constant tensor:
#      x y z
#    x 1.991930 0.000000 -0.005850 
#    y 0.000000 1.965450 0.000000 
#    z -0.005850 0.000000 1.961450 
# 
# From -- ./inp_files/1845.got.cif
#   From: 2010.05.17/outbox.cif.g08.bks.cpg/sg4_1_cif.got.tgz:1845.got - 2010.06.03 18:43:04.
