data_PCOD9117029
_publ_section_title
;
Structure prediction by ZEFSAII (Michael W. Deem and Ramdas Pophale) SiO2 
 PCOD9117029
Probable space group: P 21
;
_chemical_formula_sum "Si O2"
_cell_formula_units_Z 12
_cell_length_a 7.316757
_cell_length_b 5.372204
_cell_length_c 12.043282
_cell_angle_alpha 90.000000
_cell_angle_beta 76.334573
_cell_angle_gamma 90.000000
_cell_volume 459.985927
_symmetry_space_group_name_H-M "P 21"
_symmetry_group_IT_number 4
_symmetry_cell_setting 'monoclinic'
loop_
_space_group_symop_operation_xyz
x,y,z
-x,1/2+y,-z
loop_
_atom_site_type_symbol
_atom_site_label
_atom_site_fract_x
_atom_site_fract_y
_atom_site_fract_z
Si Si1 0.580355 0.096730 0.442915
Si Si2 0.437828 0.545619 0.072518
Si Si3 0.891017 0.996327 0.008898
Si Si4 0.038604 0.112340 0.395606
Si Si5 0.983898 0.612420 0.340701
Si Si6 0.649105 0.780586 0.233821
O O1 0.495804 0.374219 0.465658
O O2 0.807792 0.113412 0.421772
O O3 0.539653 0.961348 0.332318
O O4 0.525890 0.593037 0.179352
O O5 0.486031 0.274567 0.015479
O O6 0.215592 0.571621 0.087826
O O7 0.751606 0.960422 0.131635
O O8 0.975778 0.723815 0.981892
O O9 0.090294 0.112447 0.518140
O O10 0.097230 0.358671 0.323960
O O11 0.100686 0.865470 0.324414
O O12 0.812328 0.638948 0.280160
#
# Coordination Sequence:
#
# PCOD9117029 Si02
#       6
#     2   2   2   2   2   2
#     4  11  23  39  64  95 134 176 222 266 314 400
#     4  10  22  42  72 100 133 177 225 280 344 406
#     4  11  24  44  71 103 137 170 225 290 341 405
#     4   9  18  35  57  88 124 165 210 265 304 367
#     4   9  18  34  63  87 118 167 214 253 321 381
#     4  10  23  44  73  95 134 183 218 272 348 391
#
# _framework density 26.087755000000001
#
# number of rings (size 3 to 8) (size 9 to 14) (size 15 to 20)
#    0.000    2.000    0.000    4.000    0.000   12.000 
#    3.000    0.000   14.667    0.000    0.000    0.000 
#    0.000    0.000    0.000    0.000    0.000    0.000 
#
# Total GULP energy -67160.870626 kJ/mol
# GULP energy per Si atom -5596.739219 kJ/mol
# Density = 2.602838 g / cm^3
# Si number density = 26.087755 Si / 1000 Ang^3
#
#
#
# Elastic Constant Matrix: (Units=GPa)
#
#
# Indices 1 2 3 4 5 6 
#
# 1 119.0811 14.4415 12.9712 0.0000 50.0913 0.0000
# 2 14.4415 171.5654 14.2878 0.0000 14.1105 0.0000
# 3 12.9712 14.2878 115.7767 0.0000 29.7017 0.0000
# 4 0.0000 0.0000 0.0000 31.8112 0.0000 8.4035
# 5 50.0913 14.1105 29.7017 0.0000 59.5182 0.0000
# 6 0.0000 0.0000 0.0000 8.4035 0.0000 43.1923
#
#
#
# Elastic Compliance Matrix: (Units=1/GPa)
#
#
# Indices 1 2 3 4 5 6 
#
# 1 0.013259 -0.000271 0.001599 0.000000 -0.011893 0.000000
# 2 -0.000271 0.005969 -0.000461 0.000000 -0.000957 0.000000
# 3 0.001599 -0.000461 0.010129 0.000000 -0.006291 0.000000
# 4 0.000000 0.000000 0.000000 0.033139 0.000000 -0.006447
# 5 -0.011893 -0.000957 -0.006291 0.000000 0.030177 0.000000
# 6 0.000000 0.000000 0.000000 -0.006447 0.000000 0.024407
#
#
# Mechanical properties :
#
#
# Convention : Reuss Voigt Hill
#
# Bulk Modulus (GPa) = 32.16392 54.42490 43.29441
# Shear Modulus (GPa) = 39.77467 51.21918 45.49692
#
# Velocity S-wave (km/s) = 3.90891 4.43577 4.18065
# Velocity P-wave (km/s) = 5.72090 6.86602 6.31945
#
# Compressibility (1/GPa) = 0.03109074
#
# Stress axis : x y z
#
# Youngs Moduli (GPa) = 75.42077 167.54428 98.72649
#
# Poissons Ratio (x) = 0.04542 -0.15786
# Poissons Ratio (y) = 0.02045 0.04548
# Poissons Ratio (z) = -0.12059 0.07719
#
# Static dielectric constant tensor:
#      x y z
#    x 2.080810 0.000000 -0.026760 
#    y 0.000000 2.064640 0.000000 
#    z -0.026760 0.000000 2.083080 
# 
# From -- ./inp_files/10645.got.cif
#   From: 2010.05.17/outbox.cif.g08.bks.cpg/sg4_6_cif.got.tgz:10645.got - 2010.06.03 18:43:04.
