data_PCOD9117618
_publ_section_title
;
Structure prediction by ZEFSAII (Michael W. Deem and Ramdas Pophale) SiO2 
 PCOD9117618
Probable space group: P 21
;
_chemical_formula_sum "Si O2"
_cell_formula_units_Z 14
_cell_length_a 10.696429
_cell_length_b 9.810686
_cell_length_c 15.307363
_cell_angle_alpha 90.000000
_cell_angle_beta 156.208012
_cell_angle_gamma 90.000000
_cell_volume 648.027059
_symmetry_space_group_name_H-M "P 21"
_symmetry_group_IT_number 4
_symmetry_cell_setting 'monoclinic'
loop_
_space_group_symop_operation_xyz
x,y,z
-x,1/2+y,-z
loop_
_atom_site_type_symbol
_atom_site_label
_atom_site_fract_x
_atom_site_fract_y
_atom_site_fract_z
Si Si1 0.848428 0.818500 0.594970
Si Si2 0.922254 0.995507 0.054909
Si Si3 0.436093 0.662131 0.031257
Si Si4 0.878903 0.773023 0.888621
Si Si5 0.349884 0.796848 0.407453
Si Si6 0.492051 0.393868 0.792466
Si Si7 0.839418 0.577601 0.127493
O O1 0.543077 0.755525 0.444593
O O2 0.762318 0.875899 0.445047
O O3 0.130393 0.713720 0.783967
O O4 0.949445 0.944864 0.720375
O O5 0.212028 0.945427 0.298187
O O6 0.673653 0.059340 0.962520
O O7 0.818290 0.861033 0.936281
O O8 0.037769 0.112186 0.061294
O O9 0.576531 0.793213 0.170629
O O10 0.670396 0.604355 0.110875
O O11 0.587443 0.791369 0.638840
O O12 0.186829 0.839858 0.043946
O O13 0.063289 0.698683 0.243529
O O14 0.580028 0.539331 0.889569
#
# Coordination Sequence:
#
# PCOD9117618 Si02
#       7
#     2   2   2   2   2   2   2
#     4  11  23  45  71  98 140 176 246 300 356 427
#     4  11  25  41  71 101 144 182 240 296 362 419
#     4  10  25  47  65 100 145 188 228 299 362 435
#     4  11  24  42  69 107 138 176 243 300 355 413
#     4  12  24  40  73 103 133 188 237 296 361 419
#     4  10  23  43  69 100 140 180 235 306 349 423
#     4  11  26  44  70  99 146 188 235 291 371 432
#
# _framework density 21.604036000000001
#
# number of rings (size 3 to 8) (size 9 to 14) (size 15 to 20)
#    0.000    1.143    5.714    0.857    6.000    3.429 
#    2.571    0.000    0.000    0.000    0.000    0.000 
#    0.000    0.000    0.000    0.000    0.000    0.000 
#
# Total GULP energy -78220.995577 kJ/mol
# GULP energy per Si atom -5587.213970 kJ/mol
# Density = 2.155486 g / cm^3
# Si number density = 21.604036 Si / 1000 Ang^3
#
#
#
# Elastic Constant Matrix: (Units=GPa)
#
#
# Indices 1 2 3 4 5 6 
#
# 1 103.9282 45.6812 52.0608 0.0000 -7.7608 0.0000
# 2 45.6812 94.0094 36.0733 0.0000 2.1554 0.0000
# 3 52.0608 36.0733 64.4475 0.0000 -23.3256 0.0000
# 4 0.0000 0.0000 0.0000 24.3802 0.0000 -8.9712
# 5 -7.7608 2.1554 -23.3256 0.0000 41.5361 0.0000
# 6 0.0000 0.0000 0.0000 -8.9712 0.0000 36.4051
#
#
#
# Elastic Compliance Matrix: (Units=1/GPa)
#
#
# Indices 1 2 3 4 5 6 
#
# 1 0.017793 -0.003048 -0.014317 0.000000 -0.004557 0.000000
# 2 -0.003048 0.015486 -0.008413 0.000000 -0.006098 0.000000
# 3 -0.014317 -0.008413 0.038884 0.000000 0.019598 0.000000
# 4 0.000000 0.000000 0.000000 0.045107 0.000000 0.011116
# 5 -0.004557 -0.006098 0.019598 0.000000 0.034546 0.000000
# 6 0.000000 0.000000 0.000000 0.011116 0.000000 0.030208
#
#
# Mechanical properties :
#
#
# Convention : Reuss Voigt Hill
#
# Bulk Modulus (GPa) = 48.52526 58.89063 53.70794
# Shear Modulus (GPa) = 20.79449 29.03559 24.91504
#
# Velocity S-wave (km/s) = 3.10583 3.67002 3.39965
# Velocity P-wave (km/s) = 5.94740 6.72882 6.35014
#
# Compressibility (1/GPa) = 0.02060782
#
# Stress axis : x y z
#
# Youngs Moduli (GPa) = 56.20154 64.57314 25.71784
#
# Poissons Ratio (x) = 0.19682 0.36819
# Poissons Ratio (y) = 0.17130 0.21636
# Poissons Ratio (z) = 0.80462 0.54325
#
# Static dielectric constant tensor:
#      x y z
#    x 1.796360 0.000000 -0.037790 
#    y 0.000000 1.818750 0.000000 
#    z -0.037790 0.000000 1.799760 
# 
# From -- ./inp_files/15178.got.cif
#   From: 2010.05.17/outbox.cif.g08.bks.cpg/sg4_8_cif.got.tgz:15178.got - 2010.06.03 18:43:04.
