data_PCOD9117204
_publ_section_title
;
Structure prediction by ZEFSAII (Michael W. Deem and Ramdas Pophale) SiO2 
 PCOD9117204
Probable space group: P 21
;
_chemical_formula_sum "Si O2"
_cell_formula_units_Z 16
_cell_length_a 13.161477
_cell_length_b 8.434905
_cell_length_c 6.343073
_cell_angle_alpha 90.000000
_cell_angle_beta 63.861875
_cell_angle_gamma 90.000000
_cell_volume 632.168012
_symmetry_space_group_name_H-M "P 21"
_symmetry_group_IT_number 4
_symmetry_cell_setting 'monoclinic'
loop_
_space_group_symop_operation_xyz
x,y,z
-x,1/2+y,-z
loop_
_atom_site_type_symbol
_atom_site_label
_atom_site_fract_x
_atom_site_fract_y
_atom_site_fract_z
Si Si1 0.333093 0.359700 0.970152
Si Si2 0.518884 0.516220 0.499268
Si Si3 0.525131 0.802888 0.790968
Si Si4 0.122212 0.927206 0.519151
Si Si5 0.721398 0.201977 0.909510
Si Si6 0.770115 0.589517 0.216934
Si Si7 0.014916 0.931995 0.215246
Si Si8 0.888179 0.180214 0.106695
O O1 0.443560 0.430277 0.747389
O O2 0.263182 0.253170 0.869772
O O3 0.380831 0.261495 0.124587
O O4 0.273597 0.512691 0.130907
O O5 0.523176 0.692813 0.586548
O O6 0.463842 0.476960 0.323045
O O7 0.652687 0.488958 0.336278
O O8 0.403616 0.769967 0.000797
O O9 0.204323 0.818651 0.300084
O O10 0.087398 0.804248 0.731162
O O11 0.184109 0.069991 0.585300
O O12 0.019504 0.967778 0.457731
O O13 0.766919 0.198194 0.110272
O O14 0.870771 0.516802 0.981721
O O15 0.914266 0.010656 0.177814
O O16 0.028241 0.746400 0.150884
#
# Coordination Sequence:
#
# PCOD9117204 Si02
#       8
#     2   2   2   2   2   2   2   2
#     4  11  26  41  67 106 135 182 232 296 344 421
#     4  11  23  41  64  93 136 175 223 276 343 416
#     4  11  24  40  67  96 136 178 227 274 349 411
#     4  10  22  44  71  94 137 182 233 277 362 413
#     4  10  24  45  68  96 138 184 224 292 348 416
#     4  11  24  42  66 102 135 178 232 291 343 413
#     4  10  24  43  72  98 137 179 226 293 347 414
#     4  10  23  46  69 101 134 178 229 287 350 418
#
# _framework density 25.309726999999999
#
# number of rings (size 3 to 8) (size 9 to 14) (size 15 to 20)
#    0.000    1.500    1.250    3.000    7.000    7.000 
#    0.000    0.000    0.000    0.000    0.000    0.000 
#    0.000    0.000    0.000    0.000    0.000    0.000 
#
# Total GULP energy -89265.785837 kJ/mol
# GULP energy per Si atom -5579.111615 kJ/mol
# Density = 2.525212 g / cm^3
# Si number density = 25.309727 Si / 1000 Ang^3
#
#
#
# Elastic Constant Matrix: (Units=GPa)
#
#
# Indices 1 2 3 4 5 6 
#
# 1 92.0332 37.7097 35.8985 0.0000 28.7206 0.0000
# 2 37.7097 83.7598 25.9137 0.0000 20.2617 0.0000
# 3 35.8985 25.9137 74.0884 0.0000 21.5844 0.0000
# 4 0.0000 0.0000 0.0000 44.9076 0.0000 2.5184
# 5 28.7206 20.2617 21.5844 0.0000 53.6972 0.0000
# 6 0.0000 0.0000 0.0000 2.5184 0.0000 44.7511
#
#
#
# Elastic Compliance Matrix: (Units=1/GPa)
#
#
# Indices 1 2 3 4 5 6 
#
# 1 0.016169 -0.004594 -0.004772 0.000000 -0.004996 0.000000
# 2 -0.004594 0.015333 -0.002455 0.000000 -0.002342 0.000000
# 3 -0.004772 -0.002455 0.017731 0.000000 -0.003649 0.000000
# 4 0.000000 0.000000 0.000000 0.022338 0.000000 -0.001257
# 5 -0.004996 -0.002342 -0.003649 0.000000 0.023646 0.000000
# 6 0.000000 0.000000 0.000000 -0.001257 0.000000 0.022417
#
#
# Mechanical properties :
#
#
# Convention : Reuss Voigt Hill
#
# Bulk Modulus (GPa) = 39.07587 49.88058 44.47822
# Shear Modulus (GPa) = 33.37662 38.69515 36.03589
#
# Velocity S-wave (km/s) = 3.63537 3.91431 3.77742
# Velocity P-wave (km/s) = 5.75272 6.33877 6.05284
#
# Compressibility (1/GPa) = 0.02559124
#
# Stress axis : x y z
#
# Youngs Moduli (GPa) = 61.84835 65.21775 56.39830
#
# Poissons Ratio (x) = 0.29964 0.26912
# Poissons Ratio (y) = 0.28416 0.13844
# Poissons Ratio (z) = 0.29512 0.16009
#
# Static dielectric constant tensor:
#      x y z
#    x 2.024420 0.000000 0.009370 
#    y 0.000000 2.119270 0.000000 
#    z 0.009370 0.000000 2.040990 
# 
# From -- ./inp_files/3482.got.cif
#   From: 2010.05.17/outbox.cif.g08.bks.cpg/sg4_2_cif.got.tgz:3482.got - 2010.06.03 18:43:04.
