data_PCOD9117322
_publ_section_title
;
Structure prediction by ZEFSAII (Michael W. Deem and Ramdas Pophale) SiO2 
 PCOD9117322
Probable space group: P 21
;
_chemical_formula_sum "Si O2"
_cell_formula_units_Z 12
_cell_length_a 9.616054
_cell_length_b 4.972814
_cell_length_c 16.298835
_cell_angle_alpha 90.000000
_cell_angle_beta 143.957835
_cell_angle_gamma 90.000000
_cell_volume 458.578739
_symmetry_space_group_name_H-M "P 21"
_symmetry_group_IT_number 4
_symmetry_cell_setting 'monoclinic'
loop_
_space_group_symop_operation_xyz
x,y,z
-x,1/2+y,-z
loop_
_atom_site_type_symbol
_atom_site_label
_atom_site_fract_x
_atom_site_fract_y
_atom_site_fract_z
Si Si1 0.143653 0.242940 0.077844
Si Si2 0.913921 0.201827 0.509816
Si Si3 0.545669 0.007769 0.643246
Si Si4 0.353188 0.028138 0.023484
Si Si5 0.209895 0.378138 0.410450
Si Si6 0.172291 0.523047 0.848910
O O1 0.239226 0.424019 0.196963
O O2 0.339219 0.137852 0.108110
O O3 0.975386 0.462095 0.953398
O O4 0.976207 0.059336 0.627049
O O5 0.942635 0.959711 0.457122
O O6 0.661110 0.323196 0.416194
O O7 0.646267 0.984497 0.598841
O O8 0.407759 0.288331 0.571122
O O9 0.185795 0.225870 0.890980
O O10 0.253874 0.732263 0.959010
O O11 0.616218 0.047354 0.115433
O O12 0.067848 0.123074 0.306534
#
# Coordination Sequence:
#
# PCOD9117322 Si02
#       6
#     2   2   2   2   2   2
#     4  12  28  47  74 105 151 199 250 309 374 450
#     4  12  28  48  72 113 153 199 249 311 385 451
#     4  12  28  48  79 113 158 199 262 310 395 456
#     4  10  22  46  68 108 137 200 239 309 355 456
#     4  12  26  48  77 113 151 206 246 325 377 466
#     4  10  24  43  76 102 148 183 256 296 382 425
#
# _framework density 26.167804
#
# number of rings (size 3 to 8) (size 9 to 14) (size 15 to 20)
#    0.000    0.667    3.333    3.000    7.000    1.333 
#    6.000    0.000    0.000    0.000    0.000    0.000 
#    0.000    0.000    0.000    0.000    0.000    0.000 
#
# Total GULP energy -67098.149658 kJ/mol
# GULP energy per Si atom -5591.512471 kJ/mol
# Density = 2.610825 g / cm^3
# Si number density = 26.167804 Si / 1000 Ang^3
#
#
#
# Elastic Constant Matrix: (Units=GPa)
#
#
# Indices 1 2 3 4 5 6 
#
# 1 187.4327 70.2528 12.8271 0.0000 -9.6011 0.0000
# 2 70.2528 133.2545 7.3811 0.0000 -2.3209 0.0000
# 3 12.8271 7.3811 36.3916 0.0000 -8.5374 0.0000
# 4 0.0000 0.0000 0.0000 30.9164 0.0000 1.2473
# 5 -9.6011 -2.3209 -8.5374 0.0000 35.6809 0.0000
# 6 0.0000 0.0000 0.0000 1.2473 0.0000 45.5796
#
#
#
# Elastic Compliance Matrix: (Units=1/GPa)
#
#
# Indices 1 2 3 4 5 6 
#
# 1 0.006803 -0.003487 -0.001392 0.000000 0.001270 0.000000
# 2 -0.003487 0.009378 -0.000795 0.000000 -0.000518 0.000000
# 3 -0.001392 -0.000795 0.029698 0.000000 0.006679 0.000000
# 4 0.000000 0.000000 0.000000 0.032381 0.000000 -0.000886
# 5 0.001270 -0.000518 0.006679 0.000000 0.029933 0.000000
# 6 0.000000 0.000000 0.000000 -0.000886 0.000000 0.021964
#
#
# Mechanical properties :
#
#
# Convention : Reuss Voigt Hill
#
# Bulk Modulus (GPa) = 28.96029 59.77788 44.36908
# Shear Modulus (GPa) = 32.67672 40.20990 36.44331
#
# Velocity S-wave (km/s) = 3.53758 3.92422 3.73591
# Velocity P-wave (km/s) = 5.27040 6.58987 5.96672
#
# Compressibility (1/GPa) = 0.03453004
#
# Stress axis : x y z
#
# Youngs Moduli (GPa) = 147.00126 106.63396 33.67254
#
# Poissons Ratio (x) = 0.37185 0.04689
# Poissons Ratio (y) = 0.51262 0.02675
# Poissons Ratio (z) = 0.20469 0.08473
#
# Static dielectric constant tensor:
#      x y z
#    x 2.032720 0.000000 -0.040370 
#    y 0.000000 2.076510 0.000000 
#    z -0.040370 0.000000 2.120600 
# 
# From -- ./inp_files/8888.got.cif
#   From: 2010.05.17/outbox.cif.g08.bks.cpg/sg4_5_cif.got.tgz:8888.got - 2010.06.03 18:43:04.
