data_PCOD9117186
_publ_section_title
;
Structure prediction by ZEFSAII (Michael W. Deem and Ramdas Pophale) SiO2 
 PCOD9117186
Probable space group: P 21
;
_chemical_formula_sum "Si O2"
_cell_formula_units_Z 16
_cell_length_a 11.543126
_cell_length_b 7.754399
_cell_length_c 11.748085
_cell_angle_alpha 90.000000
_cell_angle_beta 37.840543
_cell_angle_gamma 90.000000
_cell_volume 645.103165
_symmetry_space_group_name_H-M "P 21"
_symmetry_group_IT_number 4
_symmetry_cell_setting 'monoclinic'
loop_
_space_group_symop_operation_xyz
x,y,z
-x,1/2+y,-z
loop_
_atom_site_type_symbol
_atom_site_label
_atom_site_fract_x
_atom_site_fract_y
_atom_site_fract_z
Si Si1 0.772960 0.130230 0.648581
Si Si2 0.267557 0.802103 0.743688
Si Si3 0.061916 0.888689 0.314618
Si Si4 0.496114 0.661668 0.760575
Si Si5 0.399444 0.162814 0.069160
Si Si6 0.970540 0.529159 0.908476
Si Si7 0.205004 0.375212 0.045126
Si Si8 0.209305 0.927914 0.557547
O O1 0.882715 0.209658 0.671500
O O2 0.787880 0.271931 0.535198
O O3 0.558325 0.112522 0.854147
O O4 0.879353 0.964220 0.519767
O O5 0.423697 0.789086 0.720297
O O6 0.331431 0.882724 0.575055
O O7 0.167934 0.621748 0.785034
O O8 0.106541 0.918623 0.927891
O O9 0.029374 0.911280 0.205033
O O10 0.240126 0.015937 0.205212
O O11 0.504995 0.709682 0.885598
O O12 0.700724 0.592627 0.569331
O O13 0.346422 0.503247 0.873824
O O14 0.298562 0.327566 0.093067
O O15 0.833307 0.691807 0.986464
O O16 0.000201 0.449791 0.232007
#
# Coordination Sequence:
#
# PCOD9117186 Si02
#       8
#     2   2   2   2   2   2   2   2
#     4  12  23  42  71 100 140 173 226 284 351 405
#     4  11  23  44  70 101 139 184 235 281 341 423
#     4  11  24  44  69 103 136 176 230 287 343 410
#     4  12  25  42  72 100 139 183 235 281 351 411
#     4  11  22  38  69 101 131 175 223 285 347 400
#     4  10  22  44  69  98 136 184 233 279 346 406
#     4  10  22  44  71  97 140 181 228 294 340 402
#     4  11  23  44  67  96 135 182 224 281 339 407
#
# _framework density 24.802236000000001
#
# number of rings (size 3 to 8) (size 9 to 14) (size 15 to 20)
#    0.000    1.000    6.250    2.250    1.750    3.000 
#    2.250    2.500    0.000    0.000    0.000    0.000 
#    0.000    0.000    0.000    0.000    0.000    0.000 
#
# Total GULP energy -89696.481714 kJ/mol
# GULP energy per Si atom -5606.030107 kJ/mol
# Density = 2.474579 g / cm^3
# Si number density = 24.802236 Si / 1000 Ang^3
#
#
#
# Elastic Constant Matrix: (Units=GPa)
#
#
# Indices 1 2 3 4 5 6 
#
# 1 132.6284 11.7116 38.0988 0.0000 29.2952 0.0000
# 2 11.7116 50.1329 18.9231 0.0000 11.6532 0.0000
# 3 38.0988 18.9231 125.1578 0.0000 3.0184 0.0000
# 4 0.0000 0.0000 0.0000 28.7733 0.0000 8.9206
# 5 29.2952 11.6532 3.0184 0.0000 47.1531 0.0000
# 6 0.0000 0.0000 0.0000 8.9206 0.0000 21.8756
#
#
#
# Elastic Compliance Matrix: (Units=1/GPa)
#
#
# Indices 1 2 3 4 5 6 
#
# 1 0.009623 0.000172 -0.002815 0.000000 -0.005841 0.000000
# 2 0.000172 0.022420 -0.003311 0.000000 -0.005436 0.000000
# 3 -0.002815 -0.003311 0.009300 0.000000 0.001972 0.000000
# 4 0.000000 0.000000 0.000000 0.039784 0.000000 -0.016224
# 5 -0.005841 -0.005436 0.001972 0.000000 0.026054 0.000000
# 6 0.000000 0.000000 0.000000 -0.016224 0.000000 0.052329
#
#
# Mechanical properties :
#
#
# Convention : Reuss Voigt Hill
#
# Bulk Modulus (GPa) = 33.97197 49.48734 41.72965
# Shear Modulus (GPa) = 27.58937 35.50608 31.54772
#
# Velocity S-wave (km/s) = 3.33885 3.78771 3.57034
# Velocity P-wave (km/s) = 5.34703 6.25501 5.81876
#
# Compressibility (1/GPa) = 0.02943603
#
# Stress axis : x y z
#
# Youngs Moduli (GPa) = 103.91349 44.60283 107.52988
#
# Poissons Ratio (x) = -0.00767 0.30265
# Poissons Ratio (y) = -0.01787 0.35604
# Poissons Ratio (z) = 0.29247 0.14768
#
# Static dielectric constant tensor:
#      x y z
#    x 1.999260 0.000000 -0.021800 
#    y 0.000000 1.997490 0.000000 
#    z -0.021800 0.000000 1.902560 
# 
# From -- ./inp_files/11837.got.cif
#   From: 2010.05.17/outbox.cif.g08.bks.cpg/sg4_6_cif.got.tgz:11837.got - 2010.06.03 18:43:04.
