data_PCOD9117373
_publ_section_title
;
Structure prediction by ZEFSAII (Michael W. Deem and Ramdas Pophale) SiO2 
 PCOD9117373
Probable space group: P 21
;
_chemical_formula_sum "Si O2"
_cell_formula_units_Z 14
_cell_length_a 19.939981
_cell_length_b 4.998285
_cell_length_c 5.054216
_cell_angle_alpha 90.000000
_cell_angle_beta 88.072821
_cell_angle_gamma 90.000000
_cell_volume 503.447093
_symmetry_space_group_name_H-M "P 21"
_symmetry_group_IT_number 4
_symmetry_cell_setting 'monoclinic'
loop_
_space_group_symop_operation_xyz
x,y,z
-x,1/2+y,-z
loop_
_atom_site_type_symbol
_atom_site_label
_atom_site_fract_x
_atom_site_fract_y
_atom_site_fract_z
Si Si1 0.353759 0.655510 0.395478
Si Si2 0.007277 0.371808 0.825266
Si Si3 0.847272 0.659209 0.255368
Si Si4 0.374527 0.318531 0.937734
Si Si5 0.541448 0.492176 0.417919
Si Si6 0.761498 0.921570 0.902109
Si Si7 0.137470 0.797664 0.278562
O O1 0.356593 0.494031 0.674494
O O2 0.504637 0.209934 0.435214
O O3 0.283285 0.640433 0.250361
O O4 0.386851 0.938010 0.449431
O O5 0.942394 0.299965 0.661082
O O6 0.080234 0.292537 0.715418
O O7 0.003352 0.676977 0.919018
O O8 0.828838 0.472057 0.499327
O O9 0.792504 0.882149 0.190726
O O10 0.850640 0.462138 0.996812
O O11 0.431583 0.110135 0.858948
O O12 0.399327 0.512698 0.166307
O O13 0.301644 0.216655 0.053507
O O14 0.832745 0.001304 0.756185
#
# Coordination Sequence:
#
# PCOD9117373 Si02
#       7
#     2   2   2   2   2   2   2
#     4  10  26  49  77 118 159 210 263 340 400 498
#     4  10  22  48  70 110 160 210 280 348 412 488
#     4  11  26  43  72 112 154 217 273 343 413 484
#     4  10  26  49  77 118 159 210 263 340 400 498
#     4  12  26  56  84 122 164 216 276 340 416 500
#     4  10  26  46  80 110 164 202 280 328 418 482
#     4  11  26  43  72 112 154 217 273 343 413 484
#
# _framework density 27.808282999999999
#
# number of rings (size 3 to 8) (size 9 to 14) (size 15 to 20)
#    0.857    0.571    2.857    0.000    6.000    5.714 
#    5.143    0.000    0.000    0.000    0.000    0.000 
#    0.000    0.000    0.000    0.000    0.000    0.000 
#
# Total GULP energy -78154.809831 kJ/mol
# GULP energy per Si atom -5582.486416 kJ/mol
# Density = 2.774499 g / cm^3
# Si number density = 27.808283 Si / 1000 Ang^3
#
#
#
# Elastic Constant Matrix: (Units=GPa)
#
#
# Indices 1 2 3 4 5 6 
#
# 1 130.3159 31.2675 22.4340 0.0000 6.1701 0.0000
# 2 31.2675 96.3872 50.3619 0.0000 -1.2949 0.0000
# 3 22.4340 50.3619 147.4337 0.0000 -0.3106 0.0000
# 4 0.0000 0.0000 0.0000 43.9338 0.0000 -5.2506
# 5 6.1701 -1.2949 -0.3106 0.0000 25.4892 0.0000
# 6 0.0000 0.0000 0.0000 -5.2506 0.0000 23.2368
#
#
#
# Elastic Compliance Matrix: (Units=1/GPa)
#
#
# Indices 1 2 3 4 5 6 
#
# 1 0.008462 -0.002555 -0.000419 0.000000 -0.002183 0.000000
# 2 -0.002555 0.013409 -0.004189 0.000000 0.001249 0.000000
# 3 -0.000419 -0.004189 0.008277 0.000000 -0.000010 0.000000
# 4 0.000000 0.000000 0.000000 0.023393 0.000000 0.005286
# 5 -0.002183 0.001249 -0.000010 0.000000 0.039824 0.000000
# 6 0.000000 0.000000 0.000000 0.005286 0.000000 0.044230
#
#
# Mechanical properties :
#
#
# Convention : Reuss Voigt Hill
#
# Bulk Modulus (GPa) = 63.20483 64.69595 63.95039
# Shear Modulus (GPa) = 31.80714 36.53685 34.17199
#
# Velocity S-wave (km/s) = 3.38568 3.62869 3.50929
# Velocity P-wave (km/s) = 6.16943 6.39312 6.28227
#
# Compressibility (1/GPa) = 0.01582158
#
# Stress axis : x y z
#
# Youngs Moduli (GPa) = 118.17036 74.57517 120.81050
#
# Poissons Ratio (x) = 0.19057 0.05067
# Poissons Ratio (y) = 0.30197 0.50608
# Poissons Ratio (z) = 0.04956 0.31240
#
# Static dielectric constant tensor:
#      x y z
#    x 2.204340 0.000000 -0.005080 
#    y 0.000000 2.307010 0.000000 
#    z -0.005080 0.000000 2.157830 
# 
# From -- ./inp_files/4000.got.cif
#   From: 2010.05.17/outbox.cif.g08.bks.cpg/sg4_2_cif.got.tgz:4000.got - 2010.06.03 18:43:04.
