data_PCOD9117705
_publ_section_title
;
Structure prediction by ZEFSAII (Michael W. Deem and Ramdas Pophale) SiO2 
 PCOD9117705
Probable space group: P 21
;
_chemical_formula_sum "Si O2"
_cell_formula_units_Z 10
_cell_length_a 12.225510
_cell_length_b 5.291205
_cell_length_c 12.629767
_cell_angle_alpha 90.000000
_cell_angle_beta 22.071852
_cell_angle_gamma 90.000000
_cell_volume 306.999667
_symmetry_space_group_name_H-M "P 21"
_symmetry_group_IT_number 4
_symmetry_cell_setting 'monoclinic'
loop_
_space_group_symop_operation_xyz
x,y,z
-x,1/2+y,-z
loop_
_atom_site_type_symbol
_atom_site_label
_atom_site_fract_x
_atom_site_fract_y
_atom_site_fract_z
Si Si1 0.658680 0.621610 0.408770
Si Si2 0.820454 0.348058 0.092633
Si Si3 0.253524 0.542589 0.520154
Si Si4 0.100354 0.430380 0.257510
Si Si5 0.371021 0.234126 0.214438
O O1 0.576906 0.336990 0.431994
O O2 0.441778 0.626636 0.705424
O O3 0.948885 0.602057 0.065110
O O4 0.591585 0.558846 0.242576
O O5 0.108163 0.351596 0.742400
O O6 0.055686 0.792025 0.699771
O O7 0.250538 0.446375 0.402529
O O8 0.315293 0.275094 0.140583
O O9 0.830388 0.501778 0.572550
O O10 0.294788 0.674972 0.061829
#
# Coordination Sequence:
#
# PCOD9117705 Si02
#       5
#     2   2   2   2   2
#     4  10  23  44  69  96 142 184 238 300 364 428
#     4  10  23  44  69  96 142 184 238 300 364 428
#     4  10  28  48  72 114 146 190 258 304 362 466
#     4  12  27  47  78 106 153 198 245 311 380 441
#     4  12  27  47  78 106 153 198 245 311 380 441
#
# _framework density 32.573323000000002
#
# number of rings (size 3 to 8) (size 9 to 14) (size 15 to 20)
#    1.200    0.000    2.000    2.400    5.600    1.600 
#    0.000    0.000    0.000    0.000    0.000    0.000 
#    0.000    0.000    0.000    0.000    0.000    0.000 
#
# Total GULP energy -55842.138194 kJ/mol
# GULP energy per Si atom -5584.213819 kJ/mol
# Density = 3.249918 g / cm^3
# Si number density = 32.573323 Si / 1000 Ang^3
#
#
#
# Elastic Constant Matrix: (Units=GPa)
#
#
# Indices 1 2 3 4 5 6 
#
# 1 148.6055 7.6257 50.9142 0.0000 -36.7474 0.0000
# 2 7.6257 151.6147 63.8515 0.0000 -11.0454 0.0000
# 3 50.9142 63.8515 320.0909 0.0000 -37.7303 0.0000
# 4 0.0000 0.0000 0.0000 92.7165 0.0000 -1.0580
# 5 -36.7474 -11.0454 -37.7303 0.0000 65.7774 0.0000
# 6 0.0000 0.0000 0.0000 -1.0580 0.0000 75.2349
#
#
#
# Elastic Compliance Matrix: (Units=1/GPa)
#
#
# Indices 1 2 3 4 5 6 
#
# 1 0.008003 0.000248 -0.000848 0.000000 0.004026 0.000000
# 2 0.000248 0.007219 -0.001416 0.000000 0.000538 0.000000
# 3 -0.000848 -0.001416 0.003708 0.000000 0.001416 0.000000
# 4 0.000000 0.000000 0.000000 0.010787 0.000000 0.000152
# 5 0.004026 0.000538 0.001416 0.000000 0.018354 0.000000
# 6 0.000000 0.000000 0.000000 0.000152 0.000000 0.013294
#
#
# Mechanical properties :
#
#
# Convention : Reuss Voigt Hill
#
# Bulk Modulus (GPa) = 67.12396 96.12155 81.62276
# Shear Modulus (GPa) = 71.06022 79.94040 75.50031
#
# Velocity S-wave (km/s) = 4.67577 4.95933 4.81964
# Velocity P-wave (km/s) = 7.05707 7.89725 7.48895
#
# Compressibility (1/GPa) = 0.01489781
#
# Stress axis : x y z
#
# Youngs Moduli (GPa) = 124.96045 138.52824 269.66619
#
# Poissons Ratio (x) = -0.03433 0.22861
# Poissons Ratio (y) = -0.03097 0.38183
# Poissons Ratio (z) = 0.10594 0.19615
#
# Static dielectric constant tensor:
#      x y z
#    x 2.652570 0.000000 0.056190 
#    y 0.000000 2.869790 0.000000 
#    z 0.056190 0.000000 2.448670 
# 
# From -- ./inp_files/14013.got.cif
#   From: 2010.05.17/outbox.cif.g08.bks.cpg/sg4_8_cif.got.tgz:14013.got - 2010.06.03 18:43:04.
