data_PCOD9117085
_publ_section_title
;
Structure prediction by ZEFSAII (Michael W. Deem and Ramdas Pophale) SiO2 
 PCOD9117085
Probable space group: P 21
;
_chemical_formula_sum "Si O2"
_cell_formula_units_Z 16
_cell_length_a 19.870807
_cell_length_b 5.148057
_cell_length_c 11.227727
_cell_angle_alpha 90.000000
_cell_angle_beta 146.181042
_cell_angle_gamma 90.000000
_cell_volume 639.250258
_symmetry_space_group_name_H-M "P 21"
_symmetry_group_IT_number 4
_symmetry_cell_setting 'monoclinic'
loop_
_space_group_symop_operation_xyz
x,y,z
-x,1/2+y,-z
loop_
_atom_site_type_symbol
_atom_site_label
_atom_site_fract_x
_atom_site_fract_y
_atom_site_fract_z
Si Si1 0.885488 0.134790 0.918579
Si Si2 0.701553 0.487529 0.506004
Si Si3 0.119148 0.370726 0.323640
Si Si4 0.432372 0.633738 0.145598
Si Si5 0.441523 0.996810 0.355095
Si Si6 0.249884 0.732732 0.677793
Si Si7 0.070988 0.925238 0.605703
Si Si8 0.766579 0.148755 0.966176
O O1 0.791675 0.351196 0.730904
O O2 0.934526 0.041344 0.862806
O O3 0.805273 0.998588 0.904394
O O4 0.009441 0.174241 0.175391
O O5 0.760083 0.766305 0.563083
O O6 0.562489 0.502014 0.337682
O O7 0.713294 0.353458 0.393932
O O8 0.158862 0.505192 0.502788
O O9 0.454704 0.923377 0.234415
O O10 0.367742 0.644242 0.923484
O O11 0.328667 0.519824 0.081781
O O12 0.517144 0.765920 0.530971
O O13 0.305592 0.908960 0.180012
O O14 0.172987 0.916521 0.652451
O O15 0.127100 0.767604 0.799049
O O16 0.965127 0.719207 0.415586
#
# Coordination Sequence:
#
# PCOD9117085 Si02
#       8
#     2   2   2   2   2   2   2   2
#     4  11  22  43  65 101 132 182 233 292 356 416
#     4  11  24  42  69  94 141 183 234 293 349 433
#     4  11  24  40  68  97 138 182 237 286 351 426
#     4   9  23  46  64 106 130 184 236 290 360 426
#     4  10  22  43  68 101 139 179 227 288 352 419
#     4  10  25  46  66 104 137 189 234 290 360 427
#     4  11  25  46  72 105 143 187 238 295 356 425
#     4   9  23  42  68 100 138 184 229 304 352 428
#
# _framework density 25.029322000000001
#
# number of rings (size 3 to 8) (size 9 to 14) (size 15 to 20)
#    0.750    1.000    1.250    1.500    7.000    1.000 
#    4.500    0.000    0.000    0.000    0.000    0.000 
#    0.000    0.000    0.000    0.000    0.000    0.000 
#
# Total GULP energy -89215.330092 kJ/mol
# GULP energy per Si atom -5575.958131 kJ/mol
# Density = 2.497235 g / cm^3
# Si number density = 25.029322 Si / 1000 Ang^3
#
#
#
# Elastic Constant Matrix: (Units=GPa)
#
#
# Indices 1 2 3 4 5 6 
#
# 1 102.7841 -7.6340 4.2616 0.0000 5.7979 0.0000
# 2 -7.6340 38.0352 7.1934 0.0000 -1.9318 0.0000
# 3 4.2616 7.1934 127.1930 0.0000 -9.7693 0.0000
# 4 0.0000 0.0000 0.0000 9.0533 0.0000 -2.5450
# 5 5.7979 -1.9318 -9.7693 0.0000 47.0996 0.0000
# 6 0.0000 0.0000 0.0000 -2.5450 0.0000 27.0502
#
#
#
# Elastic Compliance Matrix: (Units=1/GPa)
#
#
# Indices 1 2 3 4 5 6 
#
# 1 0.009974 0.002041 -0.000546 0.000000 -0.001257 0.000000
# 2 0.002041 0.027023 -0.001556 0.000000 0.000534 0.000000
# 3 -0.000546 -0.001556 0.008098 0.000000 0.001683 0.000000
# 4 0.000000 0.000000 0.000000 0.113458 0.000000 0.010674
# 5 -0.001257 0.000534 0.001683 0.000000 0.021757 0.000000
# 6 0.000000 0.000000 0.000000 0.010674 0.000000 0.037973
#
#
# Mechanical properties :
#
#
# Convention : Reuss Voigt Hill
#
# Bulk Modulus (GPa) = 22.23529 30.62825 26.43177
# Shear Modulus (GPa) = 21.42298 34.25336 27.83817
#
# Velocity S-wave (km/s) = 2.92878 3.70338 3.33862
# Velocity P-wave (km/s) = 4.50998 5.52722 5.04431
#
# Compressibility (1/GPa) = 0.04497355
#
# Stress axis : x y z
#
# Youngs Moduli (GPa) = 100.25743 37.00618 123.49310
#
# Poissons Ratio (x) = -0.07554 0.06745
# Poissons Ratio (y) = -0.20466 0.19211
# Poissons Ratio (z) = 0.05476 0.05757
#
# Static dielectric constant tensor:
#      x y z
#    x 2.032570 0.000000 -0.093270 
#    y 0.000000 2.164680 0.000000 
#    z -0.093270 0.000000 2.135410 
# 
# From -- ./inp_files/12991.got.cif
#   From: 2010.05.17/outbox.cif.g08.bks.cpg/sg4_7_cif.got.tgz:12991.got - 2010.06.03 18:43:04.
