data_PCOD9117900
_publ_section_title
;
Structure prediction by ZEFSAII (Michael W. Deem and Ramdas Pophale) SiO2 
 PCOD9117900
Probable space group: P 21
;
_chemical_formula_sum "Si O2"
_cell_formula_units_Z 14
_cell_length_a 8.118378
_cell_length_b 13.001546
_cell_length_c 5.925228
_cell_angle_alpha 90.000000
_cell_angle_beta 61.194800
_cell_angle_gamma 90.000000
_cell_volume 548.029306
_symmetry_space_group_name_H-M "P 21"
_symmetry_group_IT_number 4
_symmetry_cell_setting 'monoclinic'
loop_
_space_group_symop_operation_xyz
x,y,z
-x,1/2+y,-z
loop_
_atom_site_type_symbol
_atom_site_label
_atom_site_fract_x
_atom_site_fract_y
_atom_site_fract_z
Si Si1 0.265720 0.164320 0.529313
Si Si2 0.182561 0.816635 0.515309
Si Si3 0.184893 0.276859 0.000108
Si Si4 0.305930 0.971597 0.799164
Si Si5 0.970603 0.515413 0.638352
Si Si6 0.457945 0.698642 0.001830
Si Si7 0.666446 0.979741 0.852617
O O1 0.160462 0.247268 0.755496
O O2 0.350638 0.067492 0.608609
O O3 0.126532 0.105292 0.447548
O O4 0.433418 0.226644 0.299171
O O5 0.306918 0.756687 0.253079
O O6 0.285413 0.872157 0.656207
O O7 0.097392 0.910975 0.434446
O O8 0.010866 0.756784 0.745303
O O9 0.357172 0.203957 0.960447
O O10 0.253543 0.390312 0.037310
O O11 0.464555 0.952338 0.881091
O O12 0.112465 0.005126 0.055043
O O13 0.192116 0.508786 0.445251
O O14 0.371806 0.587782 0.002775
#
# Coordination Sequence:
#
# PCOD9117900 Si02
#       7
#     2   2   2   2   2   2   2
#     4  11  24  48  76 106 155 196 256 324 382 462
#     4  10  27  47  77 107 150 202 255 317 388 462
#     4  11  26  51  73 116 154 203 262 321 386 458
#     4  11  23  51  76 109 149 199 261 321 383 452
#     4  10  23  49  74 107 149 198 253 324 382 456
#     4  12  26  47  77 112 154 201 260 315 383 461
#     4  11  25  49  81 109 157 203 257 322 386 453
#
# _framework density 25.546078999999999
#
# number of rings (size 3 to 8) (size 9 to 14) (size 15 to 20)
#    0.000    1.143    2.857    0.857    6.000    5.714 
#   10.286    0.000    0.000    0.000    0.000    0.000 
#    0.000    0.000    0.000    0.000    0.000    0.000 
#
# Total GULP energy -78267.977935 kJ/mol
# GULP energy per Si atom -5590.569853 kJ/mol
# Density = 2.548794 g / cm^3
# Si number density = 25.546079 Si / 1000 Ang^3
#
#
#
# Elastic Constant Matrix: (Units=GPa)
#
#
# Indices 1 2 3 4 5 6 
#
# 1 45.1971 34.3986 30.4279 0.0000 -14.6747 0.0000
# 2 34.3986 105.1252 75.1792 0.0000 3.0980 0.0000
# 3 30.4279 75.1792 204.4077 0.0000 -25.6609 0.0000
# 4 0.0000 0.0000 0.0000 49.5191 0.0000 -3.7234
# 5 -14.6747 3.0980 -25.6609 0.0000 38.8621 0.0000
# 6 0.0000 0.0000 0.0000 -3.7234 0.0000 30.1583
#
#
#
# Elastic Compliance Matrix: (Units=1/GPa)
#
#
# Indices 1 2 3 4 5 6 
#
# 1 0.036542 -0.013516 0.001525 0.000000 0.015884 0.000000
# 2 -0.013516 0.018686 -0.006202 0.000000 -0.010689 0.000000
# 3 0.001525 -0.006202 0.007721 0.000000 0.006168 0.000000
# 4 0.000000 0.000000 0.000000 0.020383 0.000000 0.002517
# 5 0.015884 -0.010689 0.006168 0.000000 0.036655 0.000000
# 6 0.000000 0.000000 0.000000 0.002517 0.000000 0.033469
#
#
# Mechanical properties :
#
#
# Convention : Reuss Voigt Hill
#
# Bulk Modulus (GPa) = 37.64697 70.52683 54.08690
# Shear Modulus (GPa) = 25.16403 38.02285 31.59344
#
# Velocity S-wave (km/s) = 3.14195 3.86217 3.52052
# Velocity P-wave (km/s) = 5.28501 6.89609 6.14359
#
# Compressibility (1/GPa) = 0.02656256
#
# Stress axis : x y z
#
# Youngs Moduli (GPa) = 27.36554 53.51695 129.52355
#
# Poissons Ratio (x) = 0.72335 -0.19758
# Poissons Ratio (y) = 0.36988 0.80334
# Poissons Ratio (z) = -0.04175 0.33193
#
# Static dielectric constant tensor:
#      x y z
#    x 2.021600 0.000000 0.036530 
#    y 0.000000 2.082220 0.000000 
#    z 0.036530 0.000000 2.079430 
# 
# From -- ./inp_files/1466.got.cif
#   From: 2010.05.17/outbox.cif.g08.bks.cpg/sg4_1_cif.got.tgz:1466.got - 2010.06.03 18:43:04.
