data_PCOD9117948
_publ_section_title
;
Structure prediction by ZEFSAII (Michael W. Deem and Ramdas Pophale) SiO2 
 PCOD9117948
Probable space group: P 21
;
_chemical_formula_sum "Si O2"
_cell_formula_units_Z 16
_cell_length_a 7.775108
_cell_length_b 8.604239
_cell_length_c 15.928414
_cell_angle_alpha 90.000000
_cell_angle_beta 143.175624
_cell_angle_gamma 90.000000
_cell_volume 638.678411
_symmetry_space_group_name_H-M "P 21"
_symmetry_group_IT_number 4
_symmetry_cell_setting 'monoclinic'
loop_
_space_group_symop_operation_xyz
x,y,z
-x,1/2+y,-z
loop_
_atom_site_type_symbol
_atom_site_label
_atom_site_fract_x
_atom_site_fract_y
_atom_site_fract_z
Si Si1 0.336251 0.489750 0.189219
Si Si2 0.280613 0.602254 0.501674
Si Si3 0.850477 0.625958 0.196891
Si Si4 0.956506 0.396493 0.484194
Si Si5 0.167653 0.871262 0.913529
Si Si6 0.041342 0.283144 0.937309
Si Si7 0.684214 0.910216 0.216676
Si Si8 0.066372 0.053217 0.217924
O O1 0.665348 0.487459 0.345692
O O2 0.179944 0.655817 0.112544
O O3 0.154056 0.429015 0.197733
O O4 0.261077 0.357972 0.089869
O O5 0.162076 0.629765 0.361477
O O6 0.154787 0.733277 0.518011
O O7 0.621074 0.610389 0.634189
O O8 0.155562 0.432940 0.480952
O O9 0.829236 0.709109 0.098019
O O10 0.734786 0.454328 0.133965
O O11 0.684765 0.724751 0.200981
O O12 0.172789 0.456190 0.641324
O O13 0.141751 0.689442 0.894517
O O14 0.358798 0.942507 0.063424
O O15 0.880100 0.431747 0.835730
O O16 0.898237 0.976658 0.229649
#
# Coordination Sequence:
#
# PCOD9117948 Si02
#       8
#     2   2   2   2   2   2   2   2
#     4  11  24  43  70 104 148 192 248 310 383 444
#     4  11  26  45  70 107 153 199 254 312 377 450
#     4   9  23  43  66 101 144 190 248 305 365 437
#     4  11  27  46  69 109 151 197 251 311 384 448
#     4  11  22  41  73 106 146 192 253 305 370 444
#     4  10  24  41  72 101 144 194 248 310 371 449
#     4  10  24  44  71 103 148 193 248 311 370 450
#     4  11  24  43  75 105 148 197 252 304 386 440
#
# _framework density 25.051732000000001
#
# number of rings (size 3 to 8) (size 9 to 14) (size 15 to 20)
#    0.000    1.500    1.250    1.500    7.000    8.000 
#    0.000    0.000    0.000    0.000    0.000    0.000 
#    0.000    0.000    0.000    0.000    0.000    0.000 
#
# Total GULP energy -89285.314793 kJ/mol
# GULP energy per Si atom -5580.332175 kJ/mol
# Density = 2.499471 g / cm^3
# Si number density = 25.051732 Si / 1000 Ang^3
#
#
#
# Elastic Constant Matrix: (Units=GPa)
#
#
# Indices 1 2 3 4 5 6 
#
# 1 77.6051 28.9173 32.6316 0.0000 3.1951 0.0000
# 2 28.9173 111.4518 49.8318 0.0000 -13.8889 0.0000
# 3 32.6316 49.8318 184.4992 0.0000 7.4116 0.0000
# 4 0.0000 0.0000 0.0000 29.0329 0.0000 -4.6421
# 5 3.1951 -13.8889 7.4116 0.0000 41.4527 0.0000
# 6 0.0000 0.0000 0.0000 -4.6421 0.0000 30.1889
#
#
#
# Elastic Compliance Matrix: (Units=1/GPa)
#
#
# Indices 1 2 3 4 5 6 
#
# 1 0.014920 -0.003384 -0.001645 0.000000 -0.001990 0.000000
# 2 -0.003384 0.011654 -0.002736 0.000000 0.004655 0.000000
# 3 -0.001645 -0.002736 0.006529 0.000000 -0.001957 0.000000
# 4 0.000000 0.000000 0.000000 0.035312 0.000000 0.005430
# 5 -0.001990 0.004655 -0.001957 0.000000 0.026187 0.000000
# 6 0.000000 0.000000 0.000000 0.005430 0.000000 0.033960
#
#
# Mechanical properties :
#
#
# Convention : Reuss Voigt Hill
#
# Bulk Modulus (GPa) = 56.90526 66.25750 61.58138
# Shear Modulus (GPa) = 33.34482 37.61326 35.47904
#
# Velocity S-wave (km/s) = 3.65230 3.87902 3.76737
# Velocity P-wave (km/s) = 6.36790 6.82408 6.59993
#
# Compressibility (1/GPa) = 0.01757307
#
# Stress axis : x y z
#
# Youngs Moduli (GPa) = 67.02328 85.80880 153.17058
#
# Poissons Ratio (x) = 0.29034 0.25198
# Poissons Ratio (y) = 0.22678 0.41910
# Poissons Ratio (z) = 0.11026 0.23479
#
# Static dielectric constant tensor:
#      x y z
#    x 1.986170 0.000000 -0.008810 
#    y 0.000000 2.123230 0.000000 
#    z -0.008810 0.000000 1.957500 
# 
# From -- ./inp_files/14973.got.cif
#   From: 2010.05.17/outbox.cif.g08.bks.cpg/sg4_8_cif.got.tgz:14973.got - 2010.06.03 18:43:04.
