data_PCOD9117829
_publ_section_title
;
Structure prediction by ZEFSAII (Michael W. Deem and Ramdas Pophale) SiO2 
 PCOD9117829
Probable space group: P 21
;
_chemical_formula_sum "Si O2"
_cell_formula_units_Z 16
_cell_length_a 14.579635
_cell_length_b 8.361248
_cell_length_c 11.974293
_cell_angle_alpha 90.000000
_cell_angle_beta 149.162338
_cell_angle_gamma 90.000000
_cell_volume 748.259921
_symmetry_space_group_name_H-M "P 21"
_symmetry_group_IT_number 4
_symmetry_cell_setting 'monoclinic'
loop_
_space_group_symop_operation_xyz
x,y,z
-x,1/2+y,-z
loop_
_atom_site_type_symbol
_atom_site_label
_atom_site_fract_x
_atom_site_fract_y
_atom_site_fract_z
Si Si1 0.206952 0.017010 0.601573
Si Si2 0.124141 0.093299 0.766155
Si Si3 0.847988 0.956736 0.120158
Si Si4 0.473902 0.130236 0.715833
Si Si5 0.768717 0.169327 0.482478
Si Si6 0.559289 0.490078 0.756588
Si Si7 0.993322 0.298423 0.923692
Si Si8 0.272545 0.044438 0.289906
O O1 0.190271 0.035999 0.715594
O O2 0.356393 0.129491 0.704534
O O3 0.252749 0.837301 0.605725
O O4 0.012307 0.052642 0.345619
O O5 0.154388 0.283772 0.820070
O O6 0.911998 0.067080 0.561057
O O7 0.244846 0.008879 0.985087
O O8 0.900139 0.920862 0.046032
O O9 0.661141 0.044327 0.932566
O O10 0.502341 0.307107 0.699750
O O11 0.362117 0.036722 0.504363
O O12 0.875181 0.199712 0.710283
O O13 0.581888 0.090315 0.318223
O O14 0.579411 0.552234 0.651542
O O15 0.854684 0.390492 0.856745
O O16 0.138639 0.193356 0.138506
#
# Coordination Sequence:
#
# PCOD9117829 Si02
#       8
#     2   2   2   2   2   2   2   2
#     4  10  23  46  73  99 130 186 234 283 350 410
#     4  10  23  46  73  99 130 186 234 283 350 410
#     4  10  23  48  67  95 145 182 221 292 352 399
#     4  12  28  40  67 106 141 180 234 286 342 423
#     4  10  23  48  67  95 145 182 221 292 352 399
#     4  12  28  40  67 106 141 180 234 286 342 423
#     4  10  24  44  70  94 140 188 220 286 342 410
#     4  12  26  44  70 106 136 188 234 284 346 418
#
# _framework density 21.382943999999998
#
# number of rings (size 3 to 8) (size 9 to 14) (size 15 to 20)
#    0.000    1.500    5.000    0.750    7.000    8.000 
#    0.000    0.000    0.000    0.000    0.000    0.000 
#    0.000    0.000    0.000    0.000    0.000    0.000 
#
# Total GULP energy -89451.806231 kJ/mol
# GULP energy per Si atom -5590.737889 kJ/mol
# Density = 2.133428 g / cm^3
# Si number density = 21.382944 Si / 1000 Ang^3
#
#
#
# Elastic Constant Matrix: (Units=GPa)
#
#
# Indices 1 2 3 4 5 6 
#
# 1 105.0114 22.3823 11.0766 0.0000 6.4937 0.0000
# 2 22.3823 37.6900 19.3141 0.0000 19.6834 0.0000
# 3 11.0766 19.3141 28.3102 0.0000 14.6163 0.0000
# 4 0.0000 0.0000 0.0000 24.1701 0.0000 10.3915
# 5 6.4937 19.6834 14.6163 0.0000 26.7284 0.0000
# 6 0.0000 0.0000 0.0000 10.3915 0.0000 23.8995
#
#
#
# Elastic Compliance Matrix: (Units=1/GPa)
#
#
# Indices 1 2 3 4 5 6 
#
# 1 0.011109 -0.008182 -0.000671 0.000000 0.003694 0.000000
# 2 -0.008182 0.057056 -0.020981 0.000000 -0.028557 0.000000
# 3 -0.000671 -0.020981 0.058297 0.000000 -0.016266 0.000000
# 4 0.000000 0.000000 0.000000 0.050886 0.000000 -0.022125
# 5 0.003694 -0.028557 -0.016266 0.000000 0.066441 0.000000
# 6 0.000000 0.000000 0.000000 -0.022125 0.000000 0.051462
#
#
# Mechanical properties :
#
#
# Convention : Reuss Voigt Hill
#
# Bulk Modulus (GPa) = 14.97140 30.72862 22.85001
# Shear Modulus (GPa) = 13.25609 22.84215 18.04912
#
# Velocity S-wave (km/s) = 2.49256 3.27194 2.90847
# Velocity P-wave (km/s) = 3.91159 5.35499 4.68916
#
# Compressibility (1/GPa) = 0.06679401
#
# Stress axis : x y z
#
# Youngs Moduli (GPa) = 90.01587 17.52650 17.15342
#
# Poissons Ratio (x) = 0.14340 0.01152
# Poissons Ratio (y) = 0.73652 0.35989
# Poissons Ratio (z) = 0.06044 0.36772
#
# Static dielectric constant tensor:
#      x y z
#    x 1.760400 0.000000 0.023590 
#    y 0.000000 1.808870 0.000000 
#    z 0.023590 0.000000 1.747900 
# 
# From -- ./inp_files/12599.got.cif
#   From: 2010.05.17/outbox.cif.g08.bks.cpg/sg4_7_cif.got.tgz:12599.got - 2010.06.03 18:43:04.
