data_PCOD9117907
_publ_section_title
;
Structure prediction by ZEFSAII (Michael W. Deem and Ramdas Pophale) SiO2 
 PCOD9117907
Probable space group: P 21
;
_chemical_formula_sum "Si O2"
_cell_formula_units_Z 16
_cell_length_a 12.623586
_cell_length_b 5.542119
_cell_length_c 15.168341
_cell_angle_alpha 90.000000
_cell_angle_beta 40.118916
_cell_angle_gamma 90.000000
_cell_volume 683.811056
_symmetry_space_group_name_H-M "P 21"
_symmetry_group_IT_number 4
_symmetry_cell_setting 'monoclinic'
loop_
_space_group_symop_operation_xyz
x,y,z
-x,1/2+y,-z
loop_
_atom_site_type_symbol
_atom_site_label
_atom_site_fract_x
_atom_site_fract_y
_atom_site_fract_z
Si Si1 0.488956 0.097900 0.392235
Si Si2 0.600443 0.552566 0.837848
Si Si3 0.250470 0.814004 0.896258
Si Si4 0.079728 0.050240 0.479477
Si Si5 0.394900 0.053222 0.966413
Si Si6 0.234833 0.436455 0.652594
Si Si7 0.052012 0.057894 0.863158
Si Si8 0.824844 0.351136 0.401105
O O1 0.577423 0.215253 0.252409
O O2 0.348471 0.253395 0.527404
O O3 0.632036 0.077235 0.373233
O O4 0.374070 0.862367 0.452396
O O5 0.738752 0.545108 0.676388
O O6 0.509785 0.811931 0.890665
O O7 0.487015 0.312029 0.899619
O O8 0.675781 0.545388 0.889211
O O9 0.276576 0.999573 0.959627
O O10 0.149861 0.941195 0.881346
O O11 0.140176 0.587826 0.997832
O O12 0.086262 0.990445 0.578643
O O13 0.990580 0.815513 0.494668
O O14 0.140274 0.570239 0.634635
O O15 0.116566 0.326956 0.801367
O O16 0.108329 0.934724 0.736776
#
# Coordination Sequence:
#
# PCOD9117907 Si02
#       8
#     2   2   2   2   2   2   2   2
#     4  11  21  39  68 100 131 180 236 280 349 419
#     4  10  23  50  70 110 135 183 249 298 358 426
#     4  12  25  43  67 104 140 191 232 294 353 433
#     4  12  29  47  76 106 142 191 244 299 365 433
#     4  10  24  44  78  99 143 186 237 308 354 414
#     4  11  21  42  66  98 139 182 229 285 350 419
#     4  11  27  44  63 103 149 183 238 281 362 440
#     4  11  26  45  72  98 143 186 229 303 351 430
#
# _framework density 23.39828
#
# number of rings (size 3 to 8) (size 9 to 14) (size 15 to 20)
#    0.000    1.000    2.500    3.000    7.000    2.000 
#    0.000    0.000    0.000    0.000    0.000    0.000 
#    0.000    0.000    0.000    0.000    0.000    0.000 
#
# Total GULP energy -89310.858304 kJ/mol
# GULP energy per Si atom -5581.928644 kJ/mol
# Density = 2.334502 g / cm^3
# Si number density = 23.398280 Si / 1000 Ang^3
#
#
#
# Elastic Constant Matrix: (Units=GPa)
#
#
# Indices 1 2 3 4 5 6 
#
# 1 73.4210 3.5826 16.3146 0.0000 20.1128 0.0000
# 2 3.5826 74.0562 13.0381 0.0000 -4.0685 0.0000
# 3 16.3146 13.0381 85.0464 0.0000 11.8706 0.0000
# 4 0.0000 0.0000 0.0000 -4.0211 0.0000 -14.2685
# 5 20.1128 -4.0685 11.8706 0.0000 23.5903 0.0000
# 6 0.0000 0.0000 0.0000 -14.2685 0.0000 28.5323
#
#
#
# Elastic Compliance Matrix: (Units=1/GPa)
#
#
# Indices 1 2 3 4 5 6 
#
# 1 0.018083 -0.001506 -0.001129 0.000000 -0.015109 0.000000
# 2 -0.001506 0.014315 -0.002613 0.000000 0.005068 0.000000
# 3 -0.001129 -0.002613 0.013233 0.000000 -0.006147 0.000000
# 4 0.000000 0.000000 0.000000 -0.089634 0.000000 -0.044824
# 5 -0.015109 0.005068 -0.006147 0.000000 0.059239 0.000000
# 6 0.000000 0.000000 0.000000 -0.044824 0.000000 0.012632
#
#
# Mechanical properties :
#
#
# Convention : Reuss Voigt Hill
#
# Bulk Modulus (GPa) = 28.46158 33.15492 30.80825
# Shear Modulus (GPa) = 99.84560 22.92619 61.38590
#
# Velocity S-wave (km/s) = 6.53948 3.13361 5.12759
# Velocity P-wave (km/s) = 8.31926 5.22429 6.94634
#
# Compressibility (1/GPa) = 0.03513508
#
# Stress axis : x y z
#
# Youngs Moduli (GPa) = 55.29908 69.85901 75.56609
#
# Poissons Ratio (x) = 0.10522 0.08533
# Poissons Ratio (y) = 0.08329 0.19745
# Poissons Ratio (z) = 0.06244 0.18254
#
# Static dielectric constant tensor:
#      x y z
#    x 2.298970 0.000000 -0.149690 
#    y 0.000000 2.190490 0.000000 
#    z -0.149690 0.000000 1.861680 
# 
# From -- ./inp_files/8604.got.cif
#   From: 2010.05.17/outbox.cif.g08.bks.cpg/sg4_5_cif.got.tgz:8604.got - 2010.06.03 18:43:04.
