data_PCOD9117771
_publ_section_title
;
Structure prediction by ZEFSAII (Michael W. Deem and Ramdas Pophale) SiO2 
 PCOD9117771
Probable space group: P 21
;
_chemical_formula_sum "Si O2"
_cell_formula_units_Z 16
_cell_length_a 14.789864
_cell_length_b 5.245133
_cell_length_c 23.331470
_cell_angle_alpha 90.000000
_cell_angle_beta 19.846173
_cell_angle_gamma 90.000000
_cell_volume 614.465493
_symmetry_space_group_name_H-M "P 21"
_symmetry_group_IT_number 4
_symmetry_cell_setting 'monoclinic'
loop_
_space_group_symop_operation_xyz
x,y,z
-x,1/2+y,-z
loop_
_atom_site_type_symbol
_atom_site_label
_atom_site_fract_x
_atom_site_fract_y
_atom_site_fract_z
Si Si1 0.879720 0.540530 0.663892
Si Si2 0.678046 0.706701 0.581055
Si Si3 0.521863 0.372802 0.025279
Si Si4 0.509216 0.581735 0.567332
Si Si5 0.093597 0.932268 0.850931
Si Si6 0.769987 0.588123 0.112310
Si Si7 0.722378 0.347050 0.648587
Si Si8 0.949453 0.759206 0.223938
O O1 0.690088 0.372252 0.735779
O O2 0.085198 0.392005 0.582608
O O3 0.078524 0.639786 0.495781
O O4 0.712485 0.759765 0.794451
O O5 0.594846 0.509133 0.581072
O O6 0.804913 0.589466 0.561817
O O7 0.420693 0.852087 0.759249
O O8 0.799355 0.389165 0.895143
O O9 0.455599 0.644868 0.035849
O O10 0.388195 0.866017 0.651461
O O11 0.778570 0.595411 0.370880
O O12 0.279965 0.433360 0.669367
O O13 0.097448 0.114624 0.904182
O O14 0.943828 0.072517 0.889506
O O15 0.993747 0.655880 0.932305
O O16 0.559729 0.788697 0.212876
#
# Coordination Sequence:
#
# PCOD9117771 Si02
#       8
#     2   2   2   2   2   2   2   2
#     4  11  24  45  75 111 152 202 260 317 393 464
#     4  10  23  45  72 109 148 197 249 319 381 472
#     4  12  32  54  79 116 161 215 262 326 396 473
#     4  11  25  46  76 106 144 196 256 317 391 451
#     4  11  25  45  68 110 148 191 248 312 387 467
#     4  10  25  40  67 103 147 193 236 304 388 453
#     4  11  22  43  73 107 146 192 251 316 384 460
#     4  12  26  50  78 110 150 200 266 323 388 468
#
# _framework density 26.038889999999999
#
# number of rings (size 3 to 8) (size 9 to 14) (size 15 to 20)
#    0.000    1.000    2.500    2.250   10.500    1.000 
#    0.000    0.000    0.000    0.000    0.000    0.000 
#    0.000    0.000    0.000    0.000    0.000    0.000 
#
# Total GULP energy -89306.430355 kJ/mol
# GULP energy per Si atom -5581.651897 kJ/mol
# Density = 2.597962 g / cm^3
# Si number density = 26.038890 Si / 1000 Ang^3
#
#
#
# Elastic Constant Matrix: (Units=GPa)
#
#
# Indices 1 2 3 4 5 6 
#
# 1 136.8239 26.1466 38.6460 0.0000 -5.5936 0.0000
# 2 26.1466 57.3756 8.9867 0.0000 -6.4153 0.0000
# 3 38.6460 8.9867 98.1523 0.0000 -7.8703 0.0000
# 4 0.0000 0.0000 0.0000 23.9918 0.0000 20.6663
# 5 -5.5936 -6.4153 -7.8703 0.0000 42.1513 0.0000
# 6 0.0000 0.0000 0.0000 20.6663 0.0000 7.4992
#
#
#
# Elastic Compliance Matrix: (Units=1/GPa)
#
#
# Indices 1 2 3 4 5 6 
#
# 1 0.008883 -0.003547 -0.003169 0.000000 0.000047 0.000000
# 2 -0.003547 0.019346 -0.000179 0.000000 0.002440 0.000000
# 3 -0.003169 -0.000179 0.011590 0.000000 0.001716 0.000000
# 4 0.000000 0.000000 0.000000 -0.030339 0.000000 0.083609
# 5 0.000047 0.002440 0.001716 0.000000 0.024422 0.000000
# 6 0.000000 0.000000 0.000000 0.083609 0.000000 -0.097063
#
#
# Mechanical properties :
#
#
# Convention : Reuss Voigt Hill
#
# Bulk Modulus (GPa) = 38.41772 48.87896 43.64834
# Shear Modulus (GPa) = -122.86916 29.29995 -46.78461
#
# Velocity S-wave (km/s) = -6.87672 3.35810 -4.24337
# Velocity P-wave (km/s) = 6.94739 5.81790 2.68498
#
# Compressibility (1/GPa) = 0.02602965
#
# Stress axis : x y z
#
# Youngs Moduli (GPa) = 112.56830 51.68989 86.28047
#
# Poissons Ratio (x) = 0.18332 0.27344
# Poissons Ratio (y) = 0.39923 0.01546
# Poissons Ratio (z) = 0.35675 0.00926
#
# Static dielectric constant tensor:
#      x y z
#    x 2.100290 0.000000 -0.088940 
#    y 0.000000 2.184990 0.000000 
#    z -0.088940 0.000000 2.251060 
# 
# From -- ./inp_files/16136.got.cif
#   From: 2010.05.17/outbox.cif.g08.bks.cpg/sg4_9_cif.got.tgz:16136.got - 2010.06.03 18:43:04.
