data_PCOD9117351
_publ_section_title
;
Structure prediction by ZEFSAII (Michael W. Deem and Ramdas Pophale) SiO2 
 PCOD9117351
Probable space group: P 21
;
_chemical_formula_sum "Si O2"
_cell_formula_units_Z 16
_cell_length_a 5.394092
_cell_length_b 4.953283
_cell_length_c 22.677747
_cell_angle_alpha 90.000000
_cell_angle_beta 72.077795
_cell_angle_gamma 90.000000
_cell_volume 576.512698
_symmetry_space_group_name_H-M "P 21"
_symmetry_group_IT_number 4
_symmetry_cell_setting 'monoclinic'
loop_
_space_group_symop_operation_xyz
x,y,z
-x,1/2+y,-z
loop_
_atom_site_type_symbol
_atom_site_label
_atom_site_fract_x
_atom_site_fract_y
_atom_site_fract_z
Si Si1 0.203906 0.385030 0.711278
Si Si2 0.350623 0.924925 0.989121
Si Si3 0.609040 0.765444 0.516573
Si Si4 0.935436 0.876205 0.782472
Si Si5 0.022475 0.164658 0.606680
Si Si6 0.981587 0.509149 0.882739
Si Si7 0.494011 0.182122 0.859217
Si Si8 0.679772 0.673759 0.642694
O O1 0.977546 0.598143 0.743971
O O2 0.209430 0.291455 0.642809
O O3 0.646960 0.002234 0.800315
O O4 0.458589 0.566756 0.702444
O O5 0.368070 0.995401 0.919383
O O6 0.569276 0.119026 0.003380
O O7 0.090598 0.010298 0.042972
O O8 0.386058 0.562521 0.510848
O O9 0.848853 0.616227 0.466016
O O10 0.576119 0.790919 0.588346
O O11 0.977524 0.788793 0.847606
O O12 0.884477 0.904185 0.644854
O O13 0.137033 0.108494 0.749022
O O14 0.816809 0.399548 0.613613
O O15 0.734499 0.348914 0.871749
O O16 0.263098 0.373929 0.854253
#
# Coordination Sequence:
#
# PCOD9117351 Si02
#       8
#     2   2   2   2   2   2   2   2
#     4  12  28  52  78 112 160 208 272 322 398 464
#     4  10  22  46  78 120 164 204 264 342 418 494
#     4  12  24  44  78 108 158 198 246 328 404 478
#     4  12  26  54  76 114 158 220 268 332 392 492
#     4  12  26  48  77 115 149 202 258 326 401 477
#     4  11  26  51  81 119 163 213 271 341 417 491
#     4  11  26  51  81 119 163 213 271 341 417 491
#     4  12  26  48  77 115 149 202 258 326 401 477
#
# _framework density 27.753072
#
# number of rings (size 3 to 8) (size 9 to 14) (size 15 to 20)
#    0.000    0.500    3.750    3.750    1.750    6.000 
#    9.000    0.000    0.000    0.000    0.000    0.000 
#    0.000    0.000    0.000    0.000    0.000    0.000 
#
# Total GULP energy -89697.898723 kJ/mol
# GULP energy per Si atom -5606.118670 kJ/mol
# Density = 2.768990 g / cm^3
# Si number density = 27.753072 Si / 1000 Ang^3
#
#
#
# Elastic Constant Matrix: (Units=GPa)
#
#
# Indices 1 2 3 4 5 6 
#
# 1 124.4753 50.5126 30.1018 0.0000 -18.0403 0.0000
# 2 50.5126 167.8368 39.6464 0.0000 -17.4350 0.0000
# 3 30.1018 39.6464 81.2999 0.0000 -21.0283 0.0000
# 4 0.0000 0.0000 0.0000 56.5494 0.0000 -13.3020
# 5 -18.0403 -17.4350 -21.0283 0.0000 45.7554 0.0000
# 6 0.0000 0.0000 0.0000 -13.3020 0.0000 47.0072
#
#
#
# Elastic Compliance Matrix: (Units=1/GPa)
#
#
# Indices 1 2 3 4 5 6 
#
# 1 0.009721 -0.002246 -0.001968 0.000000 0.002073 0.000000
# 2 -0.002246 0.007311 -0.002545 0.000000 0.000731 0.000000
# 3 -0.001968 -0.002545 0.015683 0.000000 0.005462 0.000000
# 4 0.000000 0.000000 0.000000 0.018945 0.000000 0.005361
# 5 0.002073 0.000731 0.005462 0.000000 0.025461 0.000000
# 6 0.000000 0.000000 0.000000 0.005361 0.000000 0.022790
#
#
# Mechanical properties :
#
#
# Convention : Reuss Voigt Hill
#
# Bulk Modulus (GPa) = 52.08924 68.23708 60.16316
# Shear Modulus (GPa) = 41.72664 46.75248 44.23956
#
# Velocity S-wave (km/s) = 3.88170 4.10883 3.99688
# Velocity P-wave (km/s) = 6.23696 6.86662 6.55935
#
# Compressibility (1/GPa) = 0.01919782
#
# Stress axis : x y z
#
# Youngs Moduli (GPa) = 102.86660 136.77928 63.76518
#
# Poissons Ratio (x) = 0.30714 0.12551
# Poissons Ratio (y) = 0.23099 0.16227
# Poissons Ratio (z) = 0.20247 0.34808
#
# Static dielectric constant tensor:
#      x y z
#    x 2.258930 0.000000 0.001970 
#    y 0.000000 2.075470 0.000000 
#    z 0.001970 0.000000 2.269830 
# 
# From -- ./inp_files/4303.got.cif
#   From: 2010.05.17/outbox.cif.g08.bks.cpg/sg4_3_cif.got.tgz:4303.got - 2010.06.03 18:43:04.
