data_PCOD9117914
_publ_section_title
;
Structure prediction by ZEFSAII (Michael W. Deem and Ramdas Pophale) SiO2 
 PCOD9117914
Probable space group: P 21
;
_chemical_formula_sum "Si O2"
_cell_formula_units_Z 14
_cell_length_a 7.118936
_cell_length_b 8.050196
_cell_length_c 10.027760
_cell_angle_alpha 90.000000
_cell_angle_beta 73.996203
_cell_angle_gamma 90.000000
_cell_volume 552.406598
_symmetry_space_group_name_H-M "P 21"
_symmetry_group_IT_number 4
_symmetry_cell_setting 'monoclinic'
loop_
_space_group_symop_operation_xyz
x,y,z
-x,1/2+y,-z
loop_
_atom_site_type_symbol
_atom_site_label
_atom_site_fract_x
_atom_site_fract_y
_atom_site_fract_z
Si Si1 0.971617 0.239130 0.094215
Si Si2 0.268344 0.011619 0.156755
Si Si3 0.723876 0.711527 0.586293
Si Si4 0.188506 0.974758 0.661602
Si Si5 0.298532 0.521935 0.026269
Si Si6 0.552625 0.038317 0.698743
Si Si7 0.891456 0.229427 0.628157
O O1 0.861643 0.302410 0.252773
O O2 0.113858 0.079744 0.081383
O O3 0.800475 0.185998 0.023267
O O4 0.134087 0.381555 0.037957
O O5 0.493218 0.973969 0.081031
O O6 0.163213 0.866242 0.256481
O O7 0.278701 0.159908 0.261458
O O8 0.709755 0.544326 0.498003
O O9 0.573740 0.863891 0.614739
O O10 0.936401 0.785084 0.503868
O O11 0.325412 0.074532 0.738701
O O12 0.987668 0.072907 0.683212
O O13 0.373316 0.538795 0.164321
O O14 0.694495 0.167554 0.597366
#
# Coordination Sequence:
#
# PCOD9117914 Si02
#       7
#     2   2   2   2   2   2   2
#     4  12  29  50  77 113 160 204 266 325 381 466
#     4  12  27  47  80 115 155 206 263 318 395 466
#     4  10  23  52  74 115 149 206 254 325 391 460
#     4  10  26  48  79 112 157 198 262 323 388 462
#     4  12  30  48  81 111 158 212 263 321 388 470
#     4  12  24  51  78 110 160 202 256 320 388 466
#     4  10  25  44  77 110 151 200 254 320 385 458
#
# _framework density 25.343653
#
# number of rings (size 3 to 8) (size 9 to 14) (size 15 to 20)
#    0.857    0.000    2.857    1.714    8.000    2.286 
#    7.714    0.000    0.000    0.000    0.000    0.000 
#    0.000    0.000    0.000    0.000    0.000    0.000 
#
# Total GULP energy -78046.392864 kJ/mol
# GULP energy per Si atom -5574.742347 kJ/mol
# Density = 2.528597 g / cm^3
# Si number density = 25.343653 Si / 1000 Ang^3
#
#
#
# Elastic Constant Matrix: (Units=GPa)
#
#
# Indices 1 2 3 4 5 6 
#
# 1 92.2651 3.6301 40.0891 0.0000 18.1791 0.0000
# 2 3.6301 74.1692 11.3482 0.0000 11.3441 0.0000
# 3 40.0891 11.3482 96.0782 0.0000 -7.2416 0.0000
# 4 0.0000 0.0000 0.0000 43.0854 0.0000 7.7257
# 5 18.1791 11.3441 -7.2416 0.0000 29.7874 0.0000
# 6 0.0000 0.0000 0.0000 7.7257 0.0000 31.7873
#
#
#
# Elastic Compliance Matrix: (Units=1/GPa)
#
#
# Indices 1 2 3 4 5 6 
#
# 1 0.017034 0.002502 -0.008413 0.000000 -0.013394 0.000000
# 2 0.002502 0.015130 -0.003444 0.000000 -0.008126 0.000000
# 3 -0.008413 -0.003444 0.015087 0.000000 0.010113 0.000000
# 4 0.000000 0.000000 0.000000 0.024267 0.000000 -0.005898
# 5 -0.013394 -0.008126 0.010113 0.000000 0.047299 0.000000
# 6 0.000000 0.000000 0.000000 -0.005898 0.000000 0.032893
#
#
# Mechanical properties :
#
#
# Convention : Reuss Voigt Hill
#
# Bulk Modulus (GPa) = 35.03450 41.40527 38.21988
# Shear Modulus (GPa) = 27.78811 34.76169 31.27490
#
# Velocity S-wave (km/s) = 3.31486 3.70755 3.51669
# Velocity P-wave (km/s) = 5.33900 5.89074 5.62164
#
# Compressibility (1/GPa) = 0.02854329
#
# Stress axis : x y z
#
# Youngs Moduli (GPa) = 58.70547 66.09390 66.28046
#
# Poissons Ratio (x) = -0.16537 0.55759
# Poissons Ratio (y) = -0.14688 0.22824
# Poissons Ratio (z) = 0.49387 0.22760
#
# Static dielectric constant tensor:
#      x y z
#    x 2.037170 0.000000 0.023980 
#    y 0.000000 2.084290 0.000000 
#    z 0.023980 0.000000 2.080600 
# 
# From -- ./inp_files/10920.got.cif
#   From: 2010.05.17/outbox.cif.g08.bks.cpg/sg4_6_cif.got.tgz:10920.got - 2010.06.03 18:43:04.
