data_PCOD9117211
_publ_section_title
;
Structure prediction by ZEFSAII (Michael W. Deem and Ramdas Pophale) SiO2 
 PCOD9117211
Probable space group: P 21
;
_chemical_formula_sum "Si O2"
_cell_formula_units_Z 16
_cell_length_a 9.040153
_cell_length_b 5.565264
_cell_length_c 14.137211
_cell_angle_alpha 90.000000
_cell_angle_beta 74.738064
_cell_angle_gamma 90.000000
_cell_volume 686.170755
_symmetry_space_group_name_H-M "P 21"
_symmetry_group_IT_number 4
_symmetry_cell_setting 'monoclinic'
loop_
_space_group_symop_operation_xyz
x,y,z
-x,1/2+y,-z
loop_
_atom_site_type_symbol
_atom_site_label
_atom_site_fract_x
_atom_site_fract_y
_atom_site_fract_z
Si Si1 0.828727 0.122650 0.582362
Si Si2 0.156634 0.229434 0.564543
Si Si3 0.072607 0.521523 0.747318
Si Si4 0.689001 0.748140 0.180335
Si Si5 0.663476 0.377151 0.335780
Si Si6 0.413662 0.400469 0.008096
Si Si7 0.776051 0.824779 0.781045
Si Si8 0.587232 0.519401 0.670890
O O1 0.719594 0.359979 0.597921
O O2 0.012931 0.119725 0.530647
O O3 0.772884 0.934522 0.512666
O O4 0.804724 0.006369 0.689871
O O5 0.051980 0.329802 0.668386
O O6 0.289007 0.078127 0.595496
O O7 0.153452 0.381137 0.818599
O O8 0.199957 0.689934 0.679182
O O9 0.925961 0.681719 0.789174
O O10 0.686400 0.481439 0.224710
O O11 0.549606 0.855510 0.266374
O O12 0.657925 0.798152 0.076800
O O13 0.494814 0.731639 0.632446
O O14 0.300183 0.441323 0.115102
O O15 0.485055 0.665642 0.978354
O O16 0.666284 0.632214 0.749453
#
# Coordination Sequence:
#
# PCOD9117211 Si02
#       8
#     2   2   2   2   2   2   2   2
#     4  12  25  41  75 112 143 198 259 313 373 465
#     4  11  24  43  73 106 150 193 251 310 387 450
#     4  10  22  44  72 103 145 191 240 306 385 445
#     4  10  23  46  71 104 148 195 239 312 384 454
#     4  10  22  45  75  99 148 197 236 312 389 449
#     4  12  26  46  75 110 152 205 258 319 389 460
#     4  12  24  44  75 109 145 193 258 311 366 467
#     4  11  22  43  76 103 145 190 249 307 375 450
#
# _framework density 23.317809
#
# number of rings (size 3 to 8) (size 9 to 14) (size 15 to 20)
#    0.000    1.000    3.750    3.000    1.750    0.000 
#    2.250    0.000   46.750    0.000    0.000    0.000 
#    0.000    0.000    0.000    0.000    0.000    0.000 
#
# Total GULP energy -89332.475807 kJ/mol
# GULP energy per Si atom -5583.279738 kJ/mol
# Density = 2.326474 g / cm^3
# Si number density = 23.317809 Si / 1000 Ang^3
#
#
#
# Elastic Constant Matrix: (Units=GPa)
#
#
# Indices 1 2 3 4 5 6 
#
# 1 68.9173 -2.3973 -5.6373 0.0000 3.9600 0.0000
# 2 -2.3973 36.8556 8.5467 0.0000 12.9753 0.0000
# 3 -5.6373 8.5467 81.8340 0.0000 7.4684 0.0000
# 4 0.0000 0.0000 0.0000 30.0050 0.0000 2.5729
# 5 3.9600 12.9753 7.4684 0.0000 27.1097 0.0000
# 6 0.0000 0.0000 0.0000 2.5729 0.0000 45.1454
#
#
#
# Elastic Compliance Matrix: (Units=1/GPa)
#
#
# Indices 1 2 3 4 5 6 
#
# 1 0.014864 0.001898 0.001135 0.000000 -0.003392 0.000000
# 2 0.001898 0.033207 -0.001910 0.000000 -0.015645 0.000000
# 3 0.001135 -0.001910 0.012750 0.000000 -0.002764 0.000000
# 4 0.000000 0.000000 0.000000 0.033491 0.000000 -0.001909
# 5 -0.003392 -0.015645 -0.002764 0.000000 0.045632 0.000000
# 6 0.000000 0.000000 0.000000 -0.001909 0.000000 0.022259
#
#
# Mechanical properties :
#
#
# Convention : Reuss Voigt Hill
#
# Bulk Modulus (GPa) = 15.85593 20.95902 18.40747
# Shear Modulus (GPa) = 27.62745 32.92499 30.27622
#
# Velocity S-wave (km/s) = 3.44586 3.76175 3.60726
# Velocity P-wave (km/s) = 4.75884 5.27974 5.02604
#
# Compressibility (1/GPa) = 0.06306790
#
# Stress axis : x y z
#
# Youngs Moduli (GPa) = 67.27685 30.11409 78.43270
#
# Poissons Ratio (x) = -0.05715 -0.08905
# Poissons Ratio (y) = -0.12768 0.14978
# Poissons Ratio (z) = -0.07638 0.05751
#
# Static dielectric constant tensor:
#      x y z
#    x 1.900610 0.000000 0.017910 
#    y 0.000000 2.006590 0.000000 
#    z 0.017910 0.000000 1.842170 
# 
# From -- ./inp_files/13512.got.cif
#   From: 2010.05.17/outbox.cif.g08.bks.cpg/sg4_7_cif.got.tgz:13512.got - 2010.06.03 18:43:04.
