data_PCOD9117276
_publ_section_title
;
Structure prediction by ZEFSAII (Michael W. Deem and Ramdas Pophale) SiO2 
 PCOD9117276
Probable space group: P 21
;
_chemical_formula_sum "Si O2"
_cell_formula_units_Z 16
_cell_length_a 6.334326
_cell_length_b 13.957477
_cell_length_c 8.712682
_cell_angle_alpha 90.000000
_cell_angle_beta 126.903309
_cell_angle_gamma 90.000000
_cell_volume 615.969383
_symmetry_space_group_name_H-M "P 21"
_symmetry_group_IT_number 4
_symmetry_cell_setting 'monoclinic'
loop_
_space_group_symop_operation_xyz
x,y,z
-x,1/2+y,-z
loop_
_atom_site_type_symbol
_atom_site_label
_atom_site_fract_x
_atom_site_fract_y
_atom_site_fract_z
Si Si1 0.239722 0.532200 0.970358
Si Si2 0.241478 0.431052 0.258607
Si Si3 0.188592 0.980326 0.468409
Si Si4 0.957804 0.199554 0.896634
Si Si5 0.694598 0.364805 0.954386
Si Si6 0.551730 0.195763 0.130055
Si Si7 0.205845 0.344967 0.566206
Si Si8 0.988770 0.657399 0.429899
O O1 0.446839 0.594707 0.962747
O O2 0.990633 0.506356 0.755756
O O3 0.319660 0.441296 0.110200
O O4 0.152991 0.612373 0.054572
O O5 0.502094 0.487130 0.433609
O O6 0.235540 0.353824 0.396452
O O7 0.921313 0.439450 0.102267
O O8 0.074862 0.881140 0.488138
O O9 0.115448 0.054336 0.570426
O O10 0.820706 0.299420 0.875110
O O11 0.935701 0.171223 0.711176
O O12 0.264176 0.212829 0.070513
O O13 0.424895 0.402616 0.761188
O O14 0.633996 0.285848 0.059466
O O15 0.768319 0.180755 0.353920
O O16 0.233807 0.235140 0.626370
#
# Coordination Sequence:
#
# PCOD9117276 Si02
#       8
#     2   2   2   2   2   2   2   2
#     4  10  25  45  69 106 144 188 242 302 365 440
#     4  12  26  44  72 106 145 191 237 309 355 444
#     4  11  28  49  72 110 147 194 243 307 368 439
#     4  11  24  43  74 103 140 194 235 302 368 426
#     4  11  26  43  70 107 147 185 248 295 363 436
#     4  10  22  45  69 105 142 190 238 302 361 435
#     4  12  27  46  73 109 150 196 244 305 367 436
#     4  11  24  47  77 104 147 192 247 298 365 438
#
# _framework density 25.975315999999999
#
# number of rings (size 3 to 8) (size 9 to 14) (size 15 to 20)
#    0.000    1.000    2.500    2.250    7.000    6.000 
#    0.000    0.000    0.000    0.000    0.000    0.000 
#    0.000    0.000    0.000    0.000    0.000    0.000 
#
# Total GULP energy -89439.020578 kJ/mol
# GULP energy per Si atom -5589.938786 kJ/mol
# Density = 2.591620 g / cm^3
# Si number density = 25.975316 Si / 1000 Ang^3
#
#
#
# Elastic Constant Matrix: (Units=GPa)
#
#
# Indices 1 2 3 4 5 6 
#
# 1 75.8650 31.0416 33.4350 0.0000 5.9864 0.0000
# 2 31.0416 82.5366 16.3525 0.0000 -9.8723 0.0000
# 3 33.4350 16.3525 131.6742 0.0000 4.3396 0.0000
# 4 0.0000 0.0000 0.0000 33.6888 0.0000 -2.4688
# 5 5.9864 -9.8723 4.3396 0.0000 54.5718 0.0000
# 6 0.0000 0.0000 0.0000 -2.4688 0.0000 55.6030
#
#
#
# Elastic Compliance Matrix: (Units=1/GPa)
#
#
# Indices 1 2 3 4 5 6 
#
# 1 0.017520 -0.006209 -0.003587 0.000000 -0.002760 0.000000
# 2 -0.006209 0.014937 -0.000391 0.000000 0.003414 0.000000
# 3 -0.003587 -0.000391 0.008566 0.000000 -0.000358 0.000000
# 4 0.000000 0.000000 0.000000 0.029780 0.000000 0.001322
# 5 -0.002760 0.003414 -0.000358 0.000000 0.019273 0.000000
# 6 0.000000 0.000000 0.000000 0.001322 0.000000 0.018043
#
#
# Mechanical properties :
#
#
# Convention : Reuss Voigt Hill
#
# Bulk Modulus (GPa) = 48.42693 50.19266 49.30979
# Shear Modulus (GPa) = 36.93414 42.72249 39.82831
#
# Velocity S-wave (km/s) = 3.77489 4.05993 3.92000
# Velocity P-wave (km/s) = 6.13870 6.42982 6.28595
#
# Compressibility (1/GPa) = 0.02064967
#
# Stress axis : x y z
#
# Youngs Moduli (GPa) = 57.07667 66.94877 116.74571
#
# Poissons Ratio (x) = 0.41567 0.41874
# Poissons Ratio (y) = 0.35438 0.04564
# Poissons Ratio (z) = 0.20472 0.02617
#
# Static dielectric constant tensor:
#      x y z
#    x 2.052130 0.000000 0.006390 
#    y 0.000000 2.086750 0.000000 
#    z 0.006390 0.000000 2.019960 
# 
# From -- ./inp_files/1911.got.cif
#   From: 2010.05.17/outbox.cif.g08.bks.cpg/sg4_1_cif.got.tgz:1911.got - 2010.06.03 18:43:04.
