data_PCOD9117911
_publ_section_title
;
Structure prediction by ZEFSAII (Michael W. Deem and Ramdas Pophale) SiO2 
 PCOD9117911
Probable space group: P 21
;
_chemical_formula_sum "Si O2"
_cell_formula_units_Z 12
_cell_length_a 8.816099
_cell_length_b 8.115934
_cell_length_c 7.411955
_cell_angle_alpha 90.000000
_cell_angle_beta 53.255880
_cell_angle_gamma 90.000000
_cell_volume 424.963007
_symmetry_space_group_name_H-M "P 21"
_symmetry_group_IT_number 4
_symmetry_cell_setting 'monoclinic'
loop_
_space_group_symop_operation_xyz
x,y,z
-x,1/2+y,-z
loop_
_atom_site_type_symbol
_atom_site_label
_atom_site_fract_x
_atom_site_fract_y
_atom_site_fract_z
Si Si1 0.179751 0.724670 0.169446
Si Si2 0.818208 0.858695 0.827989
Si Si3 0.289866 0.065417 0.702907
Si Si4 0.474156 0.315474 0.284236
Si Si5 0.099673 0.457462 0.843379
Si Si6 0.223795 0.739539 0.521838
O O1 0.112005 0.542948 0.266060
O O2 0.287586 0.774363 0.274157
O O3 0.016069 0.841975 0.213312
O O4 0.338295 0.713234 0.903006
O O5 0.657920 0.819287 0.798542
O O6 0.995578 0.744522 0.666139
O O7 0.793942 0.867642 0.063441
O O8 0.434235 0.000606 0.755200
O O9 0.291214 0.897317 0.583631
O O10 0.365519 0.214936 0.522442
O O11 0.074982 0.058235 0.936933
O O12 0.236129 0.572531 0.629054
#
# Coordination Sequence:
#
# PCOD9117911 Si02
#       6
#     2   2   2   2   2   2
#     4  11  26  47  71 112 153 192 252 308 382 443
#     4  11  25  44  75 109 141 203 247 306 373 438
#     4  10  26  49  72 114 153 200 252 308 382 445
#     4  11  27  48  76 111 154 206 244 317 373 457
#     4  10  23  50  77 107 150 196 253 315 365 448
#     4  11  25  48  77 109 147 195 254 310 375 445
#
# _framework density 28.237749999999998
#
# number of rings (size 3 to 8) (size 9 to 14) (size 15 to 20)
#    0.000    1.333    0.000    4.000   11.667    2.667 
#    9.000    0.000    0.000    0.000    0.000    0.000 
#    0.000    0.000    0.000    0.000    0.000    0.000 
#
# Total GULP energy -67131.569474 kJ/mol
# GULP energy per Si atom -5594.297456 kJ/mol
# Density = 2.817348 g / cm^3
# Si number density = 28.237750 Si / 1000 Ang^3
#
#
#
# Elastic Constant Matrix: (Units=GPa)
#
#
# Indices 1 2 3 4 5 6 
#
# 1 149.6976 6.9909 27.4543 0.0000 12.0581 0.0000
# 2 6.9909 86.9066 0.2140 0.0000 13.6211 0.0000
# 3 27.4543 0.2140 153.9410 0.0000 5.5928 0.0000
# 4 0.0000 0.0000 0.0000 39.5459 0.0000 8.9819
# 5 12.0581 13.6211 5.5928 0.0000 57.7716 0.0000
# 6 0.0000 0.0000 0.0000 8.9819 0.0000 46.1034
#
#
#
# Elastic Compliance Matrix: (Units=1/GPa)
#
#
# Indices 1 2 3 4 5 6 
#
# 1 0.007020 -0.000364 -0.001206 0.000000 -0.001263 0.000000
# 2 -0.000364 0.011968 0.000149 0.000000 -0.002760 0.000000
# 3 -0.001206 0.000149 0.006727 0.000000 -0.000435 0.000000
# 4 0.000000 0.000000 0.000000 0.026458 0.000000 -0.005155
# 5 -0.001263 -0.002760 -0.000435 0.000000 0.018266 0.000000
# 6 0.000000 0.000000 0.000000 -0.005155 0.000000 0.022695
#
#
# Mechanical properties :
#
#
# Convention : Reuss Voigt Hill
#
# Bulk Modulus (GPa) = 43.71982 51.09595 47.40788
# Shear Modulus (GPa) = 48.26300 52.40992 50.33646
#
# Velocity S-wave (km/s) = 4.13869 4.31283 4.22666
# Velocity P-wave (km/s) = 6.19312 6.55247 6.37533
#
# Compressibility (1/GPa) = 0.02287292
#
# Stress axis : x y z
#
# Youngs Moduli (GPa) = 142.45149 83.55525 148.66390
#
# Poissons Ratio (x) = 0.03040 0.17923
# Poissons Ratio (y) = 0.05183 -0.02208
# Poissons Ratio (z) = 0.17174 -0.01241
#
# Static dielectric constant tensor:
#      x y z
#    x 2.351480 0.000000 0.084990 
#    y 0.000000 2.354750 0.000000 
#    z 0.084990 0.000000 2.209240 
# 
# From -- ./inp_files/5760.got.cif
#   From: 2010.05.17/outbox.cif.g08.bks.cpg/sg4_3_cif.got.tgz:5760.got - 2010.06.03 18:43:04.
