data_PCOD9117908
_publ_section_title
;
Structure prediction by ZEFSAII (Michael W. Deem and Ramdas Pophale) SiO2 
 PCOD9117908
Probable space group: P 21
;
_chemical_formula_sum "Si O2"
_cell_formula_units_Z 16
_cell_length_a 20.301958
_cell_length_b 4.996910
_cell_length_c 10.149781
_cell_angle_alpha 90.000000
_cell_angle_beta 146.757861
_cell_angle_gamma 90.000000
_cell_volume 564.440426
_symmetry_space_group_name_H-M "P 21"
_symmetry_group_IT_number 4
_symmetry_cell_setting 'monoclinic'
loop_
_space_group_symop_operation_xyz
x,y,z
-x,1/2+y,-z
loop_
_atom_site_type_symbol
_atom_site_label
_atom_site_fract_x
_atom_site_fract_y
_atom_site_fract_z
Si Si1 0.880199 0.117950 0.933744
Si Si2 0.178491 0.637335 0.715006
Si Si3 0.517855 0.772943 0.574800
Si Si4 0.482291 0.556717 0.800019
Si Si5 0.713873 0.292183 0.881581
Si Si6 0.866211 0.882410 0.633527
Si Si7 0.092378 0.243972 0.797728
Si Si8 0.354423 0.050596 0.674122
O O1 0.761698 0.219633 0.808858
O O2 0.001300 0.274229 0.176525
O O3 0.894402 0.830994 0.029679
O O4 0.878949 0.084976 0.776014
O O5 0.296883 0.779681 0.966729
O O6 0.193201 0.491289 0.600262
O O7 0.162280 0.452940 0.819858
O O8 0.046876 0.763153 0.472210
O O9 0.404262 0.548715 0.329701
O O10 0.520151 0.702010 0.730121
O O11 0.400741 0.010048 0.346802
O O12 0.427730 0.257889 0.702029
O O13 0.375285 0.745165 0.674003
O O14 0.583621 0.580897 0.079816
O O15 0.837931 0.474405 0.111486
O O16 0.780988 0.647037 0.543331
#
# Coordination Sequence:
#
# PCOD9117908 Si02
#       8
#     2   2   2   2   2   2   2   2
#     4  11  26  42  66 101 144 185 235 281 357 431
#     4  11  22  41  65 101 135 178 232 281 346 420
#     4  12  29  47  75 108 139 182 247 307 350 425
#     4  10  23  50  71 103 141 189 240 288 373 422
#     4  11  26  45  73  94 143 193 220 291 369 427
#     4  12  25  42  68 108 140 180 239 298 338 421
#     4  11  21  43  65  94 137 188 230 270 355 431
#     4  10  24  44  77 101 141 191 233 300 354 425
#
# _framework density 28.34666
#
# number of rings (size 3 to 8) (size 9 to 14) (size 15 to 20)
#    0.000    1.000    2.500    3.000    7.000    2.000 
#    0.000    0.000    0.000    0.000    0.000    0.000 
#    0.000    0.000    0.000    0.000    0.000    0.000 
#
# Total GULP energy -89483.304446 kJ/mol
# GULP energy per Si atom -5592.706528 kJ/mol
# Density = 2.828214 g / cm^3
# Si number density = 28.346660 Si / 1000 Ang^3
#
#
#
# Elastic Constant Matrix: (Units=GPa)
#
#
# Indices 1 2 3 4 5 6 
#
# 1 141.2377 25.4050 34.6029 0.0000 0.7083 0.0000
# 2 25.4050 145.9830 29.6310 0.0000 -7.0154 0.0000
# 3 34.6029 29.6310 133.2350 0.0000 5.4242 0.0000
# 4 0.0000 0.0000 0.0000 47.3283 0.0000 0.1604
# 5 0.7083 -7.0154 5.4242 0.0000 73.4769 0.0000
# 6 0.0000 0.0000 0.0000 0.1604 0.0000 30.3319
#
#
#
# Elastic Compliance Matrix: (Units=1/GPa)
#
#
# Indices 1 2 3 4 5 6 
#
# 1 0.007692 -0.000979 -0.001779 0.000000 -0.000036 0.000000
# 2 -0.000979 0.007346 -0.001413 0.000000 0.000815 0.000000
# 3 -0.001779 -0.001413 0.008311 0.000000 -0.000731 0.000000
# 4 0.000000 0.000000 0.000000 0.021129 0.000000 -0.000112
# 5 -0.000036 0.000815 -0.000731 0.000000 0.013742 0.000000
# 6 0.000000 0.000000 0.000000 -0.000112 0.000000 0.032969
#
#
# Mechanical properties :
#
#
# Convention : Reuss Voigt Hill
#
# Bulk Modulus (GPa) = 66.62654 66.63706 66.63180
# Shear Modulus (GPa) = 47.83095 52.28187 50.05641
#
# Velocity S-wave (km/s) = 4.11220 4.29928 4.20678
# Velocity P-wave (km/s) = 6.78986 6.94291 6.86681
#
# Compressibility (1/GPa) = 0.01500903
#
# Stress axis : x y z
#
# Youngs Moduli (GPa) = 129.99929 136.11988 120.31701
#
# Poissons Ratio (x) = 0.13332 0.21398
# Poissons Ratio (y) = 0.12733 0.16997
# Poissons Ratio (z) = 0.23120 0.19229
#
# Static dielectric constant tensor:
#      x y z
#    x 2.257800 0.000000 0.228430 
#    y 0.000000 2.545060 0.000000 
#    z 0.228430 0.000000 2.661540 
# 
# From -- ./inp_files/9471.got.cif
#   From: 2010.05.17/outbox.cif.g08.bks.cpg/sg4_5_cif.got.tgz:9471.got - 2010.06.03 18:43:04.
