data_PCOD9117810
_publ_section_title
;
Structure prediction by ZEFSAII (Michael W. Deem and Ramdas Pophale) SiO2 
 PCOD9117810
Probable space group: P 21
;
_chemical_formula_sum "Si O2"
_cell_formula_units_Z 14
_cell_length_a 15.043651
_cell_length_b 7.440129
_cell_length_c 14.263930
_cell_angle_alpha 90.000000
_cell_angle_beta 160.306228
_cell_angle_gamma 90.000000
_cell_volume 538.014140
_symmetry_space_group_name_H-M "P 21"
_symmetry_group_IT_number 4
_symmetry_cell_setting 'monoclinic'
loop_
_space_group_symop_operation_xyz
x,y,z
-x,1/2+y,-z
loop_
_atom_site_type_symbol
_atom_site_label
_atom_site_fract_x
_atom_site_fract_y
_atom_site_fract_z
Si Si1 0.952632 0.981370 0.737368
Si Si2 0.507815 0.669165 0.920992
Si Si3 0.562975 0.329220 0.873489
Si Si4 0.787520 0.018300 0.214908
Si Si5 0.664848 0.500126 0.581065
Si Si6 0.154154 0.614843 0.167024
Si Si7 0.824398 0.367581 0.544925
O O1 0.725461 0.885967 0.449434
O O2 0.857881 0.998455 0.749902
O O3 0.992355 0.191481 0.745031
O O4 0.221262 0.869907 0.992420
O O5 0.638157 0.479855 0.026857
O O6 0.247951 0.629632 0.724804
O O7 0.428456 0.764484 0.745888
O O8 0.686282 0.820613 0.143838
O O9 0.606643 0.136299 0.963663
O O10 0.044627 0.978053 0.409469
O O11 0.360328 0.539204 0.296384
O O12 0.734032 0.305129 0.690327
O O13 0.749699 0.491696 0.557511
O O14 0.862066 0.626198 0.834959
#
# Coordination Sequence:
#
# PCOD9117810 Si02
#       7
#     2   2   2   2   2   2   2
#     4  10  23  46  69 102 145 190 234 298 360 422
#     4  11  25  46  67 104 146 185 245 302 359 428
#     4  11  24  43  72 101 145 190 238 296 360 426
#     4  12  25  44  72 102 140 192 245 297 365 433
#     4  11  25  45  72 106 147 190 238 296 358 423
#     4  11  24  44  72 105 146 190 237 297 351 429
#     4  10  26  44  72  98 147 189 237 302 361 423
#
# _framework density 26.021619999999999
#
# number of rings (size 3 to 8) (size 9 to 14) (size 15 to 20)
#    0.000    1.143    2.857    1.714    4.000    9.143 
#    0.000    0.000    0.000    0.000    0.000    0.000 
#    0.000    0.000    0.000    0.000    0.000    0.000 
#
# Total GULP energy -78387.319077 kJ/mol
# GULP energy per Si atom -5599.094220 kJ/mol
# Density = 2.596239 g / cm^3
# Si number density = 26.021620 Si / 1000 Ang^3
#
#
#
# Elastic Constant Matrix: (Units=GPa)
#
#
# Indices 1 2 3 4 5 6 
#
# 1 71.4496 34.6900 21.9087 0.0000 34.9065 0.0000
# 2 34.6900 126.9534 7.2521 0.0000 10.8921 0.0000
# 3 21.9087 7.2521 72.0782 0.0000 20.9769 0.0000
# 4 0.0000 0.0000 0.0000 33.1156 0.0000 -3.9351
# 5 34.9065 10.8921 20.9769 0.0000 37.4464 0.0000
# 6 0.0000 0.0000 0.0000 -3.9351 0.0000 37.0018
#
#
#
# Elastic Compliance Matrix: (Units=1/GPa)
#
#
# Indices 1 2 3 4 5 6 
#
# 1 0.029436 -0.005825 -0.001038 0.000000 -0.025164 0.000000
# 2 -0.005825 0.009233 0.000051 0.000000 0.002716 0.000000
# 3 -0.001038 0.000051 0.016616 0.000000 -0.008355 0.000000
# 4 0.000000 0.000000 0.000000 0.030584 0.000000 0.003253
# 5 -0.025164 0.002716 -0.008355 0.000000 0.054052 0.000000
# 6 0.000000 0.000000 0.000000 0.003253 0.000000 0.027372
#
#
# Mechanical properties :
#
#
# Convention : Reuss Voigt Hill
#
# Bulk Modulus (GPa) = 24.00325 44.24251 34.12288
# Shear Modulus (GPa) = 25.66704 35.28811 30.47757
#
# Velocity S-wave (km/s) = 3.14407 3.68653 3.42605
# Velocity P-wave (km/s) = 4.73546 5.92957 5.36584
#
# Compressibility (1/GPa) = 0.04166103
#
# Stress axis : x y z
#
# Youngs Moduli (GPa) = 33.97212 108.31071 60.18371
#
# Poissons Ratio (x) = 0.63093 0.06246
# Poissons Ratio (y) = 0.19789 -0.00309
# Poissons Ratio (z) = 0.03526 -0.00555
#
# Static dielectric constant tensor:
#      x y z
#    x 2.041830 0.000000 -0.012470 
#    y 0.000000 2.059210 0.000000 
#    z -0.012470 0.000000 2.025800 
# 
# From -- ./inp_files/14194.got.cif
#   From: 2010.05.17/outbox.cif.g08.bks.cpg/sg4_8_cif.got.tgz:14194.got - 2010.06.03 18:43:04.
