data_PCOD9117960
_publ_section_title
;
Structure prediction by ZEFSAII (Michael W. Deem and Ramdas Pophale) SiO2 
 PCOD9117960
Probable space group: P 21
;
_chemical_formula_sum "Si O2"
_cell_formula_units_Z 14
_cell_length_a 11.249259
_cell_length_b 11.011824
_cell_length_c 8.006260
_cell_angle_alpha 90.000000
_cell_angle_beta 40.391149
_cell_angle_gamma 90.000000
_cell_volume 642.672004
_symmetry_space_group_name_H-M "P 21"
_symmetry_group_IT_number 4
_symmetry_cell_setting 'monoclinic'
loop_
_space_group_symop_operation_xyz
x,y,z
-x,1/2+y,-z
loop_
_atom_site_type_symbol
_atom_site_label
_atom_site_fract_x
_atom_site_fract_y
_atom_site_fract_z
Si Si1 0.798940 0.063930 0.053520
Si Si2 0.118821 0.375845 0.328767
Si Si3 0.621062 0.698868 0.135823
Si Si4 0.453387 0.470359 0.133740
Si Si5 0.217521 0.827271 0.092393
Si Si6 0.439723 0.948681 0.364658
Si Si7 0.868552 0.533517 0.083879
O O1 0.797367 0.194941 0.969721
O O2 0.873537 0.966002 0.837745
O O3 0.927858 0.063344 0.076097
O O4 0.591898 0.020994 0.309471
O O5 0.918144 0.340969 0.604658
O O6 0.240628 0.259543 0.146826
O O7 0.239202 0.440320 0.345442
O O8 0.487481 0.806992 0.335206
O O9 0.755218 0.647518 0.134190
O O10 0.506464 0.590708 0.176156
O O11 0.575034 0.361986 0.080790
O O12 0.522316 0.482436 0.868093
O O13 0.149577 0.928525 0.034184
O O14 0.242004 0.984862 0.637756
#
# Coordination Sequence:
#
# PCOD9117960 Si02
#       7
#     2   2   2   2   2   2   2
#     4  10  25  42  63  96 126 165 209 254 317 371
#     4  10  24  42  67  93 123 163 213 264 305 368
#     4   9  22  43  65  91 126 164 208 261 309 374
#     4   9  21  43  65  93 119 165 211 255 315 358
#     4  11  25  40  67  96 122 165 214 252 318 372
#     4  10  24  42  66  92 128 162 210 258 317 367
#     4  11  25  42  63  95 128 168 203 256 321 376
#
# _framework density 21.784051000000002
#
# number of rings (size 3 to 8) (size 9 to 14) (size 15 to 20)
#    0.000    2.286    0.000    0.857   20.000    2.286 
#    0.000    0.000    0.000    0.000    0.000    0.000 
#    0.000    0.000    0.000    0.000    0.000    0.000 
#
# Total GULP energy -78280.222017 kJ/mol
# GULP energy per Si atom -5591.444430 kJ/mol
# Density = 2.173447 g / cm^3
# Si number density = 21.784051 Si / 1000 Ang^3
#
#
#
# Elastic Constant Matrix: (Units=GPa)
#
#
# Indices 1 2 3 4 5 6 
#
# 1 117.2286 16.5755 -10.7363 0.0000 -16.7478 0.0000
# 2 16.5755 70.5467 -2.3274 0.0000 -5.6615 0.0000
# 3 -10.7363 -2.3274 35.0867 0.0000 -4.7899 0.0000
# 4 0.0000 0.0000 0.0000 7.4403 0.0000 5.5692
# 5 -16.7478 -5.6615 -4.7899 0.0000 23.6831 0.0000
# 6 0.0000 0.0000 0.0000 5.5692 0.0000 14.7772
#
#
#
# Elastic Compliance Matrix: (Units=1/GPa)
#
#
# Indices 1 2 3 4 5 6 
#
# 1 0.010231 -0.001655 0.004067 0.000000 0.007662 0.000000
# 2 -0.001655 0.014794 0.000821 0.000000 0.002532 0.000000
# 3 0.004067 0.000821 0.031077 0.000000 0.009358 0.000000
# 4 0.000000 0.000000 0.000000 0.187216 0.000000 -0.070557
# 5 0.007662 0.002532 0.009358 0.000000 0.050141 0.000000
# 6 0.000000 0.000000 0.000000 -0.070557 0.000000 0.094263
#
#
# Mechanical properties :
#
#
# Convention : Reuss Voigt Hill
#
# Bulk Modulus (GPa) = 15.98250 25.54286 20.76268
# Shear Modulus (GPa) = 12.43432 23.80347 18.11890
#
# Velocity S-wave (km/s) = 2.39173 3.30919 2.88714
# Velocity P-wave (km/s) = 3.87039 5.13341 4.54598
#
# Compressibility (1/GPa) = 0.06256842
#
# Stress axis : x y z
#
# Youngs Moduli (GPa) = 97.73749 67.59442 32.17791
#
# Poissons Ratio (x) = 0.11186 -0.13087
# Poissons Ratio (y) = 0.16174 -0.02641
# Poissons Ratio (z) = -0.39750 -0.05547
#
# Static dielectric constant tensor:
#      x y z
#    x 1.801200 0.000000 0.018930 
#    y 0.000000 1.772510 0.000000 
#    z 0.018930 0.000000 1.774080 
# 
# From -- ./inp_files/8413.got.cif
#   From: 2010.05.17/outbox.cif.g08.bks.cpg/sg4_5_cif.got.tgz:8413.got - 2010.06.03 18:43:04.
