data_PCOD9117189
_publ_section_title
;
Structure prediction by ZEFSAII (Michael W. Deem and Ramdas Pophale) SiO2 
 PCOD9117189
Probable space group: P 21
;
_chemical_formula_sum "Si O2"
_cell_formula_units_Z 16
_cell_length_a 5.050215
_cell_length_b 23.181266
_cell_length_c 5.333471
_cell_angle_alpha 90.000000
_cell_angle_beta 84.515688
_cell_angle_gamma 90.000000
_cell_volume 621.533250
_symmetry_space_group_name_H-M "P 21"
_symmetry_group_IT_number 4
_symmetry_cell_setting 'monoclinic'
loop_
_space_group_symop_operation_xyz
x,y,z
-x,1/2+y,-z
loop_
_atom_site_type_symbol
_atom_site_label
_atom_site_fract_x
_atom_site_fract_y
_atom_site_fract_z
Si Si1 0.603118 0.819000 0.329781
Si Si2 0.119155 0.967051 0.165335
Si Si3 0.388125 0.766950 0.825244
Si Si4 0.244067 0.077369 0.383916
Si Si5 0.987783 0.359713 0.061004
Si Si6 0.214762 0.540554 0.193012
Si Si7 0.676662 0.928942 0.589036
Si Si8 0.257882 0.634142 0.813915
O O1 0.584751 0.778012 0.573392
O O2 0.514389 0.884210 0.428182
O O3 0.475018 0.789999 0.092966
O O4 0.898828 0.831248 0.201228
O O5 0.948015 0.943337 0.412229
O O6 0.204568 0.912964 0.990222
O O7 0.312772 0.016787 0.239521
O O8 0.907596 0.002417 0.019396
O O9 0.298577 0.701415 0.845906
O O10 0.147788 0.809480 0.775173
O O11 0.519828 0.110334 0.401707
O O12 0.042786 0.060014 0.623241
O O13 0.042764 0.117319 0.236261
O O14 0.226780 0.389577 0.188693
O O15 0.401876 0.493662 0.317529
O O16 0.328532 0.597857 0.056841
#
# Coordination Sequence:
#
# PCOD9117189 Si02
#       8
#     2   2   2   2   2   2   2   2
#     4  11  25  45  67 104 141 188 244 302 371 444
#     4   8  18  39  68 103 140 176 239 300 380 437
#     4  12  29  43  70 105 143 202 248 302 370 449
#     4  10  23  45  68 103 139 187 246 306 369 440
#     4  10  22  44  70 101 145 186 237 307 372 442
#     4   9  20  43  72 104 143 190 240 313 379 440
#     4   9  18  42  74 104 146 184 239 314 375 451
#     4  11  27  45  71 102 143 197 255 304 368 443
#
# _framework density 25.742792000000001
#
# number of rings (size 3 to 8) (size 9 to 14) (size 15 to 20)
#    0.000    2.000    1.250    0.000    7.000    4.000 
#    6.750    0.000    0.000    0.000    0.000    0.000 
#    0.000    0.000    0.000    0.000    0.000    0.000 
#
# Total GULP energy -89418.634558 kJ/mol
# GULP energy per Si atom -5588.664660 kJ/mol
# Density = 2.568420 g / cm^3
# Si number density = 25.742792 Si / 1000 Ang^3
#
#
#
# Elastic Constant Matrix: (Units=GPa)
#
#
# Indices 1 2 3 4 5 6 
#
# 1 85.5592 32.0697 25.6438 0.0000 5.8975 0.0000
# 2 32.0697 170.0542 37.8386 0.0000 -14.0737 0.0000
# 3 25.6438 37.8386 106.4326 0.0000 2.5063 0.0000
# 4 0.0000 0.0000 0.0000 31.0228 0.0000 -6.9724
# 5 5.8975 -14.0737 2.5063 0.0000 38.0759 0.0000
# 6 0.0000 0.0000 0.0000 -6.9724 0.0000 30.8431
#
#
#
# Elastic Compliance Matrix: (Units=1/GPa)
#
#
# Indices 1 2 3 4 5 6 
#
# 1 0.013426 -0.002230 -0.002377 0.000000 -0.002747 0.000000
# 2 -0.002230 0.007006 -0.002026 0.000000 0.003068 0.000000
# 3 -0.002377 -0.002026 0.010714 0.000000 -0.001086 0.000000
# 4 0.000000 0.000000 0.000000 0.033960 0.000000 0.007677
# 5 -0.002747 0.003068 -0.001086 0.000000 0.027894 0.000000
# 6 0.000000 0.000000 0.000000 0.007677 0.000000 0.034158
#
#
# Mechanical properties :
#
#
# Convention : Reuss Voigt Hill
#
# Bulk Modulus (GPa) = 55.93028 61.46113 58.69570
# Shear Modulus (GPa) = 34.15698 37.75463 35.95580
#
# Velocity S-wave (km/s) = 3.64656 3.83379 3.74134
# Velocity P-wave (km/s) = 6.28519 6.59728 6.44313
#
# Compressibility (1/GPa) = 0.01787940
#
# Stress axis : x y z
#
# Youngs Moduli (GPa) = 74.48426 142.74067 93.33540
#
# Poissons Ratio (x) = 0.31836 0.22187
# Poissons Ratio (y) = 0.16612 0.18905
# Poissons Ratio (z) = 0.17706 0.28913
#
# Static dielectric constant tensor:
#      x y z
#    x 2.080090 0.000000 0.001790 
#    y 0.000000 1.978130 0.000000 
#    z 0.001790 0.000000 2.140860 
# 
# From -- ./inp_files/612.got.cif
#   From: 2010.05.17/outbox.cif.g08.bks.cpg/sg4_1_cif.got.tgz:612.got - 2010.06.03 18:43:04.
