data_PCOD9117133
_publ_section_title
;
Structure prediction by ZEFSAII (Michael W. Deem and Ramdas Pophale) SiO2 
 PCOD9117133
Probable space group: P 21
;
_chemical_formula_sum "Si O2"
_cell_formula_units_Z 16
_cell_length_a 11.555918
_cell_length_b 8.166428
_cell_length_c 14.020582
_cell_angle_alpha 90.000000
_cell_angle_beta 31.432981
_cell_angle_gamma 90.000000
_cell_volume 690.013631
_symmetry_space_group_name_H-M "P 21"
_symmetry_group_IT_number 4
_symmetry_cell_setting 'monoclinic'
loop_
_space_group_symop_operation_xyz
x,y,z
-x,1/2+y,-z
loop_
_atom_site_type_symbol
_atom_site_label
_atom_site_fract_x
_atom_site_fract_y
_atom_site_fract_z
Si Si1 0.252808 0.989180 0.500905
Si Si2 0.966984 0.808383 0.380680
Si Si3 0.103944 0.714465 0.728537
Si Si4 0.619738 0.391351 0.787498
Si Si5 0.668575 0.200203 0.249796
Si Si6 0.364574 0.074846 0.953215
Si Si7 0.327025 0.713891 0.980412
Si Si8 0.547169 0.024432 0.623452
O O1 0.096571 0.894229 0.685753
O O2 0.334372 0.873785 0.357851
O O3 0.466224 0.071439 0.401522
O O4 0.141159 0.134351 0.516263
O O5 0.148164 0.887897 0.321345
O O6 0.763024 0.930555 0.513234
O O7 0.094588 0.746643 0.196027
O O8 0.122763 0.681453 0.828114
O O9 0.343869 0.654489 0.522535
O O10 0.892194 0.611159 0.843035
O O11 0.499838 0.223502 0.903126
O O12 0.467477 0.552760 0.909421
O O13 0.712945 0.202509 0.105249
O O14 0.582193 0.380465 0.338450
O O15 0.442722 0.890314 0.921460
O O16 0.398629 0.084588 0.815066
#
# Coordination Sequence:
#
# PCOD9117133 Si02
#       8
#     2   2   2   2   2   2   2   2
#     4  10  23  44  66 103 139 175 245 282 334 439
#     4  11  24  44  70  96 137 191 218 287 360 396
#     4  12  21  43  71 100 136 191 220 284 365 394
#     4  11  25  44  70  99 139 185 225 292 346 406
#     4   9  22  43  68  98 139 184 226 288 348 406
#     4  11  24  45  67 104 138 169 241 285 327 431
#     4  10  23  47  63 103 143 169 235 289 324 428
#     4  10  22  44  63  99 141 168 234 285 328 424
#
# _framework density 23.187947000000001
#
# number of rings (size 3 to 8) (size 9 to 14) (size 15 to 20)
#    0.000    1.500    2.500    2.250    3.500    0.000 
#   20.250    0.000    0.000    0.000    0.000    0.000 
#    0.000    0.000    0.000    0.000    0.000    0.000 
#
# Total GULP energy -89252.177240 kJ/mol
# GULP energy per Si atom -5578.261078 kJ/mol
# Density = 2.313517 g / cm^3
# Si number density = 23.187947 Si / 1000 Ang^3
#
#
#
# Elastic Constant Matrix: (Units=GPa)
#
#
# Indices 1 2 3 4 5 6 
#
# 1 64.7882 32.5698 4.7244 0.0000 0.8737 0.0000
# 2 32.5698 95.9046 5.4093 0.0000 4.7387 0.0000
# 3 4.7244 5.4093 77.2778 0.0000 7.4372 0.0000
# 4 0.0000 0.0000 0.0000 33.6856 0.0000 4.0130
# 5 0.8737 4.7387 7.4372 0.0000 26.3832 0.0000
# 6 0.0000 0.0000 0.0000 4.0130 0.0000 19.9238
#
#
#
# Elastic Compliance Matrix: (Units=1/GPa)
#
#
# Indices 1 2 3 4 5 6 
#
# 1 0.018664 -0.006331 -0.000769 0.000000 0.000736 0.000000
# 2 -0.006331 0.012693 -0.000311 0.000000 -0.001983 0.000000
# 3 -0.000769 -0.000311 0.013364 0.000000 -0.003686 0.000000
# 4 0.000000 0.000000 0.000000 0.030416 0.000000 -0.006126
# 5 0.000736 -0.001983 -0.003686 0.000000 0.039274 0.000000
# 6 0.000000 0.000000 0.000000 -0.006126 0.000000 0.051425
#
#
# Mechanical properties :
#
#
# Convention : Reuss Voigt Hill
#
# Bulk Modulus (GPa) = 33.44580 35.93083 34.68832
# Shear Modulus (GPa) = 26.22979 29.01632 27.62306
#
# Velocity S-wave (km/s) = 3.36695 3.54129 3.45522
# Velocity P-wave (km/s) = 5.43786 5.67891 5.55969
#
# Compressibility (1/GPa) = 0.02989912
#
# Stress axis : x y z
#
# Youngs Moduli (GPa) = 53.57937 78.78559 74.82905
#
# Poissons Ratio (x) = 0.49882 0.05752
# Poissons Ratio (y) = 0.33923 0.02324
# Poissons Ratio (z) = 0.04118 0.02447
#
# Static dielectric constant tensor:
#      x y z
#    x 1.853960 0.000000 0.044740 
#    y 0.000000 1.958800 0.000000 
#    z 0.044740 0.000000 1.900300 
# 
# From -- ./inp_files/12596.got.cif
#   From: 2010.05.17/outbox.cif.g08.bks.cpg/sg4_7_cif.got.tgz:12596.got - 2010.06.03 18:43:04.
