data_PCOD9117402
_publ_section_title
;
Structure prediction by ZEFSAII (Michael W. Deem and Ramdas Pophale) SiO2 
 PCOD9117402
Probable space group: P 21
;
_chemical_formula_sum "Si O2"
_cell_formula_units_Z 16
_cell_length_a 14.235998
_cell_length_b 5.678251
_cell_length_c 26.093772
_cell_angle_alpha 90.000000
_cell_angle_beta 21.006639
_cell_angle_gamma 90.000000
_cell_volume 756.135454
_symmetry_space_group_name_H-M "P 21"
_symmetry_group_IT_number 4
_symmetry_cell_setting 'monoclinic'
loop_
_space_group_symop_operation_xyz
x,y,z
-x,1/2+y,-z
loop_
_atom_site_type_symbol
_atom_site_label
_atom_site_fract_x
_atom_site_fract_y
_atom_site_fract_z
Si Si1 0.260924 0.621620 0.405020
Si Si2 0.721298 0.649599 0.961157
Si Si3 0.329861 0.123796 0.330926
Si Si4 0.945874 0.159205 0.374710
Si Si5 0.803860 0.305781 0.822266
Si Si6 0.497915 0.299917 0.531939
Si Si7 0.984081 0.065964 0.821339
Si Si8 0.490825 0.770340 0.872199
O O1 0.396423 0.368934 0.325887
O O2 0.174155 0.630154 0.508116
O O3 0.988676 0.617217 0.511046
O O4 0.400916 0.868080 0.318216
O O5 0.467045 0.785369 0.069230
O O6 0.617469 0.535168 0.066620
O O7 0.769391 0.473566 0.889226
O O8 0.990908 0.790666 0.829930
O O9 0.443275 0.164163 0.216213
O O10 0.744980 0.307167 0.443569
O O11 0.239026 0.262099 0.232870
O O12 0.990263 0.914036 0.321967
O O13 0.895628 0.077360 0.806572
O O14 0.472512 0.555352 0.517246
O O15 0.236740 0.227224 0.696543
O O16 0.748164 0.138632 0.978766
#
# Coordination Sequence:
#
# PCOD9117402 Si02
#       8
#     2   2   2   2   2   2   2   2
#     4   9  20  35  61  87 124 158 200 263 323 390
#     4  11  20  32  57  89 122 163 209 265 317 376
#     4   9  19  38  57  92 122 152 200 266 334 376
#     4  11  22  41  60  92 124 172 219 260 320 386
#     4  11  19  33  51  85 121 157 207 256 307 368
#     4  12  28  44  61  88 133 182 218 258 308 379
#     4  11  23  38  57  86 127 170 211 262 316 377
#     4  10  23  35  64  93 121 162 212 274 325 384
#
# _framework density 21.160229999999999
#
# number of rings (size 3 to 8) (size 9 to 14) (size 15 to 20)
#    0.000    1.500    3.750    1.500    5.250    4.000 
#    0.000    0.000    0.000    1.500    0.000    0.000 
#    0.000    0.000    0.000    0.000    0.000    0.000 
#
# Total GULP energy -89111.996401 kJ/mol
# GULP energy per Si atom -5569.499775 kJ/mol
# Density = 2.111207 g / cm^3
# Si number density = 21.160230 Si / 1000 Ang^3
#
#
#
# Elastic Constant Matrix: (Units=GPa)
#
#
# Indices 1 2 3 4 5 6 
#
# 1 28.7391 13.7942 21.5871 0.0000 9.7738 0.0000
# 2 13.7942 76.7798 28.3186 0.0000 19.7144 0.0000
# 3 21.5871 28.3186 99.5199 0.0000 8.7906 0.0000
# 4 0.0000 0.0000 0.0000 38.4827 0.0000 9.5622
# 5 9.7738 19.7144 8.7906 0.0000 18.1336 0.0000
# 6 0.0000 0.0000 0.0000 9.5622 0.0000 17.3390
#
#
#
# Elastic Compliance Matrix: (Units=1/GPa)
#
#
# Indices 1 2 3 4 5 6 
#
# 1 0.048803 0.000142 -0.008660 0.000000 -0.022260 0.000000
# 2 0.000142 0.019361 -0.003838 0.000000 -0.019264 0.000000
# 3 -0.008660 -0.003838 0.012786 0.000000 0.002643 0.000000
# 4 0.000000 0.000000 0.000000 0.030112 0.000000 -0.016606
# 5 -0.022260 -0.019264 0.002643 0.000000 0.086807 0.000000
# 6 0.000000 0.000000 0.000000 -0.016606 0.000000 0.066831
#
#
# Mechanical properties :
#
#
# Convention : Reuss Voigt Hill
#
# Bulk Modulus (GPa) = 17.78206 36.93759 27.35983
# Shear Modulus (GPa) = 16.22542 24.21367 20.21955
#
# Velocity S-wave (km/s) = 2.77210 3.38642 3.09454
# Velocity P-wave (km/s) = 4.32063 5.72578 5.07210
#
# Compressibility (1/GPa) = 0.05623645
#
# Stress axis : x y z
#
# Youngs Moduli (GPa) = 20.49048 51.65060 78.21354
#
# Poissons Ratio (x) = -0.00733 0.67734
# Poissons Ratio (y) = -0.00291 0.30021
# Poissons Ratio (z) = 0.17745 0.19825
#
# Static dielectric constant tensor:
#      x y z
#    x 1.724840 0.000000 -0.025190 
#    y 0.000000 2.056740 0.000000 
#    z -0.025190 0.000000 1.792610 
# 
# From -- ./inp_files/16392.got.cif
#   From: 2010.05.17/outbox.cif.g08.bks.cpg/sg4_9_cif.got.tgz:16392.got - 2010.06.03 18:43:04.
