data_PCOD9117475
_publ_section_title
;
Structure prediction by ZEFSAII (Michael W. Deem and Ramdas Pophale) SiO2 
 PCOD9117475
Probable space group: P 21
;
_chemical_formula_sum "Si O2"
_cell_formula_units_Z 16
_cell_length_a 25.186177
_cell_length_b 4.876581
_cell_length_c 14.747944
_cell_angle_alpha 90.000000
_cell_angle_beta 20.315857
_cell_angle_gamma 90.000000
_cell_volume 628.901879
_symmetry_space_group_name_H-M "P 21"
_symmetry_group_IT_number 4
_symmetry_cell_setting 'monoclinic'
loop_
_space_group_symop_operation_xyz
x,y,z
-x,1/2+y,-z
loop_
_atom_site_type_symbol
_atom_site_label
_atom_site_fract_x
_atom_site_fract_y
_atom_site_fract_z
Si Si1 0.145188 0.147330 0.570798
Si Si2 0.183261 0.368339 0.887723
Si Si3 0.453620 0.888940 0.122480
Si Si4 0.740568 0.044820 0.769397
Si Si5 0.097660 0.222113 0.835407
Si Si6 0.783053 0.249108 0.902765
Si Si7 0.503146 0.064126 0.553282
Si Si8 0.065150 0.227736 0.250619
O O1 0.194050 0.302303 0.400894
O O2 0.153601 0.332638 0.649223
O O3 0.274764 0.932474 0.394461
O O4 0.971097 0.045575 0.853017
O O5 0.197522 0.251865 0.764531
O O6 0.334962 0.539089 0.658799
O O7 0.154881 0.148016 0.014144
O O8 0.485821 0.569489 0.060053
O O9 0.560835 0.021483 0.028958
O O10 0.743159 0.092790 0.873227
O O11 0.884150 0.253992 0.520087
O O12 0.949286 0.406137 0.093896
O O13 0.907970 0.497917 0.714357
O O14 0.856842 0.010594 0.845383
O O15 0.632780 0.416133 0.175193
O O16 0.523010 0.877194 0.431174
#
# Coordination Sequence:
#
# PCOD9117475 Si02
#       8
#     2   2   2   2   2   2   2   2
#     4  10  23  46  72 108 144 194 248 306 365 450
#     4  11  23  43  77 101 147 196 239 307 374 432
#     4  10  23  43  65  97 136 177 237 294 352 428
#     4  11  25  43  75 102 146 195 239 303 377 422
#     4  10  23  41  66 104 138 177 244 297 354 434
#     4  12  26  45  68 107 142 190 242 301 358 446
#     4  12  25  47  70 106 148 188 249 303 368 442
#     4  12  24  44  69 103 143 185 252 293 360 442
#
# _framework density 25.441172000000002
#
# number of rings (size 3 to 8) (size 9 to 14) (size 15 to 20)
#    0.000    1.000    2.500    3.000    1.750   10.000 
#    0.000    0.000    0.000    0.000    0.000    0.000 
#    0.000    0.000    0.000    0.000    0.000    0.000 
#
# Total GULP energy -89183.324411 kJ/mol
# GULP energy per Si atom -5573.957776 kJ/mol
# Density = 2.538327 g / cm^3
# Si number density = 25.441172 Si / 1000 Ang^3
#
#
#
# Elastic Constant Matrix: (Units=GPa)
#
#
# Indices 1 2 3 4 5 6 
#
# 1 122.6346 15.5960 22.5526 0.0000 -14.6609 0.0000
# 2 15.5960 76.1692 13.2170 0.0000 8.4072 0.0000
# 3 22.5526 13.2170 124.2002 0.0000 -26.0373 0.0000
# 4 0.0000 0.0000 0.0000 33.7477 0.0000 -5.4865
# 5 -14.6609 8.4072 -26.0373 0.0000 39.9234 0.0000
# 6 0.0000 0.0000 0.0000 -5.4865 0.0000 7.4764
#
#
#
# Elastic Compliance Matrix: (Units=1/GPa)
#
#
# Indices 1 2 3 4 5 6 
#
# 1 0.008938 -0.002063 -0.000723 0.000000 0.003245 0.000000
# 2 -0.002063 0.014533 -0.002285 0.000000 -0.005308 0.000000
# 3 -0.000723 -0.002285 0.009813 0.000000 0.006615 0.000000
# 4 0.000000 0.000000 0.000000 0.033646 0.000000 0.024691
# 5 0.003245 -0.005308 0.006615 0.000000 0.031672 0.000000
# 6 0.000000 0.000000 0.000000 0.024691 0.000000 0.151874
#
#
# Mechanical properties :
#
#
# Convention : Reuss Voigt Hill
#
# Bulk Modulus (GPa) = 43.21073 47.30390 45.25732
# Shear Modulus (GPa) = 18.63373 34.33872 26.48623
#
# Velocity S-wave (km/s) = 2.70927 3.67785 3.23007
# Velocity P-wave (km/s) = 5.17767 6.05552 5.63372
#
# Compressibility (1/GPa) = 0.02314240
#
# Stress axis : x y z
#
# Youngs Moduli (GPa) = 111.88770 68.80723 101.90756
#
# Poissons Ratio (x) = 0.14193 0.07369
# Poissons Ratio (y) = 0.23079 0.23284
# Poissons Ratio (z) = 0.08091 0.15721
#
# Static dielectric constant tensor:
#      x y z
#    x 2.168920 0.000000 0.056800 
#    y 0.000000 2.090430 0.000000 
#    z 0.056800 0.000000 2.157270 
# 
# From -- ./inp_files/14516.got.cif
#   From: 2010.05.17/outbox.cif.g08.bks.cpg/sg4_8_cif.got.tgz:14516.got - 2010.06.03 18:43:04.
