data_PCOD9117377
_publ_section_title
;
Structure prediction by ZEFSAII (Michael W. Deem and Ramdas Pophale) SiO2 
 PCOD9117377
Probable space group: P 21
;
_chemical_formula_sum "Si O2"
_cell_formula_units_Z 16
_cell_length_a 12.092382
_cell_length_b 6.119403
_cell_length_c 15.315644
_cell_angle_alpha 90.000000
_cell_angle_beta 40.196355
_cell_angle_gamma 90.000000
_cell_volume 731.461139
_symmetry_space_group_name_H-M "P 21"
_symmetry_group_IT_number 4
_symmetry_cell_setting 'monoclinic'
loop_
_space_group_symop_operation_xyz
x,y,z
-x,1/2+y,-z
loop_
_atom_site_type_symbol
_atom_site_label
_atom_site_fract_x
_atom_site_fract_y
_atom_site_fract_z
Si Si1 0.974332 0.567970 0.555026
Si Si2 0.299064 0.732199 0.091440
Si Si3 0.403682 0.978247 0.188992
Si Si4 0.995430 0.457765 0.212103
Si Si5 0.192573 0.067763 0.014674
Si Si6 0.837698 0.845402 0.221874
Si Si7 0.221715 0.598084 0.564520
Si Si8 0.449647 0.249566 0.732691
O O1 0.775800 0.603645 0.699419
O O2 0.972490 0.318843 0.510281
O O3 0.099475 0.520121 0.560519
O O4 0.365084 0.773944 0.148489
O O5 0.118975 0.606351 0.196444
O O6 0.444614 0.610068 0.948686
O O7 0.257874 0.954578 0.063867
O O8 0.459124 0.902383 0.251169
O O9 0.881899 0.594415 0.213404
O O10 0.868409 0.318086 0.347051
O O11 0.126894 0.306883 0.079528
O O12 0.341370 0.075824 0.854497
O O13 0.020631 0.948297 0.086412
O O14 0.690273 0.875193 0.240789
O O15 0.782931 0.943121 0.348437
O O16 0.409030 0.641689 0.414109
#
# Coordination Sequence:
#
# PCOD9117377 Si02
#       8
#     2   2   2   2   2   2   2   2
#     4  12  29  50  77 112 155 204 256 322 393 465
#     4  11  25  44  73 105 142 193 241 316 393 462
#     4  12  26  43  75 108 148 191 256 319 386 465
#     4  10  22  48  73  99 143 192 244 301 382 466
#     4  10  23  47  72 107 140 187 247 308 386 454
#     4  10  26  46  73  99 145 203 244 313 384 457
#     4  11  27  48  72 105 148 202 249 310 393 457
#     4  12  26  46  71 113 145 190 261 315 375 462
#
# _framework density 21.874027000000002
#
# number of rings (size 3 to 8) (size 9 to 14) (size 15 to 20)
#    0.000    1.000    2.500    3.000   10.500    0.000 
#    2.250    0.000    0.000    0.000    0.000    0.000 
#    0.000    0.000    0.000    0.000    0.000    0.000 
#
# Total GULP energy -89393.931356 kJ/mol
# GULP energy per Si atom -5587.120710 kJ/mol
# Density = 2.182424 g / cm^3
# Si number density = 21.874027 Si / 1000 Ang^3
#
#
#
# Elastic Constant Matrix: (Units=GPa)
#
#
# Indices 1 2 3 4 5 6 
#
# 1 104.8459 8.8293 -5.9702 0.0000 -7.6816 0.0000
# 2 8.8293 60.2412 20.4594 0.0000 8.6982 0.0000
# 3 -5.9702 20.4594 98.1483 0.0000 -21.8300 0.0000
# 4 0.0000 0.0000 0.0000 16.4469 0.0000 -3.6063
# 5 -7.6816 8.6982 -21.8300 0.0000 27.7504 0.0000
# 6 0.0000 0.0000 0.0000 -3.6063 0.0000 14.7734
#
#
#
# Elastic Compliance Matrix: (Units=1/GPa)
#
#
# Indices 1 2 3 4 5 6 
#
# 1 0.010406 -0.003293 0.002654 0.000000 0.006000 0.000000
# 2 -0.003293 0.021742 -0.007819 0.000000 -0.013877 0.000000
# 3 0.002654 -0.007819 0.015379 0.000000 0.015284 0.000000
# 4 0.000000 0.000000 0.000000 0.064240 0.000000 0.015682
# 5 0.006000 -0.013877 0.015284 0.000000 0.054069 0.000000
# 6 0.000000 0.000000 0.000000 0.015682 0.000000 0.071517
#
#
# Mechanical properties :
#
#
# Convention : Reuss Voigt Hill
#
# Bulk Modulus (GPa) = 32.66777 34.43027 33.54902
# Shear Modulus (GPa) = 18.90549 27.78860 23.34705
#
# Velocity S-wave (km/s) = 2.94307 3.56812 3.27056
# Velocity P-wave (km/s) = 5.14935 5.72274 5.44360
#
# Compressibility (1/GPa) = 0.03061121
#
# Stress axis : x y z
#
# Youngs Moduli (GPa) = 96.09975 45.99427 65.02205
#
# Poissons Ratio (x) = 0.15145 -0.17257
# Poissons Ratio (y) = 0.31645 0.50841
# Poissons Ratio (z) = -0.25505 0.35963
#
# Static dielectric constant tensor:
#      x y z
#    x 1.784020 0.000000 0.015500 
#    y 0.000000 1.857130 0.000000 
#    z 0.015500 0.000000 1.795210 
# 
# From -- ./inp_files/10708.got.cif
#   From: 2010.05.17/outbox.cif.g08.bks.cpg/sg4_6_cif.got.tgz:10708.got - 2010.06.03 18:43:04.
