data_PCOD9117325
_publ_section_title
;
Structure prediction by ZEFSAII (Michael W. Deem and Ramdas Pophale) SiO2 
 PCOD9117325
Probable space group: P 21
;
_chemical_formula_sum "Si O2"
_cell_formula_units_Z 16
_cell_length_a 15.193614
_cell_length_b 6.861887
_cell_length_c 12.087575
_cell_angle_alpha 90.000000
_cell_angle_beta 27.297142
_cell_angle_gamma 90.000000
_cell_volume 577.940107
_symmetry_space_group_name_H-M "P 21"
_symmetry_group_IT_number 4
_symmetry_cell_setting 'monoclinic'
loop_
_space_group_symop_operation_xyz
x,y,z
-x,1/2+y,-z
loop_
_atom_site_type_symbol
_atom_site_label
_atom_site_fract_x
_atom_site_fract_y
_atom_site_fract_z
Si Si1 0.149181 0.263050 0.891860
Si Si2 0.821067 0.383369 0.855971
Si Si3 0.644868 0.470352 0.829673
Si Si4 0.243394 0.814626 0.761570
Si Si5 0.471043 0.334385 0.381896
Si Si6 0.398821 0.936095 0.361801
Si Si7 0.197487 0.406408 0.327310
Si Si8 0.150016 0.448435 0.128160
O O1 0.298467 0.397304 0.655356
O O2 0.230316 0.044462 0.810557
O O3 0.094307 0.344230 0.074892
O O4 0.970107 0.239820 0.009876
O O5 0.729281 0.351546 0.837716
O O6 0.029618 0.477941 0.599234
O O7 0.875577 0.180502 0.852734
O O8 0.628062 0.456381 0.135968
O O9 0.683152 0.385225 0.665540
O O10 0.746580 0.679969 0.719183
O O11 0.412617 0.495838 0.098192
O O12 0.392636 0.728178 0.680391
O O13 0.317870 0.818203 0.553791
O O14 0.380470 0.169347 0.403672
O O15 0.624371 0.904493 0.113291
O O16 0.100718 0.412049 0.312692
#
# Coordination Sequence:
#
# PCOD9117325 Si02
#       8
#     2   2   2   2   2   2   2   2
#     4  11  26  44  71 106 137 187 244 292 356 420
#     4  11  25  43  76  98 143 187 233 292 356 427
#     4  11  24  45  68 109 140 186 240 284 358 419
#     4  11  25  41  70 104 138 187 233 290 351 427
#     4  10  23  46  71 103 141 184 232 294 356 414
#     4   9  21  43  73  93 139 187 222 295 348 417
#     4  11  24  42  71 104 138 188 230 293 353 428
#     4  10  22  46  68  99 142 184 230 298 350 412
#
# _framework density 27.684528
#
# number of rings (size 3 to 8) (size 9 to 14) (size 15 to 20)
#    0.000    1.500    1.250    3.000    8.750    2.000 
#    0.000    2.500    2.750    0.000    0.000    0.000 
#    0.000    0.000    0.000    0.000    0.000    0.000 
#
# Total GULP energy -89428.559307 kJ/mol
# GULP energy per Si atom -5589.284957 kJ/mol
# Density = 2.762152 g / cm^3
# Si number density = 27.684528 Si / 1000 Ang^3
#
#
#
# Elastic Constant Matrix: (Units=GPa)
#
#
# Indices 1 2 3 4 5 6 
#
# 1 166.1883 -2.5733 39.7378 0.0000 13.4689 0.0000
# 2 -2.5733 64.4076 -3.3299 0.0000 1.8667 0.0000
# 3 39.7378 -3.3299 181.6934 0.0000 4.4158 0.0000
# 4 0.0000 0.0000 0.0000 18.8155 0.0000 -3.2626
# 5 13.4689 1.8667 4.4158 0.0000 43.2264 0.0000
# 6 0.0000 0.0000 0.0000 -3.2626 0.0000 43.5194
#
#
#
# Elastic Compliance Matrix: (Units=1/GPa)
#
#
# Indices 1 2 3 4 5 6 
#
# 1 0.006503 0.000244 -0.001372 0.000000 -0.001897 0.000000
# 2 0.000244 0.015571 0.000251 0.000000 -0.000774 0.000000
# 3 -0.001372 0.000251 0.005813 0.000000 -0.000177 0.000000
# 4 0.000000 0.000000 0.000000 0.053848 0.000000 0.004037
# 5 -0.001897 -0.000774 -0.000177 0.000000 0.023776 0.000000
# 6 0.000000 0.000000 0.000000 0.004037 0.000000 0.023281
#
#
# Mechanical properties :
#
#
# Convention : Reuss Voigt Hill
#
# Bulk Modulus (GPa) = 38.26609 53.32873 45.79741
# Shear Modulus (GPa) = 35.90498 46.34258 41.12378
#
# Velocity S-wave (km/s) = 3.60520 4.09583 3.85833
# Velocity P-wave (km/s) = 5.58410 6.45544 6.03551
#
# Compressibility (1/GPa) = 0.02613280
#
# Stress axis : x y z
#
# Youngs Moduli (GPa) = 153.78140 64.22090 172.03792
#
# Poissons Ratio (x) = -0.01566 0.23597
# Poissons Ratio (y) = -0.03750 -0.04316
# Poissons Ratio (z) = 0.21093 -0.01611
#
# Static dielectric constant tensor:
#      x y z
#    x 2.042330 0.000000 0.067870 
#    y 0.000000 2.207380 0.000000 
#    z 0.067870 0.000000 2.254420 
# 
# From -- ./inp_files/12544.got.cif
#   From: 2010.05.17/outbox.cif.g08.bks.cpg/sg4_7_cif.got.tgz:12544.got - 2010.06.03 18:43:04.
