data_PCOD9117838
_publ_section_title
;
Structure prediction by ZEFSAII (Michael W. Deem and Ramdas Pophale) SiO2 
 PCOD9117838
Probable space group: P 21
;
_chemical_formula_sum "Si O2"
_cell_formula_units_Z 14
_cell_length_a 13.335346
_cell_length_b 7.769224
_cell_length_c 9.132870
_cell_angle_alpha 90.000000
_cell_angle_beta 144.856411
_cell_angle_gamma 90.000000
_cell_volume 544.666606
_symmetry_space_group_name_H-M "P 21"
_symmetry_group_IT_number 4
_symmetry_cell_setting 'monoclinic'
loop_
_space_group_symop_operation_xyz
x,y,z
-x,1/2+y,-z
loop_
_atom_site_type_symbol
_atom_site_label
_atom_site_fract_x
_atom_site_fract_y
_atom_site_fract_z
Si Si1 0.423808 0.379970 0.276979
Si Si2 0.077508 0.869234 0.578575
Si Si3 0.596075 0.585823 0.990488
Si Si4 0.887744 0.009639 0.914691
Si Si5 0.797834 0.375441 0.847985
Si Si6 0.413930 0.706850 0.068109
Si Si7 0.966737 0.077007 0.687297
O O1 0.594051 0.739309 0.871910
O O2 0.882335 0.192889 0.985464
O O3 0.258647 0.393102 0.187380
O O4 0.453509 0.565205 0.235427
O O5 0.211475 0.030075 0.718733
O O6 0.026598 0.766825 0.372534
O O7 0.932292 0.940255 0.515601
O O8 0.205880 0.731978 0.808827
O O9 0.524694 0.404452 0.840219
O O10 0.599214 0.347737 0.576404
O O11 0.855123 0.049691 0.701377
O O12 0.083911 0.939269 0.146336
O O13 0.844104 0.512932 0.027528
O O14 0.482418 0.642880 0.993328
#
# Coordination Sequence:
#
# PCOD9117838 Si02
#       7
#     2   2   2   2   2   2   2
#     4  12  24  52  89 117 171 222 269 363 416 497
#     4  10  24  48  78 111 164 213 279 342 418 493
#     4  10  24  44  79 123 162 213 285 333 423 503
#     4  10  27  51  78 120 166 211 281 345 416 512
#     4  10  27  50  80 123 163 217 283 339 428 513
#     4  10  23  46  76 127 157 215 282 333 424 494
#     4  10  25  53  74 115 163 213 281 345 413 502
#
# _framework density 25.703800000000001
#
# number of rings (size 3 to 8) (size 9 to 14) (size 15 to 20)
#    1.714    0.000    1.429    0.857    6.000    3.429 
#    7.714    0.000    0.000    0.000    0.000    0.000 
#    0.000    0.000    0.000    0.000    0.000    0.000 
#
# Total GULP energy -78256.883007 kJ/mol
# GULP energy per Si atom -5589.777358 kJ/mol
# Density = 2.564530 g / cm^3
# Si number density = 25.703800 Si / 1000 Ang^3
#
#
#
# Elastic Constant Matrix: (Units=GPa)
#
#
# Indices 1 2 3 4 5 6 
#
# 1 204.3471 79.1974 35.4364 0.0000 -23.7290 0.0000
# 2 79.1974 157.1382 37.8373 0.0000 -12.8370 0.0000
# 3 35.4364 37.8373 60.7847 0.0000 -3.1643 0.0000
# 4 0.0000 0.0000 0.0000 42.2086 0.0000 -7.5912
# 5 -23.7290 -12.8370 -3.1643 0.0000 28.2675 0.0000
# 6 0.0000 0.0000 0.0000 -7.5912 0.0000 49.3945
#
#
#
# Elastic Compliance Matrix: (Units=1/GPa)
#
#
# Indices 1 2 3 4 5 6 
#
# 1 0.006742 -0.002536 -0.002129 0.000000 0.004269 0.000000
# 2 -0.002536 0.008683 -0.003855 0.000000 0.001383 0.000000
# 3 -0.002129 -0.003855 0.020025 0.000000 -0.001296 0.000000
# 4 0.000000 0.000000 0.000000 0.024365 0.000000 0.003745
# 5 0.004269 0.001383 -0.001296 0.000000 0.039443 0.000000
# 6 0.000000 0.000000 0.000000 0.003745 0.000000 0.020821
#
#
# Mechanical properties :
#
#
# Convention : Reuss Voigt Hill
#
# Bulk Modulus (GPa) = 54.31998 80.80135 67.56067
# Shear Modulus (GPa) = 34.90287 41.96071 38.43179
#
# Velocity S-wave (km/s) = 3.68895 4.04477 3.87095
# Velocity P-wave (km/s) = 6.27084 7.30187 6.80591
#
# Compressibility (1/GPa) = 0.01840943
#
# Stress axis : x y z
#
# Youngs Moduli (GPa) = 148.33349 115.16482 49.93835
#
# Poissons Ratio (x) = 0.29209 0.10633
# Poissons Ratio (y) = 0.37622 0.19249
# Poissons Ratio (z) = 0.31583 0.44391
#
# Static dielectric constant tensor:
#      x y z
#    x 2.080430 0.000000 -0.019910 
#    y 0.000000 2.034450 0.000000 
#    z -0.019910 0.000000 2.078510 
# 
# From -- ./inp_files/8381.got.cif
#   From: 2010.05.17/outbox.cif.g08.bks.cpg/sg4_5_cif.got.tgz:8381.got - 2010.06.03 18:43:04.
