data_PCOD9117537
_publ_section_title
;
Structure prediction by ZEFSAII (Michael W. Deem and Ramdas Pophale) SiO2 
 PCOD9117537
Probable space group: P 21
;
_chemical_formula_sum "Si O2"
_cell_formula_units_Z 16
_cell_length_a 18.469222
_cell_length_b 6.281857
_cell_length_c 6.735123
_cell_angle_alpha 90.000000
_cell_angle_beta 116.135346
_cell_angle_gamma 90.000000
_cell_volume 701.520711
_symmetry_space_group_name_H-M "P 21"
_symmetry_group_IT_number 4
_symmetry_cell_setting 'monoclinic'
loop_
_space_group_symop_operation_xyz
x,y,z
-x,1/2+y,-z
loop_
_atom_site_type_symbol
_atom_site_label
_atom_site_fract_x
_atom_site_fract_y
_atom_site_fract_z
Si Si1 0.728200 0.980590 0.665157
Si Si2 0.787440 0.647274 0.407337
Si Si3 0.421256 0.251986 0.357872
Si Si4 0.967250 0.044911 0.988739
Si Si5 0.847662 0.985304 0.180310
Si Si6 0.167865 0.732283 0.448390
Si Si7 0.515051 0.083849 0.841942
Si Si8 0.624747 0.453553 0.026767
O O1 0.753222 0.800964 0.535557
O O2 0.640721 0.926025 0.634959
O O3 0.748189 0.192043 0.566118
O O4 0.782332 0.983117 0.926838
O O5 0.834047 0.773770 0.292630
O O6 0.848036 0.481125 0.582407
O O7 0.710625 0.525401 0.218365
O O8 0.477369 0.207995 0.610935
O O9 0.466984 0.358171 0.231782
O O10 0.379631 0.047836 0.203577
O O11 0.931138 0.018007 0.166641
O O12 0.896379 0.086446 0.741512
O O13 0.003954 0.294842 0.025121
O O14 0.831340 0.167949 0.321560
O O15 0.446340 0.054330 0.922717
O O16 0.597586 0.205856 0.999305
#
# Coordination Sequence:
#
# PCOD9117537 Si02
#       8
#     2   2   2   2   2   2   2   2
#     4  10  23  42  66  97 138 179 234 297 357 425
#     4  11  24  42  74 101 142 184 242 304 361 434
#     4  12  24  42  61  93 133 180 237 299 367 430
#     4  11  28  50  80 112 158 200 239 295 365 443
#     4  10  24  45  72 107 143 185 236 293 352 432
#     4  10  26  44  72 109 140 183 240 294 351 438
#     4  12  26  40  64  91 135 182 240 301 364 443
#     4  12  25  41  63  98 133 185 238 303 373 427
#
# _framework density 22.807593000000001
#
# number of rings (size 3 to 8) (size 9 to 14) (size 15 to 20)
#    0.000    1.000    5.000    0.000    8.750    5.000 
#    0.000    0.000    0.000    0.000    0.000    0.000 
#    0.000    0.000    0.000    0.000    0.000    0.000 
#
# Total GULP energy -89191.572475 kJ/mol
# GULP energy per Si atom -5574.473280 kJ/mol
# Density = 2.275568 g / cm^3
# Si number density = 22.807593 Si / 1000 Ang^3
#
#
#
# Elastic Constant Matrix: (Units=GPa)
#
#
# Indices 1 2 3 4 5 6 
#
# 1 74.5107 19.5021 13.8742 0.0000 -31.9205 0.0000
# 2 19.5021 47.2178 9.1333 0.0000 -13.6943 0.0000
# 3 13.8742 9.1333 81.2161 0.0000 -24.1041 0.0000
# 4 0.0000 0.0000 0.0000 32.3425 0.0000 9.8906
# 5 -31.9205 -13.6943 -24.1041 0.0000 39.0452 0.0000
# 6 0.0000 0.0000 0.0000 9.8906 0.0000 17.2073
#
#
#
# Elastic Compliance Matrix: (Units=1/GPa)
#
#
# Indices 1 2 3 4 5 6 
#
# 1 0.021621 -0.004265 0.001944 0.000000 0.017380 0.000000
# 2 -0.004265 0.024422 -0.000625 0.000000 0.004693 0.000000
# 3 0.001944 -0.000625 0.015252 0.000000 0.010786 0.000000
# 4 0.000000 0.000000 0.000000 0.037513 0.000000 -0.021562
# 5 0.017380 0.004693 0.010786 0.000000 0.048124 0.000000
# 6 0.000000 0.000000 0.000000 -0.021562 0.000000 0.070508
#
#
# Mechanical properties :
#
#
# Convention : Reuss Voigt Hill
#
# Bulk Modulus (GPa) = 18.04965 31.99597 25.02281
# Shear Modulus (GPa) = 20.67821 28.41468 24.54645
#
# Velocity S-wave (km/s) = 3.01431 3.53348 3.28417
# Velocity P-wave (km/s) = 4.47725 5.54134 5.03747
#
# Compressibility (1/GPa) = 0.05540273
#
# Stress axis : x y z
#
# Youngs Moduli (GPa) = 46.25174 40.94660 65.56451
#
# Poissons Ratio (x) = 0.17466 -0.12748
# Poissons Ratio (y) = 0.19728 0.04098
# Poissons Ratio (z) = -0.08993 0.02559
#
# Static dielectric constant tensor:
#      x y z
#    x 1.882020 0.000000 0.035700 
#    y 0.000000 2.025670 0.000000 
#    z 0.035700 0.000000 1.813380 
# 
# From -- ./inp_files/3966.got.cif
#   From: 2010.05.17/outbox.cif.g08.bks.cpg/sg4_2_cif.got.tgz:3966.got - 2010.06.03 18:43:04.
