data_PCOD9117459
_publ_section_title
;
Structure prediction by ZEFSAII (Michael W. Deem and Ramdas Pophale) SiO2 
 PCOD9117459
Probable space group: P 21
;
_chemical_formula_sum "Si O2"
_cell_formula_units_Z 16
_cell_length_a 9.077202
_cell_length_b 12.769876
_cell_length_c 7.014383
_cell_angle_alpha 90.000000
_cell_angle_beta 71.046301
_cell_angle_gamma 90.000000
_cell_volume 768.986838
_symmetry_space_group_name_H-M "P 21"
_symmetry_group_IT_number 4
_symmetry_cell_setting 'monoclinic'
loop_
_space_group_symop_operation_xyz
x,y,z
-x,1/2+y,-z
loop_
_atom_site_type_symbol
_atom_site_label
_atom_site_fract_x
_atom_site_fract_y
_atom_site_fract_z
Si Si1 0.767840 0.664230 0.998826
Si Si2 0.042138 0.976563 0.008336
Si Si3 0.797773 0.997877 0.419018
Si Si4 0.114741 0.928885 0.392887
Si Si5 0.594373 0.848198 0.290251
Si Si6 0.371099 0.692263 0.587226
Si Si7 0.056923 0.783318 0.732820
Si Si8 0.418287 0.048168 0.240384
O O1 0.853332 0.576033 0.090747
O O2 0.637587 0.604392 0.929774
O O3 0.910059 0.706721 0.807192
O O4 0.698655 0.763760 0.135701
O O5 0.126024 0.923299 0.158213
O O6 0.880184 0.011584 0.174995
O O7 0.019948 0.890152 0.859432
O O8 0.690329 0.897910 0.426546
O O9 0.944882 0.981248 0.491895
O O10 0.695786 0.097303 0.512418
O O11 0.102337 0.818345 0.501126
O O12 0.258398 0.000449 0.396525
O O13 0.451836 0.783362 0.435903
O O14 0.531116 0.946036 0.191445
O O15 0.216024 0.736849 0.752187
O O16 0.495542 0.635653 0.670666
#
# Coordination Sequence:
#
# PCOD9117459 Si02
#       8
#     2   2   2   2   2   2   2   2
#     4  11  23  42  65  91 127 172 218 261 324 390
#     4   9  21  39  64  92 125 155 224 265 297 381
#     4   9  20  44  59  88 131 162 208 272 299 392
#     4   9  20  41  63  89 124 163 211 267 299 378
#     4  11  23  41  62  94 132 168 205 273 337 369
#     4  11  23  39  65  91 129 167 207 260 343 368
#     4  12  21  41  70  91 119 179 215 256 327 387
#     4  10  23  41  60  92 133 160 214 274 312 393
#
# _framework density 20.806598999999999
#
# number of rings (size 3 to 8) (size 9 to 14) (size 15 to 20)
#    0.750    1.000    3.750    0.000    3.500    2.000 
#    2.250    1.250    0.000    0.000    0.000    0.000 
#    0.000    0.000    0.000    0.000    0.000    0.000 
#
# Total GULP energy -89105.208032 kJ/mol
# GULP energy per Si atom -5569.075502 kJ/mol
# Density = 2.075924 g / cm^3
# Si number density = 20.806599 Si / 1000 Ang^3
#
#
#
# Elastic Constant Matrix: (Units=GPa)
#
#
# Indices 1 2 3 4 5 6 
#
# 1 80.9201 22.8951 2.1482 0.0000 -18.1119 0.0000
# 2 22.8951 108.7994 21.8588 0.0000 -2.9421 0.0000
# 3 2.1482 21.8588 30.7683 0.0000 -8.4718 0.0000
# 4 0.0000 0.0000 0.0000 34.0546 0.0000 -19.9593
# 5 -18.1119 -2.9421 -8.4718 0.0000 20.7853 0.0000
# 6 0.0000 0.0000 0.0000 -19.9593 0.0000 35.5604
#
#
#
# Elastic Compliance Matrix: (Units=1/GPa)
#
#
# Indices 1 2 3 4 5 6 
#
# 1 0.017309 -0.004533 0.006745 0.000000 0.017190 0.000000
# 2 -0.004533 0.011968 -0.009920 0.000000 -0.006299 0.000000
# 3 0.006745 -0.009920 0.045405 0.000000 0.022979 0.000000
# 4 0.000000 0.000000 0.000000 0.043760 0.000000 0.024562
# 5 0.017190 -0.006299 0.022979 0.000000 0.071565 0.000000
# 6 0.000000 0.000000 0.000000 0.024562 0.000000 0.041907
#
#
# Mechanical properties :
#
#
# Convention : Reuss Voigt Hill
#
# Bulk Modulus (GPa) = 16.87326 34.92134 25.89730
# Shear Modulus (GPa) = 18.72069 29.65244 24.18657
#
# Velocity S-wave (km/s) = 3.00283 3.77921 3.41317
# Velocity P-wave (km/s) = 4.48886 5.98861 5.29213
#
# Compressibility (1/GPa) = 0.05926537
#
# Stress axis : x y z
#
# Youngs Moduli (GPa) = 57.77415 83.55783 22.02408
#
# Poissons Ratio (x) = 0.37873 -0.14855
# Poissons Ratio (y) = 0.26187 0.21848
# Poissons Ratio (z) = -0.38967 0.82891
#
# Static dielectric constant tensor:
#      x y z
#    x 1.780900 0.000000 -0.014660 
#    y 0.000000 1.775850 0.000000 
#    z -0.014660 0.000000 1.757180 
# 
# From -- ./inp_files/6061.got.cif
#   From: 2010.05.17/outbox.cif.g08.bks.cpg/sg4_4_cif.got.tgz:6061.got - 2010.06.03 18:43:04.
