data_PCOD9117641
_publ_section_title
;
Structure prediction by ZEFSAII (Michael W. Deem and Ramdas Pophale) SiO2 
 PCOD9117641
Probable space group: P 21
;
_chemical_formula_sum "Si O2"
_cell_formula_units_Z 10
_cell_length_a 5.315327
_cell_length_b 4.964165
_cell_length_c 15.263848
_cell_angle_alpha 90.000000
_cell_angle_beta 114.107928
_cell_angle_gamma 90.000000
_cell_volume 367.625167
_symmetry_space_group_name_H-M "P 21"
_symmetry_group_IT_number 4
_symmetry_cell_setting 'monoclinic'
loop_
_space_group_symop_operation_xyz
x,y,z
-x,1/2+y,-z
loop_
_atom_site_type_symbol
_atom_site_label
_atom_site_fract_x
_atom_site_fract_y
_atom_site_fract_z
Si Si1 0.682249 0.829020 0.651886
Si Si2 0.410628 0.062039 0.181924
Si Si3 0.307849 0.188793 0.985317
Si Si4 0.824962 0.624280 0.487688
Si Si5 0.200092 0.065442 0.787029
O O1 0.709373 0.649506 0.742451
O O2 0.702604 0.655119 0.567171
O O3 0.397895 0.989653 0.606972
O O4 0.931834 0.042313 0.689504
O O5 0.654096 0.276774 0.196828
O O6 0.565980 0.779125 0.204732
O O7 0.215041 0.101412 0.069059
O O8 0.112386 0.137772 0.874540
O O9 0.434380 0.486436 0.998426
O O10 0.079295 0.418390 0.527874
#
# Coordination Sequence:
#
# PCOD9117641 Si02
#       5
#     2   2   2   2   2
#     4  12  28  48  78 106 136 192 242 290 362 422
#     4  10  23  43  71 106 145 185 232 287 345 419
#     4   8  16  38  66  98 144 186 220 278 346 406
#     4  12  30  52  74 104 144 184 238 306 362 422
#     4  10  23  43  71 106 145 185 232 287 345 419
#
# _framework density 27.201619000000001
#
# number of rings (size 3 to 8) (size 9 to 14) (size 15 to 20)
#    0.000    1.600    0.000    2.400    0.000   17.600 
#    0.000   12.000    0.000    4.800    0.000    0.000 
#    0.000    0.000    0.000    0.000    0.000    0.000 
#
# Total GULP energy -56172.982118 kJ/mol
# GULP energy per Si atom -5617.298212 kJ/mol
# Density = 2.713971 g / cm^3
# Si number density = 27.201619 Si / 1000 Ang^3
#
#
#
# Elastic Constant Matrix: (Units=GPa)
#
#
# Indices 1 2 3 4 5 6 
#
# 1 87.0042 28.0300 29.5550 0.0000 -8.0507 0.0000
# 2 28.0300 117.5308 31.6658 0.0000 5.4272 0.0000
# 3 29.5550 31.6658 127.9497 0.0000 -23.0703 0.0000
# 4 0.0000 0.0000 0.0000 39.3306 0.0000 -14.0409
# 5 -8.0507 5.4272 -23.0703 0.0000 50.6088 0.0000
# 6 0.0000 0.0000 0.0000 -14.0409 0.0000 35.7120
#
#
#
# Elastic Compliance Matrix: (Units=1/GPa)
#
#
# Indices 1 2 3 4 5 6 
#
# 1 0.013201 -0.002636 -0.002144 0.000000 0.001405 0.000000
# 2 -0.002636 0.009870 -0.002288 0.000000 -0.002521 0.000000
# 3 -0.002144 -0.002288 0.009653 0.000000 0.004305 0.000000
# 4 0.000000 0.000000 0.000000 0.029577 0.000000 0.011629
# 5 0.001405 -0.002521 0.004305 0.000000 0.022216 0.000000
# 6 0.000000 0.000000 0.000000 0.011629 0.000000 0.032574
#
#
# Mechanical properties :
#
#
# Convention : Reuss Voigt Hill
#
# Bulk Modulus (GPa) = 53.79549 56.77627 55.28588
# Shear Modulus (GPa) = 36.38416 41.34587 38.86501
#
# Velocity S-wave (km/s) = 3.66125 3.90292 3.78402
# Velocity P-wave (km/s) = 6.13942 6.42091 6.28174
#
# Compressibility (1/GPa) = 0.01858892
#
# Stress axis : x y z
#
# Youngs Moduli (GPa) = 75.75155 101.31761 103.59183
#
# Poissons Ratio (x) = 0.26704 0.22206
# Poissons Ratio (y) = 0.19966 0.23706
# Poissons Ratio (z) = 0.16238 0.23186
#
# Static dielectric constant tensor:
#      x y z
#    x 2.068640 0.000000 -0.037490 
#    y 0.000000 2.017400 0.000000 
#    z -0.037490 0.000000 2.149730 
# 
# From -- ./inp_files/3368.got.cif
#   From: 2010.05.17/outbox.cif.g08.bks.cpg/sg4_2_cif.got.tgz:3368.got - 2010.06.03 18:43:04.
