data_PCOD9117979
_publ_section_title
;
Structure prediction by ZEFSAII (Michael W. Deem and Ramdas Pophale) SiO2 
 PCOD9117979
Probable space group: P 21
;
_chemical_formula_sum "Si O2"
_cell_formula_units_Z 10
_cell_length_a 9.099076
_cell_length_b 8.103156
_cell_length_c 9.246994
_cell_angle_alpha 90.000000
_cell_angle_beta 33.917648
_cell_angle_gamma 90.000000
_cell_volume 380.440587
_symmetry_space_group_name_H-M "P 21"
_symmetry_group_IT_number 4
_symmetry_cell_setting 'monoclinic'
loop_
_space_group_symop_operation_xyz
x,y,z
-x,1/2+y,-z
loop_
_atom_site_type_symbol
_atom_site_label
_atom_site_fract_x
_atom_site_fract_y
_atom_site_fract_z
Si Si1 0.375746 0.144000 0.661783
Si Si2 0.262042 0.613914 0.371665
Si Si3 0.684854 0.460920 0.829240
Si Si4 0.963822 0.370556 0.999975
Si Si5 0.372138 0.557722 0.808664
O O1 0.616547 0.169374 0.573036
O O2 0.446908 0.018450 0.476992
O O3 0.208142 0.286055 0.718751
O O4 0.157235 0.047254 0.936674
O O5 0.969420 0.541784 0.625076
O O6 0.267343 0.773559 0.262302
O O7 0.467470 0.483880 0.132478
O O8 0.543837 0.550880 0.809222
O O9 0.134077 0.423233 0.005447
O O10 0.742203 0.234614 0.149295
#
# Coordination Sequence:
#
# PCOD9117979 Si02
#       5
#     2   2   2   2   2
#     4  11  25  44  75 103 141 186 245 296 365 430
#     4  12  30  50  75 109 154 198 248 304 372 444
#     4  12  30  50  75 109 154 198 248 304 372 444
#     4  10  24  42  72 106 140 178 244 300 364 424
#     4  11  25  44  75 103 141 186 245 296 365 430
#
# _framework density 26.285314
#
# number of rings (size 3 to 8) (size 9 to 14) (size 15 to 20)
#    0.000    0.800    2.000    2.400   16.800    0.000 
#    0.000    0.000    0.000    0.000    0.000    0.000 
#    0.000    0.000    0.000    0.000    0.000    0.000 
#
# Total GULP energy -55776.946975 kJ/mol
# GULP energy per Si atom -5577.694697 kJ/mol
# Density = 2.622549 g / cm^3
# Si number density = 26.285314 Si / 1000 Ang^3
#
#
#
# Elastic Constant Matrix: (Units=GPa)
#
#
# Indices 1 2 3 4 5 6 
#
# 1 147.1542 11.3902 56.6795 0.0000 -26.7685 0.0000
# 2 11.3902 73.2195 19.3270 0.0000 -14.7023 0.0000
# 3 56.6795 19.3270 127.7685 0.0000 -28.1042 0.0000
# 4 0.0000 0.0000 0.0000 39.6247 0.0000 -10.6350
# 5 -26.7685 -14.7023 -28.1042 0.0000 51.9744 0.0000
# 6 0.0000 0.0000 0.0000 -10.6350 0.0000 39.1326
#
#
#
# Elastic Compliance Matrix: (Units=1/GPa)
#
#
# Indices 1 2 3 4 5 6 
#
# 1 0.008508 0.000056 -0.003195 0.000000 0.002670 0.000000
# 2 0.000056 0.014726 -0.001509 0.000000 0.003378 0.000000
# 3 -0.003195 -0.001509 0.010234 0.000000 0.003461 0.000000
# 4 0.000000 0.000000 0.000000 0.027222 0.000000 0.007398
# 5 0.002670 0.003378 0.003461 0.000000 0.023442 0.000000
# 6 0.000000 0.000000 0.000000 0.007398 0.000000 0.027565
#
#
# Mechanical properties :
#
#
# Convention : Reuss Voigt Hill
#
# Bulk Modulus (GPa) = 41.37374 58.10396 49.73885
# Shear Modulus (GPa) = 38.74461 43.52936 41.13699
#
# Velocity S-wave (km/s) = 3.84344 4.07385 3.96032
# Velocity P-wave (km/s) = 5.95571 6.65443 6.31474
#
# Compressibility (1/GPa) = 0.02416992
#
# Stress axis : x y z
#
# Youngs Moduli (GPa) = 117.54126 67.90902 97.71597
#
# Poissons Ratio (x) = -0.00381 0.31223
# Poissons Ratio (y) = -0.00659 0.14748
# Poissons Ratio (z) = 0.37558 0.10249
#
# Static dielectric constant tensor:
#      x y z
#    x 1.999330 0.000000 0.002820 
#    y 0.000000 2.247560 0.000000 
#    z 0.002820 0.000000 2.104510 
# 
# From -- ./inp_files/912.got.cif
#   From: 2010.05.17/outbox.cif.g08.bks.cpg/sg4_1_cif.got.tgz:912.got - 2010.06.03 18:43:04.
