data_PCOD9117586
_publ_section_title
;
Structure prediction by ZEFSAII (Michael W. Deem and Ramdas Pophale) SiO2 
 PCOD9117586
Probable space group: P 21
;
_chemical_formula_sum "Si O2"
_cell_formula_units_Z 16
_cell_length_a 16.623355
_cell_length_b 9.396695
_cell_length_c 8.175884
_cell_angle_alpha 90.000000
_cell_angle_beta 31.656052
_cell_angle_gamma 90.000000
_cell_volume 670.251804
_symmetry_space_group_name_H-M "P 21"
_symmetry_group_IT_number 4
_symmetry_cell_setting 'monoclinic'
loop_
_space_group_symop_operation_xyz
x,y,z
-x,1/2+y,-z
loop_
_atom_site_type_symbol
_atom_site_label
_atom_site_fract_x
_atom_site_fract_y
_atom_site_fract_z
Si Si1 0.358330 0.631600 0.331023
Si Si2 0.317251 0.964329 0.758776
Si Si3 0.674981 0.588779 0.609724
Si Si4 0.966825 0.303357 0.605563
Si Si5 0.462812 0.679110 0.523121
Si Si6 0.186463 0.506743 0.096332
Si Si7 0.825369 0.878451 0.245801
Si Si8 0.857360 0.361163 0.428156
O O1 0.401573 0.662594 0.444585
O O2 0.227138 0.511780 0.556618
O O3 0.288169 0.767751 0.365851
O O4 0.511173 0.583883 0.976877
O O5 0.438618 0.843773 0.605903
O O6 0.323811 0.995226 0.556222
O O7 0.370202 0.111057 0.750687
O O8 0.153399 0.899337 0.085870
O O9 0.722202 0.746070 0.473747
O O10 0.802037 0.523053 0.509887
O O11 0.937035 0.137803 0.699607
O O12 0.913330 0.317596 0.509491
O O13 0.128905 0.387325 0.323888
O O14 0.347720 0.588675 0.839624
O O15 0.197809 0.429050 0.901534
O O16 0.004302 0.838598 0.939429
#
# Coordination Sequence:
#
# PCOD9117586 Si02
#       8
#     2   2   2   2   2   2   2   2
#     4  11  23  44  68  98 137 174 230 284 338 411
#     4  11  25  40  66  96 131 176 219 277 339 402
#     4  12  25  42  69 101 134 180 230 281 348 411
#     4  10  23  43  69  97 136 177 223 287 337 410
#     4  10  23  43  64  96 133 171 223 279 334 405
#     4   9  22  42  66  99 132 175 225 276 340 400
#     4  10  24  43  69  99 134 184 222 286 345 409
#     4  11  23  45  67  98 137 175 230 282 347 410
#
# _framework density 23.871625000000002
#
# number of rings (size 3 to 8) (size 9 to 14) (size 15 to 20)
#    0.000    1.500    1.250    2.250   10.500    0.000 
#    0.000    0.000    0.000    0.000    0.000    0.000 
#    0.000    0.000    0.000    0.000    0.000    0.000 
#
# Total GULP energy -89508.395736 kJ/mol
# GULP energy per Si atom -5594.274734 kJ/mol
# Density = 2.381729 g / cm^3
# Si number density = 23.871625 Si / 1000 Ang^3
#
#
#
# Elastic Constant Matrix: (Units=GPa)
#
#
# Indices 1 2 3 4 5 6 
#
# 1 52.8949 -3.0076 -3.0793 0.0000 -0.8119 0.0000
# 2 -3.0076 87.4344 14.2858 0.0000 9.5365 0.0000
# 3 -3.0793 14.2858 100.1563 0.0000 13.3294 0.0000
# 4 0.0000 0.0000 0.0000 49.1367 0.0000 -4.7232
# 5 -0.8119 9.5365 13.3294 0.0000 15.7431 0.0000
# 6 0.0000 0.0000 0.0000 -4.7232 0.0000 27.7597
#
#
#
# Elastic Compliance Matrix: (Units=1/GPa)
#
#
# Indices 1 2 3 4 5 6 
#
# 1 0.018968 0.000548 0.000472 0.000000 0.000246 0.000000
# 2 0.000548 0.012328 -0.000847 0.000000 -0.006722 0.000000
# 3 0.000472 -0.000847 0.011324 0.000000 -0.009051 0.000000
# 4 0.000000 0.000000 0.000000 0.020690 0.000000 0.003520
# 5 0.000246 -0.006722 -0.009051 0.000000 0.075268 0.000000
# 6 0.000000 0.000000 0.000000 0.003520 0.000000 0.036622
#
#
# Mechanical properties :
#
#
# Convention : Reuss Voigt Hill
#
# Bulk Modulus (GPa) = 23.27352 28.54259 25.90806
# Shear Modulus (GPa) = 26.43065 34.01369 30.22217
#
# Velocity S-wave (km/s) = 3.33107 3.77882 3.56199
# Velocity P-wave (km/s) = 4.95634 5.56974 5.27197
#
# Compressibility (1/GPa) = 0.04296729
#
# Stress axis : x y z
#
# Youngs Moduli (GPa) = 52.72073 81.11898 88.30624
#
# Poissons Ratio (x) = -0.04449 -0.04170
# Poissons Ratio (y) = -0.02892 0.07478
# Poissons Ratio (z) = -0.02489 0.06870
#
# Static dielectric constant tensor:
#      x y z
#    x 1.919700 0.000000 -0.030520 
#    y 0.000000 1.912480 0.000000 
#    z -0.030520 0.000000 1.900940 
# 
# From -- ./inp_files/5609.got.cif
#   From: 2010.05.17/outbox.cif.g08.bks.cpg/sg4_3_cif.got.tgz:5609.got - 2010.06.03 18:43:04.
