data_PCOD9117774
_publ_section_title
;
Structure prediction by ZEFSAII (Michael W. Deem and Ramdas Pophale) SiO2 
 PCOD9117774
Probable space group: P 21
;
_chemical_formula_sum "Si O2"
_cell_formula_units_Z 12
_cell_length_a 12.980186
_cell_length_b 5.588363
_cell_length_c 12.628354
_cell_angle_alpha 90.000000
_cell_angle_beta 33.612968
_cell_angle_gamma 90.000000
_cell_volume 507.098943
_symmetry_space_group_name_H-M "P 21"
_symmetry_group_IT_number 4
_symmetry_cell_setting 'monoclinic'
loop_
_space_group_symop_operation_xyz
x,y,z
-x,1/2+y,-z
loop_
_atom_site_type_symbol
_atom_site_label
_atom_site_fract_x
_atom_site_fract_y
_atom_site_fract_z
Si Si1 0.924734 0.522800 0.376380
Si Si2 0.705277 0.867466 0.895401
Si Si3 0.939102 0.905505 0.215306
Si Si4 0.756479 0.609515 0.187592
Si Si5 0.631353 0.301864 0.477870
Si Si6 0.713248 0.372112 0.758693
O O1 0.965090 0.795388 0.309761
O O2 0.744476 0.472558 0.459366
O O3 0.869766 0.425523 0.537778
O O4 0.117088 0.394472 0.181094
O O5 0.717394 0.608526 0.828960
O O6 0.728137 0.109455 0.801097
O O7 0.493519 0.879656 0.116674
O O8 0.895841 0.721010 0.155694
O O9 0.754933 0.064541 0.379340
O O10 0.123790 0.029656 0.013810
O O11 0.655907 0.394667 0.337198
O O12 0.583450 0.779409 0.309902
#
# Coordination Sequence:
#
# PCOD9117774 Si02
#       6
#     2   2   2   2   2   2
#     4  11  26  40  66 104 130 176 230 282 340 413
#     4  10  23  45  72  99 140 184 224 282 354 418
#     4  11  24  40  66  94 130 176 226 282 339 404
#     4  11  22  44  64  88 132 178 226 272 346 403
#     4  11  24  40  66  94 130 176 226 282 339 404
#     4  10  23  45  72  99 140 184 224 282 354 418
#
# _framework density 23.664023
#
# number of rings (size 3 to 8) (size 9 to 14) (size 15 to 20)
#    0.000    1.333    3.333    1.000    4.667    2.667 
#    3.000    0.000    0.000    0.000    0.000    0.000 
#    0.000    0.000    0.000    0.000    0.000    0.000 
#
# Total GULP energy -66953.725640 kJ/mol
# GULP energy per Si atom -5579.477137 kJ/mol
# Density = 2.361016 g / cm^3
# Si number density = 23.664023 Si / 1000 Ang^3
#
#
#
# Elastic Constant Matrix: (Units=GPa)
#
#
# Indices 1 2 3 4 5 6 
#
# 1 37.6101 12.2064 36.1138 0.0000 -22.8863 0.0000
# 2 12.2064 91.7627 36.8505 0.0000 9.3223 0.0000
# 3 36.1138 36.8505 138.7435 0.0000 -27.8792 0.0000
# 4 0.0000 0.0000 0.0000 36.8667 0.0000 -4.5964
# 5 -22.8863 9.3223 -27.8792 0.0000 40.2294 0.0000
# 6 0.0000 0.0000 0.0000 -4.5964 0.0000 39.7026
#
#
#
# Elastic Compliance Matrix: (Units=1/GPa)
#
#
# Indices 1 2 3 4 5 6 
#
# 1 0.050615 -0.006962 -0.006059 0.000000 0.026209 0.000000
# 2 -0.006962 0.014490 -0.004074 0.000000 -0.010142 0.000000
# 3 -0.006059 -0.004074 0.010879 0.000000 0.005036 0.000000
# 4 0.000000 0.000000 0.000000 0.027522 0.000000 0.003186
# 5 0.026209 -0.010142 0.005036 0.000000 0.045608 0.000000
# 6 0.000000 0.000000 0.000000 0.003186 0.000000 0.025556
#
#
# Mechanical properties :
#
#
# Convention : Reuss Voigt Hill
#
# Bulk Modulus (GPa) = 23.92775 48.71753 36.32264
# Shear Modulus (GPa) = 22.44245 35.55610 28.99928
#
# Velocity S-wave (km/s) = 3.08292 3.88046 3.50445
# Velocity P-wave (km/s) = 4.77555 6.38038 5.63538
#
# Compressibility (1/GPa) = 0.04179248
#
# Stress axis : x y z
#
# Youngs Moduli (GPa) = 19.75717 69.01106 91.92168
#
# Poissons Ratio (x) = 0.48047 0.55695
# Poissons Ratio (y) = 0.13755 0.37453
# Poissons Ratio (z) = 0.11971 0.28118
#
# Static dielectric constant tensor:
#      x y z
#    x 1.942760 0.000000 -0.039990 
#    y 0.000000 2.014750 0.000000 
#    z -0.039990 0.000000 1.839540 
# 
# From -- ./inp_files/14030.got.cif
#   From: 2010.05.17/outbox.cif.g08.bks.cpg/sg4_8_cif.got.tgz:14030.got - 2010.06.03 18:43:04.
