data_PCOD9117509
_publ_section_title
;
Structure prediction by ZEFSAII (Michael W. Deem and Ramdas Pophale) SiO2 
 PCOD9117509
Probable space group: P 21
;
_chemical_formula_sum "Si O2"
_cell_formula_units_Z 14
_cell_length_a 8.642032
_cell_length_b 8.229514
_cell_length_c 8.011464
_cell_angle_alpha 90.000000
_cell_angle_beta 107.910347
_cell_angle_gamma 90.000000
_cell_volume 542.161262
_symmetry_space_group_name_H-M "P 21"
_symmetry_group_IT_number 4
_symmetry_cell_setting 'monoclinic'
loop_
_space_group_symop_operation_xyz
x,y,z
-x,1/2+y,-z
loop_
_atom_site_type_symbol
_atom_site_label
_atom_site_fract_x
_atom_site_fract_y
_atom_site_fract_z
Si Si1 0.377398 0.560390 0.808764
Si Si2 0.159730 0.777422 0.359031
Si Si3 0.971213 0.472105 0.388420
Si Si4 0.079901 0.441878 0.920442
Si Si5 0.439151 0.997450 0.454462
Si Si6 0.381937 0.952865 0.817240
Si Si7 0.843505 0.728580 0.765819
O O1 0.213963 0.479871 0.825311
O O2 0.420010 0.501635 0.636411
O O3 0.366943 0.756471 0.808070
O O4 0.516992 0.510250 0.989086
O O5 0.098590 0.924968 0.456061
O O6 0.345002 0.824525 0.393768
O O7 0.102554 0.612692 0.422134
O O8 0.049005 0.800361 0.162692
O O9 0.804948 0.515660 0.234591
O O10 0.055181 0.310468 0.348090
O O11 0.957474 0.592616 0.886528
O O12 0.177350 0.379064 0.113636
O O13 0.456734 0.005686 0.661360
O O14 0.320148 0.142764 0.350605
#
# Coordination Sequence:
#
# PCOD9117509 Si02
#       7
#     2   2   2   2   2   2   2
#     4  12  27  49  72 108 152 200 245 301 378 449
#     4  10  23  41  75 105 138 188 242 315 366 431
#     4  11  22  44  73 105 143 189 251 309 369 433
#     4  11  24  44  73 109 143 191 248 308 374 441
#     4  10  26  50  71 108 149 192 257 303 374 446
#     4  11  27  47  74 108 149 200 249 308 364 457
#     4  11  23  45  74 109 142 190 250 314 371 435
#
# _framework density 25.822576999999999
#
# number of rings (size 3 to 8) (size 9 to 14) (size 15 to 20)
#    0.000    1.143    1.429    4.286   10.000    2.286 
#    7.714    1.429    0.000    0.000    0.000    0.000 
#    0.000    0.000    0.000    0.000    0.000    0.000 
#
# Total GULP energy -78398.680211 kJ/mol
# GULP energy per Si atom -5599.905729 kJ/mol
# Density = 2.576380 g / cm^3
# Si number density = 25.822577 Si / 1000 Ang^3
#
#
#
# Elastic Constant Matrix: (Units=GPa)
#
#
# Indices 1 2 3 4 5 6 
#
# 1 121.0619 25.2698 38.9803 0.0000 9.9400 0.0000
# 2 25.2698 95.1384 20.4702 0.0000 -2.1836 0.0000
# 3 38.9803 20.4702 72.5959 0.0000 -0.1167 0.0000
# 4 0.0000 0.0000 0.0000 50.5116 0.0000 -9.6282
# 5 9.9400 -2.1836 -0.1167 0.0000 48.3751 0.0000
# 6 0.0000 0.0000 0.0000 -9.6282 0.0000 28.3180
#
#
#
# Elastic Compliance Matrix: (Units=1/GPa)
#
#
# Indices 1 2 3 4 5 6 
#
# 1 0.010456 -0.001725 -0.005132 0.000000 -0.002239 0.000000
# 2 -0.001725 0.011486 -0.002311 0.000000 0.000867 0.000000
# 3 -0.005132 -0.002311 0.017184 0.000000 0.000992 0.000000
# 4 0.000000 0.000000 0.000000 0.021169 0.000000 0.007198
# 5 -0.002239 0.000867 0.000992 0.000000 0.021173 0.000000
# 6 0.000000 0.000000 0.000000 0.007198 0.000000 0.037760
#
#
# Mechanical properties :
#
#
# Convention : Reuss Voigt Hill
#
# Bulk Modulus (GPa) = 48.09828 50.91519 49.50674
# Shear Modulus (GPa) = 34.60309 39.04601 36.82455
#
# Velocity S-wave (km/s) = 3.66462 3.89278 3.78042
# Velocity P-wave (km/s) = 6.04754 6.32179 6.18619
#
# Compressibility (1/GPa) = 0.02079077
#
# Stress axis : x y z
#
# Youngs Moduli (GPa) = 95.63499 87.06018 58.19429
#
# Poissons Ratio (x) = 0.15014 0.29865
# Poissons Ratio (y) = 0.16493 0.13451
# Poissons Ratio (z) = 0.49079 0.20124
#
# Static dielectric constant tensor:
#      x y z
#    x 2.026260 0.000000 0.058630 
#    y 0.000000 2.027380 0.000000 
#    z 0.058630 0.000000 2.129880 
# 
# From -- ./inp_files/5710.got.cif
#   From: 2010.05.17/outbox.cif.g08.bks.cpg/sg4_3_cif.got.tgz:5710.got - 2010.06.03 18:43:04.
