data_PCOD9117076
_publ_section_title
;
Structure prediction by ZEFSAII (Michael W. Deem and Ramdas Pophale) SiO2 
 PCOD9117076
Probable space group: P 21
;
_chemical_formula_sum "Si O2"
_cell_formula_units_Z 16
_cell_length_a 23.573682
_cell_length_b 5.109257
_cell_length_c 14.351902
_cell_angle_alpha 90.000000
_cell_angle_beta 23.312436
_cell_angle_gamma 90.000000
_cell_volume 684.084723
_symmetry_space_group_name_H-M "P 21"
_symmetry_group_IT_number 4
_symmetry_cell_setting 'monoclinic'
loop_
_space_group_symop_operation_xyz
x,y,z
-x,1/2+y,-z
loop_
_atom_site_type_symbol
_atom_site_label
_atom_site_fract_x
_atom_site_fract_y
_atom_site_fract_z
Si Si1 0.013139 0.585030 0.535386
Si Si2 0.775654 0.915983 0.416520
Si Si3 0.281320 0.055050 0.948001
Si Si4 0.470429 0.239458 0.335740
Si Si5 0.785664 0.608313 0.158047
Si Si6 0.685145 0.887727 0.914839
Si Si7 0.055930 0.617002 0.001074
Si Si8 0.406702 0.257951 0.133731
O O1 0.172451 0.540707 0.329162
O O2 0.003609 0.392560 0.459707
O O3 0.884347 0.466935 0.790504
O O4 0.634266 0.928587 0.564163
O O5 0.706660 0.891504 0.623621
O O6 0.878749 0.114991 0.203016
O O7 0.885697 0.667768 0.250548
O O8 0.278321 0.157749 0.848111
O O9 0.411259 0.857878 0.772729
O O10 0.295917 0.247563 0.014304
O O11 0.355107 0.072119 0.566027
O O12 0.557517 0.083565 0.127680
O O13 0.881325 0.353097 0.030835
O O14 0.879858 0.856394 0.048315
O O15 0.656744 0.698224 0.872536
O O16 0.525978 0.483150 0.937232
#
# Coordination Sequence:
#
# PCOD9117076 Si02
#       8
#     2   2   2   2   2   2   2   2
#     4  10  22  43  67  95 132 184 234 289 354 431
#     4  11  25  51  78 109 154 197 258 320 380 455
#     4  11  26  46  72 104 150 192 246 306 374 451
#     4  11  24  44  73 103 143 193 238 311 365 450
#     4  11  29  45  76 114 148 195 253 307 384 454
#     4  11  25  45  70 104 143 196 239 309 374 444
#     4  11  27  50  76 112 149 202 250 318 382 446
#     4  12  28  46  74 113 149 197 254 312 383 461
#
# _framework density 23.388916999999999
#
# number of rings (size 3 to 8) (size 9 to 14) (size 15 to 20)
#    0.000    1.000    2.500    2.250   10.500    2.000 
#    4.500    0.000    0.000    0.000    0.000    0.000 
#    0.000    0.000    0.000    0.000    0.000    0.000 
#
# Total GULP energy -89173.261442 kJ/mol
# GULP energy per Si atom -5573.328840 kJ/mol
# Density = 2.333568 g / cm^3
# Si number density = 23.388917 Si / 1000 Ang^3
#
#
#
# Elastic Constant Matrix: (Units=GPa)
#
#
# Indices 1 2 3 4 5 6 
#
# 1 466.1170 57.1402 -62.8718 0.0000 206.9207 0.0000
# 2 57.1402 86.4683 -0.5861 0.0000 26.4486 0.0000
# 3 -62.8718 -0.5861 146.0236 0.0000 -66.0353 0.0000
# 4 0.0000 0.0000 0.0000 30.2753 0.0000 -0.4367
# 5 206.9207 26.4486 -66.0353 0.0000 71.4660 0.0000
# 6 0.0000 0.0000 0.0000 -0.4367 0.0000 27.2629
#
#
#
# Elastic Compliance Matrix: (Units=1/GPa)
#
#
# Indices 1 2 3 4 5 6 
#
# 1 -0.002698 -0.002137 0.004673 0.000000 0.012920 0.000000
# 2 -0.002137 0.012595 -0.000307 0.000000 0.001244 0.000000
# 3 0.004673 -0.000307 0.004796 0.000000 -0.008984 0.000000
# 4 0.000000 0.000000 0.000000 0.033038 0.000000 0.000529
# 5 0.012920 0.001244 -0.008984 0.000000 -0.032178 0.000000
# 6 0.000000 0.000000 0.000000 0.000529 0.000000 0.036688
#
#
# Mechanical properties :
#
#
# Convention : Reuss Voigt Hill
#
# Bulk Modulus (GPa) = 52.22266 76.21928 64.22097
# Shear Modulus (GPa) = 92.30453 72.79595 82.55024
#
# Velocity S-wave (km/s) = 6.28894 5.58495 5.94737
# Velocity P-wave (km/s) = 8.66665 8.61670 8.64171
#
# Compressibility (1/GPa) = 0.01914877
#
# Stress axis : x y z
#
# Youngs Moduli (GPa) = -370.63998 79.39671 208.49799
#
# Poissons Ratio (x) = 0.16971 -0.97425
# Poissons Ratio (y) = -0.79223 0.06410
# Poissons Ratio (z) = 1.73189 0.02441
#
# Static dielectric constant tensor:
#      x y z
#    x 1.857480 0.000000 -0.026940 
#    y 0.000000 1.898990 0.000000 
#    z -0.026940 0.000000 1.934460 
# 
# From -- ./inp_files/13856.got.cif
#   From: 2010.05.17/outbox.cif.g08.bks.cpg/sg4_7_cif.got.tgz:13856.got - 2010.06.03 18:43:04.
