data_PCOD9117839
_publ_section_title
;
Structure prediction by ZEFSAII (Michael W. Deem and Ramdas Pophale) SiO2 
 PCOD9117839
Probable space group: P 21
;
_chemical_formula_sum "Si O2"
_cell_formula_units_Z 14
_cell_length_a 8.834567
_cell_length_b 5.039073
_cell_length_c 26.260367
_cell_angle_alpha 90.000000
_cell_angle_beta 26.912303
_cell_angle_gamma 90.000000
_cell_volume 529.147066
_symmetry_space_group_name_H-M "P 21"
_symmetry_group_IT_number 4
_symmetry_cell_setting 'monoclinic'
loop_
_space_group_symop_operation_xyz
x,y,z
-x,1/2+y,-z
loop_
_atom_site_type_symbol
_atom_site_label
_atom_site_fract_x
_atom_site_fract_y
_atom_site_fract_z
Si Si1 0.157746 0.811790 0.242262
Si Si2 0.443636 0.001083 0.708297
Si Si3 0.734860 0.446252 0.034333
Si Si4 0.496677 0.486596 0.624514
Si Si5 0.708031 0.479905 0.451878
Si Si6 0.599579 0.210657 0.176437
Si Si7 0.677826 0.058105 0.966989
O O1 0.425376 0.645434 0.129849
O O2 0.863079 0.915472 0.293573
O O3 0.992667 0.598783 0.330688
O O4 0.336475 0.029564 0.224861
O O5 0.477983 0.771385 0.656089
O O6 0.540961 0.869848 0.733394
O O7 0.590306 0.268004 0.639119
O O8 0.055175 0.067872 0.834706
O O9 0.779043 0.398562 0.081174
O O10 0.643033 0.173557 0.034061
O O11 0.079375 0.534519 0.904558
O O12 0.744770 0.484628 0.501756
O O13 0.595740 0.186959 0.468962
O O14 0.451178 0.266888 0.005037
#
# Coordination Sequence:
#
# PCOD9117839 Si02
#       7
#     2   2   2   2   2   2   2
#     4  11  27  45  78 110 147 196 261 310 380 450
#     4  12  27  46  71 105 155 198 242 311 392 440
#     4  12  26  45  70 104 153 207 248 305 365 464
#     4  11  25  48  78 110 144 195 253 324 381 440
#     4  10  23  46  77 116 144 184 256 332 380 442
#     4  12  27  45  71 107 158 209 250 299 374 470
#     4  12  27  43  69 108 149 193 256 311 370 450
#
# _framework density 26.457671000000001
#
# number of rings (size 3 to 8) (size 9 to 14) (size 15 to 20)
#    0.000    0.571    1.429    6.000   14.000    0.000 
#    0.000    0.000    3.143    0.000    0.000    0.000 
#    0.000    0.000    0.000    0.000    0.000    0.000 
#
# Total GULP energy -78526.726550 kJ/mol
# GULP energy per Si atom -5609.051896 kJ/mol
# Density = 2.639745 g / cm^3
# Si number density = 26.457671 Si / 1000 Ang^3
#
#
#
# Elastic Constant Matrix: (Units=GPa)
#
#
# Indices 1 2 3 4 5 6 
#
# 1 94.5519 -2.4761 34.9260 0.0000 17.8753 0.0000
# 2 -2.4761 28.0253 26.5947 0.0000 0.2411 0.0000
# 3 34.9260 26.5947 124.3252 -0.0001 14.8758 0.0001
# 4 0.0000 0.0000 -0.0001 46.5617 0.0000 12.3253
# 5 17.8753 0.2411 14.8758 0.0000 47.8421 0.0000
# 6 0.0000 0.0000 0.0001 12.3253 0.0000 70.5639
#
#
#
# Elastic Compliance Matrix: (Units=1/GPa)
#
#
# Indices 1 2 3 4 5 6 
#
# 1 0.012995 0.005323 -0.004368 0.000000 -0.003524 0.000000
# 2 0.005323 0.047330 -0.011792 0.000000 0.001439 0.000000
# 3 -0.004368 -0.011792 0.012038 0.000000 -0.002052 0.000000
# 4 0.000000 0.000000 0.000000 0.022518 0.000000 -0.003933
# 5 -0.003524 0.001439 -0.002052 0.000000 0.022850 0.000000
# 6 0.000000 0.000000 0.000000 -0.003933 0.000000 0.014859
#
#
# Mechanical properties :
#
#
# Convention : Reuss Voigt Hill
#
# Bulk Modulus (GPa) = 19.72755 40.55462 30.14108
# Shear Modulus (GPa) = 29.21244 45.51740 37.36492
#
# Velocity S-wave (km/s) = 3.32643 4.15225 3.76207
# Velocity P-wave (km/s) = 4.71445 6.19271 5.50344
#
# Compressibility (1/GPa) = 0.05069054
#
# Stress axis : x y z
#
# Youngs Moduli (GPa) = 76.95138 21.12819 83.06747
#
# Poissons Ratio (x) = -0.11247 0.36281
# Poissons Ratio (y) = -0.40963 0.97954
# Poissons Ratio (z) = 0.33610 0.24915
#
# Static dielectric constant tensor:
#      x y z
#    x 2.153590 0.000000 -0.031880 
#    y 0.000000 2.084000 0.000000 
#    z -0.031880 0.000000 2.041200 
# 
# From -- ./inp_files/8950.got.cif
#   From: 2010.05.17/outbox.cif.g08.bks.cpg/sg4_5_cif.got.tgz:8950.got - 2010.06.03 18:43:04.
