data_PCOD9117427
_publ_section_title
;
Structure prediction by ZEFSAII (Michael W. Deem and Ramdas Pophale) SiO2 
 PCOD9117427
Probable space group: P 21
;
_chemical_formula_sum "Si O2"
_cell_formula_units_Z 14
_cell_length_a 7.232988
_cell_length_b 8.613018
_cell_length_c 9.291461
_cell_angle_alpha 90.000000
_cell_angle_beta 68.805639
_cell_angle_gamma 90.000000
_cell_volume 539.685134
_symmetry_space_group_name_H-M "P 21"
_symmetry_group_IT_number 4
_symmetry_cell_setting 'monoclinic'
loop_
_space_group_symop_operation_xyz
x,y,z
-x,1/2+y,-z
loop_
_atom_site_type_symbol
_atom_site_label
_atom_site_fract_x
_atom_site_fract_y
_atom_site_fract_z
Si Si1 0.927474 0.558340 0.732915
Si Si2 0.253454 0.579560 0.400092
Si Si3 0.219647 0.407651 0.822730
Si Si4 0.365150 0.247767 0.054476
Si Si5 0.641610 0.429742 0.607489
Si Si6 0.625313 0.445860 0.153602
Si Si7 0.899664 0.578600 0.287479
O O1 0.813063 0.719532 0.781726
O O2 0.750373 0.449153 0.730539
O O3 0.034665 0.518957 0.850946
O O4 0.096740 0.535440 0.566884
O O5 0.333799 0.747488 0.426765
O O6 0.442847 0.473418 0.316269
O O7 0.119095 0.584665 0.292526
O O8 0.413597 0.470763 0.687027
O O9 0.155515 0.244515 0.766725
O O10 0.825824 0.453410 0.189486
O O11 0.291731 0.375757 0.962763
O O12 0.386628 0.093195 0.951505
O O13 0.564100 0.295382 0.080882
O O14 0.758443 0.537298 0.463355
#
# Coordination Sequence:
#
# PCOD9117427 Si02
#       7
#     2   2   2   2   2   2   2
#     4  11  26  44  69 102 142 182 241 294 356 419
#     4  11  23  43  70 100 141 181 237 299 353 415
#     4  11  23  46  66 102 145 188 234 291 357 424
#     4  11  26  46  73 103 141 201 233 294 357 428
#     4  11  22  42  70 104 136 186 231 301 353 418
#     4  11  25  50  68 103 148 185 244 290 360 422
#     4  10  23  39  72 102 135 185 232 295 354 410
#
# _framework density 25.941051999999999
#
# number of rings (size 3 to 8) (size 9 to 14) (size 15 to 20)
#    0.000    1.143    4.286    1.714    4.000    4.571 
#    2.571    1.429    0.000    0.000    0.000    0.000 
#    0.000    0.000    0.000    0.000    0.000    0.000 
#
# Total GULP energy -78378.357671 kJ/mol
# GULP energy per Si atom -5598.454119 kJ/mol
# Density = 2.588201 g / cm^3
# Si number density = 25.941052 Si / 1000 Ang^3
#
#
#
# Elastic Constant Matrix: (Units=GPa)
#
#
# Indices 1 2 3 4 5 6 
#
# 1 142.7790 7.7282 10.2233 0.0000 3.0576 0.0000
# 2 7.7282 42.8093 -5.4415 0.0000 -1.0571 0.0000
# 3 10.2233 -5.4415 91.9492 0.0000 -4.8142 0.0000
# 4 0.0000 0.0000 0.0000 17.8627 0.0000 -4.1571
# 5 3.0576 -1.0571 -4.8142 0.0000 25.5454 0.0000
# 6 0.0000 0.0000 0.0000 -4.1571 0.0000 43.4497
#
#
#
# Elastic Compliance Matrix: (Units=1/GPa)
#
#
# Indices 1 2 3 4 5 6 
#
# 1 0.007173 -0.001441 -0.000940 0.000000 -0.001095 0.000000
# 2 -0.001441 0.023866 0.001650 0.000000 0.001471 0.000000
# 3 -0.000940 0.001650 0.011198 0.000000 0.002291 0.000000
# 4 0.000000 0.000000 0.000000 0.057257 0.000000 0.005478
# 5 -0.001095 0.001471 0.002291 0.000000 0.039770 0.000000
# 6 0.000000 0.000000 0.000000 0.005478 0.000000 0.023539
#
#
# Mechanical properties :
#
#
# Convention : Reuss Voigt Hill
#
# Bulk Modulus (GPa) = 24.52658 33.61752 29.07205
# Shear Modulus (GPa) = 28.11250 35.04007 31.57629
#
# Velocity S-wave (km/s) = 3.29554 3.67925 3.49267
# Velocity P-wave (km/s) = 4.89449 5.57104 5.24369
#
# Compressibility (1/GPa) = 0.04077209
#
# Stress axis : x y z
#
# Youngs Moduli (GPa) = 139.41906 41.90129 89.30428
#
# Poissons Ratio (x) = 0.06040 0.08396
# Poissons Ratio (y) = 0.20096 -0.14732
# Poissons Ratio (z) = 0.13107 -0.06912
#
# Static dielectric constant tensor:
#      x y z
#    x 1.983790 0.000000 0.030100 
#    y 0.000000 2.048910 0.000000 
#    z 0.030100 0.000000 2.137500 
# 
# From -- ./inp_files/10402.got.cif
#   From: 2010.05.17/outbox.cif.g08.bks.cpg/sg4_6_cif.got.tgz:10402.got - 2010.06.03 18:43:04.
