data_PCOD9117042
_publ_section_title
;
Structure prediction by ZEFSAII (Michael W. Deem and Ramdas Pophale) SiO2 
 PCOD9117042
Probable space group: P 21
;
_chemical_formula_sum "Si O2"
_cell_formula_units_Z 14
_cell_length_a 9.841068
_cell_length_b 9.007236
_cell_length_c 11.625301
_cell_angle_alpha 90.000000
_cell_angle_beta 140.601461
_cell_angle_gamma 90.000000
_cell_volume 654.054405
_symmetry_space_group_name_H-M "P 21"
_symmetry_group_IT_number 4
_symmetry_cell_setting 'monoclinic'
loop_
_space_group_symop_operation_xyz
x,y,z
-x,1/2+y,-z
loop_
_atom_site_type_symbol
_atom_site_label
_atom_site_fract_x
_atom_site_fract_y
_atom_site_fract_z
Si Si1 0.900983 0.660990 0.476063
Si Si2 0.986985 0.716979 0.908079
Si Si3 0.759538 0.868528 0.563896
Si Si4 0.545485 0.146279 0.737213
Si Si5 0.991896 0.444256 0.745164
Si Si6 0.255601 0.689289 0.519841
Si Si7 0.669283 0.828246 0.878610
O O1 0.900279 0.817283 0.545001
O O2 0.646152 0.634791 0.293677
O O3 0.983418 0.538706 0.621806
O O4 0.044308 0.666189 0.458697
O O5 0.901839 0.843081 0.767476
O O6 0.943335 0.560724 0.815390
O O7 0.853727 0.733898 0.936716
O O8 0.240017 0.730002 0.088558
O O9 0.573856 0.742151 0.438728
O O10 0.683373 0.034962 0.499368
O O11 0.619617 0.977172 0.771222
O O12 0.815025 0.316878 0.615234
O O13 0.223925 0.378781 0.931668
O O14 0.447757 0.741025 0.728066
#
# Coordination Sequence:
#
# PCOD9117042 Si02
#       7
#     2   2   2   2   2   2   2
#     4   9  20  46  64  88 133 173 215 277 316 389
#     4  10  22  43  63  92 129 172 223 270 323 388
#     4   9  22  37  64  95 123 177 213 269 327 385
#     4   9  21  43  63  87 132 169 216 277 322 376
#     4  10  23  45  63  97 129 172 225 264 331 385
#     4  12  22  40  65  99 134 170 220 264 339 391
#     4  11  24  40  68  92 128 177 216 277 322 388
#
# _framework density 21.404945999999999
#
# number of rings (size 3 to 8) (size 9 to 14) (size 15 to 20)
#    0.857    1.143    1.429    0.857    0.000    9.143 
#    7.714    0.000    0.000    0.000    0.000    0.000 
#    0.000    0.000    0.000    0.000    0.000    0.000 
#
# Total GULP energy -78047.717608 kJ/mol
# GULP energy per Si atom -5574.836972 kJ/mol
# Density = 2.135623 g / cm^3
# Si number density = 21.404946 Si / 1000 Ang^3
#
#
#
# Elastic Constant Matrix: (Units=GPa)
#
#
# Indices 1 2 3 4 5 6 
#
# 1 60.4714 -1.7609 26.1877 0.0000 22.6665 0.0000
# 2 -1.7609 71.7232 36.1786 0.0000 1.4179 0.0000
# 3 26.1877 36.1786 144.4974 0.0000 26.8016 0.0000
# 4 0.0000 0.0000 0.0000 26.9929 0.0000 3.9898
# 5 22.6665 1.4179 26.8016 0.0000 30.1531 0.0000
# 6 0.0000 0.0000 0.0000 3.9898 0.0000 17.1465
#
#
#
# Elastic Compliance Matrix: (Units=1/GPa)
#
#
# Indices 1 2 3 4 5 6 
#
# 1 0.023370 0.001737 -0.001672 0.000000 -0.016162 0.000000
# 2 0.001737 0.016375 -0.004825 0.000000 0.002213 0.000000
# 3 -0.001672 -0.004825 0.009767 0.000000 -0.007197 0.000000
# 4 0.000000 0.000000 0.000000 0.038366 0.000000 -0.008928
# 5 -0.016162 0.002213 -0.007197 0.000000 0.051607 0.000000
# 6 0.000000 0.000000 0.000000 -0.008928 0.000000 0.060398
#
#
# Mechanical properties :
#
#
# Convention : Reuss Voigt Hill
#
# Bulk Modulus (GPa) = 25.00618 44.21141 34.60880
# Shear Modulus (GPa) = 22.44822 29.26428 25.85625
#
# Velocity S-wave (km/s) = 3.24194 3.70154 3.47934
# Velocity P-wave (km/s) = 5.07162 6.24245 5.68724
#
# Compressibility (1/GPa) = 0.03999012
#
# Stress axis : x y z
#
# Youngs Moduli (GPa) = 42.79039 61.06733 102.38881
#
# Poissons Ratio (x) = -0.10606 0.17123
# Poissons Ratio (y) = -0.07432 0.49406
# Poissons Ratio (z) = 0.07156 0.29467
#
# Static dielectric constant tensor:
#      x y z
#    x 1.797190 0.000000 0.002060 
#    y 0.000000 1.815830 0.000000 
#    z 0.002060 0.000000 1.767890 
# 
# From -- ./inp_files/13903.got.cif
#   From: 2010.05.17/outbox.cif.g08.bks.cpg/sg4_7_cif.got.tgz:13903.got - 2010.06.03 18:43:04.
