data_PCOD9117274
_publ_section_title
;
Structure prediction by ZEFSAII (Michael W. Deem and Ramdas Pophale) SiO2 
 PCOD9117274
Probable space group: P 21
;
_chemical_formula_sum "Si O2"
_cell_formula_units_Z 14
_cell_length_a 9.829796
_cell_length_b 7.682917
_cell_length_c 8.462334
_cell_angle_alpha 90.000000
_cell_angle_beta 56.516303
_cell_angle_gamma 90.000000
_cell_volume 533.026948
_symmetry_space_group_name_H-M "P 21"
_symmetry_group_IT_number 4
_symmetry_cell_setting 'monoclinic'
loop_
_space_group_symop_operation_xyz
x,y,z
-x,1/2+y,-z
loop_
_atom_site_type_symbol
_atom_site_label
_atom_site_fract_x
_atom_site_fract_y
_atom_site_fract_z
Si Si1 0.462518 0.263090 0.336546
Si Si2 0.297590 0.960219 0.605637
Si Si3 0.559631 0.410831 0.810818
Si Si4 0.840999 0.947719 0.611674
Si Si5 0.209287 0.275409 0.031986
Si Si6 0.862604 0.313771 0.780067
Si Si7 0.982830 0.072959 0.959201
O O1 0.377211 0.150946 0.532069
O O2 0.616684 0.356439 0.310784
O O3 0.329716 0.400517 0.362088
O O4 0.496163 0.110812 0.186687
O O5 0.109201 0.986989 0.755097
O O6 0.335649 0.871407 0.414122
O O7 0.404942 0.284988 0.914871
O O8 0.687053 0.404688 0.872647
O O9 0.990536 0.916614 0.397951
O O10 0.843017 0.134776 0.691732
O O11 0.846869 0.813144 0.754187
O O12 0.098201 0.123318 0.031112
O O13 0.164271 0.437193 0.942173
O O14 0.914240 0.245655 0.918875
#
# Coordination Sequence:
#
# PCOD9117274 Si02
#       7
#     2   2   2   2   2   2   2
#     4  10  23  39  73 102 132 178 236 282 339 403
#     4  10  22  45  69 104 132 180 238 276 337 422
#     4  10  24  43  69 100 135 178 227 284 348 402
#     4  11  24  44  69 102 137 184 231 285 350 407
#     4  11  27  45  65 102 142 177 228 290 361 399
#     4  11  23  45  72  97 140 180 241 281 335 432
#     4  11  25  47  67 101 138 185 229 284 350 415
#
# _framework density 26.265090000000001
#
# number of rings (size 3 to 8) (size 9 to 14) (size 15 to 20)
#    0.857    0.571    1.429    3.429    6.000    4.571 
#    0.000    0.000    0.000    0.000    0.000    0.000 
#    0.000    0.000    0.000    0.000    0.000    0.000 
#
# Total GULP energy -78428.385484 kJ/mol
# GULP energy per Si atom -5602.027535 kJ/mol
# Density = 2.620531 g / cm^3
# Si number density = 26.265090 Si / 1000 Ang^3
#
#
#
# Elastic Constant Matrix: (Units=GPa)
#
#
# Indices 1 2 3 4 5 6 
#
# 1 187.6841 19.1544 36.8711 0.0000 -5.2043 0.0000
# 2 19.1544 71.8807 7.0012 0.0000 -5.6852 0.0000
# 3 36.8711 7.0012 88.0762 0.0000 -7.1665 0.0000
# 4 0.0000 0.0000 0.0000 30.5541 0.0000 6.8575
# 5 -5.2043 -5.6852 -7.1665 0.0000 36.2069 0.0000
# 6 0.0000 0.0000 0.0000 6.8575 0.0000 63.2791
#
#
#
# Elastic Compliance Matrix: (Units=1/GPa)
#
#
# Indices 1 2 3 4 5 6 
#
# 1 0.005934 -0.001337 -0.002363 0.000000 0.000175 0.000000
# 2 -0.001337 0.014468 -0.000428 0.000000 0.001995 0.000000
# 3 -0.002363 -0.000428 0.012546 0.000000 0.002076 0.000000
# 4 0.000000 0.000000 0.000000 0.033545 0.000000 -0.003635
# 5 0.000175 0.001995 0.002076 0.000000 0.028368 0.000000
# 6 0.000000 0.000000 0.000000 -0.003635 0.000000 0.016197
#
#
# Mechanical properties :
#
#
# Convention : Reuss Voigt Hill
#
# Bulk Modulus (GPa) = 40.50147 52.63271 46.56709
# Shear Modulus (GPa) = 39.20183 44.98230 42.09206
#
# Velocity S-wave (km/s) = 3.86754 4.14288 4.00757
# Velocity P-wave (km/s) = 5.94958 6.55493 6.25958
#
# Compressibility (1/GPa) = 0.02469046
#
# Stress axis : x y z
#
# Youngs Moduli (GPa) = 168.52791 69.11947 79.70545
#
# Poissons Ratio (x) = 0.09242 0.18838
# Poissons Ratio (y) = 0.22534 0.03411
# Poissons Ratio (z) = 0.39831 0.02958
#
# Static dielectric constant tensor:
#      x y z
#    x 2.017070 0.000000 0.041640 
#    y 0.000000 2.133510 0.000000 
#    z 0.041640 0.000000 2.017290 
# 
# From -- ./inp_files/5768.got.cif
#   From: 2010.05.17/outbox.cif.g08.bks.cpg/sg4_3_cif.got.tgz:5768.got - 2010.06.03 18:43:04.
