data_PCOD9117253
_publ_section_title
;
Structure prediction by ZEFSAII (Michael W. Deem and Ramdas Pophale) SiO2 
 PCOD9117253
Probable space group: P 21
;
_chemical_formula_sum "Si O2"
_cell_formula_units_Z 14
_cell_length_a 12.022055
_cell_length_b 10.470761
_cell_length_c 5.514245
_cell_angle_alpha 90.000000
_cell_angle_beta 69.719252
_cell_angle_gamma 90.000000
_cell_volume 651.101026
_symmetry_space_group_name_H-M "P 21"
_symmetry_group_IT_number 4
_symmetry_cell_setting 'monoclinic'
loop_
_space_group_symop_operation_xyz
x,y,z
-x,1/2+y,-z
loop_
_atom_site_type_symbol
_atom_site_label
_atom_site_fract_x
_atom_site_fract_y
_atom_site_fract_z
Si Si1 0.292278 0.197050 0.547521
Si Si2 0.694581 0.958666 0.228958
Si Si3 0.423519 0.412788 0.190852
Si Si4 0.892918 0.355311 0.207048
Si Si5 0.879346 0.535830 0.609683
Si Si6 0.946145 0.076399 0.138018
Si Si7 0.319619 0.970308 0.863179
O O1 0.272951 0.308742 0.757748
O O2 0.372104 0.269978 0.285445
O O3 0.169354 0.143951 0.534215
O O4 0.350075 0.074604 0.633212
O O5 0.618259 0.985288 0.530828
O O6 0.813925 0.037876 0.169127
O O7 0.630185 0.967167 0.018242
O O8 0.565164 0.419926 0.088436
O O9 0.879529 0.393425 0.497798
O O10 0.956925 0.226523 0.087488
O O11 0.760488 0.361113 0.199862
O O12 0.969184 0.475871 0.058244
O O13 0.008762 0.561378 0.618857
O O14 0.774859 0.536364 0.887381
#
# Coordination Sequence:
#
# PCOD9117253 Si02
#       7
#     2   2   2   2   2   2   2
#     4   9  22  41  69 101 135 187 233 292 359 427
#     4  10  25  44  68 106 138 188 235 292 363 422
#     4  10  24  43  72 101 145 187 233 297 349 440
#     4  10  26  43  70 101 143 189 243 300 361 431
#     4  10  23  41  72  98 143 189 238 297 366 423
#     4  11  26  43  70 104 143 188 241 304 357 438
#     4  10  22  45  67 105 137 186 239 296 359 425
#
# _framework density 21.502041999999999
#
# number of rings (size 3 to 8) (size 9 to 14) (size 15 to 20)
#    0.857    1.143    0.000    0.857   16.000    2.286 
#    2.571    0.000    0.000    0.000    0.000    0.000 
#    0.000    0.000    0.000    0.000    0.000    0.000 
#
# Total GULP energy -77962.542580 kJ/mol
# GULP energy per Si atom -5568.753041 kJ/mol
# Density = 2.145310 g / cm^3
# Si number density = 21.502042 Si / 1000 Ang^3
#
#
#
# Elastic Constant Matrix: (Units=GPa)
#
#
# Indices 1 2 3 4 5 6 
#
# 1 150.1595 54.4679 49.5468 0.0000 25.8084 0.0000
# 2 54.4679 78.1195 17.9941 0.0000 5.8302 0.0000
# 3 49.5468 17.9941 73.8730 0.0000 18.1578 0.0000
# 4 0.0000 0.0000 0.0000 13.0217 0.0000 -4.4252
# 5 25.8084 5.8302 18.1578 0.0000 31.3737 0.0000
# 6 0.0000 0.0000 0.0000 -4.4252 0.0000 16.7078
#
#
#
# Elastic Compliance Matrix: (Units=1/GPa)
#
#
# Indices 1 2 3 4 5 6 
#
# 1 0.011569 -0.006547 -0.004809 0.000000 -0.005517 0.000000
# 2 -0.006547 0.017281 -0.000411 0.000000 0.002412 0.000000
# 3 -0.004809 -0.000411 0.018503 0.000000 -0.006677 0.000000
# 4 0.000000 0.000000 0.000000 0.084391 0.000000 0.022352
# 5 -0.005517 0.002412 -0.006677 0.000000 0.039828 0.000000
# 6 0.000000 0.000000 0.000000 0.022352 0.000000 0.065772
#
#
# Mechanical properties :
#
#
# Convention : Reuss Voigt Hill
#
# Bulk Modulus (GPa) = 41.98259 60.68552 51.33405
# Shear Modulus (GPa) = 18.59991 24.23020 21.41505
#
# Velocity S-wave (km/s) = 2.94433 3.36054 3.15930
# Velocity P-wave (km/s) = 5.57908 6.58347 6.10197
#
# Compressibility (1/GPa) = 0.02381940
#
# Stress axis : x y z
#
# Youngs Moduli (GPa) = 86.43423 57.86867 54.04468
#
# Poissons Ratio (x) = 0.37888 0.25989
# Poissons Ratio (y) = 0.56591 0.02221
# Poissons Ratio (z) = 0.41564 0.02378
#
# Static dielectric constant tensor:
#      x y z
#    x 1.765430 0.000000 0.057010 
#    y 0.000000 1.769790 0.000000 
#    z 0.057010 0.000000 1.947460 
# 
# From -- ./inp_files/2697.got.cif
#   From: 2010.05.17/outbox.cif.g08.bks.cpg/sg4_2_cif.got.tgz:2697.got - 2010.06.03 18:43:04.
