data_PCOD9117071
_publ_section_title
;
Structure prediction by ZEFSAII (Michael W. Deem and Ramdas Pophale) SiO2 
 PCOD9117071
Probable space group: P 21
;
_chemical_formula_sum "Si O2"
_cell_formula_units_Z 16
_cell_length_a 6.012086
_cell_length_b 13.273632
_cell_length_c 8.733226
_cell_angle_alpha 90.000000
_cell_angle_beta 60.965475
_cell_angle_gamma 90.000000
_cell_volume 609.345702
_symmetry_space_group_name_H-M "P 21"
_symmetry_group_IT_number 4
_symmetry_cell_setting 'monoclinic'
loop_
_space_group_symop_operation_xyz
x,y,z
-x,1/2+y,-z
loop_
_atom_site_type_symbol
_atom_site_label
_atom_site_fract_x
_atom_site_fract_y
_atom_site_fract_z
Si Si1 0.639013 0.764810 0.431656
Si Si2 0.365549 0.847984 0.062167
Si Si3 0.947966 0.610536 0.488740
Si Si4 0.478401 0.466237 0.679386
Si Si5 0.967757 0.491587 0.980342
Si Si6 0.663977 0.684437 0.080665
Si Si7 0.152573 0.437811 0.253486
Si Si8 0.093608 0.739448 0.713872
O O1 0.889707 0.712497 0.415109
O O2 0.615746 0.884329 0.412884
O O3 0.614507 0.713394 0.272547
O O4 0.397219 0.738870 0.620061
O O5 0.422102 0.903288 0.205202
O O6 0.428745 0.730751 0.064693
O O7 0.105682 0.888539 0.081060
O O8 0.577424 0.888861 0.873325
O O9 0.698601 0.540858 0.555521
O O10 0.162842 0.534330 0.358560
O O11 0.999590 0.647114 0.641612
O O12 0.232412 0.526733 0.819313
O O13 0.739369 0.569408 0.035909
O O14 0.025385 0.476280 0.138492
O O15 0.916161 0.738651 0.923496
O O16 0.976977 0.342507 0.355260
#
# Coordination Sequence:
#
# PCOD9117071 Si02
#       8
#     2   2   2   2   2   2   2   2
#     4  11  24  45  69 104 139 186 238 292 349 434
#     4   9  22  41  67 102 134 187 234 294 351 419
#     4  12  24  44  70 103 138 190 227 293 360 414
#     4  10  23  44  68 103 144 179 247 287 356 431
#     4  11  21  44  74  99 142 192 228 305 353 420
#     4  10  22  43  67 101 140 182 241 282 356 424
#     4  10  23  44  67 100 139 179 241 290 355 426
#     4  11  25  45  68 102 146 179 240 299 344 426
#
# _framework density 26.257674999999999
#
# number of rings (size 3 to 8) (size 9 to 14) (size 15 to 20)
#    0.000    1.500    2.500    2.250    1.750    4.000 
#    4.500    7.500    0.000    0.000    0.000    0.000 
#    0.000    0.000    0.000    0.000    0.000    0.000 
#
# Total GULP energy -89613.199692 kJ/mol
# GULP energy per Si atom -5600.824981 kJ/mol
# Density = 2.619791 g / cm^3
# Si number density = 26.257675 Si / 1000 Ang^3
#
#
#
# Elastic Constant Matrix: (Units=GPa)
#
#
# Indices 1 2 3 4 5 6 
#
# 1 43.4200 22.6216 24.8635 0.0000 -4.8003 0.0000
# 2 22.6216 114.3970 17.4264 0.0000 11.1045 0.0000
# 3 24.8635 17.4264 80.8480 0.0000 -13.6064 0.0000
# 4 0.0000 0.0000 0.0000 38.9680 0.0000 3.7388
# 5 -4.8003 11.1045 -13.6064 0.0000 42.0270 0.0000
# 6 0.0000 0.0000 0.0000 3.7388 0.0000 49.0757
#
#
#
# Elastic Compliance Matrix: (Units=1/GPa)
#
#
# Indices 1 2 3 4 5 6 
#
# 1 0.030420 -0.005032 -0.007892 0.000000 0.002249 0.000000
# 2 -0.005032 0.010295 -0.001297 0.000000 -0.003715 0.000000
# 3 -0.007892 -0.001297 0.015845 0.000000 0.004571 0.000000
# 4 0.000000 0.000000 0.000000 0.025851 0.000000 -0.001969
# 5 0.002249 -0.003715 0.004571 0.000000 0.026512 0.000000
# 6 0.000000 0.000000 0.000000 -0.001969 0.000000 0.020527
#
#
# Mechanical properties :
#
#
# Convention : Reuss Voigt Hill
#
# Bulk Modulus (GPa) = 35.56369 40.94313 38.25341
# Shear Modulus (GPa) = 29.89290 37.59769 33.74529
#
# Velocity S-wave (km/s) = 3.37774 3.78812 3.58880
# Velocity P-wave (km/s) = 5.36523 5.89574 5.63673
#
# Compressibility (1/GPa) = 0.02811857
#
# Stress axis : x y z
#
# Youngs Moduli (GPa) = 32.87281 97.13852 63.11218
#
# Poissons Ratio (x) = 0.48876 0.49810
# Poissons Ratio (y) = 0.16540 0.08184
# Poissons Ratio (z) = 0.25944 0.12596
#
# Static dielectric constant tensor:
#      x y z
#    x 1.998260 0.000000 -0.026670 
#    y 0.000000 2.084670 0.000000 
#    z -0.026670 0.000000 2.048720 
# 
# From -- ./inp_files/4676.got.cif
#   From: 2010.05.17/outbox.cif.g08.bks.cpg/sg4_3_cif.got.tgz:4676.got - 2010.06.03 18:43:04.
