data_PCOD9117307
_publ_section_title
;
Structure prediction by ZEFSAII (Michael W. Deem and Ramdas Pophale) SiO2 
 PCOD9117307
Probable space group: P 21
;
_chemical_formula_sum "Si O2"
_cell_formula_units_Z 16
_cell_length_a 16.513974
_cell_length_b 5.542405
_cell_length_c 19.066670
_cell_angle_alpha 90.000000
_cell_angle_beta 22.422250
_cell_angle_gamma 90.000000
_cell_volume 665.639136
_symmetry_space_group_name_H-M "P 21"
_symmetry_group_IT_number 4
_symmetry_cell_setting 'monoclinic'
loop_
_space_group_symop_operation_xyz
x,y,z
-x,1/2+y,-z
loop_
_atom_site_type_symbol
_atom_site_label
_atom_site_fract_x
_atom_site_fract_y
_atom_site_fract_z
Si Si1 0.923203 0.189190 0.500940
Si Si2 0.153624 0.978264 0.575460
Si Si3 0.675338 0.079586 0.968595
Si Si4 0.397004 0.943055 0.604844
Si Si5 0.550924 0.696331 0.290648
Si Si6 0.703514 0.383341 0.807453
Si Si7 0.038091 0.467768 0.011591
Si Si8 0.584833 0.845224 0.705527
O O1 0.865923 0.393444 0.490401
O O2 0.857228 0.234616 0.633067
O O3 0.773424 0.970293 0.597086
O O4 0.171510 0.135725 0.293970
O O5 0.311366 0.794786 0.487292
O O6 0.291423 0.219815 0.457932
O O7 0.914396 0.998482 0.793522
O O8 0.693632 0.285217 0.893597
O O9 0.551822 0.173519 0.135498
O O10 0.519418 0.891825 0.054305
O O11 0.482557 0.671397 0.526849
O O12 0.149790 0.956367 0.781046
O O13 0.405462 0.021922 0.679262
O O14 0.564585 0.550573 0.207535
O O15 0.724798 0.908685 0.153503
O O16 0.017194 0.731642 0.992892
#
# Coordination Sequence:
#
# PCOD9117307 Si02
#       8
#     2   2   2   2   2   2   2   2
#     4  11  22  43  66  97 133 187 227 308 369 428
#     4  11  24  47  67  98 148 181 239 291 364 441
#     4  12  24  42  69 101 133 184 247 304 348 443
#     4  11  24  47  77 118 151 180 246 307 352 434
#     4  10  26  47  75  96 146 200 220 293 370 429
#     4  12  22  40  70  97 133 179 247 301 375 408
#     4  10  22  45  77 108 147 191 241 287 357 434
#     4  11  24  47  67  97 145 184 239 287 369 441
#
# _framework density 24.037047000000001
#
# number of rings (size 3 to 8) (size 9 to 14) (size 15 to 20)
#    0.000    1.000    2.500    4.500    5.250    0.000 
#    4.500    0.000    0.000    0.000    0.000    0.000 
#    0.000    0.000    0.000    0.000    0.000    0.000 
#
# Total GULP energy -89453.101542 kJ/mol
# GULP energy per Si atom -5590.818846 kJ/mol
# Density = 2.398234 g / cm^3
# Si number density = 24.037047 Si / 1000 Ang^3
#
#
#
# Elastic Constant Matrix: (Units=GPa)
#
#
# Indices 1 2 3 4 5 6 
#
# 1 62.6006 8.3697 26.8929 0.0000 -22.8867 0.0000
# 2 8.3697 58.7883 14.9340 0.0000 -10.5662 0.0000
# 3 26.8929 14.9340 149.0344 0.0000 -21.0695 0.0000
# 4 0.0000 0.0000 0.0000 53.9386 0.0000 -0.7856
# 5 -22.8867 -10.5662 -21.0695 0.0000 34.0878 0.0000
# 6 0.0000 0.0000 0.0000 -0.7856 0.0000 44.2937
#
#
#
# Elastic Compliance Matrix: (Units=1/GPa)
#
#
# Indices 1 2 3 4 5 6 
#
# 1 0.021722 -0.000193 -0.002024 0.000000 0.013274 0.000000
# 2 -0.000193 0.018186 -0.001105 0.000000 0.004824 0.000000
# 3 -0.002024 -0.001105 0.007610 0.000000 0.003002 0.000000
# 4 0.000000 0.000000 0.000000 0.018544 0.000000 0.000329
# 5 0.013274 0.004824 0.003002 0.000000 0.041599 0.000000
# 6 0.000000 0.000000 0.000000 0.000329 0.000000 0.022582
#
#
# Mechanical properties :
#
#
# Convention : Reuss Voigt Hill
#
# Bulk Modulus (GPa) = 24.46540 41.20182 32.83361
# Shear Modulus (GPa) = 33.21967 41.14579 37.18273
#
# Velocity S-wave (km/s) = 3.72159 4.14184 3.93732
# Velocity P-wave (km/s) = 5.35418 6.32861 5.86168
#
# Compressibility (1/GPa) = 0.04087405
#
# Stress axis : x y z
#
# Youngs Moduli (GPa) = 46.03537 54.98876 131.40094
#
# Poissons Ratio (x) = 0.01060 0.26594
# Poissons Ratio (y) = 0.00887 0.14526
# Poissons Ratio (z) = 0.09317 0.06079
#
# Static dielectric constant tensor:
#      x y z
#    x 1.943770 0.000000 -0.025370 
#    y 0.000000 2.049720 0.000000 
#    z -0.025370 0.000000 1.935900 
# 
# From -- ./inp_files/15872.got.cif
#   From: 2010.05.17/outbox.cif.g08.bks.cpg/sg4_8_cif.got.tgz:15872.got - 2010.06.03 18:43:04.
