data_PCOD9117751
_publ_section_title
;
Structure prediction by ZEFSAII (Michael W. Deem and Ramdas Pophale) SiO2 
 PCOD9117751
Probable space group: P 21
;
_chemical_formula_sum "Si O2"
_cell_formula_units_Z 10
_cell_length_a 18.139112
_cell_length_b 4.894240
_cell_length_c 13.154453
_cell_angle_alpha 90.000000
_cell_angle_beta 159.961011
_cell_angle_gamma 90.000000
_cell_volume 400.162945
_symmetry_space_group_name_H-M "P 21"
_symmetry_group_IT_number 4
_symmetry_cell_setting 'monoclinic'
loop_
_space_group_symop_operation_xyz
x,y,z
-x,1/2+y,-z
loop_
_atom_site_type_symbol
_atom_site_label
_atom_site_fract_x
_atom_site_fract_y
_atom_site_fract_z
Si Si1 0.464049 0.745410 0.884557
Si Si2 0.894140 0.813303 0.813789
Si Si3 0.122830 0.427113 0.700349
Si Si4 0.002317 0.970709 0.237693
Si Si5 0.618508 0.672675 0.623122
O O1 0.224569 0.806943 0.537671
O O2 0.493589 0.438642 0.962362
O O3 0.643093 0.828272 0.033118
O O4 0.933093 0.725776 0.749723
O O5 0.666993 0.725085 0.567535
O O6 0.941310 0.120635 0.908132
O O7 0.032788 0.664831 0.511400
O O8 0.093346 0.539257 0.775967
O O9 0.817212 0.795795 0.943232
O O10 0.579066 0.359450 0.597348
#
# Coordination Sequence:
#
# PCOD9117751 Si02
#       5
#     2   2   2   2   2
#     4  12  25  47  70 104 141 184 232 286 344 419
#     4  10  23  45  68  98 138 180 232 286 341 415
#     4  12  25  47  71 104 141 180 237 287 337 423
#     4  11  26  47  75  98 147 187 227 287 364 392
#     4  11  25  46  70 106 139 181 242 290 338 419
#
# _framework density 24.989820000000002
#
# number of rings (size 3 to 8) (size 9 to 14) (size 15 to 20)
#    0.000    0.800    4.000    2.400    2.800    9.600 
#    3.600    0.000    0.000    0.000    0.000    0.000 
#    0.000    0.000    0.000    0.000    0.000    0.000 
#
# Total GULP energy -56034.951988 kJ/mol
# GULP energy per Si atom -5603.495199 kJ/mol
# Density = 2.493294 g / cm^3
# Si number density = 24.989820 Si / 1000 Ang^3
#
#
#
# Elastic Constant Matrix: (Units=GPa)
#
#
# Indices 1 2 3 4 5 6 
#
# 1 187.9465 0.0455 18.6271 0.0000 13.1979 0.0000
# 2 0.0455 69.6182 3.4513 0.0000 2.2577 0.0000
# 3 18.6271 3.4513 103.9840 0.0000 10.6033 0.0000
# 4 0.0000 0.0000 0.0000 31.9687 0.0000 8.1995
# 5 13.1979 2.2577 10.6033 0.0000 34.2321 0.0000
# 6 0.0000 0.0000 0.0000 8.1995 0.0000 43.5605
#
#
#
# Elastic Compliance Matrix: (Units=1/GPa)
#
#
# Indices 1 2 3 4 5 6 
#
# 1 0.005533 0.000097 -0.000802 0.000000 -0.001891 0.000000
# 2 0.000097 0.014412 -0.000408 0.000000 -0.000862 0.000000
# 3 -0.000802 -0.000408 0.010057 0.000000 -0.002779 0.000000
# 4 0.000000 0.000000 0.000000 0.032867 0.000000 -0.006187
# 5 -0.001891 -0.000862 -0.002779 0.000000 0.030859 0.000000
# 6 0.000000 0.000000 0.000000 -0.006187 0.000000 0.024121
#
#
# Mechanical properties :
#
#
# Convention : Reuss Voigt Hill
#
# Bulk Modulus (GPa) = 35.99911 45.08851 40.54381
# Shear Modulus (GPa) = 38.65969 44.58059 41.62014
#
# Velocity S-wave (km/s) = 3.93748 4.22827 4.08546
# Velocity P-wave (km/s) = 5.92524 6.47453 6.20597
#
# Compressibility (1/GPa) = 0.02777846
#
# Stress axis : x y z
#
# Youngs Moduli (GPa) = 180.73748 69.38578 99.42933
#
# Poissons Ratio (x) = -0.00676 0.07969
# Poissons Ratio (y) = -0.01761 0.04056
# Poissons Ratio (z) = 0.14486 0.02831
#
# Static dielectric constant tensor:
#      x y z
#    x 2.065810 0.000000 0.005920 
#    y 0.000000 1.909830 0.000000 
#    z 0.005920 0.000000 1.981480 
# 
# From -- ./inp_files/8546.got.cif
#   From: 2010.05.17/outbox.cif.g08.bks.cpg/sg4_5_cif.got.tgz:8546.got - 2010.06.03 18:43:04.
