data_PCOD9117357
_publ_section_title
;
Structure prediction by ZEFSAII (Michael W. Deem and Ramdas Pophale) SiO2 
 PCOD9117357
Probable space group: P 21
;
_chemical_formula_sum "Si O2"
_cell_formula_units_Z 14
_cell_length_a 8.485186
_cell_length_b 12.727872
_cell_length_c 5.129033
_cell_angle_alpha 90.000000
_cell_angle_beta 85.159012
_cell_angle_gamma 90.000000
_cell_volume 551.951159
_symmetry_space_group_name_H-M "P 21"
_symmetry_group_IT_number 4
_symmetry_cell_setting 'monoclinic'
loop_
_space_group_symop_operation_xyz
x,y,z
-x,1/2+y,-z
loop_
_atom_site_type_symbol
_atom_site_label
_atom_site_fract_x
_atom_site_fract_y
_atom_site_fract_z
Si Si1 0.809630 0.830380 0.218931
Si Si2 0.504555 0.321277 0.056953
Si Si3 0.115936 0.537762 0.510617
Si Si4 0.666188 0.526666 0.086307
Si Si5 0.225887 0.141921 0.412766
Si Si6 0.306199 0.747266 0.474179
Si Si7 0.057556 0.879451 0.826894
O O1 0.665573 0.809643 0.047665
O O2 0.792133 0.760135 0.479690
O O3 0.824179 0.952134 0.291394
O O4 0.967712 0.802098 0.035452
O O5 0.522474 0.446283 0.105990
O O6 0.621773 0.285102 0.807945
O O7 0.563554 0.265571 0.314656
O O8 0.244289 0.628723 0.455687
O O9 0.064876 0.462161 0.279282
O O10 0.951021 0.596244 0.601541
O O11 0.673997 0.607962 0.851092
O O12 0.692492 0.582672 0.355972
O O13 0.816140 0.449049 0.036000
O O14 0.159065 0.819282 0.593249
#
# Coordination Sequence:
#
# PCOD9117357 Si02
#       7
#     2   2   2   2   2   2   2
#     4  12  28  43  75 108 147 180 250 304 344 430
#     4  11  27  48  70 106 147 192 230 292 365 430
#     4  11  25  44  74 107 141 185 247 296 357 417
#     4  10  22  47  69  96 142 189 227 282 366 423
#     4  11  25  42  73 103 138 185 238 294 351 411
#     4  11  27  48  75  98 151 192 232 287 370 431
#     4  10  24  46  76 106 138 187 248 301 347 424
#
# _framework density 25.364560999999998
#
# number of rings (size 3 to 8) (size 9 to 14) (size 15 to 20)
#    0.000    1.143    1.429    3.429   14.000    2.286 
#    0.000    0.000    0.000    0.000    0.000    0.000 
#    0.000    0.000    0.000    0.000    0.000    0.000 
#
# Total GULP energy -78479.809991 kJ/mol
# GULP energy per Si atom -5605.700714 kJ/mol
# Density = 2.530683 g / cm^3
# Si number density = 25.364561 Si / 1000 Ang^3
#
#
#
# Elastic Constant Matrix: (Units=GPa)
#
#
# Indices 1 2 3 4 5 6 
#
# 1 50.6118 43.5925 36.0883 0.0000 11.5815 0.0000
# 2 43.5925 145.8078 43.3288 0.0000 14.8535 0.0000
# 3 36.0883 43.3288 124.3274 0.0000 17.0398 0.0000
# 4 0.0000 0.0000 0.0000 48.5109 0.0000 5.8756
# 5 11.5815 14.8535 17.0398 0.0000 39.0676 0.0000
# 6 0.0000 0.0000 0.0000 5.8756 0.0000 33.3248
#
#
#
# Elastic Compliance Matrix: (Units=1/GPa)
#
#
# Indices 1 2 3 4 5 6 
#
# 1 0.031045 -0.007102 -0.006004 0.000000 -0.003884 0.000000
# 2 -0.007102 0.009404 -0.001079 0.000000 -0.001000 0.000000
# 3 -0.006004 -0.001079 0.010489 0.000000 -0.002385 0.000000
# 4 0.000000 0.000000 0.000000 0.021064 0.000000 -0.003714
# 5 -0.003884 -0.001000 -0.002385 0.000000 0.028168 0.000000
# 6 0.000000 0.000000 0.000000 -0.003714 0.000000 0.030662
#
#
# Mechanical properties :
#
#
# Convention : Reuss Voigt Hill
#
# Bulk Modulus (GPa) = 44.30938 62.97400 53.64169
# Shear Modulus (GPa) = 29.98956 37.36316 33.67636
#
# Velocity S-wave (km/s) = 3.44225 3.84219 3.64771
# Velocity P-wave (km/s) = 5.77111 6.67568 6.23981
#
# Compressibility (1/GPa) = 0.02256858
#
# Stress axis : x y z
#
# Youngs Moduli (GPa) = 32.21129 106.33764 95.33862
#
# Poissons Ratio (x) = 0.75518 0.57241
# Poissons Ratio (y) = 0.22876 0.10287
# Poissons Ratio (z) = 0.19340 0.11473
#
# Static dielectric constant tensor:
#      x y z
#    x 2.027950 0.000000 -0.020740 
#    y 0.000000 2.006650 0.000000 
#    z -0.020740 0.000000 1.970880 
# 
# From -- ./inp_files/1435.got.cif
#   From: 2010.05.17/outbox.cif.g08.bks.cpg/sg4_1_cif.got.tgz:1435.got - 2010.06.03 18:43:04.
