data_PCOD9117285
_publ_section_title
;
Structure prediction by ZEFSAII (Michael W. Deem and Ramdas Pophale) SiO2 
 PCOD9117285
Probable space group: P 21
;
_chemical_formula_sum "Si O2"
_cell_formula_units_Z 14
_cell_length_a 10.638512
_cell_length_b 8.445227
_cell_length_c 15.009283
_cell_angle_alpha 90.000000
_cell_angle_beta 153.522925
_cell_angle_gamma 90.000000
_cell_volume 601.216511
_symmetry_space_group_name_H-M "P 21"
_symmetry_group_IT_number 4
_symmetry_cell_setting 'monoclinic'
loop_
_space_group_symop_operation_xyz
x,y,z
-x,1/2+y,-z
loop_
_atom_site_type_symbol
_atom_site_label
_atom_site_fract_x
_atom_site_fract_y
_atom_site_fract_z
Si Si1 0.888338 0.682970 0.383104
Si Si2 0.917146 0.095132 0.298258
Si Si3 0.509671 0.705407 0.419747
Si Si4 0.552457 0.403013 0.090958
Si Si5 0.595448 0.382788 0.830576
Si Si6 0.771558 0.886434 0.746913
Si Si7 0.503031 0.756367 0.754608
O O1 0.761199 0.551420 0.237571
O O2 0.644839 0.797670 0.264517
O O3 0.999243 0.599126 0.544641
O O4 0.167944 0.763324 0.521564
O O5 0.734442 0.256875 0.170368
O O6 0.205244 0.110841 0.426296
O O7 0.711299 0.957511 0.134544
O O8 0.437019 0.816568 0.290193
O O9 0.577565 0.806320 0.549625
O O10 0.270967 0.574919 0.283532
O O11 0.449731 0.352048 0.124314
O O12 0.567178 0.571663 0.810411
O O13 0.904325 0.341776 0.062234
O O14 0.678029 0.827099 0.784745
#
# Coordination Sequence:
#
# PCOD9117285 Si02
#       7
#     2   2   2   2   2   2   2
#     4  10  22  45  70  96 132 170 219 275 326 384
#     4  10  24  42  65  99 133 174 218 268 326 386
#     4  11  25  43  66  96 133 173 220 272 323 387
#     4  11  24  41  67  98 132 172 217 271 329 389
#     4  11  24  45  69  96 132 174 220 270 326 387
#     4  12  26  44  68  97 134 177 219 268 326 389
#     4  11  23  42  69  98 130 174 219 270 330 384
#
# _framework density 23.286123
#
# number of rings (size 3 to 8) (size 9 to 14) (size 15 to 20)
#    0.000    1.143    0.000    6.857    0.000   12.571 
#    0.000    2.857    0.000    0.000    0.000    0.000 
#    0.000    0.000    0.000    0.000    0.000    0.000 
#
# Total GULP energy -78510.521289 kJ/mol
# GULP energy per Si atom -5607.894378 kJ/mol
# Density = 2.323312 g / cm^3
# Si number density = 23.286123 Si / 1000 Ang^3
#
#
#
# Elastic Constant Matrix: (Units=GPa)
#
#
# Indices 1 2 3 4 5 6 
#
# 1 68.4475 7.1647 22.1814 0.0000 -3.8149 0.0000
# 2 7.1647 80.5671 28.1494 0.0000 -0.9022 0.0000
# 3 22.1814 28.1494 111.1435 0.0000 -4.8993 0.0000
# 4 0.0000 0.0000 0.0000 48.9848 0.0000 -3.2479
# 5 -3.8149 -0.9022 -4.8993 0.0000 31.7706 0.0000
# 6 0.0000 0.0000 0.0000 -3.2479 0.0000 38.3404
#
#
#
# Elastic Compliance Matrix: (Units=1/GPa)
#
#
# Indices 1 2 3 4 5 6 
#
# 1 0.015691 -0.000337 -0.002984 0.000000 0.001414 0.000000
# 2 -0.000337 0.013625 -0.003391 0.000000 -0.000177 0.000000
# 3 -0.002984 -0.003391 0.010503 0.000000 0.001165 0.000000
# 4 0.000000 0.000000 0.000000 0.020530 0.000000 0.001739
# 5 0.001414 -0.000177 0.001165 0.000000 0.031820 0.000000
# 6 0.000000 0.000000 0.000000 0.001739 0.000000 0.026229
#
#
# Mechanical properties :
#
#
# Convention : Reuss Voigt Hill
#
# Bulk Modulus (GPa) = 37.88652 41.68324 39.78488
# Shear Modulus (GPa) = 35.55667 37.33000 36.44334
#
# Velocity S-wave (km/s) = 3.91186 4.00822 3.96033
# Velocity P-wave (km/s) = 6.05878 6.27379 6.16722
#
# Compressibility (1/GPa) = 0.02639461
#
# Stress axis : x y z
#
# Youngs Moduli (GPa) = 63.73176 73.39498 95.20964
#
# Poissons Ratio (x) = 0.02474 0.28408
# Poissons Ratio (y) = 0.02148 0.32289
# Poissons Ratio (z) = 0.19016 0.24891
#
# Static dielectric constant tensor:
#      x y z
#    x 1.826620 0.000000 -0.001600 
#    y 0.000000 1.882980 0.000000 
#    z -0.001600 0.000000 1.864570 
# 
# From -- ./inp_files/15139.got.cif
#   From: 2010.05.17/outbox.cif.g08.bks.cpg/sg4_8_cif.got.tgz:15139.got - 2010.06.03 18:43:04.
