data_PCOD9117331
_publ_section_title
;
Structure prediction by ZEFSAII (Michael W. Deem and Ramdas Pophale) SiO2 
 PCOD9117331
Probable space group: P 21
;
_chemical_formula_sum "Si O2"
_cell_formula_units_Z 14
_cell_length_a 6.869706
_cell_length_b 9.878738
_cell_length_c 8.996616
_cell_angle_alpha 90.000000
_cell_angle_beta 72.632606
_cell_angle_gamma 90.000000
_cell_volume 582.711976
_symmetry_space_group_name_H-M "P 21"
_symmetry_group_IT_number 4
_symmetry_cell_setting 'monoclinic'
loop_
_space_group_symop_operation_xyz
x,y,z
-x,1/2+y,-z
loop_
_atom_site_type_symbol
_atom_site_label
_atom_site_fract_x
_atom_site_fract_y
_atom_site_fract_z
Si Si1 0.470917 0.591410 0.376669
Si Si2 0.444565 0.512729 0.721427
Si Si3 0.197023 0.404868 0.233610
Si Si4 0.150246 0.260146 0.759599
Si Si5 0.920373 0.253525 0.498482
Si Si6 0.174081 0.098420 0.216712
Si Si7 0.112042 0.603723 0.980488
O O1 0.494286 0.547524 0.541624
O O2 0.359143 0.478285 0.303392
O O3 0.691003 0.635509 0.269125
O O4 0.313678 0.719481 0.416931
O O5 0.292483 0.387251 0.757937
O O6 0.650833 0.500737 0.767190
O O7 0.309444 0.627644 0.833864
O O8 0.988301 0.376302 0.375202
O O9 0.162061 0.498119 0.099485
O O10 0.259832 0.251848 0.176831
O O11 0.047262 0.267056 0.621122
O O12 0.975109 0.235091 0.918656
O O13 0.008117 0.124216 0.385135
O O14 0.062522 0.056647 0.093519
#
# Coordination Sequence:
#
# PCOD9117331 Si02
#       7
#     2   2   2   2   2   2   2
#     4  12  23  44  76 103 140 191 248 303 357 432
#     4  12  25  48  74 105 148 197 241 307 365 438
#     4  10  23  47  70 105 144 190 241 304 359 432
#     4  12  27  44  70 114 140 193 254 291 366 441
#     4  10  22  46  70 103 145 182 250 294 358 427
#     4  10  24  48  69 105 144 192 240 299 372 433
#     4  12  26  47  69 105 153 189 244 298 375 433
#
# _framework density 24.025590000000001
#
# number of rings (size 3 to 8) (size 9 to 14) (size 15 to 20)
#    0.857    0.000    5.714    0.857    2.000    3.429 
#    7.714    0.000    0.000    0.000    0.000    0.000 
#    0.000    0.000    0.000    0.000    0.000    0.000 
#
# Total GULP energy -78344.610922 kJ/mol
# GULP energy per Si atom -5596.043637 kJ/mol
# Density = 2.397091 g / cm^3
# Si number density = 24.025590 Si / 1000 Ang^3
#
#
#
# Elastic Constant Matrix: (Units=GPa)
#
#
# Indices 1 2 3 4 5 6 
#
# 1 80.6989 6.3274 41.1870 0.0000 26.9647 0.0000
# 2 6.3274 63.4268 10.6389 0.0000 1.9124 0.0000
# 3 41.1870 10.6389 103.1932 0.0000 21.8287 0.0000
# 4 0.0000 0.0000 0.0000 25.1514 0.0000 -7.5744
# 5 26.9647 1.9124 21.8287 0.0000 42.3553 0.0000
# 6 0.0000 0.0000 0.0000 -7.5744 0.0000 32.7507
#
#
#
# Elastic Compliance Matrix: (Units=1/GPa)
#
#
# Indices 1 2 3 4 5 6 
#
# 1 0.018066 -0.000651 -0.005294 0.000000 -0.008744 0.000000
# 2 -0.000651 0.016068 -0.001494 0.000000 0.000459 0.000000
# 3 -0.005294 -0.001494 0.012604 0.000000 -0.003058 0.000000
# 4 0.000000 0.000000 0.000000 0.042736 0.000000 0.009884
# 5 -0.008744 0.000459 -0.003058 0.000000 0.030732 0.000000
# 6 0.000000 0.000000 0.000000 0.009884 0.000000 0.032820
#
#
# Mechanical properties :
#
#
# Convention : Reuss Voigt Hill
#
# Bulk Modulus (GPa) = 31.38575 40.40281 35.89428
# Shear Modulus (GPa) = 28.00751 32.66252 30.33502
#
# Velocity S-wave (km/s) = 3.41799 3.69112 3.55718
# Velocity P-wave (km/s) = 5.35432 5.91768 5.64303
#
# Compressibility (1/GPa) = 0.03186159
#
# Stress axis : x y z
#
# Youngs Moduli (GPa) = 55.35140 62.23602 79.33692
#
# Poissons Ratio (x) = 0.04049 0.42001
# Poissons Ratio (y) = 0.03601 0.11852
# Poissons Ratio (z) = 0.29303 0.09297
#
# Static dielectric constant tensor:
#      x y z
#    x 1.881990 0.000000 -0.053000 
#    y 0.000000 1.994460 0.000000 
#    z -0.053000 0.000000 1.904010 
# 
# From -- ./inp_files/2798.got.cif
#   From: 2010.05.17/outbox.cif.g08.bks.cpg/sg4_2_cif.got.tgz:2798.got - 2010.06.03 18:43:04.
