data_PCOD9117251
_publ_section_title
;
Structure prediction by ZEFSAII (Michael W. Deem and Ramdas Pophale) SiO2 
 PCOD9117251
Probable space group: P 21
;
_chemical_formula_sum "Si O2"
_cell_formula_units_Z 16
_cell_length_a 19.840035
_cell_length_b 4.914163
_cell_length_c 8.496605
_cell_angle_alpha 90.000000
_cell_angle_beta 46.481059
_cell_angle_gamma 90.000000
_cell_volume 600.707894
_symmetry_space_group_name_H-M "P 21"
_symmetry_group_IT_number 4
_symmetry_cell_setting 'monoclinic'
loop_
_space_group_symop_operation_xyz
x,y,z
-x,1/2+y,-z
loop_
_atom_site_type_symbol
_atom_site_label
_atom_site_fract_x
_atom_site_fract_y
_atom_site_fract_z
Si Si1 0.302626 0.158610 0.554839
Si Si2 0.506567 0.974596 0.740037
Si Si3 0.062274 0.652192 0.429222
Si Si4 0.124055 0.491350 0.819739
Si Si5 0.678645 0.438633 0.814321
Si Si6 0.066334 0.985462 0.729698
Si Si7 0.376299 0.778635 0.665733
Si Si8 0.263322 0.440477 0.078025
O O1 0.404831 0.287635 0.375977
O O2 0.226456 0.395099 0.691714
O O3 0.287409 0.003250 0.414297
O O4 0.298905 0.974015 0.716953
O O5 0.557293 0.238962 0.591786
O O6 0.442861 0.889136 0.694453
O O7 0.432446 0.989214 0.997289
O O8 0.093700 0.833302 0.527988
O O9 0.157888 0.525747 0.209828
O O10 0.996121 0.388366 0.568534
O O11 0.110436 0.803584 0.797363
O O12 0.093893 0.294101 0.721914
O O13 0.044630 0.441775 0.076781
O O14 0.700608 0.135766 0.837429
O O15 0.723956 0.641414 0.871137
O O16 0.329379 0.518667 0.825087
#
# Coordination Sequence:
#
# PCOD9117251 Si02
#       8
#     2   2   2   2   2   2   2   2
#     4  12  27  41  73 107 136 185 253 292 353 438
#     4  11  25  44  68  96 144 185 229 297 365 416
#     4  12  25  41  71 102 138 180 233 289 349 430
#     4  10  23  42  70  97 132 183 218 295 339 424
#     4  11  27  46  74  99 144 192 244 294 361 435
#     4  10  22  45  66  96 143 171 225 279 365 395
#     4  11  25  44  69  98 144 187 236 296 363 429
#     4  11  26  49  71 101 147 193 236 296 371 433
#
# _framework density 26.635245000000001
#
# number of rings (size 3 to 8) (size 9 to 14) (size 15 to 20)
#    0.000    1.000    1.250    3.750   10.500    1.000 
#    0.000    0.000    0.000    0.000    0.000    0.000 
#    0.000    0.000    0.000    0.000    0.000    0.000 
#
# Total GULP energy -89639.093219 kJ/mol
# GULP energy per Si atom -5602.443326 kJ/mol
# Density = 2.657462 g / cm^3
# Si number density = 26.635245 Si / 1000 Ang^3
#
#
#
# Elastic Constant Matrix: (Units=GPa)
#
#
# Indices 1 2 3 4 5 6 
#
# 1 106.0456 18.5177 27.8667 0.0000 -9.0986 0.0000
# 2 18.5177 90.6749 10.1897 0.0000 -13.7320 0.0000
# 3 27.8667 10.1897 114.3156 0.0000 -38.5032 0.0000
# 4 0.0000 0.0000 0.0000 37.1285 0.0000 -7.6767
# 5 -9.0986 -13.7320 -38.5032 0.0000 31.6136 0.0000
# 6 0.0000 0.0000 0.0000 -7.6767 0.0000 48.6509
#
#
#
# Elastic Compliance Matrix: (Units=1/GPa)
#
#
# Indices 1 2 3 4 5 6 
#
# 1 0.010403 -0.002003 -0.002784 0.000000 -0.001267 0.000000
# 2 -0.002003 0.012280 0.001689 0.000000 0.006814 0.000000
# 3 -0.002784 0.001689 0.015689 0.000000 0.019040 0.000000
# 4 0.000000 0.000000 0.000000 0.027842 0.000000 0.004393
# 5 -0.001267 0.006814 0.019040 0.000000 0.057417 0.000000
# 6 0.000000 0.000000 0.000000 0.004393 0.000000 0.021248
#
#
# Mechanical properties :
#
#
# Convention : Reuss Voigt Hill
#
# Bulk Modulus (GPa) = 31.08063 47.13159 39.10611
# Shear Modulus (GPa) = 30.90235 40.44273 35.67254
#
# Velocity S-wave (km/s) = 3.40987 3.90088 3.66361
# Velocity P-wave (km/s) = 5.21510 6.16626 5.71052
#
# Compressibility (1/GPa) = 0.03217439
#
# Stress axis : x y z
#
# Youngs Moduli (GPa) = 96.12959 81.43487 63.73919
#
# Poissons Ratio (x) = 0.16315 0.17745
# Poissons Ratio (y) = 0.19259 -0.10766
# Poissons Ratio (z) = 0.26763 -0.13755
#
# Static dielectric constant tensor:
#      x y z
#    x 2.117730 0.000000 0.009350 
#    y 0.000000 2.063930 0.000000 
#    z 0.009350 0.000000 2.071310 
# 
# From -- ./inp_files/9495.got.cif
#   From: 2010.05.17/outbox.cif.g08.bks.cpg/sg4_5_cif.got.tgz:9495.got - 2010.06.03 18:43:04.
