data_PCOD9117634
_publ_section_title
;
Structure prediction by ZEFSAII (Michael W. Deem and Ramdas Pophale) SiO2 
 PCOD9117634
Probable space group: P 21
;
_chemical_formula_sum "Si O2"
_cell_formula_units_Z 14
_cell_length_a 11.416889
_cell_length_b 5.470245
_cell_length_c 8.996149
_cell_angle_alpha 90.000000
_cell_angle_beta 88.731838
_cell_angle_gamma 90.000000
_cell_volume 561.700497
_symmetry_space_group_name_H-M "P 21"
_symmetry_group_IT_number 4
_symmetry_cell_setting 'monoclinic'
loop_
_space_group_symop_operation_xyz
x,y,z
-x,1/2+y,-z
loop_
_atom_site_type_symbol
_atom_site_label
_atom_site_fract_x
_atom_site_fract_y
_atom_site_fract_z
Si Si1 0.817022 0.069610 0.277347
Si Si2 0.343507 0.356679 0.933820
Si Si3 0.255497 0.009103 0.175303
Si Si4 0.009822 0.821827 0.091648
Si Si5 0.450835 0.621697 0.190623
Si Si6 0.002321 0.395916 0.405685
Si Si7 0.261523 0.388693 0.401727
O O1 0.909752 0.868486 0.216519
O O2 0.892955 0.312511 0.307261
O O3 0.721733 0.075239 0.149258
O O4 0.757655 0.973065 0.429821
O O5 0.414729 0.202545 0.808572
O O6 0.255388 0.208789 0.042646
O O7 0.436742 0.436321 0.054831
O O8 0.272555 0.113164 0.341649
O O9 0.135124 0.869727 0.161873
O O10 0.368597 0.846640 0.148189
O O11 0.993515 0.056219 0.982479
O O12 0.378015 0.513337 0.331271
O O13 0.980218 0.640505 0.501627
O O14 0.131614 0.440507 0.334218
#
# Coordination Sequence:
#
# PCOD9117634 Si02
#       7
#     2   2   2   2   2   2   2
#     4  11  24  46  72 111 148 188 251 311 386 439
#     4  11  23  48  71 106 138 198 256 312 362 451
#     4  11  23  44  72  97 142 191 242 303 371 449
#     4  12  26  44  70 111 144 185 241 306 370 447
#     4  11  24  46  73 100 144 199 259 300 379 436
#     4  10  23  43  70 108 155 196 233 296 390 464
#     4  10  25  43  68 109 147 191 244 306 384 452
#
# _framework density 24.924315
#
# number of rings (size 3 to 8) (size 9 to 14) (size 15 to 20)
#    0.000    1.143    4.286    0.857    6.000    2.286 
#    7.714    0.000    0.000    0.000    0.000    0.000 
#    0.000    0.000    0.000    0.000    0.000    0.000 
#
# Total GULP energy -78192.959923 kJ/mol
# GULP energy per Si atom -5585.211423 kJ/mol
# Density = 2.486759 g / cm^3
# Si number density = 24.924315 Si / 1000 Ang^3
#
#
#
# Elastic Constant Matrix: (Units=GPa)
#
#
# Indices 1 2 3 4 5 6 
#
# 1 43.3467 -10.2020 6.0107 0.0000 -17.6670 0.0000
# 2 -10.2020 102.8332 35.0259 0.0000 2.2049 0.0000
# 3 6.0107 35.0259 100.8570 0.0000 -26.4719 0.0000
# 4 0.0000 0.0000 0.0000 35.3231 0.0000 -13.8523
# 5 -17.6670 2.2049 -26.4719 0.0000 45.1099 0.0000
# 6 0.0000 0.0000 0.0000 -13.8523 0.0000 16.6937
#
#
#
# Elastic Compliance Matrix: (Units=1/GPa)
#
#
# Indices 1 2 3 4 5 6 
#
# 1 0.028119 0.002411 0.000409 0.000000 0.011135 0.000000
# 2 0.002411 0.011666 -0.004843 0.000000 -0.002468 0.000000
# 3 0.000409 -0.004843 0.013803 0.000000 0.008497 0.000000
# 4 0.000000 0.000000 0.000000 0.041966 0.000000 0.034823
# 5 0.011135 -0.002468 0.008497 0.000000 0.031636 0.000000
# 6 0.000000 0.000000 0.000000 0.034823 0.000000 0.088799
#
#
# Mechanical properties :
#
#
# Convention : Reuss Voigt Hill
#
# Bulk Modulus (GPa) = 20.18428 34.30069 27.24248
# Shear Modulus (GPa) = 21.13742 33.83884 27.48813
#
# Velocity S-wave (km/s) = 2.91531 3.68865 3.32454
# Velocity P-wave (km/s) = 4.40997 5.65096 5.06859
#
# Compressibility (1/GPa) = 0.04954352
#
# Stress axis : x y z
#
# Youngs Moduli (GPa) = 35.56329 85.71803 72.44993
#
# Poissons Ratio (x) = -0.20671 -0.02966
# Poissons Ratio (y) = -0.08576 0.35087
# Poissons Ratio (z) = -0.01456 0.41512
#
# Static dielectric constant tensor:
#      x y z
#    x 2.055610 0.000000 0.030680 
#    y 0.000000 2.067020 0.000000 
#    z 0.030680 0.000000 2.023380 
# 
# From -- ./inp_files/7188.got.cif
#   From: 2010.05.17/outbox.cif.g08.bks.cpg/sg4_4_cif.got.tgz:7188.got - 2010.06.03 18:43:04.
