data_PCOD9117220
_publ_section_title
;
Structure prediction by ZEFSAII (Michael W. Deem and Ramdas Pophale) SiO2 
 PCOD9117220
Probable space group: P 21
;
_chemical_formula_sum "Si O2"
_cell_formula_units_Z 14
_cell_length_a 8.361952
_cell_length_b 5.253474
_cell_length_c 13.142327
_cell_angle_alpha 90.000000
_cell_angle_beta 78.925044
_cell_angle_gamma 90.000000
_cell_volume 566.581355
_symmetry_space_group_name_H-M "P 21"
_symmetry_group_IT_number 4
_symmetry_cell_setting 'monoclinic'
loop_
_space_group_symop_operation_xyz
x,y,z
-x,1/2+y,-z
loop_
_atom_site_type_symbol
_atom_site_label
_atom_site_fract_x
_atom_site_fract_y
_atom_site_fract_z
Si Si1 0.008043 0.281000 0.850233
Si Si2 0.195892 0.400934 0.212272
Si Si3 0.177342 0.064300 0.403009
Si Si4 0.704569 0.104923 0.264588
Si Si5 0.458365 0.107632 0.806855
Si Si6 0.786959 0.063706 0.486233
Si Si7 0.767009 0.602428 0.992902
O O1 0.840614 0.364692 0.923978
O O2 0.115826 0.519466 0.798399
O O3 0.963351 0.082009 0.766647
O O4 0.113504 0.155886 0.926854
O O5 0.192015 0.154686 0.284989
O O6 0.352752 0.556843 0.226281
O O7 0.219918 0.316874 0.093481
O O8 0.255164 0.295093 0.458044
O O9 0.983132 0.059518 0.447255
O O10 0.247394 0.800713 0.435616
O O11 0.593073 0.879282 0.232211
O O12 0.640890 0.376689 0.234403
O O13 0.708870 0.097438 0.385505
O O14 0.406051 0.089689 0.931871
#
# Coordination Sequence:
#
# PCOD9117220 Si02
#       7
#     2   2   2   2   2   2   2
#     4  11  24  41  74 107 140 197 255 304 354 433
#     4  12  28  44  70 109 153 191 246 311 360 444
#     4  10  24  40  71 113 135 177 236 302 367 413
#     4  11  25  48  74 104 145 192 247 303 366 444
#     4  11  29  45  71 107 150 199 240 293 382 442
#     4  10  22  44  73 106 138 177 234 305 361 426
#     4  11  24  42  69 100 147 193 244 296 360 430
#
# _framework density 24.709602
#
# number of rings (size 3 to 8) (size 9 to 14) (size 15 to 20)
#    0.000    1.143    1.429    2.571   20.000    0.000 
#    0.000    2.857    0.000    0.000    0.000    0.000 
#    0.000    0.000    0.000    0.000    0.000    0.000 
#
# Total GULP energy -78445.408611 kJ/mol
# GULP energy per Si atom -5603.243472 kJ/mol
# Density = 2.465336 g / cm^3
# Si number density = 24.709602 Si / 1000 Ang^3
#
#
#
# Elastic Constant Matrix: (Units=GPa)
#
#
# Indices 1 2 3 4 5 6 
#
# 1 41.6367 21.6077 37.5099 0.0000 1.4865 0.0000
# 2 21.6077 109.9001 32.5980 0.0000 3.1554 0.0000
# 3 37.5099 32.5980 109.3677 0.0000 11.5835 0.0000
# 4 0.0000 0.0000 0.0000 45.4725 0.0000 5.6223
# 5 1.4865 3.1554 11.5835 0.0000 17.7200 0.0000
# 6 0.0000 0.0000 0.0000 5.6223 0.0000 29.0761
#
#
#
# Elastic Compliance Matrix: (Units=1/GPa)
#
#
# Indices 1 2 3 4 5 6 
#
# 1 0.036602 -0.003794 -0.012000 0.000000 0.005449 0.000000
# 2 -0.003794 0.010375 -0.001751 0.000000 -0.000385 0.000000
# 3 -0.012000 -0.001751 0.014656 0.000000 -0.008262 0.000000
# 4 0.000000 0.000000 0.000000 0.022530 0.000000 -0.004357
# 5 0.005449 -0.000385 -0.008262 0.000000 0.061446 0.000000
# 6 0.000000 0.000000 0.000000 -0.004357 0.000000 0.035235
#
#
# Mechanical properties :
#
#
# Convention : Reuss Voigt Hill
#
# Bulk Modulus (GPa) = 37.67164 49.37065 43.52114
# Shear Modulus (GPa) = 22.24397 29.73298 25.98847
#
# Velocity S-wave (km/s) = 3.00361 3.47262 3.24660
# Velocity P-wave (km/s) = 5.22568 6.00854 5.63073
#
# Compressibility (1/GPa) = 0.02654517
#
# Stress axis : x y z
#
# Youngs Moduli (GPa) = 27.32103 96.38237 68.23182
#
# Poissons Ratio (x) = 0.36563 0.81877
# Poissons Ratio (y) = 0.10364 0.11945
# Poissons Ratio (z) = 0.32785 0.16873
#
# Static dielectric constant tensor:
#      x y z
#    x 1.959440 0.000000 -0.026810 
#    y 0.000000 1.962600 0.000000 
#    z -0.026810 0.000000 1.925780 
# 
# From -- ./inp_files/7286.got.cif
#   From: 2010.05.17/outbox.cif.g08.bks.cpg/sg4_4_cif.got.tgz:7286.got - 2010.06.03 18:43:04.
