data_PCOD9117841
_publ_section_title
;
Structure prediction by ZEFSAII (Michael W. Deem and Ramdas Pophale) SiO2 
 PCOD9117841
Probable space group: P 21
;
_chemical_formula_sum "Si O2"
_cell_formula_units_Z 14
_cell_length_a 9.562981
_cell_length_b 5.117245
_cell_length_c 13.384790
_cell_angle_alpha 90.000000
_cell_angle_beta 65.962428
_cell_angle_gamma 90.000000
_cell_volume 598.197121
_symmetry_space_group_name_H-M "P 21"
_symmetry_group_IT_number 4
_symmetry_cell_setting 'monoclinic'
loop_
_space_group_symop_operation_xyz
x,y,z
-x,1/2+y,-z
loop_
_atom_site_type_symbol
_atom_site_label
_atom_site_fract_x
_atom_site_fract_y
_atom_site_fract_z
Si Si1 0.314998 0.316170 0.624155
Si Si2 0.872619 0.256473 0.806295
Si Si3 0.680903 0.314893 0.499766
Si Si4 0.478124 0.636906 0.072746
Si Si5 0.238975 0.095493 0.861865
Si Si6 0.021071 0.256113 0.100337
Si Si7 0.932621 0.166567 0.565207
O O1 0.500027 0.310669 0.569421
O O2 0.272079 0.601988 0.597512
O O3 0.259137 0.231406 0.749060
O O4 0.271669 0.096989 0.555022
O O5 0.689165 0.239670 0.847802
O O6 0.929347 0.510681 0.848009
O O7 0.945868 0.238782 0.676208
O O8 0.923394 0.008489 0.855477
O O9 0.762609 0.231643 0.576907
O O10 0.600570 0.590139 0.125528
O O11 0.459413 0.364679 0.018589
O O12 0.116464 0.235980 0.969998
O O13 0.158209 0.812957 0.868581
O O14 0.031311 0.366221 0.468944
#
# Coordination Sequence:
#
# PCOD9117841 Si02
#       7
#     2   2   2   2   2   2   2
#     4  10  24  43  77  94 147 181 243 294 366 419
#     4  12  26  51  72 111 151 200 242 318 365 458
#     4  10  23  47  65 111 130 189 242 302 343 447
#     4  12  25  48  76 105 148 201 252 299 368 451
#     4  12  27  48  74 113 147 204 238 318 370 456
#     4  12  28  45  74 111 157 187 255 299 384 449
#     4  12  27  44  74 103 144 190 242 298 374 434
#
# _framework density 23.403656000000002
#
# number of rings (size 3 to 8) (size 9 to 14) (size 15 to 20)
#    0.000    0.571    2.857    3.429    6.000    4.571 
#    0.000    5.714    0.000    0.000    0.000    0.000 
#    0.000    0.000    0.000    0.000    0.000    0.000 
#
# Total GULP energy -78478.835145 kJ/mol
# GULP energy per Si atom -5605.631082 kJ/mol
# Density = 2.335039 g / cm^3
# Si number density = 23.403656 Si / 1000 Ang^3
#
#
#
# Elastic Constant Matrix: (Units=GPa)
#
#
# Indices 1 2 3 4 5 6 
#
# 1 140.6163 37.7031 24.3365 0.0000 -6.3501 0.0000
# 2 37.7031 137.7186 33.6028 0.0000 5.4848 0.0000
# 3 24.3365 33.6028 144.2604 0.0000 7.8245 0.0000
# 4 0.0000 0.0000 0.0000 25.5779 0.0000 3.5087
# 5 -6.3501 5.4848 7.8245 0.0000 34.0860 0.0000
# 6 0.0000 0.0000 0.0000 3.5087 0.0000 42.1310
#
#
#
# Elastic Compliance Matrix: (Units=1/GPa)
#
#
# Indices 1 2 3 4 5 6 
#
# 1 0.007910 -0.002008 -0.000976 0.000000 0.002021 0.000000
# 2 -0.002008 0.008232 -0.001505 0.000000 -0.001353 0.000000
# 3 -0.000976 -0.001505 0.007538 0.000000 -0.001670 0.000000
# 4 0.000000 0.000000 0.000000 0.039548 0.000000 -0.003294
# 5 0.002021 -0.001353 -0.001670 0.000000 0.030315 0.000000
# 6 0.000000 0.000000 0.000000 -0.003294 0.000000 0.024010
#
#
# Mechanical properties :
#
#
# Convention : Reuss Voigt Hill
#
# Bulk Modulus (GPa) = 68.02291 68.20888 68.11589
# Shear Modulus (GPa) = 38.04234 42.15582 40.09908
#
# Velocity S-wave (km/s) = 4.03611 4.24872 4.14378
# Velocity P-wave (km/s) = 7.13081 7.29908 7.21543
#
# Compressibility (1/GPa) = 0.01470093
#
# Stress axis : x y z
#
# Youngs Moduli (GPa) = 126.42003 121.47631 132.66378
#
# Poissons Ratio (x) = 0.24390 0.12953
# Poissons Ratio (y) = 0.25383 0.19971
# Poissons Ratio (z) = 0.12343 0.18287
#
# Static dielectric constant tensor:
#      x y z
#    x 1.939460 0.000000 -0.026380 
#    y 0.000000 1.854300 0.000000 
#    z -0.026380 0.000000 1.832850 
# 
# From -- ./inp_files/10642.got.cif
#   From: 2010.05.17/outbox.cif.g08.bks.cpg/sg4_6_cif.got.tgz:10642.got - 2010.06.03 18:43:04.
