data_PCOD9117983
_publ_section_title
;
Structure prediction by ZEFSAII (Michael W. Deem and Ramdas Pophale) SiO2 
 PCOD9117983
Probable space group: P 21
;
_chemical_formula_sum "Si O2"
_cell_formula_units_Z 16
_cell_length_a 11.621949
_cell_length_b 11.497423
_cell_length_c 8.627940
_cell_angle_alpha 90.000000
_cell_angle_beta 137.973329
_cell_angle_gamma 90.000000
_cell_volume 771.830446
_symmetry_space_group_name_H-M "P 21"
_symmetry_group_IT_number 4
_symmetry_cell_setting 'monoclinic'
loop_
_space_group_symop_operation_xyz
x,y,z
-x,1/2+y,-z
loop_
_atom_site_type_symbol
_atom_site_label
_atom_site_fract_x
_atom_site_fract_y
_atom_site_fract_z
Si Si1 0.140351 0.555700 0.709709
Si Si2 0.868746 0.464764 0.217592
Si Si3 0.305981 0.406385 0.104377
Si Si4 0.301172 0.778356 0.772642
Si Si5 0.694244 0.428886 0.527711
Si Si6 0.694484 0.705331 0.131989
Si Si7 0.146694 0.170295 0.381807
Si Si8 0.986575 0.884078 0.947779
O O1 0.185197 0.663883 0.645711
O O2 0.025030 0.466994 0.497209
O O3 0.021565 0.604069 0.727095
O O4 0.301358 0.499446 0.958235
O O5 0.757028 0.348433 0.132569
O O6 0.750447 0.575772 0.137882
O O7 0.955985 0.465356 0.137465
O O8 0.495439 0.403450 0.366556
O O9 0.162132 0.430725 0.088313
O O10 0.256272 0.289139 0.961532
O O11 0.279112 0.871223 0.613987
O O12 0.494119 0.731239 0.958759
O O13 0.729735 0.567470 0.555900
O O14 0.837328 0.371210 0.779819
O O15 0.779078 0.725422 0.385077
O O16 0.091987 0.266986 0.204889
#
# Coordination Sequence:
#
# PCOD9117983 Si02
#       8
#     2   2   2   2   2   2   2   2
#     4  11  22  41  72  98 127 178 233 285 343 391
#     4  11  24  42  68 100 134 175 229 285 337 410
#     4  11  25  45  68 102 138 188 222 282 345 411
#     4  11  22  44  70 102 128 174 235 288 340 397
#     4  11  25  46  66  98 144 174 235 282 341 410
#     4  10  24  42  73  96 134 175 234 287 337 398
#     4  11  22  43  70  96 133 183 224 295 332 401
#     4  12  26  43  65 100 142 185 220 274 353 418
#
# _framework density 20.729941
#
# number of rings (size 3 to 8) (size 9 to 14) (size 15 to 20)
#    0.000    1.000    5.000    1.500    8.750    1.000 
#    4.500    0.000    0.000    0.000    0.000    0.000 
#    0.000    0.000    0.000    0.000    0.000    0.000 
#
# Total GULP energy -89315.238806 kJ/mol
# GULP energy per Si atom -5582.202425 kJ/mol
# Density = 2.068276 g / cm^3
# Si number density = 20.729941 Si / 1000 Ang^3
#
#
#
# Elastic Constant Matrix: (Units=GPa)
#
#
# Indices 1 2 3 4 5 6 
#
# 1 103.9157 26.3872 51.6990 0.0000 0.1113 0.0000
# 2 26.3872 82.1905 46.7986 0.0000 0.6950 0.0000
# 3 51.6990 46.7986 121.1401 0.0000 8.2229 0.0000
# 4 0.0000 0.0000 0.0000 34.1099 0.0000 -3.8713
# 5 0.1113 0.6950 8.2229 0.0000 17.8792 0.0000
# 6 0.0000 0.0000 0.0000 -3.8713 0.0000 33.9461
#
#
#
# Elastic Compliance Matrix: (Units=1/GPa)
#
#
# Indices 1 2 3 4 5 6 
#
# 1 0.012402 -0.001153 -0.005001 0.000000 0.002268 0.000000
# 2 -0.001153 0.015792 -0.005747 0.000000 0.002036 0.000000
# 3 -0.005001 -0.005747 0.012998 0.000000 -0.005723 0.000000
# 4 0.000000 0.000000 0.000000 0.029701 0.000000 0.003387
# 5 0.002268 0.002036 -0.005723 0.000000 0.058470 0.000000
# 6 0.000000 0.000000 0.000000 0.003387 0.000000 0.029845
#
#
# Mechanical properties :
#
#
# Convention : Reuss Voigt Hill
#
# Bulk Modulus (GPa) = 57.50645 61.89066 59.69855
# Shear Modulus (GPa) = 26.48213 29.34445 27.91329
#
# Velocity S-wave (km/s) = 3.57807 3.76647 3.67348
# Velocity P-wave (km/s) = 6.69859 6.98825 6.84495
#
# Compressibility (1/GPa) = 0.01738936
#
# Stress axis : x y z
#
# Youngs Moduli (GPa) = 80.63435 63.32292 76.93573
#
# Poissons Ratio (x) = 0.07302 0.38476
# Poissons Ratio (y) = 0.09298 0.44214
# Poissons Ratio (z) = 0.40326 0.36391
#
# Static dielectric constant tensor:
#      x y z
#    x 1.744100 0.000000 0.005530 
#    y 0.000000 1.770590 0.000000 
#    z 0.005530 0.000000 1.746940 
# 
# From -- ./inp_files/8162.got.cif
#   From: 2010.05.17/outbox.cif.g08.bks.cpg/sg4_5_cif.got.tgz:8162.got - 2010.06.03 18:43:04.
