data_PCOD9117863
_publ_section_title
;
Structure prediction by ZEFSAII (Michael W. Deem and Ramdas Pophale) SiO2 
 PCOD9117863
Probable space group: P 21
;
_chemical_formula_sum "Si O2"
_cell_formula_units_Z 16
_cell_length_a 17.929432
_cell_length_b 5.424568
_cell_length_c 8.684802
_cell_angle_alpha 90.000000
_cell_angle_beta 49.699991
_cell_angle_gamma 90.000000
_cell_volume 644.209708
_symmetry_space_group_name_H-M "P 21"
_symmetry_group_IT_number 4
_symmetry_cell_setting 'monoclinic'
loop_
_space_group_symop_operation_xyz
x,y,z
-x,1/2+y,-z
loop_
_atom_site_type_symbol
_atom_site_label
_atom_site_fract_x
_atom_site_fract_y
_atom_site_fract_z
Si Si1 0.845080 0.100620 0.278768
Si Si2 0.707662 0.407671 0.076325
Si Si3 0.332543 0.417078 0.690529
Si Si4 0.408551 0.428096 0.268524
Si Si5 0.097087 0.113799 0.220545
Si Si6 0.628329 0.428663 0.842031
Si Si7 0.903753 0.871306 0.498143
Si Si8 0.975019 0.465353 0.163828
O O1 0.764659 0.972854 0.283212
O O2 0.866011 0.391581 0.248180
O O3 0.843156 0.039221 0.462338
O O4 0.953390 0.035279 0.069734
O O5 0.661704 0.160947 0.211300
O O6 0.672885 0.662743 0.206068
O O7 0.825542 0.415064 0.940955
O O8 0.687941 0.405862 0.920270
O O9 0.412870 0.406563 0.447735
O O10 0.355488 0.185626 0.269885
O O11 0.362153 0.691180 0.281679
O O12 0.516112 0.429965 0.051469
O O13 0.150941 0.274038 0.279575
O O14 0.047442 0.284839 0.161651
O O15 0.002107 0.999501 0.427457
O O16 0.945698 0.667886 0.326891
#
# Coordination Sequence:
#
# PCOD9117863 Si02
#       8
#     2   2   2   2   2   2   2   2
#     4  11  24  36  62  85 121 172 221 266 329 379
#     4  12  27  43  69 100 143 177 220 281 342 394
#     4  12  27  44  67 104 139 178 224 279 331 406
#     4  10  23  47  76 102 139 170 225 270 329 415
#     4  11  24  40  59  87 127 166 225 278 332 385
#     4  10  23  47  75 105 134 179 213 275 339 398
#     4  11  23  39  60  85 117 174 225 275 328 392
#     4  11  21  40  58  80 120 166 217 270 322 381
#
# _framework density 24.836634
#
# number of rings (size 3 to 8) (size 9 to 14) (size 15 to 20)
#    0.000    1.000    3.750    2.250    5.250    2.000 
#    0.000    0.000    0.000    0.000    0.000    0.000 
#    0.000    0.000    0.000    0.000    0.000    0.000 
#
# Total GULP energy -89372.994110 kJ/mol
# GULP energy per Si atom -5585.812132 kJ/mol
# Density = 2.478010 g / cm^3
# Si number density = 24.836634 Si / 1000 Ang^3
#
#
#
# Elastic Constant Matrix: (Units=GPa)
#
#
# Indices 1 2 3 4 5 6 
#
# 1 53.7715 18.9286 -6.9555 0.0000 17.7154 0.0000
# 2 18.9286 88.8201 11.8259 0.0000 5.5873 0.0000
# 3 -6.9555 11.8259 62.6388 0.0000 14.5559 0.0000
# 4 0.0000 0.0000 0.0000 42.6624 0.0000 14.1133
# 5 17.7154 5.5873 14.5559 0.0000 39.6481 0.0000
# 6 0.0000 0.0000 0.0000 14.1133 0.0000 29.8122
#
#
#
# Elastic Compliance Matrix: (Units=1/GPa)
#
#
# Indices 1 2 3 4 5 6 
#
# 1 0.025885 -0.005613 0.007038 0.000000 -0.013359 0.000000
# 2 -0.005613 0.012796 -0.003502 0.000000 0.001990 0.000000
# 3 0.007038 -0.003502 0.019704 0.000000 -0.009885 0.000000
# 4 0.000000 0.000000 0.000000 0.027792 0.000000 -0.013157
# 5 -0.013359 0.001990 -0.009885 0.000000 0.034539 0.000000
# 6 0.000000 0.000000 0.000000 -0.013157 0.000000 0.039772
#
#
# Mechanical properties :
#
#
# Convention : Reuss Voigt Hill
#
# Bulk Modulus (GPa) = 18.43930 28.09204 23.26567
# Shear Modulus (GPa) = 27.36442 34.51997 30.94220
#
# Velocity S-wave (km/s) = 3.32290 3.73216 3.53346
# Velocity P-wave (km/s) = 4.70772 5.46875 5.10244
#
# Compressibility (1/GPa) = 0.05423198
#
# Stress axis : x y z
#
# Youngs Moduli (GPa) = 38.63292 78.14969 50.75034
#
# Poissons Ratio (x) = 0.43866 -0.35719
# Poissons Ratio (y) = 0.21685 0.17771
# Poissons Ratio (z) = -0.27191 0.27365
#
# Static dielectric constant tensor:
#      x y z
#    x 1.992730 0.000000 -0.005580 
#    y 0.000000 2.239740 0.000000 
#    z -0.005580 0.000000 1.977510 
# 
# From -- ./inp_files/8875.got.cif
#   From: 2010.05.17/outbox.cif.g08.bks.cpg/sg4_5_cif.got.tgz:8875.got - 2010.06.03 18:43:04.
