data_PCOD9117582
_publ_section_title
;
Structure prediction by ZEFSAII (Michael W. Deem and Ramdas Pophale) SiO2 
 PCOD9117582
Probable space group: P 21
;
_chemical_formula_sum "Si O2"
_cell_formula_units_Z 16
_cell_length_a 8.995943
_cell_length_b 12.274651
_cell_length_c 10.187452
_cell_angle_alpha 90.000000
_cell_angle_beta 43.526266
_cell_angle_gamma 90.000000
_cell_volume 774.717437
_symmetry_space_group_name_H-M "P 21"
_symmetry_group_IT_number 4
_symmetry_cell_setting 'monoclinic'
loop_
_space_group_symop_operation_xyz
x,y,z
-x,1/2+y,-z
loop_
_atom_site_type_symbol
_atom_site_label
_atom_site_fract_x
_atom_site_fract_y
_atom_site_fract_z
Si Si1 0.941540 0.163860 0.869864
Si Si2 0.445639 0.215738 0.544840
Si Si3 0.302314 0.293084 0.384498
Si Si4 0.002634 0.971264 0.317000
Si Si5 0.729708 0.033291 0.240915
Si Si6 0.906107 0.559645 0.483802
Si Si7 0.575758 0.360334 0.688300
Si Si8 0.388475 0.841663 0.035009
O O1 0.188420 0.203965 0.736189
O O2 0.960657 0.082214 0.733194
O O3 0.773573 0.256301 0.931378
O O4 0.850452 0.108097 0.058028
O O5 0.459515 0.296877 0.410337
O O6 0.542376 0.101958 0.433553
O O7 0.577626 0.263958 0.581337
O O8 0.091931 0.358812 0.563012
O O9 0.247254 0.165802 0.402994
O O10 0.404329 0.343006 0.189846
O O11 0.255509 0.954309 0.127232
O O12 0.885892 0.996678 0.257209
O O13 0.968057 0.053761 0.459090
O O14 0.628182 0.932788 0.226942
O O15 0.772778 0.447150 0.556259
O O16 0.560127 0.316515 0.846471
#
# Coordination Sequence:
#
# PCOD9117582 Si02
#       8
#     2   2   2   2   2   2   2   2
#     4  11  22  43  62  88 128 167 204 262 318 362
#     4  11  23  43  64  91 132 166 205 264 315 371
#     4  11  21  44  67  88 133 166 205 265 322 362
#     4  11  25  41  65  96 128 167 216 253 319 382
#     4  12  24  42  64  95 130 167 208 265 310 381
#     4  10  23  43  64  92 129 167 207 265 314 376
#     4  11  23  42  64  98 125 164 220 252 316 380
#     4  11  23  40  66  92 125 170 209 264 306 378
#
# _framework density 20.652691999999998
#
# number of rings (size 3 to 8) (size 9 to 14) (size 15 to 20)
#    0.000    1.000    7.500    0.000    3.500    3.000 
#    2.250    0.000    0.000    0.000    0.000    0.000 
#    0.000    0.000    0.000    0.000    0.000    0.000 
#
# Total GULP energy -89299.140327 kJ/mol
# GULP energy per Si atom -5581.196270 kJ/mol
# Density = 2.060569 g / cm^3
# Si number density = 20.652692 Si / 1000 Ang^3
#
#
#
# Elastic Constant Matrix: (Units=GPa)
#
#
# Indices 1 2 3 4 5 6 
#
# 1 96.4595 19.7809 26.8111 0.0000 30.7808 0.0000
# 2 19.7809 45.9427 27.2231 0.0000 8.7511 0.0000
# 3 26.8111 27.2231 95.4088 0.0000 13.0586 0.0000
# 4 0.0000 0.0000 0.0000 26.3576 0.0000 9.7309
# 5 30.7808 8.7511 13.0586 0.0000 26.9489 0.0000
# 6 0.0000 0.0000 0.0000 9.7309 0.0000 33.0155
#
#
#
# Elastic Compliance Matrix: (Units=1/GPa)
#
#
# Indices 1 2 3 4 5 6 
#
# 1 0.017094 -0.003089 -0.001486 0.000000 -0.017802 0.000000
# 2 -0.003089 0.027460 -0.006672 0.000000 -0.002156 0.000000
# 3 -0.001486 -0.006672 0.013146 0.000000 -0.002506 0.000000
# 4 0.000000 0.000000 0.000000 0.042572 0.000000 -0.012548
# 5 -0.017802 -0.002156 -0.002506 0.000000 0.059355 0.000000
# 6 0.000000 0.000000 0.000000 -0.012548 0.000000 0.033987
#
#
# Mechanical properties :
#
#
# Convention : Reuss Voigt Hill
#
# Bulk Modulus (GPa) = 28.40377 42.82679 35.61528
# Shear Modulus (GPa) = 21.94493 28.19747 25.07120
#
# Velocity S-wave (km/s) = 3.26324 3.69903 3.48795
# Velocity P-wave (km/s) = 5.28973 6.24703 5.78821
#
# Compressibility (1/GPa) = 0.03520659
#
# Stress axis : x y z
#
# Youngs Moduli (GPa) = 58.49981 36.41614 76.07135
#
# Poissons Ratio (x) = 0.11248 0.11303
# Poissons Ratio (y) = 0.18069 0.50756
# Poissons Ratio (z) = 0.08692 0.24298
#
# Static dielectric constant tensor:
#      x y z
#    x 1.773520 0.000000 0.000450 
#    y 0.000000 1.767760 0.000000 
#    z 0.000450 0.000000 1.728740 
# 
# From -- ./inp_files/6386.got.cif
#   From: 2010.05.17/outbox.cif.g08.bks.cpg/sg4_4_cif.got.tgz:6386.got - 2010.06.03 18:43:04.
