data_PCOD9117882
_publ_section_title
;
Structure prediction by ZEFSAII (Michael W. Deem and Ramdas Pophale) SiO2 
 PCOD9117882
Probable space group: P 21
;
_chemical_formula_sum "Si O2"
_cell_formula_units_Z 12
_cell_length_a 6.393324
_cell_length_b 15.001879
_cell_length_c 5.330428
_cell_angle_alpha 90.000000
_cell_angle_beta 104.495384
_cell_angle_gamma 90.000000
_cell_volume 494.977084
_symmetry_space_group_name_H-M "P 21"
_symmetry_group_IT_number 4
_symmetry_cell_setting 'monoclinic'
loop_
_space_group_symop_operation_xyz
x,y,z
-x,1/2+y,-z
loop_
_atom_site_type_symbol
_atom_site_label
_atom_site_fract_x
_atom_site_fract_y
_atom_site_fract_z
Si Si1 0.435049 0.545680 0.548699
Si Si2 0.161968 0.611171 0.865558
Si Si3 0.305900 0.882300 0.611390
Si Si4 0.961632 0.522701 0.195206
Si Si5 0.594889 0.279978 0.849568
Si Si6 0.771332 0.674928 0.441440
O O1 0.353531 0.551058 0.808206
O O2 0.549153 0.460523 0.466764
O O3 0.587750 0.630565 0.559519
O O4 0.203285 0.548499 0.345400
O O5 0.002888 0.673561 0.646177
O O6 0.285597 0.686967 0.058110
O O7 0.988607 0.536207 0.907832
O O8 0.282224 0.821284 0.356405
O O9 0.106658 0.933826 0.685169
O O10 0.403827 0.832874 0.885586
O O11 0.807211 0.602911 0.232605
O O12 0.345278 0.262817 0.693909
#
# Coordination Sequence:
#
# PCOD9117882 Si02
#       6
#     2   2   2   2   2   2
#     4  10  23  48  74 110 138 203 248 304 358 457
#     4  11  25  45  85 104 146 195 267 296 362 448
#     4  11  29  46  74 109 160 191 244 310 386 430
#     4  10  24  46  76 107 141 200 253 300 358 457
#     4  12  27  50  72 114 154 192 243 319 374 433
#     4  10  24  45  77 104 141 195 253 299 364 445
#
# _framework density 24.243549000000002
#
# number of rings (size 3 to 8) (size 9 to 14) (size 15 to 20)
#    0.000    1.333    1.667    1.000   16.333    1.333 
#    0.000    0.000    0.000    0.000    0.000    0.000 
#    0.000    0.000    0.000    0.000    0.000    0.000 
#
# Total GULP energy -66864.906404 kJ/mol
# GULP energy per Si atom -5572.075534 kJ/mol
# Density = 2.418837 g / cm^3
# Si number density = 24.243549 Si / 1000 Ang^3
#
#
#
# Elastic Constant Matrix: (Units=GPa)
#
#
# Indices 1 2 3 4 5 6 
#
# 1 92.9969 21.8108 31.1341 0.0000 -12.0371 0.0000
# 2 21.8108 77.8201 43.4655 0.0000 -19.6493 0.0000
# 3 31.1341 43.4655 102.1998 0.0000 -17.5274 0.0000
# 4 0.0000 0.0000 0.0000 40.4296 0.0000 -6.6516
# 5 -12.0371 -19.6493 -17.5274 0.0000 55.3425 0.0000
# 6 0.0000 0.0000 0.0000 -6.6516 0.0000 20.2817
#
#
#
# Elastic Compliance Matrix: (Units=1/GPa)
#
#
# Indices 1 2 3 4 5 6 
#
# 1 0.012227 -0.001517 -0.002872 0.000000 0.001211 0.000000
# 2 -0.001517 0.017890 -0.006465 0.000000 0.003974 0.000000
# 3 -0.002872 -0.006465 0.013650 0.000000 0.001403 0.000000
# 4 0.000000 0.000000 0.000000 0.026145 0.000000 0.008575
# 5 0.001211 0.003974 0.001403 0.000000 0.020188 0.000000
# 6 0.000000 0.000000 0.000000 0.008575 0.000000 0.052118
#
#
# Mechanical properties :
#
#
# Convention : Reuss Voigt Hill
#
# Bulk Modulus (GPa) = 45.33267 51.75974 48.54620
# Shear Modulus (GPa) = 29.19236 34.98453 32.08845
#
# Velocity S-wave (km/s) = 3.47382 3.80286 3.64206
# Velocity P-wave (km/s) = 5.90164 6.37798 6.14443
#
# Compressibility (1/GPa) = 0.02205915
#
# Stress axis : x y z
#
# Youngs Moduli (GPa) = 81.78561 55.89835 73.26153
#
# Poissons Ratio (x) = 0.08480 0.21040
# Poissons Ratio (y) = 0.12407 0.47362
# Poissons Ratio (z) = 0.23488 0.36137
#
# Static dielectric constant tensor:
#      x y z
#    x 1.923550 0.000000 -0.165380 
#    y 0.000000 1.957660 0.000000 
#    z -0.165380 0.000000 2.589530 
# 
# From -- ./inp_files/303.got.cif
#   From: 2010.05.17/outbox.cif.g08.bks.cpg/sg4_1_cif.got.tgz:303.got - 2010.06.03 18:43:04.
