data_PCOD9117888
_publ_section_title
;
Structure prediction by ZEFSAII (Michael W. Deem and Ramdas Pophale) SiO2 
 PCOD9117888
Probable space group: P 21
;
_chemical_formula_sum "Si O2"
_cell_formula_units_Z 16
_cell_length_a 12.777262
_cell_length_b 4.865218
_cell_length_c 23.004818
_cell_angle_alpha 90.000000
_cell_angle_beta 25.289169
_cell_angle_gamma 90.000000
_cell_volume 610.909509
_symmetry_space_group_name_H-M "P 21"
_symmetry_group_IT_number 4
_symmetry_cell_setting 'monoclinic'
loop_
_space_group_symop_operation_xyz
x,y,z
-x,1/2+y,-z
loop_
_atom_site_type_symbol
_atom_site_label
_atom_site_fract_x
_atom_site_fract_y
_atom_site_fract_z
Si Si1 0.873531 0.987070 0.927052
Si Si2 0.841412 0.232446 0.649172
Si Si3 0.829914 0.630934 0.840797
Si Si4 0.548798 0.863817 0.881994
Si Si5 0.170539 0.733025 0.478397
Si Si6 0.947516 0.133311 0.064199
Si Si7 0.375065 0.514762 0.588203
Si Si8 0.604641 0.415994 0.312959
O O1 0.640329 0.171220 0.058007
O O2 0.890490 0.720709 0.961006
O O3 0.856501 0.896852 0.868841
O O4 0.149719 0.097300 0.796879
O O5 0.660164 0.108252 0.787889
O O6 0.751781 0.194436 0.627959
O O7 0.086591 0.043687 0.531308
O O8 0.927398 0.546080 0.609478
O O9 0.759745 0.701157 0.810697
O O10 0.614997 0.472464 0.981864
O O11 0.090091 0.483524 0.715924
O O12 0.378422 0.607652 0.413882
O O13 0.965850 0.828395 0.031887
O O14 0.680729 0.238289 0.217626
O O15 0.491228 0.725326 0.482904
O O16 0.413506 0.688036 0.627678
#
# Coordination Sequence:
#
# PCOD9117888 Si02
#       8
#     2   2   2   2   2   2   2   2
#     4   9  24  44  65 104 137 181 232 291 357 410
#     4  10  26  43  74  96 144 185 236 285 354 413
#     4  11  26  45  70 105 141 190 234 297 352 433
#     4  12  25  44  73 100 149 187 237 293 360 425
#     4  10  23  49  64 107 133 186 241 289 341 428
#     4  10  24  42  67 105 139 181 227 286 367 418
#     4  11  28  47  73 103 140 183 237 293 351 420
#     4   9  24  44  72  98 143 177 236 296 348 419
#
# _framework density 26.190456999999999
#
# number of rings (size 3 to 8) (size 9 to 14) (size 15 to 20)
#    0.750    1.000    1.250    0.000   12.250    2.000 
#    4.500    0.000    0.000    0.000    0.000    0.000 
#    0.000    0.000    0.000    0.000    0.000    0.000 
#
# Total GULP energy -89664.682486 kJ/mol
# GULP energy per Si atom -5604.042655 kJ/mol
# Density = 2.613085 g / cm^3
# Si number density = 26.190457 Si / 1000 Ang^3
#
#
#
# Elastic Constant Matrix: (Units=GPa)
#
#
# Indices 1 2 3 4 5 6 
#
# 1 110.0845 19.2565 44.6631 0.0000 0.0285 0.0000
# 2 19.2565 87.5254 3.5183 0.0000 2.8465 0.0000
# 3 44.6631 3.5183 76.1840 0.0000 6.4113 0.0000
# 4 0.0000 0.0000 0.0000 41.9903 0.0000 9.7383
# 5 0.0285 2.8465 6.4113 0.0000 47.2289 0.0000
# 6 0.0000 0.0000 0.0000 9.7383 0.0000 35.5380
#
#
#
# Elastic Compliance Matrix: (Units=1/GPa)
#
#
# Indices 1 2 3 4 5 6 
#
# 1 0.012479 -0.002489 -0.007296 0.000000 0.001133 0.000000
# 2 -0.002489 0.011961 0.000979 0.000000 -0.000852 0.000000
# 3 -0.007296 0.000979 0.017564 0.000000 -0.002439 0.000000
# 4 0.000000 0.000000 0.000000 0.025431 0.000000 -0.006969
# 5 0.001133 -0.000852 -0.002439 0.000000 0.021555 0.000000
# 6 0.000000 0.000000 0.000000 -0.006969 0.000000 0.030049
#
#
# Mechanical properties :
#
#
# Convention : Reuss Voigt Hill
#
# Bulk Modulus (GPa) = 40.99979 45.40774 43.20376
# Shear Modulus (GPa) = 34.53438 38.70853 36.62146
#
# Velocity S-wave (km/s) = 3.63517 3.84860 3.74341
# Velocity P-wave (km/s) = 5.77129 6.09296 5.93430
#
# Compressibility (1/GPa) = 0.02439037
#
# Stress axis : x y z
#
# Youngs Moduli (GPa) = 80.13255 83.60319 56.93558
#
# Poissons Ratio (x) = 0.20810 0.41543
# Poissons Ratio (y) = 0.19946 -0.05572
# Poissons Ratio (z) = 0.58468 -0.08181
#
# Static dielectric constant tensor:
#      x y z
#    x 2.034920 0.000000 0.014540 
#    y 0.000000 2.051490 0.000000 
#    z 0.014540 0.000000 2.104320 
# 
# From -- ./inp_files/16408.got.cif
#   From: 2010.05.17/outbox.cif.g08.bks.cpg/sg4_9_cif.got.tgz:16408.got - 2010.06.03 18:43:04.
