data_PCOD9117350
_publ_section_title
;
Structure prediction by ZEFSAII (Michael W. Deem and Ramdas Pophale) SiO2 
 PCOD9117350
Probable space group: P 21
;
_chemical_formula_sum "Si O2"
_cell_formula_units_Z 8
_cell_length_a 5.179873
_cell_length_b 4.978716
_cell_length_c 11.343447
_cell_angle_alpha 90.000000
_cell_angle_beta 77.078168
_cell_angle_gamma 90.000000
_cell_volume 285.129274
_symmetry_space_group_name_H-M "P 21"
_symmetry_group_IT_number 4
_symmetry_cell_setting 'monoclinic'
loop_
_space_group_symop_operation_xyz
x,y,z
-x,1/2+y,-z
loop_
_atom_site_type_symbol
_atom_site_label
_atom_site_fract_x
_atom_site_fract_y
_atom_site_fract_z
Si Si1 0.180317 0.508250 0.978798
Si Si2 0.668932 0.251500 0.277608
Si Si3 0.784994 0.095678 0.769292
Si Si4 0.949370 0.952133 0.426111
O O1 0.323913 0.575898 0.842641
O O2 0.320509 0.592218 0.086213
O O3 0.076541 0.205520 0.994375
O O4 0.426351 0.452781 0.291973
O O5 0.939178 0.429094 0.253427
O O6 0.686811 0.065577 0.390865
O O7 0.863946 0.378510 0.704549
O O8 0.937531 0.678776 0.500048
#
# Coordination Sequence:
#
# PCOD9117350 Si02
#       4
#     2   2   2   2
#     4  10  22  46  78 118 164 202 258 334 408 484
#     4  11  26  51  80 118 161 209 266 334 406 478
#     4  11  26  51  80 118 161 209 266 334 406 478
#     4  12  26  56  78 120 162 220 274 332 392 482
#
# _framework density 28.057451
#
# number of rings (size 3 to 8) (size 9 to 14) (size 15 to 20)
#    0.000    1.000    5.000    0.000    0.000   10.000 
#    9.000    0.000    0.000    0.000    0.000    0.000 
#    0.000    0.000    0.000    0.000    0.000    0.000 
#
# Total GULP energy -44956.548217 kJ/mol
# GULP energy per Si atom -5619.568527 kJ/mol
# Density = 2.799359 g / cm^3
# Si number density = 28.057451 Si / 1000 Ang^3
#
#
#
# Elastic Constant Matrix: (Units=GPa)
#
#
# Indices 1 2 3 4 5 6 
#
# 1 150.6537 49.1918 28.5391 0.0000 16.0920 0.0000
# 2 49.1918 133.0221 58.0891 0.0000 18.6131 0.0000
# 3 28.5391 58.0891 159.4840 0.0000 39.2518 0.0000
# 4 0.0000 0.0000 0.0000 71.6540 0.0000 5.5986
# 5 16.0920 18.6131 39.2518 0.0000 42.6562 0.0000
# 6 0.0000 0.0000 0.0000 5.5986 0.0000 42.1168
#
#
#
# Elastic Compliance Matrix: (Units=1/GPa)
#
#
# Indices 1 2 3 4 5 6 
#
# 1 0.007672 -0.002593 0.000007 0.000000 -0.001769 0.000000
# 2 -0.002593 0.009861 -0.002986 0.000000 -0.000577 0.000000
# 3 0.000007 -0.002986 0.009097 0.000000 -0.007070 0.000000
# 4 0.000000 0.000000 0.000000 0.014102 0.000000 -0.001875
# 5 -0.001769 -0.000577 -0.007070 0.000000 0.030869 0.000000
# 6 0.000000 0.000000 0.000000 -0.001875 0.000000 0.023993
#
#
# Mechanical properties :
#
#
# Convention : Reuss Voigt Hill
#
# Bulk Modulus (GPa) = 64.57076 79.42220 71.99648
# Shear Modulus (GPa) = 44.68352 51.77473 48.22913
#
# Velocity S-wave (km/s) = 3.99503 4.30037 4.15051
# Velocity P-wave (km/s) = 6.65914 7.28190 6.97747
#
# Compressibility (1/GPa) = 0.01548689
#
# Stress axis : x y z
#
# Youngs Moduli (GPa) = 130.34514 101.41135 109.93135
#
# Poissons Ratio (x) = 0.26291 -0.00075
# Poissons Ratio (y) = 0.33792 0.32821
# Poissons Ratio (z) = -0.00089 0.30277
#
# Static dielectric constant tensor:
#      x y z
#    x 2.148810 0.000000 -0.037750 
#    y 0.000000 2.121240 0.000000 
#    z -0.037750 0.000000 2.228530 
# 
# From -- ./inp_files/10212.got.cif
#   From: 2010.05.17/outbox.cif.g08.bks.cpg/sg4_6_cif.got.tgz:10212.got - 2010.06.03 18:43:04.
