data_PCOD9117895
_publ_section_title
;
Structure prediction by ZEFSAII (Michael W. Deem and Ramdas Pophale) SiO2 
 PCOD9117895
Probable space group: P 21
;
_chemical_formula_sum "Si O2"
_cell_formula_units_Z 10
_cell_length_a 7.639391
_cell_length_b 9.713407
_cell_length_c 7.758478
_cell_angle_alpha 90.000000
_cell_angle_beta 41.106659
_cell_angle_gamma 90.000000
_cell_volume 378.510610
_symmetry_space_group_name_H-M "P 21"
_symmetry_group_IT_number 4
_symmetry_cell_setting 'monoclinic'
loop_
_space_group_symop_operation_xyz
x,y,z
-x,1/2+y,-z
loop_
_atom_site_type_symbol
_atom_site_label
_atom_site_fract_x
_atom_site_fract_y
_atom_site_fract_z
Si Si1 0.113908 0.895370 0.405930
Si Si2 0.894533 0.523701 0.093950
Si Si3 0.269336 0.676740 0.031487
Si Si4 0.451217 0.470214 0.647468
Si Si5 0.198825 0.163988 0.183842
O O1 0.891153 0.809168 0.672256
O O2 0.374436 0.895452 0.336230
O O3 0.035464 0.048694 0.411204
O O4 0.191816 0.822698 0.167524
O O5 0.998490 0.593127 0.195329
O O6 0.144724 0.426109 0.864794
O O7 0.861165 0.634411 0.969046
O O8 0.613566 0.459542 0.351757
O O9 0.412378 0.629769 0.744600
O O10 0.495468 0.631318 0.998968
#
# Coordination Sequence:
#
# PCOD9117895 Si02
#       5
#     2   2   2   2   2
#     4  11  24  47  74 111 152 195 247 309 371 443
#     4  10  23  49  69 111 141 198 245 301 367 437
#     4   9  22  42  70 104 142 187 242 297 356 435
#     4   9  23  45  71 102 147 183 250 299 352 442
#     4  11  26  45  78 106 152 199 244 312 372 441
#
# _framework density 26.419338
#
# number of rings (size 3 to 8) (size 9 to 14) (size 15 to 20)
#    1.200    0.800    0.000    2.400    5.600    3.200 
#    3.600    0.000    0.000    0.000    0.000    0.000 
#    0.000    0.000    0.000    0.000    0.000    0.000 
#
# Total GULP energy -55811.190338 kJ/mol
# GULP energy per Si atom -5581.119034 kJ/mol
# Density = 2.635921 g / cm^3
# Si number density = 26.419338 Si / 1000 Ang^3
#
#
#
# Elastic Constant Matrix: (Units=GPa)
#
#
# Indices 1 2 3 4 5 6 
#
# 1 121.5616 17.6263 30.0602 0.0000 20.8130 0.0000
# 2 17.6263 71.6109 13.5195 0.0000 19.3559 0.0000
# 3 30.0602 13.5195 153.1226 0.0000 3.4316 0.0000
# 4 0.0000 0.0000 0.0000 27.6677 0.0000 3.2564
# 5 20.8130 19.3559 3.4316 0.0000 23.5781 0.0000
# 6 0.0000 0.0000 0.0000 3.2564 0.0000 32.3731
#
#
#
# Elastic Compliance Matrix: (Units=1/GPa)
#
#
# Indices 1 2 3 4 5 6 
#
# 1 0.010166 0.000251 -0.001818 0.000000 -0.008915 0.000000
# 2 0.000251 0.018198 -0.001320 0.000000 -0.014968 0.000000
# 3 -0.001818 -0.001320 0.006967 0.000000 0.001675 0.000000
# 4 0.000000 0.000000 0.000000 0.036576 0.000000 -0.003679
# 5 -0.008915 -0.014968 0.001675 0.000000 0.062325 0.000000
# 6 0.000000 0.000000 0.000000 -0.003679 0.000000 0.031260
#
#
# Mechanical properties :
#
#
# Convention : Reuss Voigt Hill
#
# Bulk Modulus (GPa) = 33.83582 52.07856 42.95719
# Shear Modulus (GPa) = 27.60612 35.72972 31.66792
#
# Velocity S-wave (km/s) = 3.23603 3.68150 3.46593
# Velocity P-wave (km/s) = 5.17663 6.15031 5.68436
#
# Compressibility (1/GPa) = 0.02955448
#
# Stress axis : x y z
#
# Youngs Moduli (GPa) = 98.36849 54.95188 143.54047
#
# Poissons Ratio (x) = -0.01377 0.26096
# Poissons Ratio (y) = -0.02465 0.18954
# Poissons Ratio (z) = 0.17884 0.07256
#
# Static dielectric constant tensor:
#      x y z
#    x 2.002080 0.000000 -0.030510 
#    y 0.000000 2.109470 0.000000 
#    z -0.030510 0.000000 2.082010 
# 
# From -- ./inp_files/1050.got.cif
#   From: 2010.05.17/outbox.cif.g08.bks.cpg/sg4_1_cif.got.tgz:1050.got - 2010.06.03 18:43:04.
