data_PCOD9117625
_publ_section_title
;
Structure prediction by ZEFSAII (Michael W. Deem and Ramdas Pophale) SiO2 
 PCOD9117625
Probable space group: P 21
;
_chemical_formula_sum "Si O2"
_cell_formula_units_Z 16
_cell_length_a 12.271890
_cell_length_b 12.673910
_cell_length_c 5.633163
_cell_angle_alpha 90.000000
_cell_angle_beta 49.494330
_cell_angle_gamma 90.000000
_cell_volume 666.167124
_symmetry_space_group_name_H-M "P 21"
_symmetry_group_IT_number 4
_symmetry_cell_setting 'monoclinic'
loop_
_space_group_symop_operation_xyz
x,y,z
-x,1/2+y,-z
loop_
_atom_site_type_symbol
_atom_site_label
_atom_site_fract_x
_atom_site_fract_y
_atom_site_fract_z
Si Si1 0.593829 0.426920 0.456186
Si Si2 0.506062 0.634518 0.813951
Si Si3 0.946749 0.786870 0.665155
Si Si4 0.815387 0.126950 0.768580
Si Si5 0.674825 0.807733 0.333978
Si Si6 0.129298 0.431203 0.617266
Si Si7 0.684292 0.484997 0.822405
Si Si8 0.977262 0.514920 0.220546
O O1 0.536910 0.546582 0.568723
O O2 0.459125 0.349496 0.626139
O O3 0.670165 0.410753 0.604767
O O4 0.678572 0.428745 0.085292
O O5 0.611631 0.730534 0.619982
O O6 0.552346 0.567444 0.979900
O O7 0.343688 0.670487 0.013127
O O8 0.914741 0.821547 0.440627
O O9 0.072765 0.704318 0.514107
O O10 0.995576 0.899285 0.704757
O O11 0.799379 0.755365 0.001212
O O12 0.896495 0.096723 0.897186
O O13 0.804144 0.012985 0.659675
O O14 0.752569 0.905076 0.353426
O O15 0.990779 0.489166 0.924728
O O16 0.829919 0.547842 0.552301
#
# Coordination Sequence:
#
# PCOD9117625 Si02
#       8
#     2   2   2   2   2   2   2   2
#     4  10  24  45  68 101 145 182 238 289 363 419
#     4  10  25  41  70 106 137 187 240 295 361 426
#     4  10  25  40  69 100 137 186 241 292 361 431
#     4  11  24  44  69 102 141 185 234 303 357 432
#     4  11  24  44  69 105 140 192 237 298 363 436
#     4  10  23  43  69  95 142 186 238 293 364 427
#     4  10  25  43  73 102 139 189 234 295 356 426
#     4  10  24  42  69  99 137 187 234 293 359 425
#
# _framework density 24.017994000000002
#
# number of rings (size 3 to 8) (size 9 to 14) (size 15 to 20)
#    0.750    1.000    0.000    3.000   12.250    1.000 
#    0.000    1.250    0.000    0.000    0.000    0.000 
#    0.000    0.000    0.000    0.000    0.000    0.000 
#
# Total GULP energy -89283.083650 kJ/mol
# GULP energy per Si atom -5580.192728 kJ/mol
# Density = 2.396333 g / cm^3
# Si number density = 24.017994 Si / 1000 Ang^3
#
#
#
# Elastic Constant Matrix: (Units=GPa)
#
#
# Indices 1 2 3 4 5 6 
#
# 1 64.0961 5.7245 47.8585 0.0000 -15.0912 0.0000
# 2 5.7245 53.5197 7.0201 0.0000 -7.4771 0.0000
# 3 47.8585 7.0201 116.1162 0.0000 -9.2397 0.0000
# 4 0.0000 0.0000 0.0000 33.7866 0.0000 -7.6242
# 5 -15.0912 -7.4771 -9.2397 0.0000 38.2378 0.0000
# 6 0.0000 0.0000 0.0000 -7.6242 0.0000 11.3156
#
#
#
# Elastic Compliance Matrix: (Units=1/GPa)
#
#
# Indices 1 2 3 4 5 6 
#
# 1 0.024411 -0.000353 -0.009461 0.000000 0.007279 0.000000
# 2 -0.000353 0.019303 -0.000747 0.000000 0.003455 0.000000
# 3 -0.009461 -0.000747 0.012488 0.000000 -0.000862 0.000000
# 4 0.000000 0.000000 0.000000 0.034905 0.000000 0.023518
# 5 0.007279 0.003455 -0.000862 0.000000 0.029492 0.000000
# 6 0.000000 0.000000 0.000000 0.023518 0.000000 0.104220
#
#
# Mechanical properties :
#
#
# Convention : Reuss Voigt Hill
#
# Bulk Modulus (GPa) = 28.50528 39.43758 33.97143
# Shear Modulus (GPa) = 19.40748 28.20991 23.80870
#
# Velocity S-wave (km/s) = 2.84569 3.43086 3.15188
# Velocity P-wave (km/s) = 4.76354 5.67010 5.23648
#
# Compressibility (1/GPa) = 0.03508122
#
# Stress axis : x y z
#
# Youngs Moduli (GPa) = 40.96531 51.80524 80.07751
#
# Poissons Ratio (x) = 0.01829 0.75759
# Poissons Ratio (y) = 0.01446 0.05978
# Poissons Ratio (z) = 0.38756 0.03868
#
# Static dielectric constant tensor:
#      x y z
#    x 1.999190 0.000000 0.030140 
#    y 0.000000 1.913470 0.000000 
#    z 0.030140 0.000000 1.990740 
# 
# From -- ./inp_files/3166.got.cif
#   From: 2010.05.17/outbox.cif.g08.bks.cpg/sg4_2_cif.got.tgz:3166.got - 2010.06.03 18:43:04.
