data_PCOD9117870
_publ_section_title
;
Structure prediction by ZEFSAII (Michael W. Deem and Ramdas Pophale) SiO2 
 PCOD9117870
Probable space group: P 21
;
_chemical_formula_sum "Si O2"
_cell_formula_units_Z 16
_cell_length_a 5.261877
_cell_length_b 14.838781
_cell_length_c 8.759705
_cell_angle_alpha 90.000000
_cell_angle_beta 66.854281
_cell_angle_gamma 90.000000
_cell_volume 628.903449
_symmetry_space_group_name_H-M "P 21"
_symmetry_group_IT_number 4
_symmetry_cell_setting 'monoclinic'
loop_
_space_group_symop_operation_xyz
x,y,z
-x,1/2+y,-z
loop_
_atom_site_type_symbol
_atom_site_label
_atom_site_fract_x
_atom_site_fract_y
_atom_site_fract_z
Si Si1 0.237582 0.882990 0.400320
Si Si2 0.326068 0.279701 0.495654
Si Si3 0.431713 0.618144 0.409565
Si Si4 0.841596 0.111493 0.196022
Si Si5 0.847759 0.480802 0.317863
Si Si6 0.338686 0.587854 0.093765
Si Si7 0.769168 0.442020 0.923667
Si Si8 0.827296 0.299375 0.158007
O O1 0.491851 0.843103 0.435503
O O2 0.115412 0.972381 0.510695
O O3 0.338419 0.912149 0.213531
O O4 0.982035 0.814252 0.453227
O O5 0.331027 0.183932 0.579461
O O6 0.517893 0.278059 0.297707
O O7 0.235075 0.622017 0.605689
O O8 0.537843 0.515860 0.376155
O O9 0.375040 0.643494 0.244801
O O10 0.998014 0.206996 0.128313
O O11 0.640963 0.116796 0.090260
O O12 0.983558 0.014093 0.151260
O O13 0.921361 0.381456 0.243280
O O14 0.031310 0.549885 0.183716
O O15 0.538379 0.501670 0.059665
O O16 0.832021 0.349654 0.996439
#
# Coordination Sequence:
#
# PCOD9117870 Si02
#       8
#     2   2   2   2   2   2   2   2
#     4  11  26  44  76 108 150 198 252 310 380 456
#     4  10  26  48  72 113 144 200 254 313 381 452
#     4  11  25  46  75 106 148 193 255 313 377 453
#     4  11  26  46  70 110 145 191 258 313 376 457
#     4  11  23  46  75  94 148 199 243 308 383 452
#     4  12  24  44  72 106 143 198 249 307 386 449
#     4  12  25  44  70 106 148 194 246 312 380 451
#     4  10  23  48  68 101 148 191 247 310 379 440
#
# _framework density 25.441105
#
# number of rings (size 3 to 8) (size 9 to 14) (size 15 to 20)
#    0.000    1.000    2.500    2.250   10.500    1.000 
#   15.750    0.000    0.000    0.000    0.000    0.000 
#    0.000    0.000    0.000    0.000    0.000    0.000 
#
# Total GULP energy -89188.137074 kJ/mol
# GULP energy per Si atom -5574.258567 kJ/mol
# Density = 2.538320 g / cm^3
# Si number density = 25.441105 Si / 1000 Ang^3
#
#
#
# Elastic Constant Matrix: (Units=GPa)
#
#
# Indices 1 2 3 4 5 6 
#
# 1 34.0000 8.2491 0.7234 0.0000 6.5465 0.0000
# 2 8.2491 87.5998 26.1933 0.0000 14.3239 0.0000
# 3 0.7234 26.1933 133.1447 0.0000 31.0773 0.0000
# 4 0.0000 0.0000 0.0000 42.7882 0.0000 6.0441
# 5 6.5465 14.3239 31.0773 0.0000 33.2310 0.0000
# 6 0.0000 0.0000 0.0000 6.0441 0.0000 35.2726
#
#
#
# Elastic Compliance Matrix: (Units=1/GPa)
#
#
# Indices 1 2 3 4 5 6 
#
# 1 0.031284 -0.002386 0.001916 0.000000 -0.006926 0.000000
# 2 -0.002386 0.012705 -0.001686 0.000000 -0.003430 0.000000
# 3 0.001916 -0.001686 0.009915 0.000000 -0.008923 0.000000
# 4 0.000000 0.000000 0.000000 0.023951 0.000000 -0.004104
# 5 -0.006926 -0.003430 -0.008923 0.000000 0.041280 0.000000
# 6 0.000000 0.000000 0.000000 -0.004104 0.000000 0.029054
#
#
# Mechanical properties :
#
#
# Convention : Reuss Voigt Hill
#
# Bulk Modulus (GPa) = 20.16496 36.11957 28.14226
# Shear Modulus (GPa) = 29.58053 36.89694 33.23873
#
# Velocity S-wave (km/s) = 3.41355 3.81240 3.61847
# Velocity P-wave (km/s) = 4.84559 5.79718 5.34261
#
# Compressibility (1/GPa) = 0.04959098
#
# Stress axis : x y z
#
# Youngs Moduli (GPa) = 31.96563 78.70796 100.86186
#
# Poissons Ratio (x) = 0.18782 -0.19327
# Poissons Ratio (y) = 0.07628 0.17005
# Poissons Ratio (z) = -0.06125 0.13270
#
# Static dielectric constant tensor:
#      x y z
#    x 2.073740 0.000000 0.031590 
#    y 0.000000 2.054090 0.000000 
#    z 0.031590 0.000000 2.094340 
# 
# From -- ./inp_files/4670.got.cif
#   From: 2010.05.17/outbox.cif.g08.bks.cpg/sg4_3_cif.got.tgz:4670.got - 2010.06.03 18:43:04.
