data_PCOD9117561
_publ_section_title
;
Structure prediction by ZEFSAII (Michael W. Deem and Ramdas Pophale) SiO2 
 PCOD9117561
Probable space group: P 21
;
_chemical_formula_sum "Si O2"
_cell_formula_units_Z 16
_cell_length_a 5.300155
_cell_length_b 22.746194
_cell_length_c 5.244831
_cell_angle_alpha 90.000000
_cell_angle_beta 95.656416
_cell_angle_gamma 90.000000
_cell_volume 629.229377
_symmetry_space_group_name_H-M "P 21"
_symmetry_group_IT_number 4
_symmetry_cell_setting 'monoclinic'
loop_
_space_group_symop_operation_xyz
x,y,z
-x,1/2+y,-z
loop_
_atom_site_type_symbol
_atom_site_label
_atom_site_fract_x
_atom_site_fract_y
_atom_site_fract_z
Si Si1 0.677743 0.623600 0.180495
Si Si2 0.284513 0.243431 0.088946
Si Si3 0.953353 0.947958 0.244704
Si Si4 0.816716 0.397130 0.258737
Si Si5 0.263389 0.782846 0.485673
Si Si6 0.414544 0.355068 0.869442
Si Si7 0.819545 0.077123 0.064755
Si Si8 0.038899 0.672880 0.584015
O O1 0.616736 0.688512 0.065391
O O2 0.430400 0.583567 0.133112
O O3 0.921911 0.596472 0.055344
O O4 0.792212 0.637887 0.467373
O O5 0.497884 0.262231 0.315720
O O6 0.042261 0.217286 0.203799
O O7 0.231141 0.301559 0.922381
O O8 0.721289 0.905780 0.298569
O O9 0.147135 0.940635 0.498796
O O10 0.863540 0.013428 0.184374
O O11 0.050116 0.922210 0.982444
O O12 0.893264 0.332022 0.369570
O O13 0.532099 0.385717 0.130424
O O14 0.368612 0.821064 0.262894
O O15 0.140537 0.720476 0.393882
O O16 0.778240 0.123890 0.288686
#
# Coordination Sequence:
#
# PCOD9117561 Si02
#       8
#     2   2   2   2   2   2   2   2
#     4  11  26  47  77 111 149 205 262 323 397 466
#     4  10  23  42  69 109 157 196 257 322 403 467
#     4  12  29  50  77 107 156 208 266 321 390 474
#     4  11  27  48  73 113 146 205 257 322 395 463
#     4  11  23  43  76 112 158 197 259 330 404 475
#     4  11  26  45  75 114 157 203 261 327 402 471
#     4  11  29  50  75 111 152 209 268 323 390 474
#     4  11  25  45  74 109 157 201 260 328 403 472
#
# _framework density 25.427927
#
# number of rings (size 3 to 8) (size 9 to 14) (size 15 to 20)
#    0.000    1.000    2.500    1.500   14.000    1.000 
#    0.000    0.000    0.000    0.000    0.000    0.000 
#    0.000    0.000    0.000    0.000    0.000    0.000 
#
# Total GULP energy -89549.292538 kJ/mol
# GULP energy per Si atom -5596.830784 kJ/mol
# Density = 2.537005 g / cm^3
# Si number density = 25.427927 Si / 1000 Ang^3
#
#
#
# Elastic Constant Matrix: (Units=GPa)
#
#
# Indices 1 2 3 4 5 6 
#
# 1 86.2446 25.7574 20.2251 0.0000 2.1648 0.0000
# 2 25.7574 93.7637 1.5502 0.0000 -5.5026 0.0000
# 3 20.2251 1.5502 92.8028 0.0000 -2.3626 0.0000
# 4 0.0000 0.0000 0.0000 19.7053 0.0000 6.5620
# 5 2.1648 -5.5026 -2.3626 0.0000 41.8654 0.0000
# 6 0.0000 0.0000 0.0000 6.5620 0.0000 32.7705
#
#
#
# Elastic Compliance Matrix: (Units=1/GPa)
#
#
# Indices 1 2 3 4 5 6 
#
# 1 0.013418 -0.003717 -0.002896 0.000000 -0.001346 0.000000
# 2 -0.003717 0.011780 0.000659 0.000000 0.001778 0.000000
# 3 -0.002896 0.000659 0.011418 0.000000 0.000881 0.000000
# 4 0.000000 0.000000 0.000000 0.054374 0.000000 -0.010888
# 5 -0.001346 0.001778 0.000881 0.000000 0.024239 0.000000
# 6 0.000000 0.000000 0.000000 -0.010888 0.000000 0.032695
#
#
# Mechanical properties :
#
#
# Convention : Reuss Voigt Hill
#
# Bulk Modulus (GPa) = 40.47608 40.87517 40.67562
# Shear Modulus (GPa) = 29.74963 33.88680 31.81822
#
# Velocity S-wave (km/s) = 3.42418 3.65452 3.54122
# Velocity P-wave (km/s) = 5.62013 5.82385 5.72289
#
# Compressibility (1/GPa) = 0.02470595
#
# Stress axis : x y z
#
# Youngs Moduli (GPa) = 74.52621 84.89215 87.57952
#
# Poissons Ratio (x) = 0.31555 0.25367
# Poissons Ratio (y) = 0.27702 -0.05768
# Poissons Ratio (z) = 0.21586 -0.05591
#
# Static dielectric constant tensor:
#      x y z
#    x 2.095560 0.000000 -0.022730 
#    y 0.000000 1.951870 0.000000 
#    z -0.022730 0.000000 2.088630 
# 
# From -- ./inp_files/543.got.cif
#   From: 2010.05.17/outbox.cif.g08.bks.cpg/sg4_1_cif.got.tgz:543.got - 2010.06.03 18:43:04.
