data_PCOD9117500
_publ_section_title
;
Structure prediction by ZEFSAII (Michael W. Deem and Ramdas Pophale) SiO2 
 PCOD9117500
Probable space group: P 21
;
_chemical_formula_sum "Si O2"
_cell_formula_units_Z 12
_cell_length_a 9.693483
_cell_length_b 6.785969
_cell_length_c 11.865871
_cell_angle_alpha 90.000000
_cell_angle_beta 35.869733
_cell_angle_gamma 90.000000
_cell_volume 457.348994
_symmetry_space_group_name_H-M "P 21"
_symmetry_group_IT_number 4
_symmetry_cell_setting 'monoclinic'
loop_
_space_group_symop_operation_xyz
x,y,z
-x,1/2+y,-z
loop_
_atom_site_type_symbol
_atom_site_label
_atom_site_fract_x
_atom_site_fract_y
_atom_site_fract_z
Si Si1 0.856833 0.877390 0.281366
Si Si2 0.234975 0.100432 0.951824
Si Si3 0.659312 0.964980 0.806439
Si Si4 0.781999 0.034746 0.969655
Si Si5 0.491485 0.897464 0.361234
Si Si6 0.938525 0.178268 0.428264
O O1 0.588044 0.915349 0.423661
O O2 0.984440 0.667085 0.193778
O O3 0.919193 0.995883 0.353648
O O4 0.001552 0.981906 0.082897
O O5 0.157780 0.301813 0.063652
O O6 0.388605 0.186766 0.750809
O O7 0.403789 0.968626 0.918149
O O8 0.648220 0.050139 0.939358
O O9 0.805688 0.763094 0.713802
O O10 0.813594 0.109946 0.625954
O O11 0.604810 0.050743 0.195473
O O12 0.221325 0.858095 0.514070
#
# Coordination Sequence:
#
# PCOD9117500 Si02
#       6
#     2   2   2   2   2   2
#     4  12  22  42  74  98 138 186 234 287 348 413
#     4   9  23  42  66 100 127 181 233 294 324 415
#     4  11  23  43  65 100 147 172 241 282 354 414
#     4  10  23  41  70  97 130 186 232 290 333 409
#     4   9  23  45  64 102 141 178 236 281 347 415
#     4  11  24  43  69 105 145 187 220 296 360 416
#
# _framework density 26.23817
#
# number of rings (size 3 to 8) (size 9 to 14) (size 15 to 20)
#    1.000    0.667    1.667    2.000    2.333    4.000 
#    0.000    1.667    0.000    0.000    0.000    0.000 
#    0.000    0.000    0.000    0.000    0.000    0.000 
#
# Total GULP energy -67026.040708 kJ/mol
# GULP energy per Si atom -5585.503392 kJ/mol
# Density = 2.617845 g / cm^3
# Si number density = 26.238170 Si / 1000 Ang^3
#
#
#
# Elastic Constant Matrix: (Units=GPa)
#
#
# Indices 1 2 3 4 5 6 
#
# 1 127.8721 45.6664 46.7758 0.0000 -19.5470 0.0000
# 2 45.6664 99.7620 43.2980 0.0000 1.4142 0.0000
# 3 46.7758 43.2980 94.1386 0.0000 -3.3577 0.0000
# 4 0.0000 0.0000 0.0000 54.0412 0.0000 3.4729
# 5 -19.5470 1.4142 -3.3577 0.0000 33.5229 0.0000
# 6 0.0000 0.0000 0.0000 3.4729 0.0000 23.6874
#
#
#
# Elastic Compliance Matrix: (Units=1/GPa)
#
#
# Indices 1 2 3 4 5 6 
#
# 1 0.011529 -0.003728 -0.003782 0.000000 0.006501 0.000000
# 2 -0.003728 0.013771 -0.004596 0.000000 -0.003215 0.000000
# 3 -0.003782 -0.004596 0.014596 0.000000 -0.000549 0.000000
# 4 0.000000 0.000000 0.000000 0.018680 0.000000 -0.002739
# 5 0.006501 -0.003215 -0.000549 0.000000 0.033702 0.000000
# 6 0.000000 0.000000 0.000000 -0.002739 0.000000 0.042618
#
#
# Mechanical properties :
#
#
# Convention : Reuss Voigt Hill
#
# Bulk Modulus (GPa) = 63.76043 65.91700 64.83871
# Shear Modulus (GPa) = 30.42556 34.65248 32.53902
#
# Velocity S-wave (km/s) = 3.40897 3.63807 3.52538
# Velocity P-wave (km/s) = 6.31254 6.54404 6.42934
#
# Compressibility (1/GPa) = 0.01568371
#
# Stress axis : x y z
#
# Youngs Moduli (GPa) = 86.73844 72.61797 68.51172
#
# Poissons Ratio (x) = 0.27073 0.25911
# Poissons Ratio (y) = 0.32337 0.31487
# Poissons Ratio (z) = 0.32804 0.33374
#
# Static dielectric constant tensor:
#      x y z
#    x 2.063080 0.000000 0.046900 
#    y 0.000000 2.080220 0.000000 
#    z 0.046900 0.000000 2.047720 
# 
# From -- ./inp_files/13643.got.cif
#   From: 2010.05.17/outbox.cif.g08.bks.cpg/sg4_7_cif.got.tgz:13643.got - 2010.06.03 18:43:04.
