data_PCOD9117238
_publ_section_title
;
Structure prediction by ZEFSAII (Michael W. Deem and Ramdas Pophale) SiO2 
 PCOD9117238
Probable space group: P 21
;
_chemical_formula_sum "Si O2"
_cell_formula_units_Z 16
_cell_length_a 13.864042
_cell_length_b 5.272558
_cell_length_c 9.220189
_cell_angle_alpha 90.000000
_cell_angle_beta 100.559954
_cell_angle_gamma 90.000000
_cell_volume 662.571430
_symmetry_space_group_name_H-M "P 21"
_symmetry_group_IT_number 4
_symmetry_cell_setting 'monoclinic'
loop_
_space_group_symop_operation_xyz
x,y,z
-x,1/2+y,-z
loop_
_atom_site_type_symbol
_atom_site_label
_atom_site_fract_x
_atom_site_fract_y
_atom_site_fract_z
Si Si1 0.052033 0.496640 0.721492
Si Si2 0.720094 0.439706 0.987206
Si Si3 0.759952 0.716843 0.280868
Si Si4 0.642268 0.944135 0.807557
Si Si5 0.056382 0.874255 0.046763
Si Si6 0.713814 0.083831 0.503121
Si Si7 0.533229 0.414175 0.424686
Si Si8 0.102596 0.864103 0.534775
O O1 0.154225 0.363322 0.788090
O O2 0.082071 0.781244 0.695078
O O3 0.958144 0.475632 0.795833
O O4 0.002601 0.393852 0.562940
O O5 0.680655 0.682123 0.885835
O O6 0.834636 0.395058 0.980257
O O7 0.667626 0.182412 0.918099
O O8 0.712152 0.522816 0.154229
O O9 0.824871 0.595417 0.426512
O O10 0.693027 0.907033 0.355751
O O11 0.526027 0.932140 0.741422
O O12 0.689446 0.989021 0.658961
O O13 0.016857 0.584907 0.043769
O O14 0.645425 0.329433 0.456866
O O15 0.827762 0.157434 0.521439
O O16 0.516808 0.678010 0.502997
#
# Coordination Sequence:
#
# PCOD9117238 Si02
#       8
#     2   2   2   2   2   2   2   2
#     4  11  23  39  62  94 133 190 238 298 334 419
#     4  12  26  45  69 104 151 189 239 294 362 430
#     4  11  25  44  66 100 146 193 235 293 369 418
#     4  11  25  45  74 108 139 185 240 303 360 433
#     4  12  25  41  65  94 137 188 243 276 350 413
#     4  10  25  42  75 107 134 186 241 302 361 430
#     4  10  22  44  77 111 144 174 237 307 371 426
#     4  11  23  40  66  94 140 179 247 289 355 407
#
# _framework density 24.148339
#
# number of rings (size 3 to 8) (size 9 to 14) (size 15 to 20)
#    0.000    1.000    2.500    3.750   10.500    0.000 
#    0.000    0.000    2.750    0.000    0.000    0.000 
#    0.000    0.000    0.000    0.000    0.000    0.000 
#
# Total GULP energy -89289.876491 kJ/mol
# GULP energy per Si atom -5580.617281 kJ/mol
# Density = 2.409338 g / cm^3
# Si number density = 24.148339 Si / 1000 Ang^3
#
#
#
# Elastic Constant Matrix: (Units=GPa)
#
#
# Indices 1 2 3 4 5 6 
#
# 1 85.2004 29.8685 25.4445 0.0000 14.3887 0.0000
# 2 29.8685 90.3704 10.5476 0.0000 6.4183 0.0000
# 3 25.4445 10.5476 57.0214 0.0000 7.8011 0.0000
# 4 0.0000 0.0000 0.0000 41.8676 0.0000 2.3076
# 5 14.3887 6.4183 7.8011 0.0000 33.4395 0.0000
# 6 0.0000 0.0000 0.0000 2.3076 0.0000 35.9748
#
#
#
# Elastic Compliance Matrix: (Units=1/GPa)
#
#
# Indices 1 2 3 4 5 6 
#
# 1 0.015655 -0.004194 -0.005576 0.000000 -0.004630 0.000000
# 2 -0.004194 0.012532 -0.000376 0.000000 -0.000513 0.000000
# 3 -0.005576 -0.000376 0.020408 0.000000 -0.002289 0.000000
# 4 0.000000 0.000000 0.000000 0.023970 0.000000 -0.001538
# 5 -0.004630 -0.000513 -0.002289 0.000000 0.032530 0.000000
# 6 0.000000 0.000000 0.000000 -0.001538 0.000000 0.027896
#
#
# Mechanical properties :
#
#
# Convention : Reuss Voigt Hill
#
# Bulk Modulus (GPa) = 35.33404 40.47926 37.90665
# Shear Modulus (GPa) = 30.72799 33.37181 32.04990
#
# Velocity S-wave (km/s) = 3.57104 3.72149 3.64704
# Velocity P-wave (km/s) = 5.62734 5.93845 5.78498
#
# Compressibility (1/GPa) = 0.02830132
#
# Stress axis : x y z
#
# Youngs Moduli (GPa) = 63.87860 79.79433 48.99953
#
# Poissons Ratio (x) = 0.33469 0.27323
# Poissons Ratio (y) = 0.26793 0.01844
# Poissons Ratio (z) = 0.35620 0.03003
#
# Static dielectric constant tensor:
#      x y z
#    x 1.924690 0.000000 -0.111990 
#    y 0.000000 2.109660 0.000000 
#    z -0.111990 0.000000 2.268120 
# 
# From -- ./inp_files/9045.got.cif
#   From: 2010.05.17/outbox.cif.g08.bks.cpg/sg4_5_cif.got.tgz:9045.got - 2010.06.03 18:43:04.
