data_PCOD9117933
_publ_section_title
;
Structure prediction by ZEFSAII (Michael W. Deem and Ramdas Pophale) SiO2 
 PCOD9117933
Probable space group: P 21
;
_chemical_formula_sum "Si O2"
_cell_formula_units_Z 10
_cell_length_a 17.896111
_cell_length_b 4.758491
_cell_length_c 10.096856
_cell_angle_alpha 90.000000
_cell_angle_beta 25.645591
_cell_angle_gamma 90.000000
_cell_volume 372.138459
_symmetry_space_group_name_H-M "P 21"
_symmetry_group_IT_number 4
_symmetry_cell_setting 'monoclinic'
loop_
_space_group_symop_operation_xyz
x,y,z
-x,1/2+y,-z
loop_
_atom_site_type_symbol
_atom_site_label
_atom_site_fract_x
_atom_site_fract_y
_atom_site_fract_z
Si Si1 0.412181 0.255090 0.821994
Si Si2 0.111203 0.296513 0.845012
Si Si3 0.261890 0.932410 0.818586
Si Si4 0.118333 0.862519 0.300784
Si Si5 0.473509 0.132235 0.136991
O O1 0.556247 0.353470 0.903221
O O2 0.274684 0.046853 0.111392
O O3 0.368264 0.159513 0.740135
O O4 0.412399 0.528429 0.918324
O O5 0.134993 0.130918 0.943271
O O6 0.293288 0.263180 0.477705
O O7 0.965155 0.102792 0.009747
O O8 0.381321 0.756976 0.528113
O O9 0.186380 0.736360 0.053236
O O10 0.017118 0.607298 0.526102
#
# Coordination Sequence:
#
# PCOD9117933 Si02
#       5
#     2   2   2   2   2
#     4   9  23  43  72  97 137 183 233 275 340 415
#     4  11  25  46  71 102 140 184 230 283 346 411
#     4   9  23  43  72  97 137 183 233 275 340 415
#     4  10  24  40  64 100 134 168 220 286 342 382
#     4  11  25  46  71 102 140 184 230 283 346 411
#
# _framework density 26.87172
#
# number of rings (size 3 to 8) (size 9 to 14) (size 15 to 20)
#    1.200    0.800    0.000    1.200    2.800   14.400 
#    0.000    0.000    0.000    0.000    0.000    0.000 
#    0.000    0.000    0.000    0.000    0.000    0.000 
#
# Total GULP energy -55698.742187 kJ/mol
# GULP energy per Si atom -5569.874219 kJ/mol
# Density = 2.681056 g / cm^3
# Si number density = 26.871720 Si / 1000 Ang^3
#
#
#
# Elastic Constant Matrix: (Units=GPa)
#
#
# Indices 1 2 3 4 5 6 
#
# 1 87.7780 13.6721 10.3783 0.0000 -4.4659 0.0000
# 2 13.6721 148.9055 62.6021 0.0000 -11.3023 0.0000
# 3 10.3783 62.6021 95.7695 0.0000 10.6171 0.0000
# 4 0.0000 0.0000 0.0000 18.1327 0.0000 21.0084
# 5 -4.4659 -11.3023 10.6171 0.0000 34.0018 0.0000
# 6 0.0000 0.0000 0.0000 21.0084 0.0000 35.1616
#
#
#
# Elastic Compliance Matrix: (Units=1/GPa)
#
#
# Indices 1 2 3 4 5 6 
#
# 1 0.011689 -0.000450 -0.001167 0.000000 0.001750 0.000000
# 2 -0.000450 0.010237 -0.007265 0.000000 0.005612 0.000000
# 3 -0.001167 -0.007265 0.016162 0.000000 -0.007615 0.000000
# 4 0.000000 0.000000 0.000000 0.179195 0.000000 -0.107066
# 5 0.001750 0.005612 -0.007615 0.000000 0.033883 0.000000
# 6 0.000000 0.000000 0.000000 -0.107066 0.000000 0.092410
#
#
# Mechanical properties :
#
#
# Convention : Reuss Voigt Hill
#
# Bulk Modulus (GPa) = 49.20190 56.19531 52.69861
# Shear Modulus (GPa) = 13.58268 33.84594 23.71431
#
# Velocity S-wave (km/s) = 2.25069 3.55285 2.97391
# Velocity P-wave (km/s) = 5.01037 6.14720 5.60767
#
# Compressibility (1/GPa) = 0.02032442
#
# Stress axis : x y z
#
# Youngs Moduli (GPa) = 85.54736 97.68033 61.87523
#
# Poissons Ratio (x) = 0.04396 0.07218
# Poissons Ratio (y) = 0.03850 0.44955
# Poissons Ratio (z) = 0.09980 0.70969
#
# Static dielectric constant tensor:
#      x y z
#    x 2.197660 0.000000 -0.081810 
#    y 0.000000 2.109510 0.000000 
#    z -0.081810 0.000000 2.137400 
# 
# From -- ./inp_files/8974.got.cif
#   From: 2010.05.17/outbox.cif.g08.bks.cpg/sg4_5_cif.got.tgz:8974.got - 2010.06.03 18:43:04.
