data_PCOD9117508
_publ_section_title
;
Structure prediction by ZEFSAII (Michael W. Deem and Ramdas Pophale) SiO2 
 PCOD9117508
Probable space group: P 21
;
_chemical_formula_sum "Si O2"
_cell_formula_units_Z 14
_cell_length_a 16.354884
_cell_length_b 5.069644
_cell_length_c 9.986299
_cell_angle_alpha 90.000000
_cell_angle_beta 136.202291
_cell_angle_gamma 90.000000
_cell_volume 573.069543
_symmetry_space_group_name_H-M "P 21"
_symmetry_group_IT_number 4
_symmetry_cell_setting 'monoclinic'
loop_
_space_group_symop_operation_xyz
x,y,z
-x,1/2+y,-z
loop_
_atom_site_type_symbol
_atom_site_label
_atom_site_fract_x
_atom_site_fract_y
_atom_site_fract_z
Si Si1 0.847665 0.963680 0.273964
Si Si2 0.621262 0.657839 0.048409
Si Si3 0.451991 0.787543 0.273245
Si Si4 0.957065 0.455912 0.279657
Si Si5 0.947835 0.133221 0.994715
Si Si6 0.396368 0.891307 0.713354
Si Si7 0.317154 0.609939 0.371118
O O1 0.711777 0.889991 0.123022
O O2 0.907901 0.752212 0.242303
O O3 0.918219 0.933014 0.496388
O O4 0.869213 0.261937 0.256265
O O5 0.664495 0.560264 0.244789
O O6 0.615128 0.466209 0.913631
O O7 0.479604 0.698128 0.898070
O O8 0.576208 0.909385 0.472012
O O9 0.502701 0.531754 0.257833
O O10 0.367404 0.756835 0.299975
O O11 0.963213 0.314833 0.144295
O O12 0.814466 0.025548 0.819685
O O13 0.974376 0.366776 0.917633
O O14 0.311090 0.769850 0.503070
#
# Coordination Sequence:
#
# PCOD9117508 Si02
#       7
#     2   2   2   2   2   2   2
#     4  10  23  41  74  95 135 176 225 292 339 413
#     4  11  24  39  68  99 134 177 217 291 350 419
#     4  11  23  44  67 103 133 180 233 284 355 420
#     4  10  23  47  65 104 128 178 240 278 341 411
#     4  12  29  47  71 105 144 194 237 293 350 423
#     4  11  24  43  63 104 134 172 226 285 358 417
#     4  11  26  43  74  96 144 185 236 291 349 431
#
# _framework density 24.429846999999999
#
# number of rings (size 3 to 8) (size 9 to 14) (size 15 to 20)
#    0.000    1.143    2.857    1.714    8.000    0.000 
#    0.000    0.000    0.000    0.000    0.000    0.000 
#    0.000    0.000    0.000    0.000    0.000    0.000 
#
# Total GULP energy -78223.458765 kJ/mol
# GULP energy per Si atom -5587.389912 kJ/mol
# Density = 2.437424 g / cm^3
# Si number density = 24.429847 Si / 1000 Ang^3
#
#
#
# Elastic Constant Matrix: (Units=GPa)
#
#
# Indices 1 2 3 4 5 6 
#
# 1 61.1628 3.1156 38.3199 0.0000 1.2123 0.0000
# 2 3.1156 49.9997 11.0359 0.0000 9.1038 0.0000
# 3 38.3199 11.0359 68.1879 0.0000 11.6352 0.0000
# 4 0.0000 0.0000 0.0000 34.8911 0.0000 1.6554
# 5 1.2123 9.1038 11.6352 0.0000 44.3589 0.0000
# 6 0.0000 0.0000 0.0000 1.6554 0.0000 23.2613
#
#
#
# Elastic Compliance Matrix: (Units=1/GPa)
#
#
# Indices 1 2 3 4 5 6 
#
# 1 0.025735 0.001193 -0.015173 0.000000 0.003032 0.000000
# 2 0.001193 0.021340 -0.003529 0.000000 -0.003486 0.000000
# 3 -0.015173 -0.003529 0.024673 0.000000 -0.005333 0.000000
# 4 0.000000 0.000000 0.000000 0.028758 0.000000 -0.002047
# 5 0.003032 -0.003486 -0.005333 0.000000 0.024575 0.000000
# 6 0.000000 0.000000 0.000000 -0.002047 0.000000 0.043136
#
#
# Mechanical properties :
#
#
# Convention : Reuss Voigt Hill
#
# Bulk Modulus (GPa) = 27.22572 31.58815 29.40693
# Shear Modulus (GPa) = 23.20428 28.96085 26.08257
#
# Velocity S-wave (km/s) = 3.08528 3.44680 3.27104
# Velocity P-wave (km/s) = 4.88473 5.36645 5.13125
#
# Compressibility (1/GPa) = 0.03672997
#
# Stress axis : x y z
#
# Youngs Moduli (GPa) = 38.85738 46.86130 40.52959
#
# Poissons Ratio (x) = -0.05592 0.61495
# Poissons Ratio (y) = -0.04637 0.14305
# Poissons Ratio (z) = 0.58958 0.16540
#
# Static dielectric constant tensor:
#      x y z
#    x 1.947480 0.000000 -0.064730 
#    y 0.000000 2.134750 0.000000 
#    z -0.064730 0.000000 1.919360 
# 
# From -- ./inp_files/7146.got.cif
#   From: 2010.05.17/outbox.cif.g08.bks.cpg/sg4_4_cif.got.tgz:7146.got - 2010.06.03 18:43:04.
