data_PCOD9117002
_publ_section_title
;
Structure prediction by ZEFSAII (Michael W. Deem and Ramdas Pophale) SiO2 
 PCOD9117002
Probable space group: P 21
;
_chemical_formula_sum "Si O2"
_cell_formula_units_Z 16
_cell_length_a 12.120020
_cell_length_b 8.632159
_cell_length_c 15.540539
_cell_angle_alpha 90.000000
_cell_angle_beta 155.818424
_cell_angle_gamma 90.000000
_cell_volume 666.009302
_symmetry_space_group_name_H-M "P 21"
_symmetry_group_IT_number 4
_symmetry_cell_setting 'monoclinic'
loop_
_space_group_symop_operation_xyz
x,y,z
-x,1/2+y,-z
loop_
_atom_site_type_symbol
_atom_site_label
_atom_site_fract_x
_atom_site_fract_y
_atom_site_fract_z
Si Si1 0.761273 0.293600 0.777901
Si Si2 0.689419 0.417469 0.186509
Si Si3 0.093572 0.381754 0.767168
Si Si4 0.060041 0.226110 0.560523
Si Si5 0.797686 0.642906 0.003361
Si Si6 0.566437 0.892395 0.307717
Si Si7 0.984056 0.360078 0.228410
Si Si8 0.276819 0.069287 0.383156
O O1 0.686718 0.317247 0.823516
O O2 0.551280 0.165274 0.591460
O O3 0.723222 0.455029 0.698362
O O4 0.062826 0.236158 0.974073
O O5 0.873659 0.553490 0.358874
O O6 0.797597 0.266186 0.315491
O O7 0.737193 0.379318 0.119686
O O8 0.380025 0.470593 0.974127
O O9 0.047281 0.324292 0.638517
O O10 0.167827 0.245701 0.887138
O O11 0.822455 0.462371 0.607933
O O12 0.305171 0.287059 0.674720
O O13 0.972111 0.493129 0.150707
O O14 0.514175 0.564544 0.779042
O O15 0.776949 0.893693 0.534992
O O16 0.044581 0.199571 0.225060
#
# Coordination Sequence:
#
# PCOD9117002 Si02
#       8
#     2   2   2   2   2   2   2   2
#     4  10  22  45  67 101 136 177 238 287 345 405
#     4  11  26  42  68 105 141 182 229 277 349 416
#     4  11  26  42  70 102 138 178 237 273 348 416
#     4  11  26  44  69  99 143 181 226 284 343 417
#     4  11  23  43  69  98 131 185 227 287 341 407
#     4  10  24  41  67  95 137 174 227 282 343 402
#     4  10  22  42  69  96 140 179 223 285 349 403
#     4  10  23  43  71 100 134 184 231 285 344 408
#
# _framework density 24.023688
#
# number of rings (size 3 to 8) (size 9 to 14) (size 15 to 20)
#    0.000    1.500    1.250    2.250   12.250    1.000 
#    2.250    2.500    0.000    0.000    0.000    0.000 
#    0.000    0.000    0.000    0.000    0.000    0.000 
#
# Total GULP energy -89359.302841 kJ/mol
# GULP energy per Si atom -5584.956428 kJ/mol
# Density = 2.396901 g / cm^3
# Si number density = 24.023688 Si / 1000 Ang^3
#
#
#
# Elastic Constant Matrix: (Units=GPa)
#
#
# Indices 1 2 3 4 5 6 
#
# 1 132.8460 33.8574 6.4081 0.0000 12.2736 0.0000
# 2 33.8574 101.9143 14.6744 0.0000 6.3903 0.0000
# 3 6.4081 14.6744 60.1299 0.0000 -3.3732 0.0000
# 4 0.0000 0.0000 0.0000 20.1516 0.0000 12.0544
# 5 12.2736 6.3903 -3.3732 0.0000 14.5426 0.0000
# 6 0.0000 0.0000 0.0000 12.0544 0.0000 29.5494
#
#
#
# Elastic Compliance Matrix: (Units=1/GPa)
#
#
# Indices 1 2 3 4 5 6 
#
# 1 0.008777 -0.002404 -0.000714 0.000000 -0.006516 0.000000
# 2 -0.002404 0.011217 -0.002679 0.000000 -0.003521 0.000000
# 3 -0.000714 -0.002679 0.017691 0.000000 0.005883 0.000000
# 4 0.000000 0.000000 0.000000 0.065642 0.000000 -0.026778
# 5 -0.006516 -0.003521 0.005883 0.000000 0.077175 0.000000
# 6 0.000000 0.000000 0.000000 -0.026778 0.000000 0.044765
#
#
# Mechanical properties :
#
#
# Convention : Reuss Voigt Hill
#
# Bulk Modulus (GPa) = 38.32872 44.97443 41.65157
# Shear Modulus (GPa) = 20.36172 28.84541 24.60357
#
# Velocity S-wave (km/s) = 2.91446 3.46888 3.20369
# Velocity P-wave (km/s) = 5.22634 5.89963 5.57316
#
# Compressibility (1/GPa) = 0.02609010
#
# Stress axis : x y z
#
# Youngs Moduli (GPa) = 113.93681 89.14688 56.52731
#
# Poissons Ratio (x) = 0.21434 0.04037
# Poissons Ratio (y) = 0.27394 0.15143
# Poissons Ratio (z) = 0.08137 0.23881
#
# Static dielectric constant tensor:
#      x y z
#    x 1.956880 0.000000 0.101330 
#    y 0.000000 1.973550 0.000000 
#    z 0.101330 0.000000 1.960840 
# 
# From -- ./inp_files/13914.got.cif
#   From: 2010.05.17/outbox.cif.g08.bks.cpg/sg4_7_cif.got.tgz:13914.got - 2010.06.03 18:43:04.
