data_PCOD9117823
_publ_section_title
;
Structure prediction by ZEFSAII (Michael W. Deem and Ramdas Pophale) SiO2 
 PCOD9117823
Probable space group: P 21
;
_chemical_formula_sum "Si O2"
_cell_formula_units_Z 14
_cell_length_a 9.104146
_cell_length_b 5.393255
_cell_length_c 18.182680
_cell_angle_alpha 90.000000
_cell_angle_beta 38.121650
_cell_angle_gamma 90.000000
_cell_volume 551.147304
_symmetry_space_group_name_H-M "P 21"
_symmetry_group_IT_number 4
_symmetry_cell_setting 'monoclinic'
loop_
_space_group_symop_operation_xyz
x,y,z
-x,1/2+y,-z
loop_
_atom_site_type_symbol
_atom_site_label
_atom_site_fract_x
_atom_site_fract_y
_atom_site_fract_z
Si Si1 0.888353 0.675210 0.206755
Si Si2 0.912044 0.919550 0.003090
Si Si3 0.178494 0.842815 0.628265
Si Si4 0.890970 0.443649 0.684293
Si Si5 0.506972 0.986577 0.265809
Si Si6 0.356475 0.845740 0.074586
Si Si7 0.382285 0.199759 0.452018
O O1 0.836460 0.569917 0.307794
O O2 0.107621 0.864949 0.127894
O O3 0.666151 0.800681 0.253084
O O4 0.003081 0.455561 0.113112
O O5 0.658439 0.019121 0.131571
O O6 0.071212 0.132245 0.981140
O O7 0.390260 0.696090 0.584484
O O8 0.932942 0.704561 0.710046
O O9 0.263114 0.935013 0.515435
O O10 0.751591 0.423609 0.662996
O O11 0.733411 0.299231 0.806362
O O12 0.165379 0.375502 0.559218
O O13 0.471164 0.220174 0.333904
O O14 0.495475 0.598101 0.994165
#
# Coordination Sequence:
#
# PCOD9117823 Si02
#       7
#     2   2   2   2   2   2   2
#     4  11  24  48  79 110 152 206 260 329 398 475
#     4  10  23  46  71 109 150 198 252 314 387 465
#     4  12  24  49  75 110 144 207 263 325 384 479
#     4  12  28  47  72 112 152 196 264 324 397 466
#     4  11  27  46  72 112 150 203 250 324 395 474
#     4  12  27  49  78 114 154 207 266 330 394 476
#     4  12  25  45  75 103 146 201 255 314 387 471
#
# _framework density 25.401558000000001
#
# number of rings (size 3 to 8) (size 9 to 14) (size 15 to 20)
#    0.000    0.571    2.857    4.286    2.000    8.000 
#    5.143    0.000    0.000    0.000    0.000    0.000 
#    0.000    0.000    0.000    0.000    0.000    0.000 
#
# Total GULP energy -78142.106843 kJ/mol
# GULP energy per Si atom -5581.579060 kJ/mol
# Density = 2.534374 g / cm^3
# Si number density = 25.401558 Si / 1000 Ang^3
#
#
#
# Elastic Constant Matrix: (Units=GPa)
#
#
# Indices 1 2 3 4 5 6 
#
# 1 162.7252 42.5585 40.3946 0.0000 -18.8992 0.0000
# 2 42.5585 84.4518 33.2795 0.0000 -7.8516 0.0000
# 3 40.3946 33.2795 111.2325 0.0000 -6.5451 0.0000
# 4 0.0000 0.0000 0.0000 46.7136 0.0000 -6.2929
# 5 -18.8992 -7.8516 -6.5451 0.0000 27.0986 0.0000
# 6 0.0000 0.0000 0.0000 -6.2929 0.0000 20.1120
#
#
#
# Elastic Compliance Matrix: (Units=1/GPa)
#
#
# Indices 1 2 3 4 5 6 
#
# 1 0.007812 -0.002863 -0.001733 0.000000 0.004200 0.000000
# 2 -0.002863 0.014712 -0.003275 0.000000 0.001475 0.000000
# 3 -0.001733 -0.003275 0.010623 0.000000 0.000408 0.000000
# 4 0.000000 0.000000 0.000000 0.022349 0.000000 0.006993
# 5 0.004200 0.001475 0.000408 0.000000 0.040357 0.000000
# 6 0.000000 0.000000 0.000000 0.006993 0.000000 0.051910
#
#
# Mechanical properties :
#
#
# Convention : Reuss Voigt Hill
#
# Bulk Modulus (GPa) = 57.45715 65.65275 61.55495
# Shear Modulus (GPa) = 29.53195 34.92997 32.23096
#
# Velocity S-wave (km/s) = 3.41340 3.71227 3.56597
# Velocity P-wave (km/s) = 6.18091 6.65407 6.42185
#
# Compressibility (1/GPa) = 0.01740427
#
# Stress axis : x y z
#
# Youngs Moduli (GPa) = 128.00357 67.97317 94.13137
#
# Poissons Ratio (x) = 0.19463 0.16315
# Poissons Ratio (y) = 0.36653 0.30828
# Poissons Ratio (z) = 0.22186 0.22261
#
# Static dielectric constant tensor:
#      x y z
#    x 2.027370 0.000000 -0.037710 
#    y 0.000000 2.143210 0.000000 
#    z -0.037710 0.000000 2.064490 
# 
# From -- ./inp_files/7405.got.cif
#   From: 2010.05.17/outbox.cif.g08.bks.cpg/sg4_4_cif.got.tgz:7405.got - 2010.06.03 18:43:04.
