data_PCOD9117573
_publ_section_title
;
Structure prediction by ZEFSAII (Michael W. Deem and Ramdas Pophale) SiO2 
 PCOD9117573
Probable space group: P 21
;
_chemical_formula_sum "Si O2"
_cell_formula_units_Z 16
_cell_length_a 10.112791
_cell_length_b 11.842485
_cell_length_c 5.223597
_cell_angle_alpha 90.000000
_cell_angle_beta 103.066324
_cell_angle_gamma 90.000000
_cell_volume 609.384076
_symmetry_space_group_name_H-M "P 21"
_symmetry_group_IT_number 4
_symmetry_cell_setting 'monoclinic'
loop_
_space_group_symop_operation_xyz
x,y,z
-x,1/2+y,-z
loop_
_atom_site_type_symbol
_atom_site_label
_atom_site_fract_x
_atom_site_fract_y
_atom_site_fract_z
Si Si1 0.142255 0.185900 0.626065
Si Si2 0.095842 0.688283 0.833285
Si Si3 0.284717 0.405206 0.650475
Si Si4 0.658680 0.511217 0.118248
Si Si5 0.927658 0.354544 0.806989
Si Si6 0.317491 0.780130 0.622648
Si Si7 0.492298 0.081336 0.442118
Si Si8 0.158225 0.485834 0.101809
O O1 0.270170 0.269803 0.642423
O O2 0.194914 0.067935 0.757393
O O3 0.053059 0.167000 0.335876
O O4 0.036038 0.261035 0.747206
O O5 0.216750 0.682619 0.684520
O O6 0.096657 0.817862 0.913639
O O7 0.156505 0.619958 0.098221
O O8 0.406107 0.477245 0.583370
O O9 0.168158 0.437583 0.388596
O O10 0.266390 0.440226 0.940533
O O11 0.639740 0.376050 0.152682
O O12 0.560587 0.561848 0.295841
O O13 0.620774 0.560303 0.824459
O O14 0.784105 0.351189 0.606024
O O15 0.021039 0.461944 0.881337
O O16 0.438915 0.704868 0.562223
#
# Coordination Sequence:
#
# PCOD9117573 Si02
#       8
#     2   2   2   2   2   2   2   2
#     4  10  25  45  69 112 141 189 237 304 370 431
#     4  11  22  42  75 104 147 186 231 308 369 438
#     4  11  23  45  68  99 142 185 246 284 353 434
#     4  12  31  48  77 105 150 192 248 309 352 432
#     4  10  23  42  75 105 149 186 229 304 372 435
#     4  11  27  49  72 110 144 190 252 297 372 436
#     4  12  29  49  75 104 140 208 242 306 354 425
#     4  11  22  40  69 107 141 184 231 294 360 433
#
# _framework density 26.256018000000001
#
# number of rings (size 3 to 8) (size 9 to 14) (size 15 to 20)
#    0.000    1.000    2.500    2.250   10.500    1.000 
#    0.000    0.000    0.000    0.000    0.000    0.000 
#    0.000    0.000    0.000    0.000    0.000    0.000 
#
# Total GULP energy -89298.911412 kJ/mol
# GULP energy per Si atom -5581.181963 kJ/mol
# Density = 2.619626 g / cm^3
# Si number density = 26.256018 Si / 1000 Ang^3
#
#
#
# Elastic Constant Matrix: (Units=GPa)
#
#
# Indices 1 2 3 4 5 6 
#
# 1 54.7009 14.4109 -4.7610 0.0000 -7.9967 0.0000
# 2 14.4109 99.5539 2.6472 0.0000 1.0960 0.0000
# 3 -4.7610 2.6472 83.1561 0.0000 9.1912 0.0000
# 4 0.0000 0.0000 0.0000 39.2178 0.0000 10.8821
# 5 -7.9967 1.0960 9.1912 0.0000 34.8361 0.0000
# 6 0.0000 0.0000 0.0000 10.8821 0.0000 37.0171
#
#
#
# Elastic Compliance Matrix: (Units=1/GPa)
#
#
# Indices 1 2 3 4 5 6 
#
# 1 0.019765 -0.002930 0.000735 0.000000 0.004436 0.000000
# 2 -0.002930 0.010489 -0.000403 0.000000 -0.000896 0.000000
# 3 0.000735 -0.000403 0.012423 0.000000 -0.003096 0.000000
# 4 0.000000 0.000000 0.000000 0.027763 0.000000 -0.008162
# 5 0.004436 -0.000896 -0.003096 0.000000 0.030569 0.000000
# 6 0.000000 0.000000 0.000000 -0.008162 0.000000 0.029414
#
#
# Mechanical properties :
#
#
# Convention : Reuss Voigt Hill
#
# Bulk Modulus (GPa) = 26.67905 29.11171 27.89538
# Shear Modulus (GPa) = 33.75800 37.22179 35.48990
#
# Velocity S-wave (km/s) = 3.58959 3.76925 3.68052
# Velocity P-wave (km/s) = 5.23100 5.48222 5.35808
#
# Compressibility (1/GPa) = 0.03748260
#
# Stress axis : x y z
#
# Youngs Moduli (GPa) = 50.59349 95.33397 80.49789
#
# Poissons Ratio (x) = 0.27928 -0.05914
# Poissons Ratio (y) = 0.14821 0.03241
# Poissons Ratio (z) = -0.03717 0.03838
#
# Static dielectric constant tensor:
#      x y z
#    x 2.269380 0.000000 -0.031180 
#    y 0.000000 2.040660 0.000000 
#    z -0.031180 0.000000 2.076770 
# 
# From -- ./inp_files/2888.got.cif
#   From: 2010.05.17/outbox.cif.g08.bks.cpg/sg4_2_cif.got.tgz:2888.got - 2010.06.03 18:43:04.
