data_PCOD9117201
_publ_section_title
;
Structure prediction by ZEFSAII (Michael W. Deem and Ramdas Pophale) SiO2 
 PCOD9117201
Probable space group: P 21
;
_chemical_formula_sum "Si O2"
_cell_formula_units_Z 14
_cell_length_a 10.325210
_cell_length_b 5.198800
_cell_length_c 10.219402
_cell_angle_alpha 90.000000
_cell_angle_beta 98.383449
_cell_angle_gamma 90.000000
_cell_volume 542.702544
_symmetry_space_group_name_H-M "P 21"
_symmetry_group_IT_number 4
_symmetry_cell_setting 'monoclinic'
loop_
_space_group_symop_operation_xyz
x,y,z
-x,1/2+y,-z
loop_
_atom_site_type_symbol
_atom_site_label
_atom_site_fract_x
_atom_site_fract_y
_atom_site_fract_z
Si Si1 0.278958 0.333490 0.692112
Si Si2 0.171289 0.057325 0.027588
Si Si3 0.977673 0.523144 0.415062
Si Si4 0.413789 0.567772 0.469894
Si Si5 0.108019 0.556873 0.161069
Si Si6 0.649137 0.201456 0.094108
Si Si7 0.461221 0.515995 0.197565
O O1 0.163508 0.132254 0.650188
O O2 0.308245 0.491863 0.563380
O O3 0.415143 0.192544 0.744429
O O4 0.251110 0.520429 0.811795
O O5 0.166325 0.834590 0.136160
O O6 0.280186 0.963223 0.941322
O O7 0.185849 0.327234 0.101416
O O8 0.033633 0.055820 0.932605
O O9 0.972246 0.242682 0.477976
O O10 0.072795 0.512484 0.305149
O O11 0.469143 0.855207 0.498457
O O12 0.371599 0.531178 0.312569
O O13 0.591156 0.096379 0.951211
O O14 0.530016 0.243867 0.177691
#
# Coordination Sequence:
#
# PCOD9117201 Si02
#       7
#     2   2   2   2   2   2   2
#     4  11  26  46  77 105 155 202 254 317 385 447
#     4  10  24  40  77 103 146 193 244 306 390 442
#     4  12  29  48  76 109 147 202 267 315 375 460
#     4  10  22  44  71 105 145 198 240 297 370 448
#     4  10  23  48  69 107 143 194 246 315 378 447
#     4  12  24  42  74 115 149 202 248 318 376 462
#     4  11  24  44  72 112 153 191 253 304 380 462
#
# _framework density 25.796821000000001
#
# number of rings (size 3 to 8) (size 9 to 14) (size 15 to 20)
#    0.000    1.143    2.857    1.714   12.000    1.143 
#    0.000   10.000    0.000    0.000    0.000    0.000 
#    0.000    0.000    0.000    0.000    0.000    0.000 
#
# Total GULP energy -78500.039240 kJ/mol
# GULP energy per Si atom -5607.145660 kJ/mol
# Density = 2.573811 g / cm^3
# Si number density = 25.796821 Si / 1000 Ang^3
#
#
#
# Elastic Constant Matrix: (Units=GPa)
#
#
# Indices 1 2 3 4 5 6 
#
# 1 86.6751 18.9680 28.7666 0.0000 -15.2576 0.0000
# 2 18.9680 79.3961 18.3684 0.0000 -6.3849 0.0000
# 3 28.7666 18.3684 168.3880 0.0000 -21.9119 0.0000
# 4 0.0000 0.0000 0.0000 53.3413 0.0000 -1.6811
# 5 -15.2576 -6.3849 -21.9119 0.0000 44.0588 0.0000
# 6 0.0000 0.0000 0.0000 -1.6811 0.0000 47.6261
#
#
#
# Elastic Compliance Matrix: (Units=1/GPa)
#
#
# Indices 1 2 3 4 5 6 
#
# 1 0.013204 -0.002523 -0.001532 0.000000 0.003445 0.000000
# 2 -0.002523 0.013468 -0.000960 0.000000 0.000601 0.000000
# 3 -0.001532 -0.000960 0.006648 0.000000 0.002637 0.000000
# 4 0.000000 0.000000 0.000000 0.018768 0.000000 0.000662
# 5 0.003445 0.000601 0.002637 0.000000 0.025288 0.000000
# 6 0.000000 0.000000 0.000000 0.000662 0.000000 0.021020
#
#
# Mechanical properties :
#
#
# Convention : Reuss Voigt Hill
#
# Bulk Modulus (GPa) = 42.93624 51.85167 47.39395
# Shear Modulus (GPa) = 43.03235 46.89566 44.96400
#
# Velocity S-wave (km/s) = 4.08870 4.26829 4.17946
# Velocity P-wave (km/s) = 6.24260 6.66594 6.45774
#
# Compressibility (1/GPa) = 0.02329035
#
# Stress axis : x y z
#
# Youngs Moduli (GPa) = 75.73198 74.24878 150.41550
#
# Poissons Ratio (x) = 0.18733 0.23048
# Poissons Ratio (y) = 0.19108 0.14440
# Poissons Ratio (z) = 0.11604 0.07128
#
# Static dielectric constant tensor:
#      x y z
#    x 2.070070 0.000000 0.026140 
#    y 0.000000 2.018720 0.000000 
#    z 0.026140 0.000000 2.017170 
# 
# From -- ./inp_files/7384.got.cif
#   From: 2010.05.17/outbox.cif.g08.bks.cpg/sg4_4_cif.got.tgz:7384.got - 2010.06.03 18:43:04.
