data_PCOD9117710
_publ_section_title
;
Structure prediction by ZEFSAII (Michael W. Deem and Ramdas Pophale) SiO2 
 PCOD9117710
Probable space group: P 21
;
_chemical_formula_sum "Si O2"
_cell_formula_units_Z 12
_cell_length_a 4.986890
_cell_length_b 5.649955
_cell_length_c 19.640288
_cell_angle_alpha 90.000000
_cell_angle_beta 50.111888
_cell_angle_gamma 90.000000
_cell_volume 424.606681
_symmetry_space_group_name_H-M "P 21"
_symmetry_group_IT_number 4
_symmetry_cell_setting 'monoclinic'
loop_
_space_group_symop_operation_xyz
x,y,z
-x,1/2+y,-z
loop_
_atom_site_type_symbol
_atom_site_label
_atom_site_fract_x
_atom_site_fract_y
_atom_site_fract_z
Si Si1 0.704471 0.307580 0.224560
Si Si2 0.614210 0.321730 0.388959
Si Si3 0.704471 0.316372 0.724560
Si Si4 0.970111 0.581834 0.443923
Si Si5 0.029889 0.542119 0.056077
Si Si6 0.614210 0.302223 0.888959
O O1 0.819221 0.302953 0.284838
O O2 0.500000 0.561976 0.250000
O O3 0.984110 0.331048 0.118465
O O4 0.500000 0.061976 0.250000
O O5 0.862713 0.368737 0.411598
O O6 0.341957 0.118446 0.452801
O O7 0.334196 0.533911 0.422011
O O8 0.819221 0.321000 0.784838
O O9 0.984111 0.292904 0.618465
O O10 0.137287 0.755216 0.088402
O O11 0.665804 0.590042 0.077989
O O12 0.341957 0.505506 0.952801
#
# Coordination Sequence:
#
# PCOD9117710 Si02
#       6
#     2   2   2   2   2   2
#     4  10  23  44  70 100 136 178 226 280 338 402
#     4  11  23  42  66 100 137 181 228 282 340 405
#     4  10  23  44  70 100 136 178 226 280 338 402
#     4  11  23  42  66 100 137 181 228 282 340 405
#     4  11  23  42  66 100 137 181 228 282 340 405
#     4  11  23  42  66 100 137 181 228 282 340 405
#
# _framework density 28.261444999999998
#
# number of rings (size 3 to 8) (size 9 to 14) (size 15 to 20)
#    0.000    1.333    0.000    5.000    0.000    5.333 
#    0.000   15.000    0.000    0.000    0.000    0.000 
#    0.000    0.000    0.000    0.000    0.000    0.000 
#
# Total GULP energy -67186.930942 kJ/mol
# GULP energy per Si atom -5598.910912 kJ/mol
# Density = 2.819712 g / cm^3
# Si number density = 28.261445 Si / 1000 Ang^3
#
#
#
# Elastic Constant Matrix: (Units=GPa)
#
#
# Indices 1 2 3 4 5 6 
#
# 1 92.8655 49.2478 41.0527 0.0000 4.9615 0.0000
# 2 49.2478 141.5712 36.7793 0.0000 -1.5904 0.0000
# 3 41.0527 36.7793 86.0586 0.0000 27.3609 0.0000
# 4 0.0000 0.0000 0.0000 54.3462 0.0000 -12.0418
# 5 4.9615 -1.5904 27.3609 0.0000 50.0506 0.0000
# 6 0.0000 0.0000 0.0000 -12.0418 0.0000 46.7017
#
#
#
# Elastic Compliance Matrix: (Units=1/GPa)
#
#
# Indices 1 2 3 4 5 6 
#
# 1 0.015448 -0.003698 -0.006372 0.000000 0.001835 0.000000
# 2 -0.003698 0.009110 -0.002830 0.000000 0.002203 0.000000
# 3 -0.006372 -0.002830 0.018999 0.000000 -0.009844 0.000000
# 4 0.000000 0.000000 0.000000 0.019516 0.000000 0.005032
# 5 0.001835 0.002203 -0.009844 0.000000 0.025249 0.000000
# 6 0.000000 0.000000 0.000000 0.005032 0.000000 0.022710
#
#
# Mechanical properties :
#
#
# Convention : Reuss Voigt Hill
#
# Bulk Modulus (GPa) = 56.31446 63.85054 60.08250
# Shear Modulus (GPa) = 35.02619 43.11408 39.07014
#
# Velocity S-wave (km/s) = 3.52428 3.91006 3.72217
# Velocity P-wave (km/s) = 6.04402 6.55947 6.30701
#
# Compressibility (1/GPa) = 0.01775743
#
# Stress axis : x y z
#
# Youngs Moduli (GPa) = 64.73260 109.77167 52.63472
#
# Poissons Ratio (x) = 0.40592 0.33540
# Poissons Ratio (y) = 0.23937 0.14894
# Poissons Ratio (z) = 0.41249 0.31062
#
# Static dielectric constant tensor:
#      x y z
#    x 2.105680 0.000000 -0.039130 
#    y 0.000000 2.263370 0.000000 
#    z -0.039130 0.000000 2.278970 
# 
# From -- ./inp_files/3922.got.cif
#   From: 2010.05.17/outbox.cif.g08.bks.cpg/sg4_2_cif.got.tgz:3922.got - 2010.06.03 18:43:04.
