data_PCOD9117862
_publ_section_title
;
Structure prediction by ZEFSAII (Michael W. Deem and Ramdas Pophale) SiO2 
 PCOD9117862
Probable space group: P 21
;
_chemical_formula_sum "Si O2"
_cell_formula_units_Z 14
_cell_length_a 12.132952
_cell_length_b 9.586765
_cell_length_c 5.255199
_cell_angle_alpha 90.000000
_cell_angle_beta 67.204847
_cell_angle_gamma 90.000000
_cell_volume 563.520378
_symmetry_space_group_name_H-M "P 21"
_symmetry_group_IT_number 4
_symmetry_cell_setting 'monoclinic'
loop_
_space_group_symop_operation_xyz
x,y,z
-x,1/2+y,-z
loop_
_atom_site_type_symbol
_atom_site_label
_atom_site_fract_x
_atom_site_fract_y
_atom_site_fract_z
Si Si1 0.328165 0.181390 0.518695
Si Si2 0.650291 0.995950 0.385900
Si Si3 0.491118 0.551263 0.994279
Si Si4 0.911752 0.314152 0.058915
Si Si5 0.893792 0.558731 0.482560
Si Si6 0.922145 0.038633 0.309518
Si Si7 0.298924 0.943665 0.956289
O O1 0.363931 0.328005 0.602311
O O2 0.412117 0.161668 0.197114
O O3 0.187780 0.175416 0.576587
O O4 0.339897 0.044481 0.688356
O O5 0.603678 0.037195 0.148601
O O6 0.785296 0.020086 0.360609
O O7 0.574769 0.068977 0.679153
O O8 0.585866 0.423890 0.969025
O O9 0.897523 0.417955 0.313400
O O10 0.960911 0.165837 0.094734
O O11 0.776158 0.310762 0.070741
O O12 0.005580 0.397873 0.805495
O O13 0.027556 0.587271 0.461591
O O14 0.805815 0.525877 0.800567
#
# Coordination Sequence:
#
# PCOD9117862 Si02
#       7
#     2   2   2   2   2   2   2
#     4  10  23  47  75 101 147 193 252 299 380 437
#     4  12  29  44  75 113 147 191 249 313 363 446
#     4  11  25  49  67 109 145 197 239 306 370 439
#     4  10  24  46  71 104 147 193 248 307 367 447
#     4   9  22  41  74  99 141 193 241 301 371 440
#     4  11  27  44  71 111 146 194 244 311 373 441
#     4   9  20  47  71 101 133 199 243 297 372 440
#
# _framework density 24.843821999999999
#
# number of rings (size 3 to 8) (size 9 to 14) (size 15 to 20)
#    0.000    1.714    1.429    0.000   14.000    2.286 
#    7.714    0.000    0.000    0.000    0.000    0.000 
#    0.000    0.000    0.000    0.000    0.000    0.000 
#
# Total GULP energy -78114.889076 kJ/mol
# GULP energy per Si atom -5579.634934 kJ/mol
# Density = 2.478728 g / cm^3
# Si number density = 24.843822 Si / 1000 Ang^3
#
#
#
# Elastic Constant Matrix: (Units=GPa)
#
#
# Indices 1 2 3 4 5 6 
#
# 1 212.5985 10.5980 25.7538 0.0000 16.0679 0.0000
# 2 10.5980 62.1732 -5.3349 0.0000 -1.4300 0.0000
# 3 25.7538 -5.3349 79.1093 0.0000 8.4602 0.0000
# 4 0.0000 0.0000 0.0000 16.9608 0.0000 -12.4888
# 5 16.0679 -1.4300 8.4602 0.0000 41.0363 0.0000
# 6 0.0000 0.0000 0.0000 -12.4888 0.0000 26.5218
#
#
#
# Elastic Compliance Matrix: (Units=1/GPa)
#
#
# Indices 1 2 3 4 5 6 
#
# 1 0.005070 -0.001035 -0.001538 0.000000 -0.001704 0.000000
# 2 -0.001035 0.016394 0.001368 0.000000 0.000695 0.000000
# 3 -0.001538 0.001368 0.013461 0.000000 -0.002125 0.000000
# 4 0.000000 0.000000 0.000000 0.090253 0.000000 0.042499
# 5 -0.001704 0.000695 -0.002125 0.000000 0.025498 0.000000
# 6 0.000000 0.000000 0.000000 0.042499 0.000000 0.057717
#
#
# Mechanical properties :
#
#
# Convention : Reuss Voigt Hill
#
# Bulk Modulus (GPa) = 30.75519 46.21273 38.48396
# Shear Modulus (GPa) = 22.55885 38.42806 30.49345
#
# Velocity S-wave (km/s) = 3.01662 3.93719 3.50724
# Velocity P-wave (km/s) = 4.95374 6.26979 5.65021
#
# Compressibility (1/GPa) = 0.03251484
#
# Stress axis : x y z
#
# Youngs Moduli (GPa) = 197.22034 60.99791 74.28831
#
# Poissons Ratio (x) = 0.06316 0.11427
# Poissons Ratio (y) = 0.20422 -0.10166
# Poissons Ratio (z) = 0.30337 -0.08347
#
# Static dielectric constant tensor:
#      x y z
#    x 2.036880 0.000000 0.057100 
#    y 0.000000 1.972770 0.000000 
#    z 0.057100 0.000000 2.058230 
# 
# From -- ./inp_files/2422.got.cif
#   From: 2010.05.17/outbox.cif.g08.bks.cpg/sg4_2_cif.got.tgz:2422.got - 2010.06.03 18:43:04.
