data_PCOD9117052
_publ_section_title
;
Structure prediction by ZEFSAII (Michael W. Deem and Ramdas Pophale) SiO2 
 PCOD9117052
Probable space group: P 21
;
_chemical_formula_sum "Si O2"
_cell_formula_units_Z 14
_cell_length_a 8.448450
_cell_length_b 10.653440
_cell_length_c 5.897703
_cell_angle_alpha 90.000000
_cell_angle_beta 93.651959
_cell_angle_gamma 90.000000
_cell_volume 529.745182
_symmetry_space_group_name_H-M "P 21"
_symmetry_group_IT_number 4
_symmetry_cell_setting 'monoclinic'
loop_
_space_group_symop_operation_xyz
x,y,z
-x,1/2+y,-z
loop_
_atom_site_type_symbol
_atom_site_label
_atom_site_fract_x
_atom_site_fract_y
_atom_site_fract_z
Si Si1 0.979251 0.044510 0.486682
Si Si2 0.874370 0.848939 0.858133
Si Si3 0.310107 0.511154 0.779452
Si Si4 0.272155 0.095095 0.743251
Si Si5 0.444706 0.889059 0.487545
Si Si6 0.174860 0.895866 0.125238
Si Si7 0.424642 0.210969 0.128862
O O1 0.821930 0.096442 0.356227
O O2 0.100790 0.132762 0.630847
O O3 0.075784 0.975295 0.298579
O O4 0.926683 0.936075 0.656242
O O5 0.040263 0.810109 0.993877
O O6 0.771750 0.938857 0.019298
O O7 0.753704 0.736172 0.790130
O O8 0.384555 0.419892 0.598671
O O9 0.463816 0.589470 0.860097
O O10 0.371350 0.021595 0.564290
O O11 0.373360 0.205517 0.860730
O O12 0.237033 0.992318 0.938795
O O13 0.321622 0.839923 0.283329
O O14 0.471236 0.807605 0.715824
#
# Coordination Sequence:
#
# PCOD9117052 Si02
#       7
#     2   2   2   2   2   2   2
#     4   9  20  43  66  86 129 170 206 270 319 369
#     4  10  22  43  65  93 132 166 215 268 313 384
#     4  11  23  42  65  96 132 164 213 271 318 373
#     4  10  22  43  65  93 132 166 215 268 313 384
#     4  11  23  42  65  96 132 164 213 271 318 373
#     4   9  20  43  66  86 129 170 206 270 319 369
#     4  12  24  38  68 100 124 176 218 254 332 380
#
# _framework density 26.427800999999999
#
# number of rings (size 3 to 8) (size 9 to 14) (size 15 to 20)
#    0.000    1.714    2.857    0.857    0.000    2.286 
#    0.000   12.857    0.000    0.000    0.000    0.000 
#    0.000    0.000    0.000    0.000    0.000    0.000 
#
# Total GULP energy -78210.782470 kJ/mol
# GULP energy per Si atom -5586.484462 kJ/mol
# Density = 2.636765 g / cm^3
# Si number density = 26.427801 Si / 1000 Ang^3
#
#
#
# Elastic Constant Matrix: (Units=GPa)
#
#
# Indices 1 2 3 4 5 6 
#
# 1 172.6054 35.6895 90.2053 0.0000 38.7828 0.0000
# 2 35.6895 53.1896 36.4186 0.0000 5.4881 0.0000
# 3 90.2053 36.4186 110.3050 0.0000 7.5160 0.0000
# 4 0.0000 0.0000 0.0000 42.4214 0.0000 -0.0173
# 5 38.7828 5.4881 7.5160 0.0000 87.1763 0.0000
# 6 0.0000 0.0000 0.0000 -0.0173 0.0000 42.3805
#
#
#
# Elastic Compliance Matrix: (Units=1/GPa)
#
#
# Indices 1 2 3 4 5 6 
#
# 1 0.011629 -0.001352 -0.008768 0.000000 -0.004332 0.000000
# 2 -0.001352 0.024511 -0.006964 0.000000 -0.000341 0.000000
# 3 -0.008768 -0.006964 0.018348 0.000000 0.002757 0.000000
# 4 0.000000 0.000000 0.000000 0.023573 0.000000 0.000010
# 5 -0.004332 -0.000341 0.002757 0.000000 0.013182 0.000000
# 6 0.000000 0.000000 0.000000 0.000010 0.000000 0.023596
#
#
# Mechanical properties :
#
#
# Convention : Reuss Voigt Hill
#
# Bulk Modulus (GPa) = 49.21400 73.41406 61.31403
# Shear Modulus (GPa) = 32.09653 45.98140 39.03897
#
# Velocity S-wave (km/s) = 3.48875 4.17572 3.84760
# Velocity P-wave (km/s) = 5.90686 7.14761 6.55665
#
# Compressibility (1/GPa) = 0.02031942
#
# Stress axis : x y z
#
# Youngs Moduli (GPa) = 85.99168 40.79778 54.50319
#
# Poissons Ratio (x) = 0.05517 0.47790
# Poissons Ratio (y) = 0.11629 0.37953
# Poissons Ratio (z) = 0.75400 0.28410
#
# Static dielectric constant tensor:
#      x y z
#    x 2.032490 0.000000 0.048880 
#    y 0.000000 2.112400 0.000000 
#    z 0.048880 0.000000 2.108040 
# 
# From -- ./inp_files/1440.got.cif
#   From: 2010.05.17/outbox.cif.g08.bks.cpg/sg4_1_cif.got.tgz:1440.got - 2010.06.03 18:43:04.
