data_PCOD9117347
_publ_section_title
;
Structure prediction by ZEFSAII (Michael W. Deem and Ramdas Pophale) SiO2 
 PCOD9117347
Probable space group: P 21
;
_chemical_formula_sum "Si O2"
_cell_formula_units_Z 14
_cell_length_a 22.984941
_cell_length_b 5.108744
_cell_length_c 5.268689
_cell_angle_alpha 90.000000
_cell_angle_beta 60.088448
_cell_angle_gamma 90.000000
_cell_volume 536.262106
_symmetry_space_group_name_H-M "P 21"
_symmetry_group_IT_number 4
_symmetry_cell_setting 'monoclinic'
loop_
_space_group_symop_operation_xyz
x,y,z
-x,1/2+y,-z
loop_
_atom_site_type_symbol
_atom_site_label
_atom_site_fract_x
_atom_site_fract_y
_atom_site_fract_z
Si Si1 0.277604 0.348690 0.738944
Si Si2 0.859676 0.691076 0.866313
Si Si3 0.117731 0.889720 0.685331
Si Si4 0.392843 0.555745 0.230976
Si Si5 0.508151 0.754207 0.320789
Si Si6 0.260822 0.639840 0.290803
Si Si7 0.957677 0.069262 0.511547
O O1 0.357130 0.363510 0.516400
O O2 0.253749 0.392796 0.499193
O O3 0.220853 0.149950 0.954751
O O4 0.268095 0.566091 0.981563
O O5 0.885035 0.586629 0.544514
O O6 0.886720 0.991057 0.804957
O O7 0.002248 0.811288 0.454950
O O8 0.193798 0.788802 0.501938
O O9 0.064934 0.663904 0.720196
O O10 0.109546 0.046734 0.960366
O O11 0.450917 0.721695 0.232785
O O12 0.332916 0.733584 0.243986
O O13 0.425489 0.374265 0.947499
O O14 0.516723 0.469796 0.424183
#
# Coordination Sequence:
#
# PCOD9117347 Si02
#       7
#     2   2   2   2   2   2   2
#     4  10  22  46  76 115 159 211 276 344 419 495
#     4  12  27  52  83 121 169 220 280 353 421 504
#     4  12  27  52  83 121 169 220 280 353 421 504
#     4  10  26  48  78 120 162 216 286 344 432 504
#     4  12  26  54  82 116 172 226 280 352 432 514
#     4  10  22  46  76 115 159 211 276 344 419 495
#     4  12  28  58  86 130 170 232 280 350 426 516
#
# _framework density 26.106636999999999
#
# number of rings (size 3 to 8) (size 9 to 14) (size 15 to 20)
#    0.857    0.000    2.857    3.429    0.000    0.000 
#   18.000    0.000    0.000    0.000    0.000    0.000 
#    0.000    0.000    0.000    0.000    0.000    0.000 
#
# Total GULP energy -78185.850656 kJ/mol
# GULP energy per Si atom -5584.703618 kJ/mol
# Density = 2.604722 g / cm^3
# Si number density = 26.106637 Si / 1000 Ang^3
#
#
#
# Elastic Constant Matrix: (Units=GPa)
#
#
# Indices 1 2 3 4 5 6 
#
# 1 115.3994 34.2460 18.9060 0.0000 0.7561 0.0000
# 2 34.2460 84.3230 10.0488 0.0000 10.1132 0.0000
# 3 18.9060 10.0488 107.0651 0.0000 4.8359 0.0000
# 4 0.0000 0.0000 0.0000 35.7830 0.0000 -0.0847
# 5 0.7561 10.1132 4.8359 0.0000 36.5370 0.0000
# 6 0.0000 0.0000 0.0000 -0.0847 0.0000 43.0643
#
#
#
# Elastic Compliance Matrix: (Units=1/GPa)
#
#
# Indices 1 2 3 4 5 6 
#
# 1 0.010102 -0.004062 -0.001453 0.000000 0.001108 0.000000
# 2 -0.004062 0.014008 -0.000429 0.000000 -0.003737 0.000000
# 3 -0.001453 -0.000429 0.009688 0.000000 -0.001134 0.000000
# 4 0.000000 0.000000 0.000000 0.027946 0.000000 0.000055
# 5 0.001108 -0.003737 -0.001134 0.000000 0.028531 0.000000
# 6 0.000000 0.000000 0.000000 0.000055 0.000000 0.023221
#
#
# Mechanical properties :
#
#
# Convention : Reuss Voigt Hill
#
# Bulk Modulus (GPa) = 45.63935 48.13211 46.88573
# Shear Modulus (GPa) = 37.68258 39.31599 38.49928
#
# Velocity S-wave (km/s) = 3.80334 3.88490 3.84434
# Velocity P-wave (km/s) = 6.06688 6.21289 6.14032
#
# Compressibility (1/GPa) = 0.02191092
#
# Stress axis : x y z
#
# Youngs Moduli (GPa) = 98.99201 71.38661 103.22000
#
# Poissons Ratio (x) = 0.29000 0.14993
# Poissons Ratio (y) = 0.40214 0.04425
# Poissons Ratio (z) = 0.14379 0.03060
#
# Static dielectric constant tensor:
#      x y z
#    x 2.118710 0.000000 -0.075310 
#    y 0.000000 2.145080 0.000000 
#    z -0.075310 0.000000 2.076590 
# 
# From -- ./inp_files/4372.got.cif
#   From: 2010.05.17/outbox.cif.g08.bks.cpg/sg4_3_cif.got.tgz:4372.got - 2010.06.03 18:43:04.
