data_PCOD9117227
_publ_section_title
;
Structure prediction by ZEFSAII (Michael W. Deem and Ramdas Pophale) SiO2 
 PCOD9117227
Probable space group: P 21
;
_chemical_formula_sum "Si O2"
_cell_formula_units_Z 16
_cell_length_a 18.352896
_cell_length_b 4.913756
_cell_length_c 14.802315
_cell_angle_alpha 90.000000
_cell_angle_beta 154.735794
_cell_angle_gamma 90.000000
_cell_volume 569.724766
_symmetry_space_group_name_H-M "P 21"
_symmetry_group_IT_number 4
_symmetry_cell_setting 'monoclinic'
loop_
_space_group_symop_operation_xyz
x,y,z
-x,1/2+y,-z
loop_
_atom_site_type_symbol
_atom_site_label
_atom_site_fract_x
_atom_site_fract_y
_atom_site_fract_z
Si Si1 0.426693 0.489270 0.239922
Si Si2 0.659712 0.628007 0.011967
Si Si3 0.595998 0.392021 0.653041
Si Si4 0.398668 0.002296 0.866594
Si Si5 0.996518 0.955188 0.564765
Si Si6 0.284953 0.353380 0.599224
Si Si7 0.220128 0.636548 0.344345
Si Si8 0.151062 0.301444 0.081913
O O1 0.365567 0.399817 0.073470
O O2 0.493296 0.643488 0.497173
O O3 0.436147 0.807100 0.279123
O O4 0.270424 0.401628 0.132170
O O5 0.476209 0.481050 0.808690
O O6 0.700544 0.654120 0.164297
O O7 0.834579 0.485513 0.181216
O O8 0.611231 0.336720 0.460850
O O9 0.787760 0.483441 0.846728
O O10 0.318624 0.049464 0.678451
O O11 0.564520 0.199385 0.060026
O O12 0.847485 0.954027 0.473408
O O13 0.964414 0.200895 0.457884
O O14 0.217747 0.426104 0.425486
O O15 0.196087 0.455003 0.225952
O O16 0.048414 0.815060 0.159555
#
# Coordination Sequence:
#
# PCOD9117227 Si02
#       8
#     2   2   2   2   2   2   2   2
#     4  11  25  53  78 120 163 213 282 340 409 497
#     4  10  24  47  80 113 158 214 260 327 405 466
#     4  12  25  49  83 108 157 216 266 340 418 484
#     4  10  22  44  74 105 148 197 244 312 380 455
#     4  12  27  46  80 119 159 213 265 324 406 480
#     4  10  24  50  80 113 165 201 278 323 397 489
#     4  11  28  52  84 123 157 224 277 343 421 490
#     4  12  27  49  83 113 165 212 274 347 416 493
#
# _framework density 28.083735000000001
#
# number of rings (size 3 to 8) (size 9 to 14) (size 15 to 20)
#    0.000    1.000    2.500    2.250   10.500    0.000 
#   13.500    3.750    0.000    0.000    0.000    0.000 
#    0.000    0.000    0.000    0.000    0.000    0.000 
#
# Total GULP energy -89343.301037 kJ/mol
# GULP energy per Si atom -5583.956315 kJ/mol
# Density = 2.801981 g / cm^3
# Si number density = 28.083735 Si / 1000 Ang^3
#
#
#
# Elastic Constant Matrix: (Units=GPa)
#
#
# Indices 1 2 3 4 5 6 
#
# 1 182.4088 34.9928 69.0406 0.0000 25.2397 0.0000
# 2 34.9928 133.6164 25.6159 0.0000 20.5017 0.0000
# 3 69.0406 25.6159 148.3882 0.0000 35.7116 0.0000
# 4 0.0000 0.0000 0.0000 31.7062 0.0000 2.0175
# 5 25.2397 20.5017 35.7116 0.0000 48.3202 0.0000
# 6 0.0000 0.0000 0.0000 2.0175 0.0000 50.9855
#
#
#
# Elastic Compliance Matrix: (Units=1/GPa)
#
#
# Indices 1 2 3 4 5 6 
#
# 1 0.006887 -0.001109 -0.002749 0.000000 -0.001095 0.000000
# 2 -0.001109 0.008242 -0.000249 0.000000 -0.002734 0.000000
# 3 -0.002749 -0.000249 0.009354 0.000000 -0.005371 0.000000
# 4 0.000000 0.000000 0.000000 0.031619 0.000000 -0.001251
# 5 -0.001095 -0.002734 -0.005371 0.000000 0.026397 0.000000
# 6 0.000000 0.000000 0.000000 -0.001251 0.000000 0.019663
#
#
# Mechanical properties :
#
#
# Convention : Reuss Voigt Hill
#
# Bulk Modulus (GPa) = 61.46803 80.41244 70.94023
# Shear Modulus (GPa) = 43.17845 48.52000 45.84922
#
# Velocity S-wave (km/s) = 3.92534 4.16106 4.04492
# Velocity P-wave (km/s) = 6.51761 7.19591 6.86514
#
# Compressibility (1/GPa) = 0.01626862
#
# Stress axis : x y z
#
# Youngs Moduli (GPa) = 145.20100 121.33537 106.90628
#
# Poissons Ratio (x) = 0.13450 0.29393
# Poissons Ratio (y) = 0.16096 0.02663
# Poissons Ratio (z) = 0.39922 0.03022
#
# Static dielectric constant tensor:
#      x y z
#    x 2.395510 0.000000 0.042030 
#    y 0.000000 2.488630 0.000000 
#    z 0.042030 0.000000 2.337230 
# 
# From -- ./inp_files/14262.got.cif
#   From: 2010.05.17/outbox.cif.g08.bks.cpg/sg4_8_cif.got.tgz:14262.got - 2010.06.03 18:43:04.
