data_PCOD9117155
_publ_section_title
;
Structure prediction by ZEFSAII (Michael W. Deem and Ramdas Pophale) SiO2 
 PCOD9117155
Probable space group: P 21
;
_chemical_formula_sum "Si O2"
_cell_formula_units_Z 16
_cell_length_a 19.521856
_cell_length_b 7.251711
_cell_length_c 5.606055
_cell_angle_alpha 90.000000
_cell_angle_beta 123.864119
_cell_angle_gamma 90.000000
_cell_volume 659.001044
_symmetry_space_group_name_H-M "P 21"
_symmetry_group_IT_number 4
_symmetry_cell_setting 'monoclinic'
loop_
_space_group_symop_operation_xyz
x,y,z
-x,1/2+y,-z
loop_
_atom_site_type_symbol
_atom_site_label
_atom_site_fract_x
_atom_site_fract_y
_atom_site_fract_z
Si Si1 0.835981 0.997650 0.812223
Si Si2 0.414964 0.668716 0.110580
Si Si3 0.993794 0.543655 0.111433
Si Si4 0.651428 0.574805 0.068724
Si Si5 0.336511 0.678592 0.459215
Si Si6 0.072106 0.302601 0.649151
Si Si7 0.606508 0.602678 0.480958
Si Si8 0.167520 0.105018 0.470494
O O1 0.817472 0.804969 0.632147
O O2 0.922423 0.067059 0.873145
O O3 0.758047 0.129190 0.670042
O O4 0.861382 0.948145 0.131332
O O5 0.365223 0.608790 0.252731
O O6 0.508930 0.609561 0.327426
O O7 0.384826 0.609208 0.788708
O O8 0.404679 0.892628 0.075400
O O9 0.014701 0.382934 0.335976
O O10 0.979915 0.730890 0.231978
O O11 0.905407 0.512159 0.819483
O O12 0.623100 0.684307 0.249418
O O13 0.745080 0.515454 0.308497
O O14 0.647237 0.676149 0.804706
O O15 0.356404 0.896656 0.477382
O O16 0.124600 0.138799 0.640662
#
# Coordination Sequence:
#
# PCOD9117155 Si02
#       8
#     2   2   2   2   2   2   2   2
#     4  10  23  44  65 103 143 187 241 289 357 422
#     4  10  22  46  69 100 138 178 235 295 365 430
#     4  10  22  44  70 102 140 194 234 298 356 426
#     4  10  23  44  68 105 137 184 233 295 355 432
#     4  10  23  44  68 105 137 184 233 295 355 432
#     4  10  22  44  66  98 138 194 234 296 354 418
#     4  10  22  46  69 100 138 178 235 295 365 430
#     4  10  23  44  65 103 143 187 241 289 357 422
#
# _framework density 24.279174000000001
#
# number of rings (size 3 to 8) (size 9 to 14) (size 15 to 20)
#    0.000    2.000    0.000    1.500    7.000    0.000 
#   36.000    0.000    0.000    0.000    0.000    0.000 
#    0.000    0.000    0.000    0.000    0.000    0.000 
#
# Total GULP energy -89371.515368 kJ/mol
# GULP energy per Si atom -5585.719711 kJ/mol
# Density = 2.422391 g / cm^3
# Si number density = 24.279174 Si / 1000 Ang^3
#
#
#
# Elastic Constant Matrix: (Units=GPa)
#
#
# Indices 1 2 3 4 5 6 
#
# 1 108.0180 6.2421 78.1343 0.0000 5.1444 0.0000
# 2 6.2421 69.6239 2.7553 0.0000 -0.5420 0.0000
# 3 78.1343 2.7553 161.9984 0.0000 -12.8084 0.0000
# 4 0.0000 0.0000 0.0000 8.7714 0.0000 18.3145
# 5 5.1444 -0.5420 -12.8084 0.0000 65.5553 0.0000
# 6 0.0000 0.0000 0.0000 18.3145 0.0000 28.5350
#
#
#
# Elastic Compliance Matrix: (Units=1/GPa)
#
#
# Indices 1 2 3 4 5 6 
#
# 1 0.014708 -0.001051 -0.007280 0.000000 -0.002585 0.000000
# 2 -0.001051 0.014448 0.000281 0.000000 0.000257 0.000000
# 3 -0.007280 0.000281 0.009877 0.000000 0.002504 0.000000
# 4 0.000000 0.000000 0.000000 -0.335196 0.000000 0.215137
# 5 -0.002585 0.000257 0.002504 0.000000 0.015948 0.000000
# 6 0.000000 0.000000 0.000000 0.215137 0.000000 -0.103036
#
#
# Mechanical properties :
#
#
# Convention : Reuss Voigt Hill
#
# Bulk Modulus (GPa) = 43.60358 57.10040 50.35199
# Shear Modulus (GPa) = -13.90795 37.40625 11.74915
#
# Velocity S-wave (km/s) = -2.39599 3.92940 2.20220
# Velocity P-wave (km/s) = 3.21619 6.64501 5.22016
#
# Compressibility (1/GPa) = 0.02293390
#
# Stress axis : x y z
#
# Youngs Moduli (GPa) = 67.99151 69.21395 101.24070
#
# Poissons Ratio (x) = 0.07272 0.73706
# Poissons Ratio (y) = 0.07143 -0.02848
# Poissons Ratio (z) = 0.49500 -0.01947
#
# Static dielectric constant tensor:
#      x y z
#    x 1.955220 0.000000 -0.076580 
#    y 0.000000 1.952870 0.000000 
#    z -0.076580 0.000000 1.969120 
# 
# From -- ./inp_files/4076.got.cif
#   From: 2010.05.17/outbox.cif.g08.bks.cpg/sg4_3_cif.got.tgz:4076.got - 2010.06.03 18:43:04.
