data_PCOD9117468
_publ_section_title
;
Structure prediction by ZEFSAII (Michael W. Deem and Ramdas Pophale) SiO2 
 PCOD9117468
Probable space group: P 21
;
_chemical_formula_sum "Si O2"
_cell_formula_units_Z 14
_cell_length_a 26.547533
_cell_length_b 4.921670
_cell_length_c 11.178217
_cell_angle_alpha 90.000000
_cell_angle_beta 158.314218
_cell_angle_gamma 90.000000
_cell_volume 539.687870
_symmetry_space_group_name_H-M "P 21"
_symmetry_group_IT_number 4
_symmetry_cell_setting 'monoclinic'
loop_
_space_group_symop_operation_xyz
x,y,z
-x,1/2+y,-z
loop_
_atom_site_type_symbol
_atom_site_label
_atom_site_fract_x
_atom_site_fract_y
_atom_site_fract_z
Si Si1 0.095200 0.768100 0.691973
Si Si2 0.467018 0.505721 0.268777
Si Si3 0.671208 0.503774 0.949107
Si Si4 0.290103 0.748008 0.333117
Si Si5 0.584581 0.895983 0.185404
Si Si6 0.905532 0.539337 0.920305
Si Si7 0.169150 0.542522 0.396095
O O1 0.991999 0.518553 0.445421
O O2 0.183248 0.893649 0.776182
O O3 0.208207 0.656181 0.034900
O O4 0.569908 0.510359 0.611106
O O5 0.399073 0.800076 0.111630
O O6 0.573058 0.398676 0.405536
O O7 0.344437 0.300706 0.030727
O O8 0.336924 0.508751 0.524836
O O9 0.183628 0.943276 0.166357
O O10 0.673722 0.968772 0.265728
O O11 0.449907 0.081250 0.888186
O O12 0.887032 0.845892 0.834871
O O13 0.849509 0.349976 0.688555
O O14 0.067776 0.488428 0.281626
#
# Coordination Sequence:
#
# PCOD9117468 Si02
#       7
#     2   2   2   2   2   2   2
#     4  11  24  41  64  92 123 161 202 248 300 357
#     4   9  18  33  59  85 114 157 194 239 300 352
#     4   9  18  35  56  85 121 153 192 242 298 353
#     4  10  23  41  65  90 120 159 206 250 298 358
#     4  11  23  39  61  90 123 158 200 249 301 360
#     4   9  18  34  60  85 114 158 200 243 299 355
#     4   9  18  35  57  85 119 156 196 245 302 353
#
# _framework density 25.940922
#
# number of rings (size 3 to 8) (size 9 to 14) (size 15 to 20)
#    0.000    2.286    0.000    2.571    0.000   10.286 
#    0.000    4.286    0.000    5.143    0.000    0.000 
#    0.000    0.000    0.000    0.000    0.000    0.000 
#
# Total GULP energy -78306.578508 kJ/mol
# GULP energy per Si atom -5593.327036 kJ/mol
# Density = 2.588188 g / cm^3
# Si number density = 25.940922 Si / 1000 Ang^3
#
#
#
# Elastic Constant Matrix: (Units=GPa)
#
#
# Indices 1 2 3 4 5 6 
#
# 1 85.5991 -7.4254 34.8928 0.0000 22.2079 0.0000
# 2 -7.4254 69.7969 7.3121 0.0000 0.4358 0.0000
# 3 34.8928 7.3121 126.3552 0.0000 24.3522 0.0000
# 4 0.0000 0.0000 0.0000 40.9651 0.0000 7.5399
# 5 22.2079 0.4358 24.3522 0.0000 45.9549 0.0000
# 6 0.0000 0.0000 0.0000 7.5399 0.0000 28.7169
#
#
#
# Elastic Compliance Matrix: (Units=1/GPa)
#
#
# Indices 1 2 3 4 5 6 
#
# 1 0.014500 0.001898 -0.003074 0.000000 -0.005396 0.000000
# 2 0.001898 0.014668 -0.001302 0.000000 -0.000366 0.000000
# 3 -0.003074 -0.001302 0.009522 0.000000 -0.003548 0.000000
# 4 0.000000 0.000000 0.000000 0.025651 0.000000 -0.006735
# 5 -0.005396 -0.000366 -0.003548 0.000000 0.026252 0.000000
# 6 0.000000 0.000000 0.000000 -0.006735 0.000000 0.036591
#
#
# Mechanical properties :
#
#
# Convention : Reuss Voigt Hill
#
# Bulk Modulus (GPa) = 29.64361 39.03446 34.33904
# Shear Modulus (GPa) = 34.87121 39.59217 37.23169
#
# Velocity S-wave (km/s) = 3.67039 3.91096 3.79258
# Velocity P-wave (km/s) = 5.42351 5.95602 5.69599
#
# Compressibility (1/GPa) = 0.03373408
#
# Stress axis : x y z
#
# Youngs Moduli (GPa) = 68.96493 68.17577 105.01693
#
# Poissons Ratio (x) = -0.12942 0.32282
# Poissons Ratio (y) = -0.13092 0.13678
# Poissons Ratio (z) = 0.21200 0.08880
#
# Static dielectric constant tensor:
#      x y z
#    x 2.056830 0.000000 -0.041680 
#    y 0.000000 1.943790 0.000000 
#    z -0.041680 0.000000 2.115680 
# 
# From -- ./inp_files/13117.got.cif
#   From: 2010.05.17/outbox.cif.g08.bks.cpg/sg4_7_cif.got.tgz:13117.got - 2010.06.03 18:43:04.
