data_PCOD9117183
_publ_section_title
;
Structure prediction by ZEFSAII (Michael W. Deem and Ramdas Pophale) SiO2 
 PCOD9117183
Probable space group: P 21
;
_chemical_formula_sum "Si O2"
_cell_formula_units_Z 14
_cell_length_a 8.063443
_cell_length_b 13.448627
_cell_length_c 6.933234
_cell_angle_alpha 90.000000
_cell_angle_beta 131.080726
_cell_angle_gamma 90.000000
_cell_volume 566.736942
_symmetry_space_group_name_H-M "P 21"
_symmetry_group_IT_number 4
_symmetry_cell_setting 'monoclinic'
loop_
_space_group_symop_operation_xyz
x,y,z
-x,1/2+y,-z
loop_
_atom_site_type_symbol
_atom_site_label
_atom_site_fract_x
_atom_site_fract_y
_atom_site_fract_z
Si Si1 0.680986 0.625000 0.429245
Si Si2 0.582564 0.304548 0.730360
Si Si3 0.153695 0.831471 0.728445
Si Si4 0.425874 0.445943 0.130109
Si Si5 0.713783 0.751117 0.810589
Si Si6 0.996987 0.649569 0.355427
Si Si7 0.262175 0.474421 0.595322
O O1 0.542274 0.718912 0.241864
O O2 0.524525 0.531273 0.341863
O O3 0.794569 0.678923 0.697331
O O4 0.852028 0.590443 0.401215
O O5 0.535057 0.265287 0.477839
O O6 0.460522 0.409694 0.659149
O O7 0.810022 0.313437 0.013777
O O8 0.372425 0.882724 0.809415
O O9 0.106312 0.735579 0.564828
O O10 0.938701 0.898003 0.551457
O O11 0.261746 0.367001 0.105852
O O12 0.321997 0.498721 0.862914
O O13 0.822412 0.693309 0.071134
O O14 0.179465 0.572274 0.422816
#
# Coordination Sequence:
#
# PCOD9117183 Si02
#       7
#     2   2   2   2   2   2   2
#     4  10  22  44  69  95 141 177 225 282 339 412
#     4   9  22  44  63 100 138 171 220 289 333 402
#     4  11  20  41  71  95 131 182 221 282 339 405
#     4  11  22  45  68 100 138 185 224 283 351 400
#     4  10  24  45  65 103 143 169 234 288 330 420
#     4  12  22  45  72 100 136 183 231 280 350 402
#     4  11  22  40  74  95 135 183 231 280 338 417
#
# _framework density 24.702817
#
# number of rings (size 3 to 8) (size 9 to 14) (size 15 to 20)
#    0.857    0.571    4.286    1.714    0.000    1.143 
#   12.857    0.000    0.000    0.000    0.000    0.000 
#    0.000    0.000    0.000    0.000    0.000    0.000 
#
# Total GULP energy -77966.848616 kJ/mol
# GULP energy per Si atom -5569.060615 kJ/mol
# Density = 2.464659 g / cm^3
# Si number density = 24.702817 Si / 1000 Ang^3
#
#
#
# Elastic Constant Matrix: (Units=GPa)
#
#
# Indices 1 2 3 4 5 6 
#
# 1 47.7607 34.9821 55.1867 0.0000 -11.0497 0.0000
# 2 34.9821 147.5331 61.2225 0.0000 -5.9982 0.0000
# 3 55.1867 61.2225 127.8936 0.0000 -8.3690 0.0000
# 4 0.0000 0.0000 0.0000 40.1226 0.0000 10.1959
# 5 -11.0497 -5.9982 -8.3690 0.0000 16.5754 0.0000
# 6 0.0000 0.0000 0.0000 10.1959 0.0000 34.5082
#
#
#
# Elastic Compliance Matrix: (Units=1/GPa)
#
#
# Indices 1 2 3 4 5 6 
#
# 1 0.049999 -0.003238 -0.018533 0.000000 0.022802 0.000000
# 2 -0.003238 0.008686 -0.002788 0.000000 -0.000423 0.000000
# 3 -0.018533 -0.002788 0.016832 0.000000 -0.004865 0.000000
# 4 0.000000 0.000000 0.000000 0.026947 0.000000 -0.007962
# 5 0.022802 -0.000423 -0.004865 0.000000 0.072921 0.000000
# 6 0.000000 0.000000 0.000000 -0.007962 0.000000 0.031331
#
#
# Mechanical properties :
#
#
# Convention : Reuss Voigt Hill
#
# Bulk Modulus (GPa) = 37.88000 69.55224 53.71612
# Shear Modulus (GPa) = 18.89402 29.69429 24.29416
#
# Velocity S-wave (km/s) = 2.76860 3.47084 3.13941
# Velocity P-wave (km/s) = 5.05843 6.65425 5.91045
#
# Compressibility (1/GPa) = 0.02639916
#
# Stress axis : x y z
#
# Youngs Moduli (GPa) = 20.00049 115.13053 59.40896
#
# Poissons Ratio (x) = 0.37276 1.10101
# Poissons Ratio (y) = 0.06476 0.16566
# Poissons Ratio (z) = 0.37066 0.32104
#
# Static dielectric constant tensor:
#      x y z
#    x 2.053680 0.000000 0.019810 
#    y 0.000000 1.941610 0.000000 
#    z 0.019810 0.000000 2.004830 
# 
# From -- ./inp_files/3181.got.cif
#   From: 2010.05.17/outbox.cif.g08.bks.cpg/sg4_2_cif.got.tgz:3181.got - 2010.06.03 18:43:04.
