data_PCOD9117637
_publ_section_title
;
Structure prediction by ZEFSAII (Michael W. Deem and Ramdas Pophale) SiO2 
 PCOD9117637
Probable space group: P 21
;
_chemical_formula_sum "Si O2"
_cell_formula_units_Z 16
_cell_length_a 8.652803
_cell_length_b 5.580464
_cell_length_c 16.251254
_cell_angle_alpha 90.000000
_cell_angle_beta 123.162206
_cell_angle_gamma 90.000000
_cell_volume 656.907898
_symmetry_space_group_name_H-M "P 21"
_symmetry_group_IT_number 4
_symmetry_cell_setting 'monoclinic'
loop_
_space_group_symop_operation_xyz
x,y,z
-x,1/2+y,-z
loop_
_atom_site_type_symbol
_atom_site_label
_atom_site_fract_x
_atom_site_fract_y
_atom_site_fract_z
Si Si1 0.346140 0.115720 0.774250
Si Si2 0.987862 0.853155 0.047134
Si Si3 0.424110 0.424322 0.017255
Si Si4 0.218044 0.789276 0.416425
Si Si5 0.392972 0.809122 0.628033
Si Si6 0.223015 0.068532 0.246205
Si Si7 0.843795 0.005356 0.346525
Si Si8 0.010526 0.403104 0.277670
O O1 0.506798 0.992443 0.870883
O O2 0.329966 0.397118 0.753892
O O3 0.341044 0.011018 0.679668
O O4 0.162549 0.079613 0.777511
O O5 0.158392 0.879500 0.160330
O O6 0.794249 0.878837 0.039597
O O7 0.004690 0.094765 0.995614
O O8 0.520462 0.173228 0.015255
O O9 0.373036 0.865043 0.526345
O O10 0.189367 0.525326 0.370449
O O11 0.234535 0.946030 0.338939
O O12 0.019403 0.834485 0.403111
O O13 0.587227 0.703578 0.711334
O O14 0.240903 0.599164 0.594699
O O15 0.065332 0.270900 0.210781
O O16 0.926457 0.217610 0.317452
#
# Coordination Sequence:
#
# PCOD9117637 Si02
#       8
#     2   2   2   2   2   2   2   2
#     4  10  23  43  70  99 139 178 236 301 353 427
#     4  12  29  51  78 111 154 199 247 310 389 446
#     4  12  28  46  82 113 146 192 261 311 375 442
#     4  10  24  41  66  98 139 186 231 289 353 426
#     4  11  25  40  67 100 141 184 234 284 360 432
#     4  11  26  44  69  98 145 183 239 289 359 435
#     4   9  22  39  67  94 134 174 233 284 352 413
#     4   9  21  42  67  95 136 178 233 282 361 409
#
# _framework density 24.356532999999999
#
# number of rings (size 3 to 8) (size 9 to 14) (size 15 to 20)
#    0.000    1.500    0.000    2.250   19.250    2.000 
#    0.000    0.000    0.000    0.000    0.000    0.000 
#    0.000    0.000    0.000    0.000    0.000    0.000 
#
# Total GULP energy -89300.634147 kJ/mol
# GULP energy per Si atom -5581.289634 kJ/mol
# Density = 2.430110 g / cm^3
# Si number density = 24.356533 Si / 1000 Ang^3
#
#
#
# Elastic Constant Matrix: (Units=GPa)
#
#
# Indices 1 2 3 4 5 6 
#
# 1 92.7241 33.3162 4.1040 0.0000 4.7995 0.0000
# 2 33.3162 99.1137 22.4816 0.0000 -15.9310 0.0000
# 3 4.1040 22.4816 105.6765 0.0000 -9.2161 0.0000
# 4 0.0000 0.0000 0.0000 33.8118 0.0000 -12.2492
# 5 4.7995 -15.9310 -9.2161 0.0000 23.8061 0.0000
# 6 0.0000 0.0000 0.0000 -12.2492 0.0000 23.7086
#
#
#
# Elastic Compliance Matrix: (Units=1/GPa)
#
#
# Indices 1 2 3 4 5 6 
#
# 1 0.013044 -0.005405 0.000102 0.000000 -0.006207 0.000000
# 2 -0.005405 0.013889 -0.001903 0.000000 0.009647 0.000000
# 3 0.000102 -0.001903 0.010092 0.000000 0.002612 0.000000
# 4 0.000000 0.000000 0.000000 0.036386 0.000000 0.018799
# 5 -0.006207 0.009647 0.002612 0.000000 0.050725 0.000000
# 6 0.000000 0.000000 0.000000 0.018799 0.000000 0.051892
#
#
# Mechanical properties :
#
#
# Convention : Reuss Voigt Hill
#
# Bulk Modulus (GPa) = 44.22730 46.36864 45.29797
# Shear Modulus (GPa) = 25.25550 32.10614 28.68082
#
# Velocity S-wave (km/s) = 3.22360 3.63460 3.43525
# Velocity P-wave (km/s) = 5.66155 6.05744 5.86284
#
# Compressibility (1/GPa) = 0.02261047
#
# Stress axis : x y z
#
# Youngs Moduli (GPa) = 76.66570 72.00057 99.09188
#
# Poissons Ratio (x) = 0.38919 -0.01011
# Poissons Ratio (y) = 0.41441 0.18862
# Poissons Ratio (z) = -0.00782 0.13705
#
# Static dielectric constant tensor:
#      x y z
#    x 1.950590 0.000000 0.029440 
#    y 0.000000 2.081930 0.000000 
#    z 0.029440 0.000000 2.016340 
# 
# From -- ./inp_files/13565.got.cif
#   From: 2010.05.17/outbox.cif.g08.bks.cpg/sg4_7_cif.got.tgz:13565.got - 2010.06.03 18:43:04.
