data_PCOD9117457
_publ_section_title
;
Structure prediction by ZEFSAII (Michael W. Deem and Ramdas Pophale) SiO2 
 PCOD9117457
Probable space group: P 21
;
_chemical_formula_sum "Si O2"
_cell_formula_units_Z 16
_cell_length_a 9.465670
_cell_length_b 5.264695
_cell_length_c 17.537525
_cell_angle_alpha 90.000000
_cell_angle_beta 52.695882
_cell_angle_gamma 90.000000
_cell_volume 695.176055
_symmetry_space_group_name_H-M "P 21"
_symmetry_group_IT_number 4
_symmetry_cell_setting 'monoclinic'
loop_
_space_group_symop_operation_xyz
x,y,z
-x,1/2+y,-z
loop_
_atom_site_type_symbol
_atom_site_label
_atom_site_fract_x
_atom_site_fract_y
_atom_site_fract_z
Si Si1 0.938656 0.947770 0.267437
Si Si2 0.426925 0.998939 0.941936
Si Si3 0.051804 0.699215 0.381517
Si Si4 0.265513 0.219190 0.852181
Si Si5 0.774613 0.698354 0.611336
Si Si6 0.900914 0.160261 0.934326
Si Si7 0.764851 0.768616 0.869427
Si Si8 0.355046 0.712379 0.729712
O O1 0.955905 0.751925 0.331438
O O2 0.016416 0.818666 0.164621
O O3 0.091025 0.153868 0.232146
O O4 0.758038 0.101875 0.305944
O O5 0.635953 0.961715 0.870709
O O6 0.382324 0.183683 0.888120
O O7 0.285277 0.771465 0.977024
O O8 0.377201 0.084141 0.043763
O O9 0.162470 0.442289 0.360228
O O10 0.895792 0.700362 0.495834
O O11 0.180032 0.936652 0.359990
O O12 0.303275 0.496569 0.807663
O O13 0.059666 0.178822 0.941559
O O14 0.302459 0.993291 0.777948
O O15 0.568133 0.711860 0.655188
O O16 0.866690 0.889509 0.907732
#
# Coordination Sequence:
#
# PCOD9117457 Si02
#       8
#     2   2   2   2   2   2   2   2
#     4  10  24  42  68  96 135 180 220 279 347 399
#     4  11  25  38  64  90 128 175 234 270 337 384
#     4  10  23  44  73 102 134 182 217 276 347 405
#     4  11  26  41  67  95 131 184 222 277 341 392
#     4  10  23  45  69 104 140 168 228 279 332 418
#     4  10  23  41  59  89 135 170 226 283 325 396
#     4  11  22  42  58  93 131 171 229 283 321 400
#     4  11  24  45  66 103 136 172 228 279 332 414
#
# _framework density 23.015753
#
# number of rings (size 3 to 8) (size 9 to 14) (size 15 to 20)
#    0.000    1.500    2.500    0.750    7.000    1.000 
#    0.000    6.250    0.000    0.000    0.000    0.000 
#    0.000    0.000    0.000    0.000    0.000    0.000 
#
# Total GULP energy -89378.326783 kJ/mol
# GULP energy per Si atom -5586.145424 kJ/mol
# Density = 2.296337 g / cm^3
# Si number density = 23.015753 Si / 1000 Ang^3
#
#
#
# Elastic Constant Matrix: (Units=GPa)
#
#
# Indices 1 2 3 4 5 6 
#
# 1 155.7435 22.3373 40.9231 0.0000 -11.5607 0.0000
# 2 22.3373 104.0601 22.0956 0.0000 -4.1391 0.0000
# 3 40.9231 22.0956 45.2009 0.0000 2.1882 0.0000
# 4 0.0000 0.0000 0.0000 29.8286 0.0000 1.1511
# 5 -11.5607 -4.1391 2.1882 0.0000 40.4962 0.0000
# 6 0.0000 0.0000 0.0000 1.1511 0.0000 35.9775
#
#
#
# Elastic Compliance Matrix: (Units=1/GPa)
#
#
# Indices 1 2 3 4 5 6 
#
# 1 0.008760 -0.000055 -0.008046 0.000000 0.002930 0.000000
# 2 -0.000055 0.010801 -0.005296 0.000000 0.001374 0.000000
# 3 -0.008046 -0.005296 0.032219 0.000000 -0.004579 0.000000
# 4 0.000000 0.000000 0.000000 0.033566 0.000000 -0.001074
# 5 0.002930 0.001374 -0.004579 0.000000 0.025918 0.000000
# 6 0.000000 0.000000 0.000000 -0.001074 0.000000 0.027830
#
#
# Mechanical properties :
#
#
# Convention : Reuss Voigt Hill
#
# Bulk Modulus (GPa) = 40.02456 52.85736 46.44096
# Shear Modulus (GPa) = 28.69974 35.90368 32.30171
#
# Velocity S-wave (km/s) = 3.53506 3.95392 3.75034
# Velocity P-wave (km/s) = 5.83867 6.62271 6.24301
#
# Compressibility (1/GPa) = 0.02498466
#
# Stress axis : x y z
#
# Youngs Moduli (GPa) = 114.14949 92.58429 31.03792
#
# Poissons Ratio (x) = 0.00514 0.24973
# Poissons Ratio (y) = 0.00633 0.16438
# Poissons Ratio (z) = 0.91845 0.49034
#
# Static dielectric constant tensor:
#      x y z
#    x 1.907180 0.000000 0.028970 
#    y 0.000000 1.979630 0.000000 
#    z 0.028970 0.000000 1.854800 
# 
# From -- ./inp_files/13552.got.cif
#   From: 2010.05.17/outbox.cif.g08.bks.cpg/sg4_7_cif.got.tgz:13552.got - 2010.06.03 18:43:04.
