data_PCOD9117082
_publ_section_title
;
Structure prediction by ZEFSAII (Michael W. Deem and Ramdas Pophale) SiO2 
 PCOD9117082
Probable space group: P 21
;
_chemical_formula_sum "Si O2"
_cell_formula_units_Z 16
_cell_length_a 10.718799
_cell_length_b 8.953839
_cell_length_c 13.811038
_cell_angle_alpha 90.000000
_cell_angle_beta 30.901955
_cell_angle_gamma 90.000000
_cell_volume 680.740866
_symmetry_space_group_name_H-M "P 21"
_symmetry_group_IT_number 4
_symmetry_cell_setting 'monoclinic'
loop_
_space_group_symop_operation_xyz
x,y,z
-x,1/2+y,-z
loop_
_atom_site_type_symbol
_atom_site_label
_atom_site_fract_x
_atom_site_fract_y
_atom_site_fract_z
Si Si1 0.713632 0.312090 0.221741
Si Si2 0.509833 0.831198 0.318637
Si Si3 0.454491 0.833664 0.142698
Si Si4 0.757338 0.629353 0.525823
Si Si5 0.333892 0.524978 0.504453
Si Si6 0.950526 0.012072 0.120675
Si Si7 0.886411 0.895214 0.547114
Si Si8 0.262621 0.572977 0.159000
O O1 0.485063 0.208886 0.348028
O O2 0.570928 0.431988 0.384069
O O3 0.913060 0.187731 0.118360
O O4 0.812716 0.423265 0.072333
O O5 0.545418 0.773951 0.185246
O O6 0.417527 0.695467 0.444158
O O7 0.741110 0.917057 0.205472
O O8 0.304437 0.956588 0.441176
O O9 0.445314 0.701509 0.070910
O O10 0.175845 0.889659 0.337638
O O11 0.625415 0.967270 0.995466
O O12 0.811618 0.719537 0.589206
O O13 0.006209 0.648031 0.300085
O O14 0.112976 0.502561 0.724677
O O15 0.242190 0.474145 0.459407
O O16 0.804351 0.976516 0.699742
#
# Coordination Sequence:
#
# PCOD9117082 Si02
#       8
#     2   2   2   2   2   2   2   2
#     4  10  23  46  66 103 137 178 240 296 352 433
#     4  11  22  44  69 103 142 180 242 295 351 428
#     4  11  25  41  67 107 139 191 235 293 354 427
#     4   9  22  42  66  94 143 183 223 297 349 415
#     4  11  23  44  71 101 137 188 238 293 363 421
#     4  11  24  45  71 101 137 189 230 301 360 422
#     4  10  22  43  67  97 146 183 235 293 351 425
#     4  11  23  43  67 104 141 192 235 290 364 419
#
# _framework density 23.503803999999999
#
# number of rings (size 3 to 8) (size 9 to 14) (size 15 to 20)
#    0.000    1.500    2.500    1.500    1.750    3.000 
#   22.500    0.000    0.000    0.000    0.000    0.000 
#    0.000    0.000    0.000    0.000    0.000    0.000 
#
# Total GULP energy -89296.321970 kJ/mol
# GULP energy per Si atom -5581.020123 kJ/mol
# Density = 2.345031 g / cm^3
# Si number density = 23.503804 Si / 1000 Ang^3
#
#
#
# Elastic Constant Matrix: (Units=GPa)
#
#
# Indices 1 2 3 4 5 6 
#
# 1 52.3892 21.1081 15.4555 0.0000 -11.7652 0.0000
# 2 21.1081 122.7723 46.7016 0.0000 -0.4526 0.0000
# 3 15.4555 46.7016 74.7325 0.0000 -2.7934 0.0000
# 4 0.0000 0.0000 0.0000 54.4191 0.0000 -1.7224
# 5 -11.7652 -0.4526 -2.7934 0.0000 27.5683 0.0000
# 6 0.0000 0.0000 0.0000 -1.7224 0.0000 25.9773
#
#
#
# Elastic Compliance Matrix: (Units=1/GPa)
#
#
# Indices 1 2 3 4 5 6 
#
# 1 0.023201 -0.002971 -0.002583 0.000000 0.009591 0.000000
# 2 -0.002971 0.011073 -0.006370 0.000000 -0.001732 0.000000
# 3 -0.002583 -0.006370 0.017919 0.000000 0.000609 0.000000
# 4 0.000000 0.000000 0.000000 0.018415 0.000000 0.001221
# 5 0.009591 -0.001732 0.000609 0.000000 0.040400 0.000000
# 6 0.000000 0.000000 0.000000 0.001221 0.000000 0.038576
#
#
# Mechanical properties :
#
#
# Convention : Reuss Voigt Hill
#
# Bulk Modulus (GPa) = 35.28033 46.26936 40.77485
# Shear Modulus (GPa) = 27.34062 32.70152 30.02107
#
# Velocity S-wave (km/s) = 3.41433 3.73410 3.57779
# Velocity P-wave (km/s) = 5.53052 6.19031 5.86969
#
# Compressibility (1/GPa) = 0.02834440
#
# Stress axis : x y z
#
# Youngs Moduli (GPa) = 43.10199 90.31334 55.80799
#
# Poissons Ratio (x) = 0.26832 0.14416
# Poissons Ratio (y) = 0.12805 0.35548
# Poissons Ratio (z) = 0.11134 0.57527
#
# Static dielectric constant tensor:
#      x y z
#    x 1.923140 0.000000 -0.013600 
#    y 0.000000 1.954520 0.000000 
#    z -0.013600 0.000000 1.902840 
# 
# From -- ./inp_files/13944.got.cif
#   From: 2010.05.17/outbox.cif.g08.bks.cpg/sg4_7_cif.got.tgz:13944.got - 2010.06.03 18:43:04.
