data_PCOD9117972
_publ_section_title
;
Structure prediction by ZEFSAII (Michael W. Deem and Ramdas Pophale) SiO2 
 PCOD9117972
Probable space group: P 21
;
_chemical_formula_sum "Si O2"
_cell_formula_units_Z 12
_cell_length_a 12.692418
_cell_length_b 7.779684
_cell_length_c 8.771021
_cell_angle_alpha 90.000000
_cell_angle_beta 146.404547
_cell_angle_gamma 90.000000
_cell_volume 479.222408
_symmetry_space_group_name_H-M "P 21"
_symmetry_group_IT_number 4
_symmetry_cell_setting 'monoclinic'
loop_
_space_group_symop_operation_xyz
x,y,z
-x,1/2+y,-z
loop_
_atom_site_type_symbol
_atom_site_label
_atom_site_fract_x
_atom_site_fract_y
_atom_site_fract_z
Si Si1 0.814317 0.906410 0.466282
Si Si2 0.853033 0.905621 0.036791
Si Si3 0.562815 0.389936 0.805672
Si Si4 0.064467 0.649444 0.124341
Si Si5 0.086255 0.746733 0.591080
Si Si6 0.468995 0.767591 0.571913
O O1 0.608399 0.861958 0.282177
O O2 0.911158 0.746764 0.498725
O O3 0.922647 0.990615 0.741843
O O4 0.827680 0.067070 0.363380
O O5 0.877225 0.752853 0.940404
O O6 0.997419 0.844325 0.339483
O O7 0.632260 0.901879 0.819137
O O8 0.912591 0.072957 0.015724
O O9 0.543917 0.585616 0.724599
O O10 0.545670 0.284271 0.628262
O O11 0.754945 0.351640 0.126693
O O12 0.251720 0.771319 0.371103
#
# Coordination Sequence:
#
# PCOD9117972 Si02
#       6
#     2   2   2   2   2   2
#     4  10  24  47  66 103 141 184 233 286 356 421
#     4  11  24  44  69 102 139 187 235 290 345 420
#     4  11  25  46  71 107 142 185 238 292 352 422
#     4  10  24  42  69 101 135 185 240 279 348 418
#     4  11  26  44  72 104 147 181 234 296 356 413
#     4  11  23  45  71 101 142 184 238 285 345 424
#
# _framework density 25.040564
#
# number of rings (size 3 to 8) (size 9 to 14) (size 15 to 20)
#    0.000    1.333    3.333    2.000    7.000    5.333 
#    3.000    0.000    0.000    0.000    0.000    0.000 
#    0.000    0.000    0.000    0.000    0.000    0.000 
#
# Total GULP energy -67133.555873 kJ/mol
# GULP energy per Si atom -5594.462989 kJ/mol
# Density = 2.498357 g / cm^3
# Si number density = 25.040564 Si / 1000 Ang^3
#
#
#
# Elastic Constant Matrix: (Units=GPa)
#
#
# Indices 1 2 3 4 5 6 
#
# 1 152.1098 21.0369 25.7597 0.0000 3.8108 0.0000
# 2 21.0369 20.6891 1.5811 0.0000 -10.5189 0.0000
# 3 25.7597 1.5811 96.2435 0.0000 -17.5847 0.0000
# 4 0.0000 0.0000 0.0000 19.8845 0.0000 -8.3591
# 5 3.8108 -10.5189 -17.5847 0.0000 26.5037 0.0000
# 6 0.0000 0.0000 0.0000 -8.3591 0.0000 70.5948
#
#
#
# Elastic Compliance Matrix: (Units=1/GPa)
#
#
# Indices 1 2 3 4 5 6 
#
# 1 0.009486 -0.014288 -0.004085 0.000000 -0.009745 0.000000
# 2 -0.014288 0.083364 0.010099 0.000000 0.041841 0.000000
# 3 -0.004085 0.010099 0.013834 0.000000 0.013774 0.000000
# 4 0.000000 0.000000 0.000000 0.052925 0.000000 0.006267
# 5 -0.009745 0.041841 0.013774 0.000000 0.064877 0.000000
# 6 0.000000 0.000000 0.000000 0.006267 0.000000 0.014907
#
#
# Mechanical properties :
#
#
# Convention : Reuss Voigt Hill
#
# Bulk Modulus (GPa) = 11.09410 40.64418 25.86914
# Shear Modulus (GPa) = 17.48341 38.10759 27.79550
#
# Velocity S-wave (km/s) = 2.64522 3.90530 3.33531
# Velocity P-wave (km/s) = 3.71075 6.04994 5.01854
#
# Compressibility (1/GPa) = 0.09013801
#
# Stress axis : x y z
#
# Youngs Moduli (GPa) = 105.41755 11.99563 72.28355
#
# Poissons Ratio (x) = 0.17139 0.29526
# Poissons Ratio (y) = 1.50619 -0.73002
# Poissons Ratio (z) = 0.43060 -0.12115
#
# Static dielectric constant tensor:
#      x y z
#    x 1.963060 0.000000 -0.025410 
#    y 0.000000 2.023560 0.000000 
#    z -0.025410 0.000000 1.957730 
# 
# From -- ./inp_files/8075.got.cif
#   From: 2010.05.17/outbox.cif.g08.bks.cpg/sg4_5_cif.got.tgz:8075.got - 2010.06.03 18:43:04.
