data_PCOD9117256
_publ_section_title
;
Structure prediction by ZEFSAII (Michael W. Deem and Ramdas Pophale) SiO2 
 PCOD9117256
Probable space group: P 21
;
_chemical_formula_sum "Si O2"
_cell_formula_units_Z 14
_cell_length_a 7.394606
_cell_length_b 12.031368
_cell_length_c 8.981286
_cell_angle_alpha 90.000000
_cell_angle_beta 130.398919
_cell_angle_gamma 90.000000
_cell_volume 608.509417
_symmetry_space_group_name_H-M "P 21"
_symmetry_group_IT_number 4
_symmetry_cell_setting 'monoclinic'
loop_
_space_group_symop_operation_xyz
x,y,z
-x,1/2+y,-z
loop_
_atom_site_type_symbol
_atom_site_label
_atom_site_fract_x
_atom_site_fract_y
_atom_site_fract_z
Si Si1 0.147626 0.000000 0.155293
Si Si2 0.644797 0.944356 0.937220
Si Si3 0.306575 0.846424 0.513105
Si Si4 0.635007 0.966321 0.263897
Si Si5 0.948753 0.186752 0.420963
Si Si6 0.795568 0.185554 0.025416
Si Si7 0.573398 0.760075 0.399252
O O1 0.232846 0.941872 0.355460
O O2 0.364071 0.001028 0.156383
O O3 0.042042 0.124566 0.114061
O O4 0.902267 0.932180 0.993725
O O5 0.445418 0.897933 0.725400
O O6 0.649472 0.906005 0.110990
O O7 0.626228 0.077286 0.952138
O O8 0.482603 0.764077 0.517496
O O9 0.101687 0.768352 0.469382
O O10 0.186587 0.569841 0.633093
O O11 0.693489 0.877575 0.422878
O O12 0.227154 0.172645 0.538050
O O13 0.838791 0.237509 0.209149
O O14 0.663636 0.253804 0.828691
#
# Coordination Sequence:
#
# PCOD9117256 Si02
#       7
#     2   2   2   2   2   2   2
#     4   9  22  44  65  96 137 172 220 283 320 401
#     4   9  21  40  67  95 131 177 210 281 325 399
#     4  11  24  40  69 100 132 174 228 267 342 390
#     4  10  22  45  67  97 138 174 222 277 339 390
#     4  11  25  41  68  99 133 180 219 283 323 405
#     4   9  23  43  65  93 135 173 218 270 336 389
#     4  11  25  43  65  98 136 174 225 275 335 398
#
# _framework density 23.007038000000001
#
# number of rings (size 3 to 8) (size 9 to 14) (size 15 to 20)
#    0.857    1.143    0.000    1.714    4.000    4.571 
#    5.143    0.000    0.000    0.000    0.000    0.000 
#    0.000    0.000    0.000    0.000    0.000    0.000 
#
# Total GULP energy -78066.686446 kJ/mol
# GULP energy per Si atom -5576.191889 kJ/mol
# Density = 2.295467 g / cm^3
# Si number density = 23.007038 Si / 1000 Ang^3
#
#
#
# Elastic Constant Matrix: (Units=GPa)
#
#
# Indices 1 2 3 4 5 6 
#
# 1 124.4472 38.8481 23.9935 0.0000 1.4871 0.0000
# 2 38.8481 44.7803 26.8894 0.0000 11.3550 0.0000
# 3 23.9935 26.8894 83.9967 0.0000 5.0873 0.0000
# 4 0.0000 0.0000 0.0000 28.4915 0.0000 0.2270
# 5 1.4871 11.3550 5.0873 0.0000 28.6453 0.0000
# 6 0.0000 0.0000 0.0000 0.2270 0.0000 30.5829
#
#
#
# Elastic Compliance Matrix: (Units=1/GPa)
#
#
# Indices 1 2 3 4 5 6 
#
# 1 0.011360 -0.010779 -0.000017 0.000000 0.003686 0.000000
# 2 -0.010779 0.040684 -0.009100 0.000000 -0.013952 0.000000
# 3 -0.000017 -0.009100 0.014764 0.000000 0.000986 0.000000
# 4 0.000000 0.000000 0.000000 0.035100 0.000000 -0.000261
# 5 0.003686 -0.013952 0.000986 0.000000 0.040074 0.000000
# 6 0.000000 0.000000 0.000000 -0.000261 0.000000 0.032700
#
#
# Mechanical properties :
#
#
# Convention : Reuss Voigt Hill
#
# Bulk Modulus (GPa) = 37.01712 48.07625 42.54669
# Shear Modulus (GPa) = 22.37338 28.44347 25.40842
#
# Velocity S-wave (km/s) = 3.12181 3.51991 3.32682
# Velocity P-wave (km/s) = 5.39617 6.12057 5.76975
#
# Compressibility (1/GPa) = 0.02701452
#
# Stress axis : x y z
#
# Youngs Moduli (GPa) = 88.03038 24.57941 67.73393
#
# Poissons Ratio (x) = 0.26494 0.00118
# Poissons Ratio (y) = 0.94889 0.61638
# Poissons Ratio (z) = 0.00154 0.22367
#
# Static dielectric constant tensor:
#      x y z
#    x 1.887370 0.000000 0.011460 
#    y 0.000000 1.925500 0.000000 
#    z 0.011460 0.000000 1.870550 
# 
# From -- ./inp_files/6662.got.cif
#   From: 2010.05.17/outbox.cif.g08.bks.cpg/sg4_4_cif.got.tgz:6662.got - 2010.06.03 18:43:04.
