data_PCOD9117731
_publ_section_title
;
Structure prediction by ZEFSAII (Michael W. Deem and Ramdas Pophale) SiO2 
 PCOD9117731
Probable space group: P 21
;
_chemical_formula_sum "Si O2"
_cell_formula_units_Z 12
_cell_length_a 5.105558
_cell_length_b 10.006737
_cell_length_c 9.076253
_cell_angle_alpha 90.000000
_cell_angle_beta 104.185077
_cell_angle_gamma 90.000000
_cell_volume 449.566800
_symmetry_space_group_name_H-M "P 21"
_symmetry_group_IT_number 4
_symmetry_cell_setting 'monoclinic'
loop_
_space_group_symop_operation_xyz
x,y,z
-x,1/2+y,-z
loop_
_atom_site_type_symbol
_atom_site_label
_atom_site_fract_x
_atom_site_fract_y
_atom_site_fract_z
Si Si1 0.676534 0.863170 0.759900
Si Si2 0.570315 0.632850 0.543590
Si Si3 0.084967 0.940484 0.606784
Si Si4 0.896891 0.294174 0.675566
Si Si5 0.414832 0.983053 0.178354
Si Si6 0.309775 0.238183 0.952522
O O1 0.727264 0.729316 0.675705
O O2 0.353712 0.882731 0.726948
O O3 0.837358 0.966128 0.681587
O O4 0.799339 0.835036 0.933924
O O5 0.772018 0.556439 0.465343
O O6 0.376433 0.723719 0.416833
O O7 0.428993 0.540159 0.652798
O O8 0.989166 0.840600 0.464966
O O9 0.846814 0.427211 0.768247
O O10 0.085866 0.203676 0.802163
O O11 0.504324 0.843689 0.112710
O O12 0.403971 0.103057 0.053807
#
# Coordination Sequence:
#
# PCOD9117731 Si02
#       6
#     2   2   2   2   2   2
#     4  10  24  45  69 108 153 202 252 325 397 462
#     4   9  22  48  73 108 153 208 271 329 389 470
#     4  10  23  44  74 108 150 203 268 325 386 465
#     4  10  24  46  77 111 151 213 274 326 396 477
#     4  10  25  50  74 118 162 206 265 336 407 483
#     4  11  26  49  79 115 165 212 264 333 411 487
#
# _framework density 26.692360999999998
#
# number of rings (size 3 to 8) (size 9 to 14) (size 15 to 20)
#    0.000    2.000    0.000    0.000    9.333    6.667 
#   18.000    3.333    0.000    0.000    0.000    0.000 
#    0.000    0.000    0.000    0.000    0.000    0.000 
#
# Total GULP energy -66938.568298 kJ/mol
# GULP energy per Si atom -5578.214025 kJ/mol
# Density = 2.663161 g / cm^3
# Si number density = 26.692361 Si / 1000 Ang^3
#
#
#
# Elastic Constant Matrix: (Units=GPa)
#
#
# Indices 1 2 3 4 5 6 
#
# 1 71.0274 11.5414 54.4354 0.0000 -17.5309 0.0000
# 2 11.5414 111.8169 41.3476 0.0000 -1.1327 0.0000
# 3 54.4354 41.3476 183.7436 0.0000 13.6123 0.0000
# 4 0.0000 0.0000 0.0000 59.4625 0.0000 -2.9308
# 5 -17.5309 -1.1327 13.6123 0.0000 35.2064 0.0000
# 6 0.0000 0.0000 0.0000 -2.9308 0.0000 44.6960
#
#
#
# Elastic Compliance Matrix: (Units=1/GPa)
#
#
# Indices 1 2 3 4 5 6 
#
# 1 0.024276 0.000798 -0.008513 0.000000 0.015405 0.000000
# 2 0.000798 0.009830 -0.002575 0.000000 0.001709 0.000000
# 3 -0.008513 -0.002575 0.009125 0.000000 -0.007850 0.000000
# 4 0.000000 0.000000 0.000000 0.016872 0.000000 0.001106
# 5 0.015405 0.001709 -0.007850 0.000000 0.039165 0.000000
# 6 0.000000 0.000000 0.000000 0.001106 0.000000 0.022446
#
#
# Mechanical properties :
#
#
# Convention : Reuss Voigt Hill
#
# Bulk Modulus (GPa) = 44.14611 64.58185 54.36398
# Shear Modulus (GPa) = 33.36787 45.15723 39.26255
#
# Velocity S-wave (km/s) = 3.53950 4.11757 3.83943
# Velocity P-wave (km/s) = 5.76878 6.84494 6.32977
#
# Compressibility (1/GPa) = 0.02265205
#
# Stress axis : x y z
#
# Youngs Moduli (GPa) = 41.19315 101.72541 109.58411
#
# Poissons Ratio (x) = -0.08120 0.93287
# Poissons Ratio (y) = -0.03288 0.28221
# Poissons Ratio (z) = 0.35067 0.26197
#
# Static dielectric constant tensor:
#      x y z
#    x 2.182810 0.000000 0.001510 
#    y 0.000000 2.334510 0.000000 
#    z 0.001510 0.000000 2.018920 
# 
# From -- ./inp_files/4574.got.cif
#   From: 2010.05.17/outbox.cif.g08.bks.cpg/sg4_3_cif.got.tgz:4574.got - 2010.06.03 18:43:04.
