data_PCOD9117014
_publ_section_title
;
Structure prediction by ZEFSAII (Michael W. Deem and Ramdas Pophale) SiO2 
 PCOD9117014
Probable space group: P 21
;
_chemical_formula_sum "Si O2"
_cell_formula_units_Z 14
_cell_length_a 8.494012
_cell_length_b 12.349066
_cell_length_c 10.547811
_cell_angle_alpha 90.000000
_cell_angle_beta 147.333032
_cell_angle_gamma 90.000000
_cell_volume 597.181113
_symmetry_space_group_name_H-M "P 21"
_symmetry_group_IT_number 4
_symmetry_cell_setting 'monoclinic'
loop_
_space_group_symop_operation_xyz
x,y,z
-x,1/2+y,-z
loop_
_atom_site_type_symbol
_atom_site_label
_atom_site_fract_x
_atom_site_fract_y
_atom_site_fract_z
Si Si1 0.166936 0.606220 0.220636
Si Si2 0.332921 0.606232 0.779119
Si Si3 0.640179 0.442447 0.156602
Si Si4 0.750011 0.787078 0.000020
Si Si5 0.859688 0.442481 0.843171
Si Si6 0.249926 0.436158 0.499871
Si Si7 0.250068 0.049842 0.500118
O O1 0.226185 0.513845 0.362990
O O2 0.466221 0.619348 0.346155
O O3 0.029079 0.708754 0.197940
O O4 0.927435 0.552863 0.964503
O O5 0.470871 0.708796 0.801974
O O6 0.273616 0.513913 0.636664
O O7 0.033641 0.619351 0.653610
O O8 0.572368 0.552806 0.035191
O O9 0.358645 0.364680 0.960133
O O10 0.677791 0.476319 0.328595
O O11 0.930594 0.385079 0.300372
O O12 0.858735 0.864740 0.960292
O O13 0.569301 0.385105 0.699440
O O14 0.822090 0.476316 0.671176
#
# Coordination Sequence:
#
# PCOD9117014 Si02
#       7
#     2   2   2   2   2   2   2
#     4  11  22  44  66 100 132 169 217 277 313 390
#     4  11  22  44  66 100 132 169 217 277 313 390
#     4  11  22  44  66 100 132 169 217 277 313 390
#     4  12  24  40  74  92 132 178 214 262 338 374
#     4  11  22  44  66 100 132 169 217 277 313 390
#     4  10  22  42  70  90 140 170 210 276 328 368
#     4  10  22  42  70  90 140 170 210 276 328 368
#
# _framework density 23.443473000000001
#
# number of rings (size 3 to 8) (size 9 to 14) (size 15 to 20)
#    0.000    1.143    5.714    0.000    0.000    2.286 
#    0.000    5.714    0.000    0.000    0.000    0.000 
#    0.000    0.000    0.000    0.000    0.000    0.000 
#
# Total GULP energy -78084.167825 kJ/mol
# GULP energy per Si atom -5577.440559 kJ/mol
# Density = 2.339011 g / cm^3
# Si number density = 23.443473 Si / 1000 Ang^3
#
#
#
# Elastic Constant Matrix: (Units=GPa)
#
#
# Indices 1 2 3 4 5 6 
#
# 1 148.4127 33.3957 63.8925 0.0000 54.5562 0.0000
# 2 33.3957 69.1048 13.5107 0.0000 25.0824 0.0000
# 3 63.8925 13.5107 85.9462 0.0000 34.1752 0.0000
# 4 0.0000 0.0000 0.0000 7.9113 0.0000 14.8761
# 5 54.5562 25.0824 34.1752 0.0000 94.4239 0.0000
# 6 0.0000 0.0000 0.0000 14.8761 0.0000 22.9105
#
#
#
# Elastic Compliance Matrix: (Units=1/GPa)
#
#
# Indices 1 2 3 4 5 6 
#
# 1 0.011606 -0.003032 -0.006781 0.000000 -0.003446 0.000000
# 2 -0.003032 0.016876 0.000803 0.000000 -0.003021 0.000000
# 3 -0.006781 0.000803 0.017612 0.000000 -0.002669 0.000000
# 4 0.000000 0.000000 0.000000 -0.572103 0.000000 0.371475
# 5 -0.003446 -0.003021 -0.002669 0.000000 0.014350 0.000000
# 6 0.000000 0.000000 0.000000 0.371475 0.000000 -0.197556
#
#
# Mechanical properties :
#
#
# Convention : Reuss Voigt Hill
#
# Bulk Modulus (GPa) = 35.62230 58.34015 46.98122
# Shear Modulus (GPa) = -7.33315 37.89347 15.28016
#
# Velocity S-wave (km/s) = -1.77054 4.02478 2.55578
# Velocity P-wave (km/s) = 3.32389 6.82187 5.36592
#
# Compressibility (1/GPa) = 0.02807230
#
# Stress axis : x y z
#
# Youngs Moduli (GPa) = 86.15888 59.25614 56.78054
#
# Poissons Ratio (x) = 0.17968 0.38505
# Poissons Ratio (y) = 0.26126 -0.04558
# Poissons Ratio (z) = 0.58427 -0.04757
#
# Static dielectric constant tensor:
#      x y z
#    x 1.874910 0.000000 0.047440 
#    y 0.000000 1.899780 0.000000 
#    z 0.047440 0.000000 2.004100 
# 
# From -- ./inp_files/1330.got.cif
#   From: 2010.05.17/outbox.cif.g08.bks.cpg/sg4_1_cif.got.tgz:1330.got - 2010.06.03 18:43:04.
