data_PCOD9117645
_publ_section_title
;
Structure prediction by ZEFSAII (Michael W. Deem and Ramdas Pophale) SiO2 
 PCOD9117645
Probable space group: P 21
;
_chemical_formula_sum "Si O2"
_cell_formula_units_Z 14
_cell_length_a 14.695091
_cell_length_b 6.014202
_cell_length_c 13.987244
_cell_angle_alpha 90.000000
_cell_angle_beta 151.850492
_cell_angle_gamma 90.000000
_cell_volume 583.198477
_symmetry_space_group_name_H-M "P 21"
_symmetry_group_IT_number 4
_symmetry_cell_setting 'monoclinic'
loop_
_space_group_symop_operation_xyz
x,y,z
-x,1/2+y,-z
loop_
_atom_site_type_symbol
_atom_site_label
_atom_site_fract_x
_atom_site_fract_y
_atom_site_fract_z
Si Si1 0.947541 0.839780 0.342258
Si Si2 0.656475 0.527949 0.955968
Si Si3 0.015250 0.248219 0.264955
Si Si4 0.025237 0.797162 0.068864
Si Si5 0.325783 0.089681 0.404886
Si Si6 0.754660 0.998624 0.359075
Si Si7 0.369049 0.319767 0.238797
O O1 0.852487 0.902777 0.354718
O O2 0.163809 0.749899 0.562800
O O3 0.797779 0.668696 0.154975
O O4 0.970334 0.038213 0.289284
O O5 0.472332 0.450851 0.846259
O O6 0.558090 0.668187 0.779078
O O7 0.807016 0.354204 0.049075
O O8 0.153498 0.205514 0.302895
O O9 0.145151 0.399224 0.454296
O O10 0.238341 0.843270 0.304205
O O11 0.008550 0.536158 0.021453
O O12 0.858937 0.832442 0.992995
O O13 0.365975 0.210447 0.342209
O O14 0.514533 0.047145 0.642329
#
# Coordination Sequence:
#
# PCOD9117645 Si02
#       7
#     2   2   2   2   2   2   2
#     4  11  24  48  72 108 142 189 233 302 381 440
#     4  11  28  44  73 111 144 187 251 303 374 455
#     4  11  26  47  73 108 142 190 242 306 373 451
#     4  10  23  43  72 103 146 200 258 315 375 449
#     4  11  25  43  74 102 151 196 252 304 378 444
#     4  11  25  46  77 105 147 183 242 305 373 460
#     4  11  25  45  69 107 148 197 252 305 376 445
#
# _framework density 24.005549999999999
#
# number of rings (size 3 to 8) (size 9 to 14) (size 15 to 20)
#    0.000    1.143    1.429    2.571   12.000    4.571 
#    0.000    0.000    0.000    0.000    0.000    0.000 
#    0.000    0.000    0.000    0.000    0.000    0.000 
#
# Total GULP energy -78130.620296 kJ/mol
# GULP energy per Si atom -5580.758593 kJ/mol
# Density = 2.395091 g / cm^3
# Si number density = 24.005550 Si / 1000 Ang^3
#
#
#
# Elastic Constant Matrix: (Units=GPa)
#
#
# Indices 1 2 3 4 5 6 
#
# 1 106.0313 17.6245 19.1205 0.0000 7.1360 0.0000
# 2 17.6245 54.2483 15.0760 0.0000 4.6195 0.0000
# 3 19.1205 15.0760 77.8537 0.0000 21.4158 0.0000
# 4 0.0000 0.0000 0.0000 43.2983 0.0000 -0.1615
# 5 7.1360 4.6195 21.4158 0.0000 45.1159 0.0000
# 6 0.0000 0.0000 0.0000 -0.1615 0.0000 37.2928
#
#
#
# Elastic Compliance Matrix: (Units=1/GPa)
#
#
# Indices 1 2 3 4 5 6 
#
# 1 0.010258 -0.002778 -0.001856 0.000000 -0.000457 0.000000
# 2 -0.002778 0.020237 -0.003206 0.000000 -0.000111 0.000000
# 3 -0.001856 -0.003206 0.015815 0.000000 -0.006885 0.000000
# 4 0.000000 0.000000 0.000000 0.023096 0.000000 0.000100
# 5 -0.000457 -0.000111 -0.006885 0.000000 0.025517 0.000000
# 6 0.000000 0.000000 0.000000 0.000100 0.000000 0.026815
#
#
# Mechanical properties :
#
#
# Convention : Reuss Voigt Hill
#
# Bulk Modulus (GPa) = 32.64690 37.97502 35.31096
# Shear Modulus (GPa) = 33.86878 37.56220 35.71549
#
# Velocity S-wave (km/s) = 3.76023 3.95996 3.86139
# Velocity P-wave (km/s) = 5.69927 6.06316 5.88403
#
# Compressibility (1/GPa) = 0.03063078
#
# Stress axis : x y z
#
# Youngs Moduli (GPa) = 97.48149 49.41514 63.23028
#
# Poissons Ratio (x) = 0.13728 0.11733
# Poissons Ratio (y) = 0.27082 0.20271
# Poissons Ratio (z) = 0.18089 0.15842
#
# Static dielectric constant tensor:
#      x y z
#    x 1.883720 0.000000 -0.002320 
#    y 0.000000 2.024690 0.000000 
#    z -0.002320 0.000000 1.937380 
# 
# From -- ./inp_files/14101.got.cif
#   From: 2010.05.17/outbox.cif.g08.bks.cpg/sg4_8_cif.got.tgz:14101.got - 2010.06.03 18:43:04.
