data_PCOD9117099
_publ_section_title
;
Structure prediction by ZEFSAII (Michael W. Deem and Ramdas Pophale) SiO2 
 PCOD9117099
Probable space group: P 21
;
_chemical_formula_sum "Si O2"
_cell_formula_units_Z 14
_cell_length_a 12.017427
_cell_length_b 11.257936
_cell_length_c 7.329777
_cell_angle_alpha 90.000000
_cell_angle_beta 38.829899
_cell_angle_gamma 90.000000
_cell_volume 621.778618
_symmetry_space_group_name_H-M "P 21"
_symmetry_group_IT_number 4
_symmetry_cell_setting 'monoclinic'
loop_
_space_group_symop_operation_xyz
x,y,z
-x,1/2+y,-z
loop_
_atom_site_type_symbol
_atom_site_label
_atom_site_fract_x
_atom_site_fract_y
_atom_site_fract_z
Si Si1 0.235796 0.752450 0.655898
Si Si2 0.836413 0.735989 0.154655
Si Si3 0.251105 0.440837 0.999765
Si Si4 0.528145 0.163425 0.942183
Si Si5 0.642829 0.506092 0.569453
Si Si6 0.186161 0.321387 0.425976
Si Si7 0.177565 0.691118 0.118176
O O1 0.380257 0.672054 0.370129
O O2 0.243644 0.886826 0.568927
O O3 0.260452 0.761631 0.841560
O O4 0.040776 0.702587 0.867582
O O5 0.779793 0.815048 0.055862
O O6 0.728549 0.619143 0.356215
O O7 0.828407 0.826686 0.337859
O O8 0.457653 0.470593 0.712390
O O9 0.192172 0.433477 0.287442
O O10 0.149863 0.559180 0.068808
O O11 0.681988 0.187941 0.896458
O O12 0.375432 0.261954 0.144226
O O13 0.420653 0.048524 0.148673
O O14 0.013101 0.244973 0.590654
#
# Coordination Sequence:
#
# PCOD9117099 Si02
#       7
#     2   2   2   2   2   2   2
#     4  11  23  46  71  99 140 178 231 285 342 409
#     4  10  25  43  70 102 138 182 226 282 350 402
#     4  11  23  43  72  96 143 172 230 288 342 410
#     4  10  22  43  69  95 138 173 230 276 340 399
#     4  10  24  43  66 104 135 171 238 277 335 426
#     4  10  22  44  65 100 135 171 231 274 336 413
#     4  10  25  44  65 104 135 179 232 278 341 413
#
# _framework density 22.516054
#
# number of rings (size 3 to 8) (size 9 to 14) (size 15 to 20)
#    0.000    1.714    1.429    0.857   12.000    2.286 
#   10.286    1.429    0.000    0.000    0.000    0.000 
#    0.000    0.000    0.000    0.000    0.000    0.000 
#
# Total GULP energy -78129.010819 kJ/mol
# GULP energy per Si atom -5580.643630 kJ/mol
# Density = 2.246481 g / cm^3
# Si number density = 22.516054 Si / 1000 Ang^3
#
#
#
# Elastic Constant Matrix: (Units=GPa)
#
#
# Indices 1 2 3 4 5 6 
#
# 1 57.2707 11.9526 18.5562 0.0000 -1.8083 0.0000
# 2 11.9526 87.7100 40.4012 0.0000 2.0737 0.0000
# 3 18.5562 40.4012 133.0882 0.0000 2.1220 0.0000
# 4 0.0000 0.0000 0.0000 43.2405 0.0000 4.3579
# 5 -1.8083 2.0737 2.1220 0.0000 23.8632 0.0000
# 6 0.0000 0.0000 0.0000 4.3579 0.0000 29.1461
#
#
#
# Elastic Compliance Matrix: (Units=1/GPa)
#
#
# Indices 1 2 3 4 5 6 
#
# 1 0.018537 -0.001586 -0.002131 0.000000 0.001732 0.000000
# 2 -0.001586 0.013405 -0.003833 0.000000 -0.000944 0.000000
# 3 -0.002131 -0.003833 0.008985 0.000000 -0.000627 0.000000
# 4 0.000000 0.000000 0.000000 0.023480 0.000000 -0.003511
# 5 0.001732 -0.000944 -0.000627 0.000000 0.042175 0.000000
# 6 0.000000 0.000000 0.000000 -0.003511 0.000000 0.034835
#
#
# Mechanical properties :
#
#
# Convention : Reuss Voigt Hill
#
# Bulk Modulus (GPa) = 38.71848 46.65432 42.68640
# Shear Modulus (GPa) = 30.28008 33.06054 31.67031
#
# Velocity S-wave (km/s) = 3.67116 3.83601 3.75449
# Velocity P-wave (km/s) = 5.93322 6.35495 6.14771
#
# Compressibility (1/GPa) = 0.02582746
#
# Stress axis : x y z
#
# Youngs Moduli (GPa) = 53.94635 74.59734 111.30182
#
# Poissons Ratio (x) = 0.11828 0.23717
# Poissons Ratio (y) = 0.08553 0.42665
# Poissons Ratio (z) = 0.11495 0.28595
#
# Static dielectric constant tensor:
#      x y z
#    x 1.872640 0.000000 0.012120 
#    y 0.000000 1.873710 0.000000 
#    z 0.012120 0.000000 1.836270 
# 
# From -- ./inp_files/9278.got.cif
#   From: 2010.05.17/outbox.cif.g08.bks.cpg/sg4_5_cif.got.tgz:9278.got - 2010.06.03 18:43:04.
