data_PCOD9117333
_publ_section_title
;
Structure prediction by ZEFSAII (Michael W. Deem and Ramdas Pophale) SiO2 
 PCOD9117333
Probable space group: P 21
;
_chemical_formula_sum "Si O2"
_cell_formula_units_Z 14
_cell_length_a 10.310090
_cell_length_b 5.132610
_cell_length_c 17.102378
_cell_angle_alpha 90.000000
_cell_angle_beta 143.945349
_cell_angle_gamma 90.000000
_cell_volume 532.654377
_symmetry_space_group_name_H-M "P 21"
_symmetry_group_IT_number 4
_symmetry_cell_setting 'monoclinic'
loop_
_space_group_symop_operation_xyz
x,y,z
-x,1/2+y,-z
loop_
_atom_site_type_symbol
_atom_site_label
_atom_site_fract_x
_atom_site_fract_y
_atom_site_fract_z
Si Si1 0.704026 0.064590 0.826461
Si Si2 0.737962 0.731118 0.553837
Si Si3 0.111665 0.279956 0.940161
Si Si4 0.552857 0.728172 0.624520
Si Si5 0.073911 0.803210 0.584110
Si Si6 0.360724 0.384154 0.913601
Si Si7 0.470455 0.466156 0.803452
O O1 0.509113 0.260322 0.753988
O O2 0.822715 0.004553 0.966341
O O3 0.645857 0.796955 0.754412
O O4 0.869462 0.197724 0.845978
O O5 0.739652 0.749900 0.648649
O O6 0.628132 0.454421 0.479464
O O7 0.957806 0.778164 0.611955
O O8 0.568693 0.956803 0.445413
O O9 0.291098 0.056487 0.048654
O O10 0.155860 0.349033 0.871737
O O11 0.327285 0.720124 0.714718
O O12 0.974620 0.577368 0.479640
O O13 0.336653 0.334885 0.810006
O O14 0.456125 0.674497 0.970005
#
# Coordination Sequence:
#
# PCOD9117333 Si02
#       7
#     2   2   2   2   2   2   2
#     4  12  24  45  75 109 143 196 242 302 362 433
#     4  10  23  50  69 108 141 188 241 300 366 438
#     4  11  25  45  71 109 143 191 246 295 361 439
#     4  10  24  45  78 101 147 185 240 305 363 426
#     4  12  28  46  74 109 145 189 244 300 368 438
#     4  10  22  46  71 100 145 190 237 294 357 429
#     4  11  26  47  72 104 150 193 240 304 365 427
#
# _framework density 26.283462
#
# number of rings (size 3 to 8) (size 9 to 14) (size 15 to 20)
#    0.000    1.143    2.857    1.714    8.000    0.000 
#   23.143    0.000    0.000    0.000    0.000    0.000 
#    0.000    0.000    0.000    0.000    0.000    0.000 
#
# Total GULP energy -78538.863808 kJ/mol
# GULP energy per Si atom -5609.918843 kJ/mol
# Density = 2.622364 g / cm^3
# Si number density = 26.283462 Si / 1000 Ang^3
#
#
#
# Elastic Constant Matrix: (Units=GPa)
#
#
# Indices 1 2 3 4 5 6 
#
# 1 253.1959 21.6468 41.8861 0.0000 9.4432 0.0000
# 2 21.6468 71.5061 32.2078 0.0000 1.0150 0.0000
# 3 41.8861 32.2078 47.2599 0.0000 5.2937 0.0000
# 4 0.0000 0.0000 0.0000 35.2260 0.0000 2.5059
# 5 9.4432 1.0150 5.2937 0.0000 35.1296 0.0000
# 6 0.0000 0.0000 0.0000 2.5059 0.0000 37.9167
#
#
#
# Elastic Compliance Matrix: (Units=1/GPa)
#
#
# Indices 1 2 3 4 5 6 
#
# 1 0.004661 0.000618 -0.004485 0.000000 -0.000595 0.000000
# 2 0.000618 0.020340 -0.014571 0.000000 0.001442 0.000000
# 3 -0.004485 -0.014571 0.035482 0.000000 -0.003720 0.000000
# 4 0.000000 0.000000 0.000000 0.028522 0.000000 -0.001885
# 5 -0.000595 0.001442 -0.003720 0.000000 0.029145 0.000000
# 6 0.000000 0.000000 0.000000 -0.001885 0.000000 0.026498
#
#
# Mechanical properties :
#
#
# Convention : Reuss Voigt Hill
#
# Bulk Modulus (GPa) = 42.36234 62.60480 52.48357
# Shear Modulus (GPa) = 26.39998 40.06920 33.23459
#
# Velocity S-wave (km/s) = 3.17272 3.90872 3.55979
# Velocity P-wave (km/s) = 5.43820 6.65144 6.07518
#
# Compressibility (1/GPa) = 0.02360587
#
# Stress axis : x y z
#
# Youngs Moduli (GPa) = 214.55192 49.16315 28.18355
#
# Poissons Ratio (x) = -0.03037 0.12641
# Poissons Ratio (y) = -0.13253 0.41066
# Poissons Ratio (z) = 0.96232 0.71636
#
# Static dielectric constant tensor:
#      x y z
#    x 2.059990 0.000000 -0.016810 
#    y 0.000000 2.057330 0.000000 
#    z -0.016810 0.000000 2.019380 
# 
# From -- ./inp_files/11572.got.cif
#   From: 2010.05.17/outbox.cif.g08.bks.cpg/sg4_6_cif.got.tgz:11572.got - 2010.06.03 18:43:04.
