data_PCOD9117348
_publ_section_title
;
Structure prediction by ZEFSAII (Michael W. Deem and Ramdas Pophale) SiO2 
 PCOD9117348
Probable space group: P 21
;
_chemical_formula_sum "Si O2"
_cell_formula_units_Z 14
_cell_length_a 18.846370
_cell_length_b 5.583778
_cell_length_c 4.848798
_cell_angle_alpha 90.000000
_cell_angle_beta 86.918571
_cell_angle_gamma 90.000000
_cell_volume 509.520389
_symmetry_space_group_name_H-M "P 21"
_symmetry_group_IT_number 4
_symmetry_cell_setting 'monoclinic'
loop_
_space_group_symop_operation_xyz
x,y,z
-x,1/2+y,-z
loop_
_atom_site_type_symbol
_atom_site_label
_atom_site_fract_x
_atom_site_fract_y
_atom_site_fract_z
Si Si1 0.630427 0.926930 0.792364
Si Si2 0.174390 0.269381 0.925620
Si Si3 0.912403 0.122194 0.719689
Si Si4 0.941233 0.424587 0.226447
Si Si5 0.486582 0.957529 0.664113
Si Si6 0.338516 0.738160 0.731231
Si Si7 0.744968 0.594979 0.586878
O O1 0.547428 0.934989 0.887440
O O2 0.671417 0.680667 0.742423
O O3 0.632876 0.047164 0.493505
O O4 0.674510 0.095698 0.987008
O O5 0.227478 0.280123 0.654911
O O6 0.103801 0.164818 0.796550
O O7 0.152155 0.497249 0.109817
O O8 0.202753 0.090570 0.162046
O O9 0.898032 0.247129 0.434551
O O10 0.943806 0.317359 0.922540
O O11 0.979342 0.943755 0.674986
O O12 0.505766 0.718702 0.478624
O O13 0.404691 0.919697 0.764873
O O14 0.273494 0.867930 0.595667
#
# Coordination Sequence:
#
# PCOD9117348 Si02
#       7
#     2   2   2   2   2   2   2
#     4  11  25  46  76 110 154 205 264 328 394 473
#     4  12  28  48  78 116 154 206 252 320 396 476
#     4  12  26  47  79 115 153 195 257 322 386 463
#     4  12  26  47  79 115 153 195 257 322 386 463
#     4  10  22  46  76 122 160 206 278 348 412 480
#     4  11  25  46  76 110 154 205 264 328 394 473
#     4  12  26  50  74 108 164 200 256 314 398 482
#
# _framework density 27.476821000000001
#
# number of rings (size 3 to 8) (size 9 to 14) (size 15 to 20)
#    0.000    0.571    2.857    4.286    2.000    9.143 
#    2.571    0.000    0.000    0.000    0.000    0.000 
#    0.000    0.000    0.000    0.000    0.000    0.000 
#
# Total GULP energy -78462.197101 kJ/mol
# GULP energy per Si atom -5604.442650 kJ/mol
# Density = 2.741428 g / cm^3
# Si number density = 27.476821 Si / 1000 Ang^3
#
#
#
# Elastic Constant Matrix: (Units=GPa)
#
#
# Indices 1 2 3 4 5 6 
#
# 1 113.2044 11.3044 45.4027 0.0000 13.7124 0.0000
# 2 11.3044 75.2501 35.6908 0.0000 -1.1838 0.0000
# 3 45.4027 35.6908 138.1259 0.0000 -2.0874 0.0000
# 4 0.0000 0.0000 0.0000 51.0657 0.0000 0.8273
# 5 13.7124 -1.1838 -2.0874 0.0000 48.8201 0.0000
# 6 0.0000 0.0000 0.0000 0.8273 0.0000 33.9234
#
#
#
# Elastic Compliance Matrix: (Units=1/GPa)
#
#
# Indices 1 2 3 4 5 6 
#
# 1 0.010635 0.000038 -0.003553 0.000000 -0.003138 0.000000
# 2 0.000038 0.015147 -0.003924 0.000000 0.000189 0.000000
# 3 -0.003553 -0.003924 0.009441 0.000000 0.001307 0.000000
# 4 0.000000 0.000000 0.000000 0.019590 0.000000 -0.000478
# 5 -0.003138 0.000189 0.001307 0.000000 0.021425 0.000000
# 6 0.000000 0.000000 0.000000 -0.000478 0.000000 0.029490
#
#
# Mechanical properties :
#
#
# Convention : Reuss Voigt Hill
#
# Bulk Modulus (GPa) = 49.14870 56.81956 52.98413
# Shear Modulus (GPa) = 39.25021 42.37402 40.81211
#
# Velocity S-wave (km/s) = 3.78363 3.93131 3.85818
# Velocity P-wave (km/s) = 6.08391 6.42891 6.25879
#
# Compressibility (1/GPa) = 0.02034642
#
# Stress axis : x y z
#
# Youngs Moduli (GPa) = 94.03013 66.01869 105.91804
#
# Poissons Ratio (x) = -0.00252 0.37633
# Poissons Ratio (y) = -0.00359 0.41558
# Poissons Ratio (z) = 0.33409 0.25903
#
# Static dielectric constant tensor:
#      x y z
#    x 2.281870 0.000000 -0.023340 
#    y 0.000000 2.194210 0.000000 
#    z -0.023340 0.000000 2.027850 
# 
# From -- ./inp_files/4308.got.cif
#   From: 2010.05.17/outbox.cif.g08.bks.cpg/sg4_3_cif.got.tgz:4308.got - 2010.06.03 18:43:04.
