data_PCOD9117217
_publ_section_title
;
Structure prediction by ZEFSAII (Michael W. Deem and Ramdas Pophale) SiO2 
 PCOD9117217
Probable space group: P 21
;
_chemical_formula_sum "Si O2"
_cell_formula_units_Z 14
_cell_length_a 16.580869
_cell_length_b 5.306206
_cell_length_c 7.085847
_cell_angle_alpha 90.000000
_cell_angle_beta 77.587578
_cell_angle_gamma 90.000000
_cell_volume 608.851406
_symmetry_space_group_name_H-M "P 21"
_symmetry_group_IT_number 4
_symmetry_cell_setting 'monoclinic'
loop_
_space_group_symop_operation_xyz
x,y,z
-x,1/2+y,-z
loop_
_atom_site_type_symbol
_atom_site_label
_atom_site_fract_x
_atom_site_fract_y
_atom_site_fract_z
Si Si1 0.912019 0.189770 0.081652
Si Si2 0.995623 0.399890 0.687960
Si Si3 0.734044 0.432001 0.787007
Si Si4 0.583034 0.468429 0.623089
Si Si5 0.240697 0.428794 0.988003
Si Si6 0.128460 0.037735 0.574788
Si Si7 0.396314 0.468004 0.635514
O O1 0.872193 0.421566 0.216487
O O2 0.948388 0.217700 0.855078
O O3 0.840607 0.984911 0.092278
O O4 0.989746 0.129039 0.176794
O O5 0.940270 0.416624 0.532134
O O6 0.088898 0.315613 0.594036
O O7 0.637909 0.452178 0.782597
O O8 0.753718 0.158800 0.863605
O O9 0.785629 0.487878 0.570446
O O10 0.759975 0.656954 0.913572
O O11 0.484401 0.462290 0.698609
O O12 0.605861 0.226594 0.482804
O O13 0.603636 0.727635 0.503818
O O14 0.320199 0.450082 0.814615
#
# Coordination Sequence:
#
# PCOD9117217 Si02
#       7
#     2   2   2   2   2   2   2
#     4  12  27  44  68  96 136 182 233 292 345 409
#     4  12  26  44  68  96 130 182 238 284 350 406
#     4  12  28  44  68 102 142 180 229 285 342 414
#     4  10  22  44  73 102 136 180 229 279 343 412
#     4  12  28  44  68 102 142 180 229 285 342 414
#     4  12  27  44  68  96 136 182 233 292 345 409
#     4  10  22  44  73 102 136 180 229 279 343 412
#
# _framework density 22.994115000000001
#
# number of rings (size 3 to 8) (size 9 to 14) (size 15 to 20)
#    0.000    0.571    4.286    2.571   10.000    1.143 
#    0.000    0.000    0.000    0.000    0.000    0.000 
#    0.000    0.000    0.000    0.000    0.000    0.000 
#
# Total GULP energy -78271.028882 kJ/mol
# GULP energy per Si atom -5590.787777 kJ/mol
# Density = 2.294178 g / cm^3
# Si number density = 22.994115 Si / 1000 Ang^3
#
#
#
# Elastic Constant Matrix: (Units=GPa)
#
#
# Indices 1 2 3 4 5 6 
#
# 1 82.6313 6.0412 21.4690 0.0000 16.1990 0.0000
# 2 6.0412 77.3027 9.0457 0.0000 11.5313 0.0000
# 3 21.4690 9.0457 63.9706 0.0000 4.2082 0.0000
# 4 0.0000 0.0000 0.0000 33.3877 0.0000 5.3057
# 5 16.1990 11.5313 4.2082 0.0000 57.4896 0.0000
# 6 0.0000 0.0000 0.0000 5.3057 0.0000 26.0610
#
#
#
# Elastic Compliance Matrix: (Units=1/GPa)
#
#
# Indices 1 2 3 4 5 6 
#
# 1 0.013966 -0.000034 -0.004445 0.000000 -0.003603 0.000000
# 2 -0.000034 0.013526 -0.001732 0.000000 -0.002577 0.000000
# 3 -0.004445 -0.001732 0.017347 0.000000 0.000330 0.000000
# 4 0.000000 0.000000 0.000000 0.030953 0.000000 -0.006302
# 5 -0.003603 -0.002577 0.000330 0.000000 0.018902 0.000000
# 6 0.000000 0.000000 0.000000 -0.006302 0.000000 0.039655
#
#
# Mechanical properties :
#
#
# Convention : Reuss Voigt Hill
#
# Bulk Modulus (GPa) = 30.84782 33.00181 31.92481
# Shear Modulus (GPa) = 31.73087 35.87758 33.80422
#
# Velocity S-wave (km/s) = 3.71881 3.95434 3.83838
# Velocity P-wave (km/s) = 5.64659 5.93570 5.79295
#
# Compressibility (1/GPa) = 0.03241721
#
# Stress axis : x y z
#
# Youngs Moduli (GPa) = 71.60410 73.93265 57.64625
#
# Poissons Ratio (x) = 0.00250 0.25625
# Poissons Ratio (y) = 0.00242 0.09983
# Poissons Ratio (z) = 0.31829 0.12803
#
# Static dielectric constant tensor:
#      x y z
#    x 1.854760 0.000000 0.008230 
#    y 0.000000 1.966970 0.000000 
#    z 0.008230 0.000000 1.841150 
# 
# From -- ./inp_files/3308.got.cif
#   From: 2010.05.17/outbox.cif.g08.bks.cpg/sg4_2_cif.got.tgz:3308.got - 2010.06.03 18:43:04.
