data_PCOD9117534
_publ_section_title
;
Structure prediction by ZEFSAII (Michael W. Deem and Ramdas Pophale) SiO2 
 PCOD9117534
Probable space group: P 21
;
_chemical_formula_sum "Si O2"
_cell_formula_units_Z 16
_cell_length_a 15.603487
_cell_length_b 5.189793
_cell_length_c 8.923005
_cell_angle_alpha 90.000000
_cell_angle_beta 77.600311
_cell_angle_gamma 90.000000
_cell_volume 705.719658
_symmetry_space_group_name_H-M "P 21"
_symmetry_group_IT_number 4
_symmetry_cell_setting 'monoclinic'
loop_
_space_group_symop_operation_xyz
x,y,z
-x,1/2+y,-z
loop_
_atom_site_type_symbol
_atom_site_label
_atom_site_fract_x
_atom_site_fract_y
_atom_site_fract_z
Si Si1 0.467538 0.893170 0.931534
Si Si2 0.719382 0.211771 0.425493
Si Si3 0.721522 0.194884 0.075701
Si Si4 0.014002 0.296318 0.253150
Si Si5 0.469497 0.550453 0.423530
Si Si6 0.168534 0.222436 0.980799
Si Si7 0.895465 0.990588 0.514383
Si Si8 0.152399 0.106530 0.680354
O O1 0.369515 0.779677 0.962895
O O2 0.495041 0.976203 0.753364
O O3 0.524427 0.652457 0.972247
O O4 0.704514 0.127188 0.258011
O O5 0.631366 0.143880 0.544102
O O6 0.749669 0.505830 0.383792
O O7 0.804630 0.115613 0.488149
O O8 0.783719 0.446697 0.043664
O O9 0.767406 0.946792 0.984134
O O10 0.078200 0.198425 0.102493
O O11 0.074149 0.495043 0.326814
O O12 0.922788 0.415538 0.231850
O O13 0.975806 0.091645 0.384640
O O14 0.480082 0.294513 0.521970
O O15 0.150818 0.308915 0.815281
O O16 0.880027 0.699026 0.467360
#
# Coordination Sequence:
#
# PCOD9117534 Si02
#       8
#     2   2   2   2   2   2   2   2
#     4  12  27  49  75 111 156 193 237 314 393 443
#     4  10  24  43  72 103 133 188 245 295 360 426
#     4  11  24  47  70 101 145 186 234 304 361 430
#     4  11  25  40  66 102 137 195 236 295 358 432
#     4  12  27  47  82 111 142 199 256 309 363 469
#     4  11  26  42  72 101 135 192 243 287 352 439
#     4  11  22  42  65  94 145 180 234 299 360 412
#     4  10  23  42  66  95 143 183 235 299 351 423
#
# _framework density 22.671890999999999
#
# number of rings (size 3 to 8) (size 9 to 14) (size 15 to 20)
#    0.000    1.000    3.750    1.500    7.000    2.000 
#    2.250    0.000    0.000    0.000    0.000    0.000 
#    0.000    0.000    0.000    0.000    0.000    0.000 
#
# Total GULP energy -89244.124240 kJ/mol
# GULP energy per Si atom -5577.757765 kJ/mol
# Density = 2.262029 g / cm^3
# Si number density = 22.671891 Si / 1000 Ang^3
#
#
#
# Elastic Constant Matrix: (Units=GPa)
#
#
# Indices 1 2 3 4 5 6 
#
# 1 115.0569 35.4012 31.0929 0.0000 -10.1050 0.0000
# 2 35.4012 81.8207 34.5631 0.0000 -5.5764 0.0000
# 3 31.0929 34.5631 47.4196 0.0000 -5.7173 0.0000
# 4 0.0000 0.0000 0.0000 30.2610 0.0000 3.8763
# 5 -10.1050 -5.5764 -5.7173 0.0000 35.7185 0.0000
# 6 0.0000 0.0000 0.0000 3.8763 0.0000 27.8748
#
#
#
# Elastic Compliance Matrix: (Units=1/GPa)
#
#
# Indices 1 2 3 4 5 6 
#
# 1 0.011018 -0.002431 -0.005223 0.000000 0.001901 0.000000
# 2 -0.002431 0.018213 -0.011646 0.000000 0.000292 0.000000
# 3 -0.005223 -0.011646 0.033246 0.000000 0.002026 0.000000
# 4 0.000000 0.000000 0.000000 0.033645 0.000000 -0.004679
# 5 0.001901 0.000292 0.002026 0.000000 0.028904 0.000000
# 6 0.000000 0.000000 0.000000 -0.004679 0.000000 0.036525
#
#
# Mechanical properties :
#
#
# Convention : Reuss Voigt Hill
#
# Bulk Modulus (GPa) = 41.88230 49.60130 45.74180
# Shear Modulus (GPa) = 24.02567 28.32018 26.17293
#
# Velocity S-wave (km/s) = 3.25885 3.53814 3.40136
# Velocity P-wave (km/s) = 5.71607 6.21423 5.97035
#
# Compressibility (1/GPa) = 0.02387643
#
# Stress axis : x y z
#
# Youngs Moduli (GPa) = 90.76170 54.90557 30.07903
#
# Poissons Ratio (x) = 0.13348 0.15711
# Poissons Ratio (y) = 0.22065 0.35030
# Poissons Ratio (z) = 0.47406 0.63942
#
# Static dielectric constant tensor:
#      x y z
#    x 1.875940 0.000000 0.073820 
#    y 0.000000 1.967910 0.000000 
#    z 0.073820 0.000000 1.834880 
# 
# From -- ./inp_files/9021.got.cif
#   From: 2010.05.17/outbox.cif.g08.bks.cpg/sg4_5_cif.got.tgz:9021.got - 2010.06.03 18:43:04.
