data_PCOD9117797
_publ_section_title
;
Structure prediction by ZEFSAII (Michael W. Deem and Ramdas Pophale) SiO2 
 PCOD9117797
Probable space group: P 21
;
_chemical_formula_sum "Si O2"
_cell_formula_units_Z 16
_cell_length_a 9.972057
_cell_length_b 10.653044
_cell_length_c 8.456971
_cell_angle_alpha 90.000000
_cell_angle_beta 120.894549
_cell_angle_gamma 90.000000
_cell_volume 770.935740
_symmetry_space_group_name_H-M "P 21"
_symmetry_group_IT_number 4
_symmetry_cell_setting 'monoclinic'
loop_
_space_group_symop_operation_xyz
x,y,z
-x,1/2+y,-z
loop_
_atom_site_type_symbol
_atom_site_label
_atom_site_fract_x
_atom_site_fract_y
_atom_site_fract_z
Si Si1 0.634339 0.643410 0.629175
Si Si2 0.703403 0.093473 0.079273
Si Si3 0.046626 0.163459 0.344208
Si Si4 0.833308 0.645872 0.230694
Si Si5 0.629815 0.000944 0.364675
Si Si6 0.065254 0.448144 0.247468
Si Si7 0.457347 0.224052 0.767806
Si Si8 0.242350 0.354354 0.061533
O O1 0.806468 0.611962 0.666955
O O2 0.530621 0.536854 0.646162
O O3 0.545168 0.682337 0.415317
O O4 0.659681 0.759494 0.766003
O O5 0.889104 0.098884 0.195941
O O6 0.651409 0.091320 0.229014
O O7 0.627412 0.209884 0.943209
O O8 0.659520 0.965722 0.959825
O O9 0.074022 0.150260 0.547740
O O10 0.037077 0.311765 0.305647
O O11 0.654877 0.639843 0.187043
O O12 0.914822 0.535275 0.181383
O O13 0.835165 0.768806 0.121218
O O14 0.780440 0.003929 0.570589
O O15 0.615535 0.861847 0.284039
O O16 0.116768 0.420094 0.100062
#
# Coordination Sequence:
#
# PCOD9117797 Si02
#       8
#     2   2   2   2   2   2   2   2
#     4  10  24  45  69  98 142 176 224 288 340 401
#     4  12  25  42  73  98 137 181 229 279 349 408
#     4  10  23  46  67 103 138 177 232 282 338 416
#     4  11  22  45  71  98 139 183 226 289 343 403
#     4  12  22  46  72 100 138 182 228 286 342 408
#     4  11  23  43  72  99 140 179 230 285 341 406
#     4  11  24  46  71 101 138 181 235 284 345 414
#     4  11  23  43  69  99 138 175 228 285 336 408
#
# _framework density 20.754000000000001
#
# number of rings (size 3 to 8) (size 9 to 14) (size 15 to 20)
#    0.000    1.000    6.250    1.500    3.500    2.000 
#    2.250    0.000    0.000    0.000    0.000    0.000 
#    0.000    0.000    0.000    0.000    0.000    0.000 
#
# Total GULP energy -89332.168389 kJ/mol
# GULP energy per Si atom -5583.260524 kJ/mol
# Density = 2.070676 g / cm^3
# Si number density = 20.754000 Si / 1000 Ang^3
#
#
#
# Elastic Constant Matrix: (Units=GPa)
#
#
# Indices 1 2 3 4 5 6 
#
# 1 90.1883 33.1779 36.1832 0.0000 -19.0829 0.0000
# 2 33.1779 36.8236 5.9169 0.0000 -3.1217 0.0000
# 3 36.1832 5.9169 96.7852 0.0000 -5.6014 0.0000
# 4 0.0000 0.0000 0.0000 29.8470 0.0000 -3.8609
# 5 -19.0829 -3.1217 -5.6014 0.0000 23.0140 0.0000
# 6 0.0000 0.0000 0.0000 -3.8609 0.0000 33.4582
#
#
#
# Elastic Compliance Matrix: (Units=1/GPa)
#
#
# Indices 1 2 3 4 5 6 
#
# 1 0.024484 -0.019579 -0.007034 0.000000 0.015934 0.000000
# 2 -0.019579 0.043341 0.004129 0.000000 -0.009351 0.000000
# 3 -0.007034 0.004129 0.012582 0.000000 -0.002210 0.000000
# 4 0.000000 0.000000 0.000000 0.034012 0.000000 0.003925
# 5 0.015934 -0.009351 -0.002210 0.000000 0.054858 0.000000
# 6 0.000000 0.000000 0.000000 0.003925 0.000000 0.030341
#
#
# Mechanical properties :
#
#
# Convention : Reuss Voigt Hill
#
# Bulk Modulus (GPa) = 28.21853 41.59479 34.90666
# Shear Modulus (GPa) = 19.50091 27.16513 23.33302
#
# Velocity S-wave (km/s) = 3.06865 3.62181 3.35665
# Velocity P-wave (km/s) = 5.11680 6.12987 5.64611
#
# Compressibility (1/GPa) = 0.03543771
#
# Stress axis : x y z
#
# Youngs Moduli (GPa) = 40.84289 23.07292 79.48130
#
# Poissons Ratio (x) = 0.45174 0.55909
# Poissons Ratio (y) = 0.79966 -0.32816
# Poissons Ratio (z) = 0.28730 -0.09526
#
# Static dielectric constant tensor:
#      x y z
#    x 1.758690 0.000000 -0.004710 
#    y 0.000000 1.742820 0.000000 
#    z -0.004710 0.000000 1.754220 
# 
# From -- ./inp_files/6229.got.cif
#   From: 2010.05.17/outbox.cif.g08.bks.cpg/sg4_4_cif.got.tgz:6229.got - 2010.06.03 18:43:04.
