data_PCOD9117773
_publ_section_title
;
Structure prediction by ZEFSAII (Michael W. Deem and Ramdas Pophale) SiO2 
 PCOD9117773
Probable space group: P 21
;
_chemical_formula_sum "Si O2"
_cell_formula_units_Z 14
_cell_length_a 5.164649
_cell_length_b 9.756010
_cell_length_c 11.109433
_cell_angle_alpha 90.000000
_cell_angle_beta 75.483168
_cell_angle_gamma 90.000000
_cell_volume 541.892971
_symmetry_space_group_name_H-M "P 21"
_symmetry_group_IT_number 4
_symmetry_cell_setting 'monoclinic'
loop_
_space_group_symop_operation_xyz
x,y,z
-x,1/2+y,-z
loop_
_atom_site_type_symbol
_atom_site_label
_atom_site_fract_x
_atom_site_fract_y
_atom_site_fract_z
Si Si1 0.946301 0.880650 0.782572
Si Si2 0.052979 0.110105 0.095308
Si Si3 0.427540 0.101373 0.718879
Si Si4 0.647025 0.530772 0.533454
Si Si5 0.348511 0.576919 0.062131
Si Si6 0.952619 0.808041 0.527481
Si Si7 0.783544 0.899688 0.282927
O O1 0.023717 0.725682 0.799908
O O2 0.819164 0.870668 0.663591
O O3 0.736949 0.918068 0.912526
O O4 0.197723 0.984923 0.766369
O O5 0.359043 0.103934 0.020112
O O6 0.985713 0.967232 0.167481
O O7 0.867233 0.137666 0.001800
O O8 0.499795 0.084181 0.570024
O O9 0.656336 0.108628 0.794165
O O10 0.300469 0.250660 0.748900
O O11 0.871221 0.648356 0.529736
O O12 0.462801 0.505498 0.670040
O O13 0.754741 0.377059 0.489834
O O14 0.881470 0.873788 0.407599
#
# Coordination Sequence:
#
# PCOD9117773 Si02
#       7
#     2   2   2   2   2   2   2
#     4  11  26  49  79 110 153 196 261 314 380 449
#     4  12  31  47  81 110 156 201 256 308 385 446
#     4  10  25  47  76 110 148 203 253 317 374 450
#     4  10  23  45  72 112 149 195 248 317 381 458
#     4  12  28  51  74 113 152 202 254 313 370 451
#     4  10  23  45  76 108 148 191 249 316 382 449
#     4  11  26  46  74 113 150 198 249 319 380 457
#
# _framework density 25.835356000000001
#
# number of rings (size 3 to 8) (size 9 to 14) (size 15 to 20)
#    0.000    1.143    1.429    1.714    8.000   11.429 
#    0.000    0.000    0.000    0.000    0.000    0.000 
#    0.000    0.000    0.000    0.000    0.000    0.000 
#
# Total GULP energy -78245.157933 kJ/mol
# GULP energy per Si atom -5588.939852 kJ/mol
# Density = 2.577655 g / cm^3
# Si number density = 25.835356 Si / 1000 Ang^3
#
#
#
# Elastic Constant Matrix: (Units=GPa)
#
#
# Indices 1 2 3 4 5 6 
#
# 1 97.8376 7.7511 28.1966 0.0000 3.7372 0.0000
# 2 7.7511 88.4971 11.8928 0.0000 4.6102 0.0000
# 3 28.1966 11.8928 83.1663 0.0000 15.1076 0.0000
# 4 0.0000 0.0000 0.0000 44.0077 0.0000 -7.3342
# 5 3.7372 4.6102 15.1076 0.0000 48.5124 0.0000
# 6 0.0000 0.0000 0.0000 -7.3342 0.0000 29.3731
#
#
#
# Elastic Compliance Matrix: (Units=1/GPa)
#
#
# Indices 1 2 3 4 5 6 
#
# 1 0.011355 -0.000497 -0.003846 0.000000 0.000370 0.000000
# 2 -0.000497 0.011560 -0.001370 0.000000 -0.000634 0.000000
# 3 -0.003846 -0.001370 0.014253 0.000000 -0.004012 0.000000
# 4 0.000000 0.000000 0.000000 0.023710 0.000000 0.005920
# 5 0.000370 -0.000634 -0.004012 0.000000 0.021894 0.000000
# 6 0.000000 0.000000 0.000000 0.005920 0.000000 0.035523
#
#
# Mechanical properties :
#
#
# Convention : Reuss Voigt Hill
#
# Bulk Modulus (GPa) = 38.84544 40.57578 39.71061
# Shear Modulus (GPa) = 36.15311 39.15599 37.65455
#
# Velocity S-wave (km/s) = 3.74487 3.89729 3.82184
# Velocity P-wave (km/s) = 5.81095 5.99929 5.90587
#
# Compressibility (1/GPa) = 0.02574304
#
# Stress axis : x y z
#
# Youngs Moduli (GPa) = 88.06993 86.50223 70.16241
#
# Poissons Ratio (x) = 0.04299 0.26983
# Poissons Ratio (y) = 0.04377 0.09609
# Poissons Ratio (z) = 0.33870 0.11847
#
# Static dielectric constant tensor:
#      x y z
#    x 2.134100 0.000000 0.000930 
#    y 0.000000 2.074150 0.000000 
#    z 0.000930 0.000000 2.044760 
# 
# From -- ./inp_files/10250.got.cif
#   From: 2010.05.17/outbox.cif.g08.bks.cpg/sg4_6_cif.got.tgz:10250.got - 2010.06.03 18:43:04.
