data_PCOD9117858
_publ_section_title
;
Structure prediction by ZEFSAII (Michael W. Deem and Ramdas Pophale) SiO2 
 PCOD9117858
Probable space group: P 21
;
_chemical_formula_sum "Si O2"
_cell_formula_units_Z 12
_cell_length_a 7.480588
_cell_length_b 5.152730
_cell_length_c 15.162970
_cell_angle_alpha 90.000000
_cell_angle_beta 127.008732
_cell_angle_gamma 90.000000
_cell_volume 466.719698
_symmetry_space_group_name_H-M "P 21"
_symmetry_group_IT_number 4
_symmetry_cell_setting 'monoclinic'
loop_
_space_group_symop_operation_xyz
x,y,z
-x,1/2+y,-z
loop_
_atom_site_type_symbol
_atom_site_label
_atom_site_fract_x
_atom_site_fract_y
_atom_site_fract_z
Si Si1 0.521756 0.951010 0.716492
Si Si2 0.945633 0.715145 0.431245
Si Si3 0.023827 0.747582 0.155187
Si Si4 0.598416 0.126888 0.491338
Si Si5 0.444077 0.249699 0.925098
Si Si6 0.253787 0.076154 0.098547
O O1 0.461026 0.744217 0.621981
O O2 0.572668 0.795120 0.821076
O O3 0.307680 0.137221 0.662628
O O4 0.751296 0.093071 0.757468
O O5 0.018370 0.513414 0.531047
O O6 0.136169 0.649704 0.417139
O O7 0.824066 0.750907 0.165797
O O8 0.109512 0.023146 0.143597
O O9 0.908273 0.636315 0.031030
O O10 0.476784 0.331589 0.519462
O O11 0.600029 0.332003 0.890359
O O12 0.485549 0.483485 0.007626
#
# Coordination Sequence:
#
# PCOD9117858 Si02
#       6
#     2   2   2   2   2   2
#     4  11  26  45  75 104 144 202 239 297 379 436
#     4  10  23  47  74 100 136 183 242 303 365 435
#     4  11  23  44  72 106 154 198 243 295 355 444
#     4  11  25  50  75 105 142 183 246 322 368 427
#     4  10  24  44  70 100 148 200 246 295 348 413
#     4  11  23  44  72 105 154 200 242 294 359 437
#
# _framework density 25.711364
#
# number of rings (size 3 to 8) (size 9 to 14) (size 15 to 20)
#    0.000    1.333    1.667    3.000   11.667    0.000 
#    6.000    0.000    0.000    0.000    0.000    0.000 
#    0.000    0.000    0.000    0.000    0.000    0.000 
#
# Total GULP energy -67209.268848 kJ/mol
# GULP energy per Si atom -5600.772404 kJ/mol
# Density = 2.565284 g / cm^3
# Si number density = 25.711364 Si / 1000 Ang^3
#
#
#
# Elastic Constant Matrix: (Units=GPa)
#
#
# Indices 1 2 3 4 5 6 
#
# 1 121.3869 5.1853 42.2116 0.0000 38.4814 0.0000
# 2 5.1853 82.1643 34.4813 0.0000 1.7016 0.0000
# 3 42.2116 34.4813 149.6954 0.0000 36.2397 0.0000
# 4 0.0000 0.0000 0.0000 46.5914 0.0000 2.0695
# 5 38.4814 1.7016 36.2397 0.0000 46.1697 0.0000
# 6 0.0000 0.0000 0.0000 2.0695 0.0000 53.1205
#
#
#
# Elastic Compliance Matrix: (Units=1/GPa)
#
#
# Indices 1 2 3 4 5 6 
#
# 1 0.011348 -0.000075 -0.001103 0.000000 -0.008590 0.000000
# 2 -0.000075 0.013692 -0.003735 0.000000 0.002490 0.000000
# 3 -0.001103 -0.003735 0.009378 0.000000 -0.006304 0.000000
# 4 0.000000 0.000000 0.000000 0.021500 0.000000 -0.000838
# 5 -0.008590 0.002490 -0.006304 0.000000 0.033675 0.000000
# 6 0.000000 0.000000 0.000000 -0.000838 0.000000 0.018858
#
#
# Mechanical properties :
#
#
# Convention : Reuss Voigt Hill
#
# Bulk Modulus (GPa) = 40.66748 57.44479 49.05613
# Shear Modulus (GPa) = 39.53373 47.26754 43.40063
#
# Velocity S-wave (km/s) = 3.92547 4.29230 4.11298
# Velocity P-wave (km/s) = 6.03300 6.85243 6.45573
#
# Compressibility (1/GPa) = 0.02458967
#
# Stress axis : x y z
#
# Youngs Moduli (GPa) = 88.12138 73.03798 106.63506
#
# Poissons Ratio (x) = 0.00550 0.11763
# Poissons Ratio (y) = 0.00664 0.39832
# Poissons Ratio (z) = 0.09721 0.27282
#
# Static dielectric constant tensor:
#      x y z
#    x 2.061030 0.000000 -0.034370 
#    y 0.000000 2.033800 0.000000 
#    z -0.034370 0.000000 2.025420 
# 
# From -- ./inp_files/14857.got.cif
#   From: 2010.05.17/outbox.cif.g08.bks.cpg/sg4_8_cif.got.tgz:14857.got - 2010.06.03 18:43:04.
