data_PCOD9117073
_publ_section_title
;
Structure prediction by ZEFSAII (Michael W. Deem and Ramdas Pophale) SiO2 
 PCOD9117073
Probable space group: P 21
;
_chemical_formula_sum "Si O2"
_cell_formula_units_Z 16
_cell_length_a 5.541106
_cell_length_b 16.300821
_cell_length_c 7.799254
_cell_angle_alpha 90.000000
_cell_angle_beta 65.991253
_cell_angle_gamma 90.000000
_cell_volume 643.516428
_symmetry_space_group_name_H-M "P 21"
_symmetry_group_IT_number 4
_symmetry_cell_setting 'monoclinic'
loop_
_space_group_symop_operation_xyz
x,y,z
-x,1/2+y,-z
loop_
_atom_site_type_symbol
_atom_site_label
_atom_site_fract_x
_atom_site_fract_y
_atom_site_fract_z
Si Si1 0.338475 0.605030 0.225728
Si Si2 0.366327 0.319051 0.558322
Si Si3 0.053002 0.464092 0.469104
Si Si4 0.043099 0.080946 0.003648
Si Si5 0.392647 0.922385 0.200046
Si Si6 0.072642 0.416261 0.095472
Si Si7 0.847452 0.256372 0.812964
Si Si8 0.187453 0.742168 0.807526
O O1 0.249861 0.539399 0.390736
O O2 0.645826 0.596343 0.099188
O O3 0.279298 0.698713 0.292784
O O4 0.131414 0.595700 0.122284
O O5 0.212413 0.381703 0.474435
O O6 0.457195 0.379042 0.684283
O O7 0.598932 0.273556 0.388622
O O8 0.162108 0.253061 0.697963
O O9 0.942695 0.443876 0.311264
O O10 0.805461 0.487618 0.661052
O O11 0.017240 0.981625 0.024463
O O12 0.933894 0.150129 0.168246
O O13 0.205453 0.850903 0.193380
O O14 0.613835 0.935855 0.994109
O O15 0.019342 0.318684 0.104832
O O16 0.696175 0.238502 0.033795
#
# Coordination Sequence:
#
# PCOD9117073 Si02
#       8
#     2   2   2   2   2   2   2   2
#     4  10  22  43  67  92 133 173 219 272 333 389
#     4  11  22  39  63  98 127 167 228 262 334 401
#     4  10  23  40  65  93 128 174 219 272 326 401
#     4  10  24  41  65 102 125 173 233 266 331 407
#     4  11  22  39  63  98 127 167 228 262 334 401
#     4  11  21  41  69  90 134 176 216 278 331 387
#     4  10  23  40  65  93 128 174 219 272 326 401
#     4  11  21  41  69  90 134 176 216 278 331 387
#
# _framework density 24.863389000000002
#
# number of rings (size 3 to 8) (size 9 to 14) (size 15 to 20)
#    0.000    1.500    2.500    2.250    3.500    3.000 
#    0.000    1.250    0.000    0.000    0.000    0.000 
#    0.000    0.000    0.000    0.000    0.000    0.000 
#
# Total GULP energy -89167.802208 kJ/mol
# GULP energy per Si atom -5572.987638 kJ/mol
# Density = 2.480680 g / cm^3
# Si number density = 24.863389 Si / 1000 Ang^3
#
#
#
# Elastic Constant Matrix: (Units=GPa)
#
#
# Indices 1 2 3 4 5 6 
#
# 1 90.7286 22.7889 33.0726 0.0000 -26.4934 0.0000
# 2 22.7889 105.9566 13.0895 0.0000 -3.3266 0.0000
# 3 33.0726 13.0895 99.3711 0.0000 -22.9370 0.0000
# 4 0.0000 0.0000 0.0000 19.5430 0.0000 -7.8262
# 5 -26.4934 -3.3266 -22.9370 0.0000 43.3372 0.0000
# 6 0.0000 0.0000 0.0000 -7.8262 0.0000 34.0023
#
#
#
# Elastic Compliance Matrix: (Units=1/GPa)
#
#
# Indices 1 2 3 4 5 6 
#
# 1 0.014889 -0.002611 -0.002912 0.000000 0.007360 0.000000
# 2 -0.002611 0.010052 -0.000735 0.000000 -0.001214 0.000000
# 3 -0.002912 -0.000735 0.012195 0.000000 0.004618 0.000000
# 4 0.000000 0.000000 0.000000 0.056364 0.000000 0.012973
# 5 0.007360 -0.001214 0.004618 0.000000 0.029925 0.000000
# 6 0.000000 0.000000 0.000000 0.012973 0.000000 0.032396
#
#
# Mechanical properties :
#
#
# Convention : Reuss Voigt Hill
#
# Bulk Modulus (GPa) = 40.62034 48.21759 44.41897
# Shear Modulus (GPa) = 28.32135 34.51686 31.41910
#
# Velocity S-wave (km/s) = 3.37869 3.72998 3.55867
# Velocity P-wave (km/s) = 5.62082 6.16323 5.89826
#
# Compressibility (1/GPa) = 0.02461821
#
# Stress axis : x y z
#
# Youngs Moduli (GPa) = 67.16549 99.48093 81.99883
#
# Poissons Ratio (x) = 0.25978 0.23881
# Poissons Ratio (y) = 0.17539 0.06028
# Poissons Ratio (z) = 0.19561 0.07314
#
# Static dielectric constant tensor:
#      x y z
#    x 2.052600 0.000000 0.050090 
#    y 0.000000 2.145630 0.000000 
#    z 0.050090 0.000000 1.990180 
# 
# From -- ./inp_files/2031.got.cif
#   From: 2010.05.17/outbox.cif.g08.bks.cpg/sg4_2_cif.got.tgz:2031.got - 2010.06.03 18:43:04.
