data_PCOD9117087
_publ_section_title
;
Structure prediction by ZEFSAII (Michael W. Deem and Ramdas Pophale) SiO2 
 PCOD9117087
Probable space group: P 21
;
_chemical_formula_sum "Si O2"
_cell_formula_units_Z 14
_cell_length_a 7.171957
_cell_length_b 12.292240
_cell_length_c 7.604326
_cell_angle_alpha 90.000000
_cell_angle_beta 122.051985
_cell_angle_gamma 90.000000
_cell_volume 568.202901
_symmetry_space_group_name_H-M "P 21"
_symmetry_group_IT_number 4
_symmetry_cell_setting 'monoclinic'
loop_
_space_group_symop_operation_xyz
x,y,z
-x,1/2+y,-z
loop_
_atom_site_type_symbol
_atom_site_label
_atom_site_fract_x
_atom_site_fract_y
_atom_site_fract_z
Si Si1 0.639440 0.983340 0.890053
Si Si2 0.894196 0.676639 0.086244
Si Si3 0.050123 0.455138 0.272374
Si Si4 0.813115 0.078662 0.330433
Si Si5 0.622218 0.223146 0.730185
Si Si6 0.552936 0.284438 0.073969
Si Si7 0.155264 0.223111 0.349710
O O1 0.814500 0.937752 0.839319
O O2 0.448076 0.896700 0.821429
O O3 0.581653 0.100910 0.783469
O O4 0.750266 0.004343 0.133655
O O5 0.704633 0.749429 0.072943
O O6 0.875423 0.682855 0.865164
O O7 0.878577 0.550797 0.138914
O O8 0.142213 0.719095 0.247556
O O9 0.197638 0.511963 0.496834
O O10 0.011748 0.331941 0.313586
O O11 0.655393 0.182871 0.229799
O O12 0.056027 0.128804 0.422643
O O13 0.408268 0.251189 0.512168
O O14 0.636787 0.293576 0.915583
#
# Coordination Sequence:
#
# PCOD9117087 Si02
#       7
#     2   2   2   2   2   2   2
#     4  10  22  43  68 104 139 182 241 281 350 425
#     4  11  24  45  68 102 141 179 236 288 339 422
#     4  11  24  44  70 105 138 186 238 281 358 419
#     4  11  25  44  70 104 142 184 236 290 350 420
#     4  10  24  45  66 100 144 176 233 293 340 422
#     4  11  22  44  71  98 141 186 228 292 351 404
#     4  12  23  47  71 101 145 181 234 293 344 420
#
# _framework density 24.639085000000001
#
# number of rings (size 3 to 8) (size 9 to 14) (size 15 to 20)
#    0.000    1.143    5.714    1.714    4.000    3.429 
#    2.571    4.286    0.000    0.000    0.000    0.000 
#    0.000    0.000    0.000    0.000    0.000    0.000 
#
# Total GULP energy -78356.686870 kJ/mol
# GULP energy per Si atom -5596.906205 kJ/mol
# Density = 2.458301 g / cm^3
# Si number density = 24.639085 Si / 1000 Ang^3
#
#
#
# Elastic Constant Matrix: (Units=GPa)
#
#
# Indices 1 2 3 4 5 6 
#
# 1 79.2110 3.4119 9.4495 0.0000 8.5677 0.0000
# 2 3.4119 85.0872 19.4173 0.0000 -11.8990 0.0000
# 3 9.4495 19.4173 109.6721 0.0000 10.0663 0.0000
# 4 0.0000 0.0000 0.0000 19.8011 0.0000 3.4994
# 5 8.5677 -11.8990 10.0663 0.0000 40.3887 0.0000
# 6 0.0000 0.0000 0.0000 3.4994 0.0000 47.1463
#
#
#
# Elastic Compliance Matrix: (Units=1/GPa)
#
#
# Indices 1 2 3 4 5 6 
#
# 1 0.013048 -0.000748 -0.000734 0.000000 -0.002805 0.000000
# 2 -0.000748 0.013046 -0.002674 0.000000 0.004668 0.000000
# 3 -0.000734 -0.002674 0.009940 0.000000 -0.003109 0.000000
# 4 0.000000 0.000000 0.000000 0.051174 0.000000 -0.003798
# 5 -0.002805 0.004668 -0.003109 0.000000 0.027505 0.000000
# 6 0.000000 0.000000 0.000000 -0.003798 0.000000 0.021492
#
#
# Mechanical properties :
#
#
# Convention : Reuss Voigt Hill
#
# Bulk Modulus (GPa) = 36.07303 37.61419 36.84361
# Shear Modulus (GPa) = 32.51884 37.57998 35.04941
#
# Velocity S-wave (km/s) = 3.63686 3.90964 3.77571
# Velocity P-wave (km/s) = 5.68401 5.97324 5.83042
#
# Compressibility (1/GPa) = 0.02772154
#
# Stress axis : x y z
#
# Youngs Moduli (GPa) = 76.64166 76.65379 100.60210
#
# Poissons Ratio (x) = 0.05733 0.07387
# Poissons Ratio (y) = 0.05732 0.26899
# Poissons Ratio (z) = 0.05628 0.20496
#
# Static dielectric constant tensor:
#      x y z
#    x 2.004750 0.000000 0.035470 
#    y 0.000000 1.981670 0.000000 
#    z 0.035470 0.000000 1.919970 
# 
# From -- ./inp_files/6443.got.cif
#   From: 2010.05.17/outbox.cif.g08.bks.cpg/sg4_4_cif.got.tgz:6443.got - 2010.06.03 18:43:04.
