data_PCOD9117213
_publ_section_title
;
Structure prediction by ZEFSAII (Michael W. Deem and Ramdas Pophale) SiO2 
 PCOD9117213
Probable space group: P 21
;
_chemical_formula_sum "Si O2"
_cell_formula_units_Z 8
_cell_length_a 12.184311
_cell_length_b 4.897503
_cell_length_c 5.253917
_cell_angle_alpha 90.000000
_cell_angle_beta 104.608975
_cell_angle_gamma 90.000000
_cell_volume 303.379356
_symmetry_space_group_name_H-M "P 21"
_symmetry_group_IT_number 4
_symmetry_cell_setting 'monoclinic'
loop_
_space_group_symop_operation_xyz
x,y,z
-x,1/2+y,-z
loop_
_atom_site_type_symbol
_atom_site_label
_atom_site_fract_x
_atom_site_fract_y
_atom_site_fract_z
Si Si1 0.429294 0.062500 0.500606
Si Si2 0.244049 0.337583 0.677942
Si Si3 0.073216 0.712993 0.448859
Si Si4 0.801976 0.520573 0.848488
O O1 0.490738 0.308907 0.386510
O O2 0.371320 0.230416 0.700807
O O3 0.328113 0.925156 0.274352
O O4 0.197292 0.647184 0.651276
O O5 0.190278 0.233599 0.381520
O O6 0.195936 0.193336 0.897106
O O7 0.994452 0.456373 0.458332
O O8 0.895366 0.299082 0.822022
#
# Coordination Sequence:
#
# PCOD9117213 Si02
#       4
#     2   2   2   2
#     4  10  22  44  72 108 144 192 244 300 374 450
#     4  10  25  48  71 107 153 189 247 310 371 440
#     4  12  24  52  74 114 148 206 254 312 376 454
#     4  10  25  48  71 107 153 189 247 310 371 440
#
# _framework density 26.369626
#
# number of rings (size 3 to 8) (size 9 to 14) (size 15 to 20)
#    1.500    0.000    2.500    1.500    0.000    4.000 
#    9.000    0.000    0.000    0.000    0.000    0.000 
#    0.000    0.000    0.000    0.000    0.000    0.000 
#
# Total GULP energy -44602.068981 kJ/mol
# GULP energy per Si atom -5575.258623 kJ/mol
# Density = 2.630961 g / cm^3
# Si number density = 26.369626 Si / 1000 Ang^3
#
#
#
# Elastic Constant Matrix: (Units=GPa)
#
#
# Indices 1 2 3 4 5 6 
#
# 1 134.4246 58.3976 33.2770 0.0000 -21.9322 0.0000
# 2 58.3976 151.0488 32.4598 0.0000 -21.2176 0.0000
# 3 33.2770 32.4598 124.6117 0.0000 -34.6878 0.0000
# 4 0.0000 0.0000 0.0000 32.2937 0.0000 1.3202
# 5 -21.9322 -21.2176 -34.6878 0.0000 32.0119 0.0000
# 6 0.0000 0.0000 0.0000 1.3202 0.0000 65.7425
#
#
#
# Elastic Compliance Matrix: (Units=1/GPa)
#
#
# Indices 1 2 3 4 5 6 
#
# 1 0.009536 -0.003004 -0.000715 0.000000 0.003767 0.000000
# 2 -0.003004 0.008302 -0.000575 0.000000 0.002821 0.000000
# 3 -0.000715 -0.000575 0.011632 0.000000 0.011733 0.000000
# 4 0.000000 0.000000 0.000000 0.030991 0.000000 -0.000622
# 5 0.003767 0.002821 0.011733 0.000000 0.048403 0.000000
# 6 0.000000 0.000000 0.000000 -0.000622 0.000000 0.015223
#
#
# Mechanical properties :
#
#
# Convention : Reuss Voigt Hill
#
# Bulk Modulus (GPa) = 47.89076 73.15045 60.52061
# Shear Modulus (GPa) = 35.80762 45.07300 40.44031
#
# Velocity S-wave (km/s) = 3.68898 4.13883 3.92036
# Velocity P-wave (km/s) = 6.02873 7.11621 6.59492
#
# Compressibility (1/GPa) = 0.02088085
#
# Stress axis : x y z
#
# Youngs Moduli (GPa) = 104.86857 120.45971 85.97135
#
# Poissons Ratio (x) = 0.36183 0.06150
# Poissons Ratio (y) = 0.31500 0.04943
# Poissons Ratio (z) = 0.07502 0.06926
#
# Static dielectric constant tensor:
#      x y z
#    x 2.228070 0.000000 0.100870 
#    y 0.000000 2.213400 0.000000 
#    z 0.100870 0.000000 2.072450 
# 
# From -- ./inp_files/2259.got.cif
#   From: 2010.05.17/outbox.cif.g08.bks.cpg/sg4_2_cif.got.tgz:2259.got - 2010.06.03 18:43:04.
