data_PCOD9117822
_publ_section_title
;
Structure prediction by ZEFSAII (Michael W. Deem and Ramdas Pophale) SiO2 
 PCOD9117822
Probable space group: P 21
;
_chemical_formula_sum "Si O2"
_cell_formula_units_Z 12
_cell_length_a 5.164717
_cell_length_b 8.361945
_cell_length_c 11.636583
_cell_angle_alpha 90.000000
_cell_angle_beta 61.989544
_cell_angle_gamma 90.000000
_cell_volume 443.682281
_symmetry_space_group_name_H-M "P 21"
_symmetry_group_IT_number 4
_symmetry_cell_setting 'monoclinic'
loop_
_space_group_symop_operation_xyz
x,y,z
-x,1/2+y,-z
loop_
_atom_site_type_symbol
_atom_site_label
_atom_site_fract_x
_atom_site_fract_y
_atom_site_fract_z
Si Si1 0.676084 0.128480 0.148763
Si Si2 0.084860 0.269855 0.641130
Si Si3 0.058660 0.258969 0.275131
Si Si4 0.573247 0.457909 0.441692
Si Si5 0.426457 0.557405 0.221220
Si Si6 0.109857 0.285274 0.911274
O O1 0.336953 0.152247 0.250505
O O2 0.885198 0.167909 0.212332
O O3 0.742180 0.952145 0.089177
O O4 0.791106 0.254719 0.030077
O O5 0.252484 0.422199 0.556797
O O6 0.101754 0.277955 0.775354
O O7 0.755907 0.209581 0.691289
O O8 0.282322 0.123614 0.552277
O O9 0.208368 0.430600 0.208015
O O10 0.817480 0.321565 0.416346
O O11 0.545019 0.466528 0.309088
O O12 0.683591 0.636453 0.094525
#
# Coordination Sequence:
#
# PCOD9117822 Si02
#       6
#     2   2   2   2   2   2
#     4  12  28  46  80 104 156 191 257 308 377 442
#     4  10  25  44  74 106 152 189 254 300 377 440
#     4  11  25  48  75 110 141 205 244 310 373 441
#     4  10  23  46  71 109 146 196 241 315 365 448
#     4  10  23  47  74 107 152 193 254 303 377 444
#     4  11  28  47  72 116 143 204 248 314 371 451
#
# _framework density 27.046379000000002
#
# number of rings (size 3 to 8) (size 9 to 14) (size 15 to 20)
#    0.000    1.333    1.667    1.000   11.667    5.333 
#    0.000    0.000    0.000    0.000    0.000    0.000 
#    0.000    0.000    0.000    0.000    0.000    0.000 
#
# Total GULP energy -67218.997722 kJ/mol
# GULP energy per Si atom -5601.583144 kJ/mol
# Density = 2.698482 g / cm^3
# Si number density = 27.046379 Si / 1000 Ang^3
#
#
#
# Elastic Constant Matrix: (Units=GPa)
#
#
# Indices 1 2 3 4 5 6 
#
# 1 119.5659 11.2982 32.6479 0.0000 -24.4872 0.0000
# 2 11.2982 90.4911 22.3396 0.0000 -5.9181 0.0000
# 3 32.6479 22.3396 86.4977 0.0000 -22.9593 0.0000
# 4 0.0000 0.0000 0.0000 49.5325 0.0000 -16.4473
# 5 -24.4872 -5.9181 -22.9593 0.0000 41.0376 0.0000
# 6 0.0000 0.0000 0.0000 -16.4473 0.0000 32.5374
#
#
#
# Elastic Compliance Matrix: (Units=1/GPa)
#
#
# Indices 1 2 3 4 5 6 
#
# 1 0.010002 -0.000339 -0.002486 0.000000 0.004529 0.000000
# 2 -0.000339 0.011815 -0.002965 0.000000 -0.000157 0.000000
# 3 -0.002486 -0.002965 0.014983 0.000000 0.006472 0.000000
# 4 0.000000 0.000000 0.000000 0.024261 0.000000 0.012264
# 5 0.004529 -0.000157 0.006472 0.000000 0.030668 0.000000
# 6 0.000000 0.000000 0.000000 0.012264 0.000000 0.036933
#
#
# Mechanical properties :
#
#
# Convention : Reuss Voigt Hill
#
# Bulk Modulus (GPa) = 39.65121 47.68070 43.66595
# Shear Modulus (GPa) = 33.63663 39.97275 36.80469
#
# Velocity S-wave (km/s) = 3.53039 3.84856 3.69290
# Velocity P-wave (km/s) = 5.59558 6.11687 5.86202
#
# Compressibility (1/GPa) = 0.02521991
#
# Stress axis : x y z
#
# Youngs Moduli (GPa) = 99.98241 84.63913 66.74338
#
# Poissons Ratio (x) = 0.02869 0.16589
# Poissons Ratio (y) = 0.03389 0.19791
# Poissons Ratio (z) = 0.24851 0.25097
#
# Static dielectric constant tensor:
#      x y z
#    x 2.103810 0.000000 0.004500 
#    y 0.000000 2.165080 0.000000 
#    z 0.004500 0.000000 2.047760 
# 
# From -- ./inp_files/2360.got.cif
#   From: 2010.05.17/outbox.cif.g08.bks.cpg/sg4_2_cif.got.tgz:2360.got - 2010.06.03 18:43:04.
