data_PCOD9117827
_publ_section_title
;
Structure prediction by ZEFSAII (Michael W. Deem and Ramdas Pophale) SiO2 
 PCOD9117827
Probable space group: P 21
;
_chemical_formula_sum "Si O2"
_cell_formula_units_Z 16
_cell_length_a 16.705805
_cell_length_b 5.090135
_cell_length_c 8.209851
_cell_angle_alpha 90.000000
_cell_angle_beta 58.439096
_cell_angle_gamma 90.000000
_cell_volume 594.859685
_symmetry_space_group_name_H-M "P 21"
_symmetry_group_IT_number 4
_symmetry_cell_setting 'monoclinic'
loop_
_space_group_symop_operation_xyz
x,y,z
-x,1/2+y,-z
loop_
_atom_site_type_symbol
_atom_site_label
_atom_site_fract_x
_atom_site_fract_y
_atom_site_fract_z
Si Si1 0.524522 0.460970 0.228821
Si Si2 0.103899 0.728241 0.727608
Si Si3 0.373440 0.672154 0.131991
Si Si4 0.355839 0.545611 0.580120
Si Si5 0.293936 0.314856 0.969506
Si Si6 0.718849 0.540584 0.519255
Si Si7 0.889247 0.910754 0.954355
Si Si8 0.061101 0.528345 0.435233
O O1 0.447317 0.589936 0.191054
O O2 0.464854 0.458385 0.455984
O O3 0.621484 0.613245 0.133266
O O4 0.555646 0.206427 0.096698
O O5 0.171872 0.976890 0.629294
O O6 0.114434 0.573819 0.546416
O O7 0.993996 0.797653 0.863249
O O8 0.130751 0.566627 0.859082
O O9 0.317696 0.923801 0.267007
O O10 0.300762 0.460117 0.136499
O O11 0.315916 0.519285 0.801960
O O12 0.335007 0.838961 0.544039
O O13 0.306842 0.332327 0.510321
O O14 0.192698 0.211498 0.015909
O O15 0.892444 0.090564 0.788102
O O16 0.026644 0.228783 0.464516
#
# Coordination Sequence:
#
# PCOD9117827 Si02
#       8
#     2   2   2   2   2   2   2   2
#     4  11  25  45  78 102 153 198 254 319 408 469
#     4  11  24  47  79 112 161 218 259 336 399 474
#     4  11  24  47  75 111 147 205 257 329 396 493
#     4  11  28  47  75 112 154 200 259 325 397 476
#     4  12  27  46  74 117 153 202 266 333 395 493
#     4  11  26  49  77 109 156 204 266 316 395 482
#     4  11  25  47  75 116 159 210 271 327 403 480
#     4  10  23  46  73 111 153 207 268 325 393 469
#
# _framework density 26.897100999999999
#
# number of rings (size 3 to 8) (size 9 to 14) (size 15 to 20)
#    0.000    1.000    2.500    2.250    8.750    2.000 
#   13.500    0.000    0.000    0.000    0.000    0.000 
#    0.000    0.000    0.000    0.000    0.000    0.000 
#
# Total GULP energy -89498.115082 kJ/mol
# GULP energy per Si atom -5593.632193 kJ/mol
# Density = 2.683588 g / cm^3
# Si number density = 26.897101 Si / 1000 Ang^3
#
#
#
# Elastic Constant Matrix: (Units=GPa)
#
#
# Indices 1 2 3 4 5 6 
#
# 1 188.4277 52.3026 55.3798 0.0000 -14.9442 0.0000
# 2 52.3026 57.4112 26.3217 0.0000 2.1409 0.0000
# 3 55.3798 26.3217 117.6730 0.0000 5.4314 0.0000
# 4 0.0000 0.0000 0.0000 37.3210 0.0000 -1.6555
# 5 -14.9442 2.1409 5.4314 0.0000 58.4307 0.0000
# 6 0.0000 0.0000 0.0000 -1.6555 0.0000 42.1596
#
#
#
# Elastic Compliance Matrix: (Units=1/GPa)
#
#
# Indices 1 2 3 4 5 6 
#
# 1 0.007953 -0.006206 -0.002470 0.000000 0.002491 0.000000
# 2 -0.006206 0.024257 -0.002401 0.000000 -0.002253 0.000000
# 3 -0.002470 -0.002401 0.010267 0.000000 -0.001498 0.000000
# 4 0.000000 0.000000 0.000000 0.026841 0.000000 0.001054
# 5 0.002491 -0.002253 -0.001498 0.000000 0.017973 0.000000
# 6 0.000000 0.000000 0.000000 0.001054 0.000000 0.023761
#
#
# Mechanical properties :
#
#
# Convention : Reuss Voigt Hill
#
# Bulk Modulus (GPa) = 49.20583 70.16892 59.68738
# Shear Modulus (GPa) = 35.71934 42.88278 39.30106
#
# Velocity S-wave (km/s) = 3.64813 3.99723 3.82666
# Velocity P-wave (km/s) = 6.00657 6.88828 6.46248
#
# Compressibility (1/GPa) = 0.02032279
#
# Stress axis : x y z
#
# Youngs Moduli (GPa) = 125.73665 41.22540 97.40230
#
# Poissons Ratio (x) = 0.25585 0.24056
# Poissons Ratio (y) = 0.78032 0.23388
# Poissons Ratio (z) = 0.31053 0.09899
#
# Static dielectric constant tensor:
#      x y z
#    x 2.155070 0.000000 -0.005370 
#    y 0.000000 2.080040 0.000000 
#    z -0.005370 0.000000 2.221870 
# 
# From -- ./inp_files/8921.got.cif
#   From: 2010.05.17/outbox.cif.g08.bks.cpg/sg4_5_cif.got.tgz:8921.got - 2010.06.03 18:43:04.
