data_PCOD9117409
_publ_section_title
;
Structure prediction by ZEFSAII (Michael W. Deem and Ramdas Pophale) SiO2 
 PCOD9117409
Probable space group: P 21
;
_chemical_formula_sum "Si O2"
_cell_formula_units_Z 16
_cell_length_a 11.912442
_cell_length_b 8.270085
_cell_length_c 14.577770
_cell_angle_alpha 90.000000
_cell_angle_beta 28.494389
_cell_angle_gamma 90.000000
_cell_volume 685.151207
_symmetry_space_group_name_H-M "P 21"
_symmetry_group_IT_number 4
_symmetry_cell_setting 'monoclinic'
loop_
_space_group_symop_operation_xyz
x,y,z
-x,1/2+y,-z
loop_
_atom_site_type_symbol
_atom_site_label
_atom_site_fract_x
_atom_site_fract_y
_atom_site_fract_z
Si Si1 0.762901 0.014700 0.444366
Si Si2 0.897484 0.775179 0.717810
Si Si3 0.309798 0.700524 0.974509
Si Si4 0.660302 0.419623 0.678028
Si Si5 0.688114 0.688405 0.175111
Si Si6 0.715661 0.905844 0.678221
Si Si7 0.035880 0.389469 0.883003
Si Si8 0.653077 0.223463 0.841944
O O1 0.511824 0.102391 0.620346
O O2 0.971771 0.139482 0.317790
O O3 0.766501 0.908159 0.534541
O O4 0.806176 0.928937 0.318330
O O5 0.837627 0.768032 0.652069
O O6 0.116218 0.906170 0.550823
O O7 0.626903 0.769830 0.947942
O O8 0.497015 0.575305 0.799465
O O9 0.438527 0.872772 0.884495
O O10 0.103359 0.729802 0.051925
O O11 0.260982 0.675624 0.117492
O O12 0.478634 0.274215 0.781317
O O13 0.744271 0.381755 0.722308
O O14 0.820750 0.832897 0.131681
O O15 0.873798 0.547883 0.016313
O O16 0.734106 0.073603 0.720185
#
# Coordination Sequence:
#
# PCOD9117409 Si02
#       8
#     2   2   2   2   2   2   2   2
#     4  11  24  45  69 102 142 177 239 281 355 421
#     4  10  23  37  69  98 136 193 211 287 351 404
#     4  11  23  39  66 105 136 184 230 285 343 431
#     4  11  23  43  65 100 145 172 238 287 345 422
#     4  11  25  50  70 101 131 186 236 300 341 418
#     4  11  22  41  67 101 144 182 230 282 345 427
#     4  12  26  47  77  95 138 188 231 296 362 398
#     4  11  22  42  63 100 140 186 231 276 348 421
#
# _framework density 23.352508
#
# number of rings (size 3 to 8) (size 9 to 14) (size 15 to 20)
#    0.000    1.000    3.750    3.750    5.250    1.000 
#    4.500    2.500    0.000    0.000    0.000    0.000 
#    0.000    0.000    0.000    0.000    0.000    0.000 
#
# Total GULP energy -89117.949955 kJ/mol
# GULP energy per Si atom -5569.871872 kJ/mol
# Density = 2.329936 g / cm^3
# Si number density = 23.352508 Si / 1000 Ang^3
#
#
#
# Elastic Constant Matrix: (Units=GPa)
#
#
# Indices 1 2 3 4 5 6 
#
# 1 90.1629 23.1319 24.9278 0.0000 -2.6120 0.0000
# 2 23.1319 80.7986 32.6718 0.0000 4.8712 0.0000
# 3 24.9278 32.6718 106.4510 0.0000 8.4579 0.0000
# 4 0.0000 0.0000 0.0000 16.1327 0.0000 -11.0372
# 5 -2.6120 4.8712 8.4579 0.0000 26.4716 0.0000
# 6 0.0000 0.0000 0.0000 -11.0372 0.0000 36.2688
#
#
#
# Elastic Compliance Matrix: (Units=1/GPa)
#
#
# Indices 1 2 3 4 5 6 
#
# 1 0.012511 -0.002816 -0.002262 0.000000 0.002475 0.000000
# 2 -0.002816 0.014804 -0.003741 0.000000 -0.001807 0.000000
# 3 -0.002262 -0.003741 0.011322 0.000000 -0.003152 0.000000
# 4 0.000000 0.000000 0.000000 0.078285 0.000000 0.023823
# 5 0.002475 -0.001807 -0.003152 0.000000 0.039360 0.000000
# 6 0.000000 0.000000 0.000000 0.023823 0.000000 0.034822
#
#
# Mechanical properties :
#
#
# Convention : Reuss Voigt Hill
#
# Bulk Modulus (GPa) = 47.62046 48.76394 48.19220
# Shear Modulus (GPa) = 23.17590 28.88669 26.03129
#
# Velocity S-wave (km/s) = 3.15371 3.52089 3.34235
# Velocity P-wave (km/s) = 5.80496 6.12013 5.96462
#
# Compressibility (1/GPa) = 0.02099938
#
# Stress axis : x y z
#
# Youngs Moduli (GPa) = 79.93181 67.54831 88.32194
#
# Poissons Ratio (x) = 0.19024 0.19978
# Poissons Ratio (y) = 0.22511 0.33038
# Poissons Ratio (z) = 0.18080 0.25267
#
# Static dielectric constant tensor:
#      x y z
#    x 1.910840 0.000000 -0.009380 
#    y 0.000000 2.016410 0.000000 
#    z -0.009380 0.000000 1.972980 
# 
# From -- ./inp_files/13940.got.cif
#   From: 2010.05.17/outbox.cif.g08.bks.cpg/sg4_7_cif.got.tgz:13940.got - 2010.06.03 18:43:04.
