data_PCOD9117143
_publ_section_title
;
Structure prediction by ZEFSAII (Michael W. Deem and Ramdas Pophale) SiO2 
 PCOD9117143
Probable space group: P 21
;
_chemical_formula_sum "Si O2"
_cell_formula_units_Z 16
_cell_length_a 11.828240
_cell_length_b 4.863499
_cell_length_c 16.849461
_cell_angle_alpha 90.000000
_cell_angle_beta 37.349537
_cell_angle_gamma 90.000000
_cell_volume 588.046588
_symmetry_space_group_name_H-M "P 21"
_symmetry_group_IT_number 4
_symmetry_cell_setting 'monoclinic'
loop_
_space_group_symop_operation_xyz
x,y,z
-x,1/2+y,-z
loop_
_atom_site_type_symbol
_atom_site_label
_atom_site_fract_x
_atom_site_fract_y
_atom_site_fract_z
Si Si1 0.676363 0.927290 0.477868
Si Si2 0.221225 0.663394 0.190326
Si Si3 0.806375 0.810789 0.037560
Si Si4 0.718182 0.437909 0.354990
Si Si5 0.731455 0.574907 0.686454
Si Si6 0.039643 0.303152 0.881893
Si Si7 0.083844 0.819621 0.558302
Si Si8 0.425565 0.919135 0.935194
O O1 0.674555 0.603972 0.460820
O O2 0.456634 0.984835 0.606131
O O3 0.731265 0.120636 0.371171
O O4 0.821186 0.042982 0.460523
O O5 0.236222 0.867734 0.257390
O O6 0.405088 0.476402 0.097657
O O7 0.034541 0.483837 0.307589
O O8 0.258274 0.814794 0.086052
O O9 0.850662 0.132941 0.007203
O O10 0.816254 0.761969 0.125941
O O11 0.643088 0.686169 0.075251
O O12 0.981128 0.619397 0.910792
O O13 0.883419 0.620545 0.230995
O O14 0.755646 0.449404 0.586178
O O15 0.538437 0.729427 0.810006
O O16 0.910793 0.772312 0.594988
#
# Coordination Sequence:
#
# PCOD9117143 Si02
#       8
#     2   2   2   2   2   2   2   2
#     4  10  24  42  69 100 135 181 236 286 364 414
#     4  11  24  44  68  99 141 179 248 293 355 432
#     4  10  24  42  70 100 137 181 235 285 365 415
#     4  10  22  45  65 101 137 177 234 293 345 435
#     4  11  24  45  67 100 143 180 247 296 357 435
#     4  10  22  44  66 101 138 178 233 291 347 435
#     4  11  25  44  70 101 140 192 235 302 363 433
#     4  11  25  44  69 102 139 192 234 302 360 429
#
# _framework density 27.208732000000001
#
# number of rings (size 3 to 8) (size 9 to 14) (size 15 to 20)
#    0.000    1.500    2.500    0.750    5.250    2.000 
#   11.250    0.000    0.000    0.000    0.000    0.000 
#    0.000    0.000    0.000    0.000    0.000    0.000 
#
# Total GULP energy -89420.949845 kJ/mol
# GULP energy per Si atom -5588.809365 kJ/mol
# Density = 2.714680 g / cm^3
# Si number density = 27.208732 Si / 1000 Ang^3
#
#
#
# Elastic Constant Matrix: (Units=GPa)
#
#
# Indices 1 2 3 4 5 6 
#
# 1 116.6127 2.4791 18.2258 0.0000 -10.8663 0.0000
# 2 2.4791 117.1501 13.4312 0.0000 2.1947 0.0000
# 3 18.2258 13.4312 79.6279 0.0000 5.4137 0.0000
# 4 0.0000 0.0000 0.0000 30.3523 0.0000 -2.4942
# 5 -10.8663 2.1947 5.4137 0.0000 46.0705 0.0000
# 6 0.0000 0.0000 0.0000 -2.4942 0.0000 40.4999
#
#
#
# Elastic Compliance Matrix: (Units=1/GPa)
#
#
# Indices 1 2 3 4 5 6 
#
# 1 0.009155 0.000020 -0.002264 0.000000 0.002424 0.000000
# 2 0.000020 0.008707 -0.001457 0.000000 -0.000239 0.000000
# 3 -0.002264 -0.001457 0.013461 0.000000 -0.002046 0.000000
# 4 0.000000 0.000000 0.000000 0.033114 0.000000 0.002039
# 5 0.002424 -0.000239 -0.002046 0.000000 0.022529 0.000000
# 6 0.000000 0.000000 0.000000 0.002039 0.000000 0.024817
#
#
# Mechanical properties :
#
#
# Convention : Reuss Voigt Hill
#
# Bulk Modulus (GPa) = 41.80162 42.40696 42.10429
# Shear Modulus (GPa) = 39.32095 42.00152 40.66123
#
# Velocity S-wave (km/s) = 3.80565 3.93323 3.86996
# Velocity P-wave (km/s) = 5.89129 6.02052 5.95626
#
# Compressibility (1/GPa) = 0.02392252
#
# Stress axis : x y z
#
# Youngs Moduli (GPa) = 109.23411 114.84803 74.28637
#
# Poissons Ratio (x) = -0.00234 0.16816
# Poissons Ratio (y) = -0.00223 0.10824
# Poissons Ratio (z) = 0.24727 0.16735
#
# Static dielectric constant tensor:
#      x y z
#    x 2.150950 0.000000 -0.019370 
#    y 0.000000 2.156820 0.000000 
#    z -0.019370 0.000000 2.175200 
# 
# From -- ./inp_files/15024.got.cif
#   From: 2010.05.17/outbox.cif.g08.bks.cpg/sg4_8_cif.got.tgz:15024.got - 2010.06.03 18:43:04.
