data_PCOD9117595
_publ_section_title
;
Structure prediction by ZEFSAII (Michael W. Deem and Ramdas Pophale) SiO2 
 PCOD9117595
Probable space group: P 21
;
_chemical_formula_sum "Si O2"
_cell_formula_units_Z 14
_cell_length_a 11.311409
_cell_length_b 9.207204
_cell_length_c 5.269657
_cell_angle_alpha 90.000000
_cell_angle_beta 88.562150
_cell_angle_gamma 90.000000
_cell_volume 548.643265
_symmetry_space_group_name_H-M "P 21"
_symmetry_group_IT_number 4
_symmetry_cell_setting 'monoclinic'
loop_
_space_group_symop_operation_xyz
x,y,z
-x,1/2+y,-z
loop_
_atom_site_type_symbol
_atom_site_label
_atom_site_fract_x
_atom_site_fract_y
_atom_site_fract_z
Si Si1 0.423072 0.840270 0.242548
Si Si2 0.056045 0.717252 0.934890
Si Si3 0.607246 0.819694 0.850643
Si Si4 0.422573 0.572676 0.543426
Si Si5 0.166821 0.205718 0.375626
Si Si6 0.152288 0.871226 0.424508
Si Si7 0.799747 0.950892 0.221817
O O1 0.464955 0.728429 0.455005
O O2 0.488243 0.991360 0.277730
O O3 0.285040 0.853582 0.301892
O O4 0.481877 0.778085 0.984024
O O5 0.120396 0.799113 0.695700
O O6 0.105792 0.551239 0.929871
O O7 0.918528 0.723194 0.863331
O O8 0.080191 0.793699 0.200990
O O9 0.585014 0.968201 0.700849
O O10 0.693726 0.713393 0.690982
O O11 0.703180 0.861503 0.065508
O O12 0.288674 0.568979 0.646016
O O13 0.150307 0.342291 0.566390
O O14 0.134453 0.043998 0.468403
#
# Coordination Sequence:
#
# PCOD9117595 Si02
#       7
#     2   2   2   2   2   2   2
#     4  11  25  42  72 102 149 187 251 305 379 445
#     4  12  28  50  78 108 155 195 256 313 384 447
#     4  10  25  42  73 100 144 196 242 307 376 450
#     4  10  23  43  66 103 142 192 243 304 376 450
#     4  11  28  46  77 108 151 195 261 309 388 449
#     4  12  30  49  77 117 148 199 256 323 370 459
#     4  10  23  48  71 102 145 202 249 303 387 450
#
# _framework density 25.517489000000001
#
# number of rings (size 3 to 8) (size 9 to 14) (size 15 to 20)
#    0.000    1.143    1.429    1.714   18.000    1.143 
#    0.000    0.000    0.000    0.000    0.000    0.000 
#    0.000    0.000    0.000    0.000    0.000    0.000 
#
# Total GULP energy -78284.541104 kJ/mol
# GULP energy per Si atom -5591.752936 kJ/mol
# Density = 2.545941 g / cm^3
# Si number density = 25.517489 Si / 1000 Ang^3
#
#
#
# Elastic Constant Matrix: (Units=GPa)
#
#
# Indices 1 2 3 4 5 6 
#
# 1 120.5934 7.2315 -4.3951 0.0000 -25.5447 0.0000
# 2 7.2315 119.1700 0.1979 0.0000 -5.9804 0.0000
# 3 -4.3951 0.1979 64.5755 0.0000 -13.3219 0.0000
# 4 0.0000 0.0000 0.0000 23.1762 0.0000 2.8926
# 5 -25.5447 -5.9804 -13.3219 0.0000 43.9429 0.0000
# 6 0.0000 0.0000 0.0000 2.8926 0.0000 39.3599
#
#
#
# Elastic Compliance Matrix: (Units=1/GPa)
#
#
# Indices 1 2 3 4 5 6 
#
# 1 0.009689 -0.000281 0.001935 0.000000 0.006181 0.000000
# 2 -0.000281 0.008460 0.000169 0.000000 0.001039 0.000000
# 3 0.001935 0.000169 0.016912 0.000000 0.006275 0.000000
# 4 0.000000 0.000000 0.000000 0.043547 0.000000 -0.003200
# 5 0.006181 0.001039 0.006275 0.000000 0.028394 0.000000
# 6 0.000000 0.000000 0.000000 -0.003200 0.000000 0.025642
#
#
# Mechanical properties :
#
#
# Convention : Reuss Voigt Hill
#
# Bulk Modulus (GPa) = 25.83417 34.48972 30.16194
# Shear Modulus (GPa) = 35.23646 41.38278 38.30962
#
# Velocity S-wave (km/s) = 3.72004 4.03145 3.87888
# Velocity P-wave (km/s) = 5.34768 5.93427 5.64860
#
# Compressibility (1/GPa) = 0.03870842
#
# Stress axis : x y z
#
# Youngs Moduli (GPa) = 103.21009 118.19906 59.13133
#
# Poissons Ratio (x) = 0.03321 -0.11444
# Poissons Ratio (y) = 0.02900 -0.01002
# Poissons Ratio (z) = -0.19975 -0.02002
#
# Static dielectric constant tensor:
#      x y z
#    x 2.004480 0.000000 0.008110 
#    y 0.000000 2.006620 0.000000 
#    z 0.008110 0.000000 2.071890 
# 
# From -- ./inp_files/2437.got.cif
#   From: 2010.05.17/outbox.cif.g08.bks.cpg/sg4_2_cif.got.tgz:2437.got - 2010.06.03 18:43:04.
