data_PCOD9117868
_publ_section_title
;
Structure prediction by ZEFSAII (Michael W. Deem and Ramdas Pophale) SiO2 
 PCOD9117868
Probable space group: P 21
;
_chemical_formula_sum "Si O2"
_cell_formula_units_Z 16
_cell_length_a 18.151609
_cell_length_b 5.316066
_cell_length_c 6.673636
_cell_angle_alpha 90.000000
_cell_angle_beta 87.521992
_cell_angle_gamma 90.000000
_cell_volume 643.371331
_symmetry_space_group_name_H-M "P 21"
_symmetry_group_IT_number 4
_symmetry_cell_setting 'monoclinic'
loop_
_space_group_symop_operation_xyz
x,y,z
-x,1/2+y,-z
loop_
_atom_site_type_symbol
_atom_site_label
_atom_site_fract_x
_atom_site_fract_y
_atom_site_fract_z
Si Si1 0.093520 0.972920 0.069035
Si Si2 0.338948 0.016134 0.040786
Si Si3 0.227100 0.738945 0.316649
Si Si4 0.589313 0.311163 0.361966
Si Si5 0.208246 0.349951 0.042450
Si Si6 0.162253 0.691955 0.719662
Si Si7 0.588528 0.805345 0.616162
Si Si8 0.026119 0.407264 0.609086
O O1 0.153946 0.842288 0.209921
O O2 0.124428 0.254893 0.061605
O O3 0.015319 0.917905 0.172465
O O4 0.106260 0.871160 0.844784
O O5 0.266082 0.148229 0.959380
O O6 0.383277 0.229709 0.162346
O O7 0.300577 0.842552 0.211102
O O8 0.380371 0.855661 0.867244
O O9 0.228329 0.443994 0.261340
O O10 0.213036 0.807124 0.545151
O O11 0.609404 0.566869 0.476457
O O12 0.500314 0.308928 0.358386
O O13 0.610229 0.060075 0.489088
O O14 0.211997 0.571721 0.884183
O O15 0.111283 0.479983 0.622341
O O16 0.010376 0.139801 0.509527
#
# Coordination Sequence:
#
# PCOD9117868 Si02
#       8
#     2   2   2   2   2   2   2   2
#     4  10  24  44  67 102 136 184 244 297 373 451
#     4  11  26  46  80 106 154 204 258 308 390 455
#     4  10  23  48  65 105 141 190 244 303 371 451
#     4  10  25  48  75 119 157 201 259 318 382 465
#     4  10  25  44  69 104 143 192 249 301 371 459
#     4  11  25  44  75  98 151 183 245 319 369 445
#     4  10  25  47  78 115 160 201 257 319 387 454
#     4  12  27  45  77 105 140 189 242 307 385 448
#
# _framework density 24.868998999999999
#
# number of rings (size 3 to 8) (size 9 to 14) (size 15 to 20)
#    0.000    1.500    1.250    0.750    8.750    9.000 
#    0.000    0.000    0.000    0.000    0.000    0.000 
#    0.000    0.000    0.000    0.000    0.000    0.000 
#
# Total GULP energy -89454.207974 kJ/mol
# GULP energy per Si atom -5590.887998 kJ/mol
# Density = 2.481240 g / cm^3
# Si number density = 24.868999 Si / 1000 Ang^3
#
#
#
# Elastic Constant Matrix: (Units=GPa)
#
#
# Indices 1 2 3 4 5 6 
#
# 1 75.5069 30.3002 51.4290 0.0000 -19.6779 0.0000
# 2 30.3002 120.9539 58.9549 0.0000 -12.1757 0.0000
# 3 51.4290 58.9549 162.7373 0.0000 -41.7339 0.0000
# 4 0.0000 0.0000 0.0000 38.4277 0.0000 4.9254
# 5 -19.6779 -12.1757 -41.7339 0.0000 47.8548 0.0000
# 6 0.0000 0.0000 0.0000 4.9254 0.0000 34.9328
#
#
#
# Elastic Compliance Matrix: (Units=1/GPa)
#
#
# Indices 1 2 3 4 5 6 
#
# 1 0.017659 -0.002165 -0.003961 0.000000 0.003256 0.000000
# 2 -0.002165 0.010330 -0.003365 0.000000 -0.001196 0.000000
# 3 -0.003961 -0.003365 0.010277 0.000000 0.006477 0.000000
# 4 0.000000 0.000000 0.000000 0.026502 0.000000 -0.003737
# 5 0.003256 -0.001196 0.006477 0.000000 0.027580 0.000000
# 6 0.000000 0.000000 0.000000 -0.003737 0.000000 0.029153
#
#
# Mechanical properties :
#
#
# Convention : Reuss Voigt Hill
#
# Bulk Modulus (GPa) = 51.85880 71.17404 61.51642
# Shear Modulus (GPa) = 34.03418 38.81066 36.42242
#
# Velocity S-wave (km/s) = 3.70339 3.95473 3.83112
# Velocity P-wave (km/s) = 6.25978 7.03811 6.66032
#
# Compressibility (1/GPa) = 0.01928313
#
# Stress axis : x y z
#
# Youngs Moduli (GPa) = 56.62687 96.80932 97.30646
#
# Poissons Ratio (x) = 0.20962 0.38547
# Poissons Ratio (y) = 0.12261 0.32740
# Poissons Ratio (z) = 0.22432 0.32573
#
# Static dielectric constant tensor:
#      x y z
#    x 1.952160 0.000000 0.038640 
#    y 0.000000 2.089070 0.000000 
#    z 0.038640 0.000000 2.008190 
# 
# From -- ./inp_files/4318.got.cif
#   From: 2010.05.17/outbox.cif.g08.bks.cpg/sg4_3_cif.got.tgz:4318.got - 2010.06.03 18:43:04.
