data_PCOD9117091
_publ_section_title
;
Structure prediction by ZEFSAII (Michael W. Deem and Ramdas Pophale) SiO2 
 PCOD9117091
Probable space group: P 21
;
_chemical_formula_sum "Si O2"
_cell_formula_units_Z 12
_cell_length_a 8.220454
_cell_length_b 4.921394
_cell_length_c 19.291452
_cell_angle_alpha 90.000000
_cell_angle_beta 146.440581
_cell_angle_gamma 90.000000
_cell_volume 431.437657
_symmetry_space_group_name_H-M "P 21"
_symmetry_group_IT_number 4
_symmetry_cell_setting 'monoclinic'
loop_
_space_group_symop_operation_xyz
x,y,z
-x,1/2+y,-z
loop_
_atom_site_type_symbol
_atom_site_label
_atom_site_fract_x
_atom_site_fract_y
_atom_site_fract_z
Si Si1 0.680093 0.652730 0.797783
Si Si2 0.722945 0.465620 0.964625
Si Si3 0.777056 0.465625 0.535372
Si Si4 0.180086 0.152738 0.297783
Si Si5 0.121266 0.965874 0.626812
Si Si6 0.621264 0.465874 0.126813
O O1 0.645852 0.471773 0.854663
O O2 0.750003 0.508305 0.750000
O O3 0.391514 0.836504 0.681878
O O4 0.951219 0.851210 0.912903
O O5 0.657926 0.764228 0.970226
O O6 0.495158 0.268000 0.923209
O O7 0.451217 0.351219 0.412902
O O8 0.854151 0.471783 0.645335
O O9 0.842078 0.764226 0.529769
O O10 0.004844 0.268001 0.576790
O O11 0.891503 0.336505 0.181874
O O12 0.249992 0.954238 0.749997
#
# Coordination Sequence:
#
# PCOD9117091 Si02
#       6
#     2   2   2   2   2   2
#     4  11  25  46  76 107 139 188 242 291 351 422
#     4  11  24  45  67 100 144 180 227 290 348 414
#     4  11  24  45  67 100 144 180 227 290 348 414
#     4  11  25  46  76 107 139 188 242 291 351 422
#     4  10  22  43  68  97 141 184 223 285 354 410
#     4  10  22  43  68  97 141 184 223 285 354 410
#
# _framework density 27.813980999999998
#
# number of rings (size 3 to 8) (size 9 to 14) (size 15 to 20)
#    0.000    1.333    0.000    7.000    0.000    5.333 
#    0.000   38.333    0.000    0.000    0.000    0.000 
#    0.000    0.000    0.000    0.000    0.000    0.000 
#
# Total GULP energy -67331.876657 kJ/mol
# GULP energy per Si atom -5610.989721 kJ/mol
# Density = 2.775067 g / cm^3
# Si number density = 27.813981 Si / 1000 Ang^3
#
#
#
# Elastic Constant Matrix: (Units=GPa)
#
#
# Indices 1 2 3 4 5 6 
#
# 1 152.1161 15.6299 41.7783 0.0000 -19.5643 0.0000
# 2 15.6299 99.7811 30.6100 0.0000 2.2101 0.0000
# 3 41.7783 30.6100 163.7541 0.0000 11.0628 0.0000
# 4 0.0000 0.0000 0.0000 46.3974 0.0000 18.7228
# 5 -19.5643 2.2101 11.0628 0.0000 52.0221 0.0000
# 6 0.0000 0.0000 0.0000 18.7228 0.0000 22.0388
#
#
#
# Elastic Compliance Matrix: (Units=1/GPa)
#
#
# Indices 1 2 3 4 5 6 
#
# 1 0.007632 -0.000640 -0.002053 0.000000 0.003334 0.000000
# 2 -0.000640 0.010685 -0.001813 0.000000 -0.000309 0.000000
# 3 -0.002053 -0.001813 0.007119 0.000000 -0.002209 0.000000
# 4 0.000000 0.000000 0.000000 0.032796 0.000000 -0.027861
# 5 0.003334 -0.000309 -0.002209 0.000000 0.020959 0.000000
# 6 0.000000 0.000000 0.000000 -0.027861 0.000000 0.069044
#
#
# Mechanical properties :
#
#
# Convention : Reuss Voigt Hill
#
# Bulk Modulus (GPa) = 60.88450 65.74308 63.31379
# Shear Modulus (GPa) = 30.72734 45.93387 38.33060
#
# Velocity S-wave (km/s) = 3.32738 4.06823 3.71631
# Velocity P-wave (km/s) = 6.05800 6.76427 6.42085
#
# Compressibility (1/GPa) = 0.01642454
#
# Stress axis : x y z
#
# Youngs Moduli (GPa) = 131.02251 93.58708 140.47616
#
# Poissons Ratio (x) = 0.05986 0.28838
# Poissons Ratio (y) = 0.08380 0.25473
# Poissons Ratio (z) = 0.26897 0.16970
#
# Static dielectric constant tensor:
#      x y z
#    x 2.231030 0.000000 -0.036440 
#    y 0.000000 2.096400 0.000000 
#    z -0.036440 0.000000 2.106010 
# 
# From -- ./inp_files/15571.got.cif
#   From: 2010.05.17/outbox.cif.g08.bks.cpg/sg4_8_cif.got.tgz:15571.got - 2010.06.03 18:43:04.
