data_PCOD9117107
_publ_section_title
;
Structure prediction by ZEFSAII (Michael W. Deem and Ramdas Pophale) SiO2 
 PCOD9117107
Probable space group: P 21
;
_chemical_formula_sum "Si O2"
_cell_formula_units_Z 16
_cell_length_a 5.866800
_cell_length_b 22.863872
_cell_length_c 4.965093
_cell_angle_alpha 90.000000
_cell_angle_beta 83.178151
_cell_angle_gamma 90.000000
_cell_volume 661.291338
_symmetry_space_group_name_H-M "P 21"
_symmetry_group_IT_number 4
_symmetry_cell_setting 'monoclinic'
loop_
_space_group_symop_operation_xyz
x,y,z
-x,1/2+y,-z
loop_
_atom_site_type_symbol
_atom_site_label
_atom_site_fract_x
_atom_site_fract_y
_atom_site_fract_z
Si Si1 0.620842 0.986000 0.901964
Si Si2 0.324999 0.245331 0.197278
Si Si3 0.747169 0.206729 0.773078
Si Si4 0.859774 0.934519 0.395035
Si Si5 0.902392 0.633617 0.922915
Si Si6 0.524891 0.098296 0.638476
Si Si7 0.117915 0.299622 0.703835
Si Si8 0.781396 0.522644 0.707788
O O1 0.666933 0.942469 0.649396
O O2 0.675423 0.051325 0.784811
O O3 0.767304 0.963476 0.132919
O O4 0.356608 0.991111 0.032902
O O5 0.199718 0.183015 0.258983
O O6 0.325124 0.278319 0.479998
O O7 0.555901 0.231929 0.002246
O O8 0.176630 0.282868 0.002565
O O9 0.646876 0.160407 0.569451
O O10 0.900119 0.260249 0.649336
O O11 0.906861 0.164784 0.930301
O O12 0.918987 0.867728 0.332440
O O13 0.077444 0.972742 0.460967
O O14 0.958972 0.573422 0.768668
O O15 0.690882 0.616445 0.146261
O O16 0.415569 0.059587 0.417308
#
# Coordination Sequence:
#
# PCOD9117107 Si02
#       8
#     2   2   2   2   2   2   2   2
#     4  11  25  47  68 105 138 186 226 292 355 413
#     4  10  24  46  70 100 140 177 235 289 344 418
#     4  10  23  46  72 102 141 192 216 299 361 406
#     4  12  27  44  75  96 140 190 241 288 347 409
#     4   9  22  40  69 106 141 169 232 283 353 429
#     4  10  22  43  70 111 140 178 232 287 361 429
#     4  11  26  48  66 103 135 187 247 287 334 423
#     4  11  25  44  72 109 143 181 229 293 353 429
#
# _framework density 24.195081999999999
#
# number of rings (size 3 to 8) (size 9 to 14) (size 15 to 20)
#    0.000    1.500    1.250    1.500   10.500    4.000 
#    9.000    0.000    0.000    0.000    0.000    0.000 
#    0.000    0.000    0.000    0.000    0.000    0.000 
#
# Total GULP energy -89543.549003 kJ/mol
# GULP energy per Si atom -5596.471813 kJ/mol
# Density = 2.414001 g / cm^3
# Si number density = 24.195082 Si / 1000 Ang^3
#
#
#
# Elastic Constant Matrix: (Units=GPa)
#
#
# Indices 1 2 3 4 5 6 
#
# 1 64.2561 56.5371 13.3085 0.0000 2.9054 0.0000
# 2 56.5371 167.1855 32.7201 0.0000 -0.0321 0.0000
# 3 13.3085 32.7201 99.0727 0.0000 5.7739 0.0000
# 4 0.0000 0.0000 0.0000 33.8258 0.0000 -5.4331
# 5 2.9054 -0.0321 5.7739 0.0000 36.6301 0.0000
# 6 0.0000 0.0000 0.0000 -5.4331 0.0000 28.7701
#
#
#
# Elastic Compliance Matrix: (Units=1/GPa)
#
#
# Indices 1 2 3 4 5 6 
#
# 1 0.022287 -0.007452 -0.000433 0.000000 -0.001706 0.000000
# 2 -0.007452 0.008891 -0.001988 0.000000 0.000912 0.000000
# 3 -0.000433 -0.001988 0.010907 0.000000 -0.001687 0.000000
# 4 0.000000 0.000000 0.000000 0.030488 0.000000 0.005758
# 5 -0.001706 0.000912 -0.001687 0.000000 0.027702 0.000000
# 6 0.000000 0.000000 0.000000 0.005758 0.000000 0.035846
#
#
# Mechanical properties :
#
#
# Convention : Reuss Voigt Hill
#
# Bulk Modulus (GPa) = 44.76960 59.51620 52.14290
# Shear Modulus (GPa) = 30.61610 35.04176 32.82893
#
# Velocity S-wave (km/s) = 3.56108 3.80978 3.68753
# Velocity P-wave (km/s) = 5.95417 6.63359 6.30304
#
# Compressibility (1/GPa) = 0.02233659
#
# Stress axis : x y z
#
# Youngs Moduli (GPa) = 44.87017 112.47563 91.68611
#
# Poissons Ratio (x) = 0.83819 0.03971
# Poissons Ratio (y) = 0.33438 0.18231
# Poissons Ratio (z) = 0.01944 0.22365
#
# Static dielectric constant tensor:
#      x y z
#    x 1.981350 0.000000 0.036640 
#    y 0.000000 1.890940 0.000000 
#    z 0.036640 0.000000 1.960800 
# 
# From -- ./inp_files/764.got.cif
#   From: 2010.05.17/outbox.cif.g08.bks.cpg/sg4_1_cif.got.tgz:764.got - 2010.06.03 18:43:04.
