data_PCOD9117974
_publ_section_title
;
Structure prediction by ZEFSAII (Michael W. Deem and Ramdas Pophale) SiO2 
 PCOD9117974
Probable space group: P 21
;
_chemical_formula_sum "Si O2"
_cell_formula_units_Z 16
_cell_length_a 10.742417
_cell_length_b 11.260773
_cell_length_c 9.400715
_cell_angle_alpha 90.000000
_cell_angle_beta 135.654843
_cell_angle_gamma 90.000000
_cell_volume 794.868539
_symmetry_space_group_name_H-M "P 21"
_symmetry_group_IT_number 4
_symmetry_cell_setting 'monoclinic'
loop_
_space_group_symop_operation_xyz
x,y,z
-x,1/2+y,-z
loop_
_atom_site_type_symbol
_atom_site_label
_atom_site_fract_x
_atom_site_fract_y
_atom_site_fract_z
Si Si1 0.618848 0.727160 0.239759
Si Si2 0.266997 0.857288 0.863802
Si Si3 0.775420 0.107323 0.710143
Si Si4 0.124214 0.143193 0.132070
Si Si5 0.669755 0.625579 0.988960
Si Si6 0.653047 0.278784 0.384540
Si Si7 0.589500 0.528146 0.447597
Si Si8 0.130041 0.357471 0.343581
O O1 0.618211 0.606305 0.329960
O O2 0.732168 0.820918 0.421511
O O3 0.417675 0.771225 0.051498
O O4 0.705568 0.704708 0.157157
O O5 0.261376 0.829900 0.690261
O O6 0.071531 0.840534 0.768348
O O7 0.330226 0.990333 0.956186
O O8 0.776746 0.218459 0.604025
O O9 0.577241 0.084103 0.605754
O O10 0.836756 0.990810 0.676508
O O11 0.913543 0.123936 0.951608
O O12 0.192652 0.139320 0.026709
O O13 0.235552 0.045764 0.311660
O O14 0.163378 0.267650 0.240315
O O15 0.484155 0.675743 0.775065
O O16 0.559285 0.391687 0.382121
#
# Coordination Sequence:
#
# PCOD9117974 Si02
#       8
#     2   2   2   2   2   2   2   2
#     4  10  24  42  69  93 131 174 221 269 334 389
#     4  11  23  44  71  95 136 171 224 275 330 395
#     4  12  25  40  70  97 132 177 223 267 338 395
#     4  11  25  42  68  98 135 173 221 273 331 392
#     4  11  21  46  67  98 133 174 216 281 327 391
#     4  11  25  43  71 101 132 179 223 272 338 390
#     4  11  24  46  65  98 135 172 221 273 328 395
#     4  11  25  43  65 100 130 178 217 274 334 391
#
# _framework density 20.129114999999999
#
# number of rings (size 3 to 8) (size 9 to 14) (size 15 to 20)
#    0.000    1.000    3.750    2.250    5.250    0.000 
#    0.000    0.000    0.000    0.000    0.000    0.000 
#    0.000    0.000    0.000    0.000    0.000    0.000 
#
# Total GULP energy -89411.645203 kJ/mol
# GULP energy per Si atom -5588.227825 kJ/mol
# Density = 2.008330 g / cm^3
# Si number density = 20.129115 Si / 1000 Ang^3
#
#
#
# Elastic Constant Matrix: (Units=GPa)
#
#
# Indices 1 2 3 4 5 6 
#
# 1 68.3067 23.8550 26.2925 0.0000 -17.7369 0.0000
# 2 23.8550 42.2723 9.4042 0.0000 -5.4977 0.0000
# 3 26.2925 9.4042 110.9352 0.0000 -5.3181 0.0000
# 4 0.0000 0.0000 0.0000 26.0249 0.0000 -2.9679
# 5 -17.7369 -5.4977 -5.3181 0.0000 26.6923 0.0000
# 6 0.0000 0.0000 0.0000 -2.9679 0.0000 23.7935
#
#
#
# Elastic Compliance Matrix: (Units=1/GPa)
#
#
# Indices 1 2 3 4 5 6 
#
# 1 0.023054 -0.010517 -0.003980 0.000000 0.012360 0.000000
# 2 -0.010517 0.029482 -0.000051 0.000000 -0.000926 0.000000
# 3 -0.003980 -0.000051 0.009929 0.000000 -0.000677 0.000000
# 4 0.000000 0.000000 0.000000 0.038979 0.000000 0.004862
# 5 0.012360 -0.000926 -0.000677 0.000000 0.045352 0.000000
# 6 0.000000 0.000000 0.000000 0.004862 0.000000 0.042635
#
#
# Mechanical properties :
#
#
# Convention : Reuss Voigt Hill
#
# Bulk Modulus (GPa) = 29.96736 37.84643 33.90689
# Shear Modulus (GPa) = 21.77219 26.09962 23.93591
#
# Velocity S-wave (km/s) = 3.29238 3.60475 3.45210
# Velocity P-wave (km/s) = 5.41968 6.01401 5.72456
#
# Compressibility (1/GPa) = 0.03336964
#
# Stress axis : x y z
#
# Youngs Moduli (GPa) = 43.37592 33.91910 100.71071
#
# Poissons Ratio (x) = 0.35673 0.40082
# Poissons Ratio (y) = 0.45618 0.00514
# Poissons Ratio (z) = 0.17263 0.00173
#
# Static dielectric constant tensor:
#      x y z
#    x 1.705600 0.000000 0.006920 
#    y 0.000000 1.691430 0.000000 
#    z 0.006920 0.000000 1.723340 
# 
# From -- ./inp_files/6462.got.cif
#   From: 2010.05.17/outbox.cif.g08.bks.cpg/sg4_4_cif.got.tgz:6462.got - 2010.06.03 18:43:04.
