data_PCOD9117401
_publ_section_title
;
Structure prediction by ZEFSAII (Michael W. Deem and Ramdas Pophale) SiO2 
 PCOD9117401
Probable space group: P 21
;
_chemical_formula_sum "Si O2"
_cell_formula_units_Z 16
_cell_length_a 9.236036
_cell_length_b 8.270010
_cell_length_c 22.099811
_cell_angle_alpha 90.000000
_cell_angle_beta 154.935608
_cell_angle_gamma 90.000000
_cell_volume 715.111290
_symmetry_space_group_name_H-M "P 21"
_symmetry_group_IT_number 4
_symmetry_cell_setting 'monoclinic'
loop_
_space_group_symop_operation_xyz
x,y,z
-x,1/2+y,-z
loop_
_atom_site_type_symbol
_atom_site_label
_atom_site_fract_x
_atom_site_fract_y
_atom_site_fract_z
Si Si1 0.045177 0.776970 0.635252
Si Si2 0.169807 0.011659 0.362274
Si Si3 0.727346 0.608814 0.324253
Si Si4 0.250923 0.219043 0.129429
Si Si5 0.607975 0.250069 0.456773
Si Si6 0.847342 0.359052 0.881700
Si Si7 0.751560 0.274760 0.709910
Si Si8 0.223584 0.446477 0.223191
O O1 0.342856 0.705219 0.705332
O O2 0.051922 0.661279 0.696718
O O3 0.650810 0.767763 0.462996
O O4 0.179874 0.963317 0.687115
O O5 0.493075 0.105026 0.456245
O O6 0.275267 0.901496 0.458862
O O7 0.059549 0.882486 0.269380
O O8 0.457211 0.748952 0.204705
O O9 0.564162 0.526717 0.321780
O O10 0.083362 0.696145 0.468447
O O11 0.083216 0.353992 0.110405
O O12 0.112823 0.041982 0.084630
O O13 0.180050 0.270746 0.033663
O O14 0.298616 0.304949 0.298195
O O15 0.776201 0.360778 0.783794
O O16 0.905040 0.097765 0.785191
#
# Coordination Sequence:
#
# PCOD9117401 Si02
#       8
#     2   2   2   2   2   2   2   2
#     4  11  22  39  62  95 131 169 218 269 322 389
#     4  12  22  36  58  90 132 172 216 260 324 378
#     4  10  23  35  61  92 129 161 208 266 330 390
#     4  11  24  42  66  95 132 171 214 274 344 403
#     4  12  20  34  56  88 126 162 204 262 312 382
#     4  11  24  42  66  95 132 171 214 274 344 403
#     4  11  22  39  62  95 131 169 218 269 322 389
#     4  10  23  35  61  92 129 161 208 266 330 390
#
# _framework density 22.374143
#
# number of rings (size 3 to 8) (size 9 to 14) (size 15 to 20)
#    0.000    1.000    3.750    3.750    7.000    0.000 
#    0.000    0.000    0.000   13.500    0.000    0.000 
#    0.000    0.000    0.000    0.000    0.000    0.000 
#
# Total GULP energy -89087.796579 kJ/mol
# GULP energy per Si atom -5567.987286 kJ/mol
# Density = 2.232322 g / cm^3
# Si number density = 22.374143 Si / 1000 Ang^3
#
#
#
# Elastic Constant Matrix: (Units=GPa)
#
#
# Indices 1 2 3 4 5 6 
#
# 1 58.0553 38.2725 20.8075 0.0000 -19.7161 0.0000
# 2 38.2725 115.1204 19.3081 0.0000 -14.6159 0.0000
# 3 20.8075 19.3081 38.9370 0.0000 -16.8809 0.0000
# 4 0.0000 0.0000 0.0000 33.6819 0.0000 -2.6798
# 5 -19.7161 -14.6159 -16.8809 0.0000 19.0518 0.0000
# 6 0.0000 0.0000 0.0000 -2.6798 0.0000 53.1933
#
#
#
# Elastic Compliance Matrix: (Units=1/GPa)
#
#
# Indices 1 2 3 4 5 6 
#
# 1 0.030923 -0.006734 -0.002519 0.000000 0.024603 0.000000
# 2 -0.006734 0.011249 -0.002045 0.000000 -0.000151 0.000000
# 3 -0.002519 -0.002045 0.042595 0.000000 0.033566 0.000000
# 4 0.000000 0.000000 0.000000 0.029809 0.000000 0.001502
# 5 0.024603 -0.000151 0.033566 0.000000 0.107574 0.000000
# 6 0.000000 0.000000 0.000000 0.001502 0.000000 0.018875
#
#
# Mechanical properties :
#
#
# Convention : Reuss Voigt Hill
#
# Bulk Modulus (GPa) = 16.08489 40.98767 28.53628
# Shear Modulus (GPa) = 17.58426 30.10038 23.84232
#
# Velocity S-wave (km/s) = 2.80647 3.67184 3.26792
# Velocity P-wave (km/s) = 4.20789 6.02790 5.19817
#
# Compressibility (1/GPa) = 0.06217013
#
# Stress axis : x y z
#
# Youngs Moduli (GPa) = 32.33876 88.89484 23.47688
#
# Poissons Ratio (x) = 0.59865 0.05914
# Poissons Ratio (y) = 0.21778 0.04801
# Poissons Ratio (z) = 0.08146 0.18180
#
# Static dielectric constant tensor:
#      x y z
#    x 1.857060 0.000000 0.018660 
#    y 0.000000 1.886060 0.000000 
#    z 0.018660 0.000000 1.817640 
# 
# From -- ./inp_files/9233.got.cif
#   From: 2010.05.17/outbox.cif.g08.bks.cpg/sg4_5_cif.got.tgz:9233.got - 2010.06.03 18:43:04.
