data_PCOD9117796
_publ_section_title
;
Structure prediction by ZEFSAII (Michael W. Deem and Ramdas Pophale) SiO2 
 PCOD9117796
Probable space group: P 21
;
_chemical_formula_sum "Si O2"
_cell_formula_units_Z 16
_cell_length_a 8.515988
_cell_length_b 13.731450
_cell_length_c 5.346661
_cell_angle_alpha 90.000000
_cell_angle_beta 90.906730
_cell_angle_gamma 90.000000
_cell_volume 625.143477
_symmetry_space_group_name_H-M "P 21"
_symmetry_group_IT_number 4
_symmetry_cell_setting 'monoclinic'
loop_
_space_group_symop_operation_xyz
x,y,z
-x,1/2+y,-z
loop_
_atom_site_type_symbol
_atom_site_label
_atom_site_fract_x
_atom_site_fract_y
_atom_site_fract_z
Si Si1 0.952090 0.872870 0.606096
Si Si2 0.189588 0.023357 0.631335
Si Si3 0.651773 0.245278 0.856450
Si Si4 0.028258 0.650068 0.096133
Si Si5 0.490823 0.829721 0.641414
Si Si6 0.491224 0.527539 0.134118
Si Si7 0.792535 0.694414 0.711891
Si Si8 0.187478 0.467578 0.886497
O O1 0.932152 0.757000 0.586473
O O2 0.859345 0.915936 0.368161
O O3 0.878850 0.907778 0.872712
O O4 0.128461 0.914620 0.590645
O O5 0.247551 0.089281 0.403502
O O6 0.026273 0.077799 0.689408
O O7 0.319635 0.028387 0.852729
O O8 0.837826 0.227334 0.852180
O O9 0.589982 0.304614 0.620078
O O10 0.570784 0.137472 0.832256
O O11 0.606421 0.297382 0.114247
O O12 0.103894 0.573424 0.899622
O O13 0.863732 0.689398 0.989570
O O14 0.531736 0.943968 0.656281
O O15 0.643654 0.762213 0.672149
O O16 0.373823 0.485530 0.920918
#
# Coordination Sequence:
#
# PCOD9117796 Si02
#       8
#     2   2   2   2   2   2   2   2
#     4  11  25  44  71 104 144 193 241 297 368 438
#     4  11  25  48  72 111 148 195 248 310 373 442
#     4  11  28  50  76 109 154 197 253 313 376 450
#     4  10  25  46  73 103 148 195 241 305 375 438
#     4  12  28  49  76 114 146 204 253 308 381 451
#     4  11  25  47  77 109 152 196 252 314 371 450
#     4  12  25  46  76 106 153 193 251 305 375 448
#     4  10  23  46  67 102 143 191 239 292 365 435
#
# _framework density 25.594124000000001
#
# number of rings (size 3 to 8) (size 9 to 14) (size 15 to 20)
#    0.000    1.000    3.750    0.750    7.000    4.000 
#    4.500    0.000    0.000    0.000    0.000    0.000 
#    0.000    0.000    0.000    0.000    0.000    0.000 
#
# Total GULP energy -89454.188067 kJ/mol
# GULP energy per Si atom -5590.886754 kJ/mol
# Density = 2.553587 g / cm^3
# Si number density = 25.594124 Si / 1000 Ang^3
#
#
#
# Elastic Constant Matrix: (Units=GPa)
#
#
# Indices 1 2 3 4 5 6 
#
# 1 84.3001 31.0821 14.8185 0.0000 9.2492 0.0000
# 2 31.0821 108.9693 43.7896 0.0000 4.1598 0.0000
# 3 14.8185 43.7896 130.3662 0.0000 8.7731 0.0000
# 4 0.0000 0.0000 0.0000 33.6153 0.0000 -3.6035
# 5 9.2492 4.1598 8.7731 0.0000 32.5964 0.0000
# 6 0.0000 0.0000 0.0000 -3.6035 0.0000 51.2032
#
#
#
# Elastic Compliance Matrix: (Units=1/GPa)
#
#
# Indices 1 2 3 4 5 6 
#
# 1 0.013619 -0.003728 -0.000069 0.000000 -0.003370 0.000000
# 2 -0.003728 0.011635 -0.003519 0.000000 0.000520 0.000000
# 3 -0.000069 -0.003519 0.008992 0.000000 -0.001951 0.000000
# 4 0.000000 0.000000 0.000000 0.029974 0.000000 0.002110
# 5 -0.003370 0.000520 -0.001951 0.000000 0.032093 0.000000
# 6 0.000000 0.000000 0.000000 0.002110 0.000000 0.019678
#
#
# Mechanical properties :
#
#
# Convention : Reuss Voigt Hill
#
# Bulk Modulus (GPa) = 50.98766 55.89069 53.43917
# Shear Modulus (GPa) = 36.45316 39.07936 37.76626
#
# Velocity S-wave (km/s) = 3.77806 3.91178 3.84550
# Velocity P-wave (km/s) = 6.24472 6.50288 6.37510
#
# Compressibility (1/GPa) = 0.01961259
#
# Stress axis : x y z
#
# Youngs Moduli (GPa) = 73.42741 85.94973 111.21028
#
# Poissons Ratio (x) = 0.32044 0.00767
# Poissons Ratio (y) = 0.27376 0.39138
# Poissons Ratio (z) = 0.00506 0.30248
#
# Static dielectric constant tensor:
#      x y z
#    x 2.063430 0.000000 -0.047350 
#    y 0.000000 2.093430 0.000000 
#    z -0.047350 0.000000 1.980110 
# 
# From -- ./inp_files/1655.got.cif
#   From: 2010.05.17/outbox.cif.g08.bks.cpg/sg4_1_cif.got.tgz:1655.got - 2010.06.03 18:43:04.
