data_PCOD9117123
_publ_section_title
;
Structure prediction by ZEFSAII (Michael W. Deem and Ramdas Pophale) SiO2 
 PCOD9117123
Probable space group: P 21
;
_chemical_formula_sum "Si O2"
_cell_formula_units_Z 14
_cell_length_a 6.435393
_cell_length_b 9.177147
_cell_length_c 9.052413
_cell_angle_alpha 90.000000
_cell_angle_beta 99.519286
_cell_angle_gamma 90.000000
_cell_volume 527.260608
_symmetry_space_group_name_H-M "P 21"
_symmetry_group_IT_number 4
_symmetry_cell_setting 'monoclinic'
loop_
_space_group_symop_operation_xyz
x,y,z
-x,1/2+y,-z
loop_
_atom_site_type_symbol
_atom_site_label
_atom_site_fract_x
_atom_site_fract_y
_atom_site_fract_z
Si Si1 0.985663 0.163570 0.842271
Si Si2 0.475104 0.251163 0.885064
Si Si3 0.090250 0.027004 0.572563
Si Si4 0.518966 0.426101 0.193358
Si Si5 0.274980 0.472069 0.666938
Si Si6 0.650238 0.670146 0.660414
Si Si7 0.049961 0.979189 0.113220
O O1 0.228840 0.213188 0.890356
O O2 0.960726 0.127750 0.669386
O O3 0.558232 0.089982 0.853646
O O4 0.977349 0.023742 0.943875
O O5 0.438784 0.347366 0.732843
O O6 0.869958 0.312596 0.872299
O O7 0.542548 0.336632 0.042333
O O8 0.258448 0.943029 0.694206
O O9 0.223378 0.121049 0.469839
O O10 0.916539 0.935183 0.464439
O O11 0.371871 0.335929 0.288937
O O12 0.414785 0.604809 0.625974
O O13 0.148056 0.507931 0.802149
O O14 0.769565 0.584704 0.805795
#
# Coordination Sequence:
#
# PCOD9117123 Si02
#       7
#     2   2   2   2   2   2   2
#     4  10  22  48  75 115 154 204 260 329 390 467
#     4  10  22  43  73 116 153 202 263 324 387 465
#     4  10  26  48  81 116 164 209 261 329 406 469
#     4  11  23  44  77 112 153 204 260 325 385 469
#     4  10  24  48  76 116 160 207 264 329 395 474
#     4  11  24  49  79 115 153 206 264 320 402 474
#     4  10  23  46  73 110 159 194 264 328 387 470
#
# _framework density 26.552333999999998
#
# number of rings (size 3 to 8) (size 9 to 14) (size 15 to 20)
#    0.000    1.714    1.429    0.857    2.000   10.286 
#   10.286    7.143    0.000    1.714    0.000    0.000 
#    0.000    0.000    0.000    0.000    0.000    0.000 
#
# Total GULP energy -78402.804113 kJ/mol
# GULP energy per Si atom -5600.200294 kJ/mol
# Density = 2.649190 g / cm^3
# Si number density = 26.552334 Si / 1000 Ang^3
#
#
#
# Elastic Constant Matrix: (Units=GPa)
#
#
# Indices 1 2 3 4 5 6 
#
# 1 72.6300 52.6214 51.2932 0.0000 24.2112 0.0000
# 2 52.6214 172.4558 72.6800 0.0000 13.8645 0.0000
# 3 51.2932 72.6800 178.8836 0.0000 14.4376 0.0000
# 4 0.0000 0.0000 0.0000 43.0093 0.0000 -3.7961
# 5 24.2112 13.8645 14.4376 0.0000 46.5051 0.0000
# 6 0.0000 0.0000 0.0000 -3.7961 0.0000 37.6516
#
#
#
# Elastic Compliance Matrix: (Units=1/GPa)
#
#
# Indices 1 2 3 4 5 6 
#
# 1 0.023041 -0.004598 -0.003981 0.000000 -0.009389 0.000000
# 2 -0.004598 0.007984 -0.001976 0.000000 0.000627 0.000000
# 3 -0.003981 -0.001976 0.007508 0.000000 0.000331 0.000000
# 4 0.000000 0.000000 0.000000 0.023460 0.000000 0.002365
# 5 -0.009389 0.000627 0.000331 0.000000 0.026101 0.000000
# 6 0.000000 0.000000 0.000000 0.002365 0.000000 0.026798
#
#
# Mechanical properties :
#
#
# Convention : Reuss Voigt Hill
#
# Bulk Modulus (GPa) = 57.39559 86.35095 71.87327
# Shear Modulus (GPa) = 35.25883 41.92486 38.59185
#
# Velocity S-wave (km/s) = 3.64799 3.97791 3.81652
# Velocity P-wave (km/s) = 6.27748 7.32735 6.82264
#
# Compressibility (1/GPa) = 0.01742294
#
# Stress axis : x y z
#
# Youngs Moduli (GPa) = 43.40133 125.25159 133.19372
#
# Poissons Ratio (x) = 0.57590 0.53022
# Poissons Ratio (y) = 0.19956 0.26320
# Poissons Ratio (z) = 0.17277 0.24750
#
# Static dielectric constant tensor:
#      x y z
#    x 2.279140 0.000000 -0.066020 
#    y 0.000000 2.122460 0.000000 
#    z -0.066020 0.000000 2.035220 
# 
# From -- ./inp_files/4600.got.cif
#   From: 2010.05.17/outbox.cif.g08.bks.cpg/sg4_3_cif.got.tgz:4600.got - 2010.06.03 18:43:04.
