data_PCOD9117249
_publ_section_title
;
Structure prediction by ZEFSAII (Michael W. Deem and Ramdas Pophale) SiO2 
 PCOD9117249
Probable space group: P 21
;
_chemical_formula_sum "Si O2"
_cell_formula_units_Z 12
_cell_length_a 5.241222
_cell_length_b 13.476642
_cell_length_c 7.623201
_cell_angle_alpha 90.000000
_cell_angle_beta 67.005270
_cell_angle_gamma 90.000000
_cell_volume 495.672306
_symmetry_space_group_name_H-M "P 21"
_symmetry_group_IT_number 4
_symmetry_cell_setting 'monoclinic'
loop_
_space_group_symop_operation_xyz
x,y,z
-x,1/2+y,-z
loop_
_atom_site_type_symbol
_atom_site_label
_atom_site_fract_x
_atom_site_fract_y
_atom_site_fract_z
Si Si1 0.314771 0.631080 0.611446
Si Si2 0.372126 0.037714 0.958908
Si Si3 0.129123 0.663756 0.024229
Si Si4 0.631991 0.446888 0.685621
Si Si5 0.172253 0.461479 0.408113
Si Si6 0.277175 0.289204 0.661532
O O1 0.438786 0.537717 0.682731
O O2 0.161655 0.573450 0.494916
O O3 0.549010 0.699652 0.466945
O O4 0.156619 0.688865 0.808929
O O5 0.116853 0.080066 0.914835
O O6 0.581035 0.124338 0.973689
O O7 0.587934 0.967855 0.798386
O O8 0.246924 0.980929 0.160352
O O9 0.001470 0.749811 0.176829
O O10 0.463378 0.346599 0.753019
O O11 0.849654 0.437971 0.467339
O O12 0.238975 0.372967 0.524668
#
# Coordination Sequence:
#
# PCOD9117249 Si02
#       6
#     2   2   2   2   2   2
#     4  10  22  45  66  93 137 179 223 277 342 399
#     4  11  24  45  71  93 136 182 221 277 345 393
#     4  11  24  45  70  96 134 182 224 276 338 404
#     4  10  24  43  66  98 138 177 224 284 336 405
#     4  11  23  41  68  96 136 177 228 281 336 401
#     4  11  25  41  67 104 133 177 234 279 335 408
#
# _framework density 24.209544000000001
#
# number of rings (size 3 to 8) (size 9 to 14) (size 15 to 20)
#    0.000    1.333    3.333    1.000    4.667    4.000 
#    3.000    0.000    0.000    0.000    0.000    0.000 
#    0.000    0.000    0.000    0.000    0.000    0.000 
#
# Total GULP energy -67001.630093 kJ/mol
# GULP energy per Si atom -5583.469174 kJ/mol
# Density = 2.415444 g / cm^3
# Si number density = 24.209544 Si / 1000 Ang^3
#
#
#
# Elastic Constant Matrix: (Units=GPa)
#
#
# Indices 1 2 3 4 5 6 
#
# 1 50.7928 6.8732 -9.9001 0.0000 -17.2746 0.0000
# 2 6.8732 74.6501 28.7811 0.0000 -0.8674 0.0000
# 3 -9.9001 28.7811 105.4311 0.0000 -20.9362 0.0000
# 4 0.0000 0.0000 0.0000 19.4266 0.0000 -12.8328
# 5 -17.2746 -0.8674 -20.9362 0.0000 31.4447 0.0000
# 6 0.0000 0.0000 0.0000 -12.8328 0.0000 27.9468
#
#
#
# Elastic Compliance Matrix: (Units=1/GPa)
#
#
# Indices 1 2 3 4 5 6 
#
# 1 0.029642 -0.005842 0.008735 0.000000 0.021939 0.000000
# 2 -0.005842 0.016318 -0.006397 0.000000 -0.007018 0.000000
# 3 0.008735 -0.006397 0.014945 0.000000 0.014573 0.000000
# 4 0.000000 0.000000 0.000000 0.073888 0.000000 0.033929
# 5 0.021939 -0.007018 0.014573 0.000000 0.053363 0.000000
# 6 0.000000 0.000000 0.000000 0.033929 0.000000 0.051362
#
#
# Mechanical properties :
#
#
# Convention : Reuss Voigt Hill
#
# Bulk Modulus (GPa) = 18.55372 31.37583 24.96478
# Shear Modulus (GPa) = 18.90404 29.43827 24.17116
#
# Velocity S-wave (km/s) = 2.79740 3.49087 3.16320
# Velocity P-wave (km/s) = 4.25610 5.40708 4.86574
#
# Compressibility (1/GPa) = 0.05389754
#
# Stress axis : x y z
#
# Youngs Moduli (GPa) = 33.73560 61.28017 66.91137
#
# Poissons Ratio (x) = 0.35800 -0.58446
# Poissons Ratio (y) = 0.19708 0.42803
# Poissons Ratio (z) = -0.29467 0.39201
#
# Static dielectric constant tensor:
#      x y z
#    x 2.058060 0.000000 0.017350 
#    y 0.000000 1.910430 0.000000 
#    z 0.017350 0.000000 1.956140 
# 
# From -- ./inp_files/1090.got.cif
#   From: 2010.05.17/outbox.cif.g08.bks.cpg/sg4_1_cif.got.tgz:1090.got - 2010.06.03 18:43:04.
