data_PCOD9117938
_publ_section_title
;
Structure prediction by ZEFSAII (Michael W. Deem and Ramdas Pophale) SiO2 
 PCOD9117938
Probable space group: P 21
;
_chemical_formula_sum "Si O2"
_cell_formula_units_Z 14
_cell_length_a 9.314608
_cell_length_b 5.533824
_cell_length_c 11.892342
_cell_angle_alpha 90.000000
_cell_angle_beta 104.128929
_cell_angle_gamma 90.000000
_cell_volume 594.451745
_symmetry_space_group_name_H-M "P 21"
_symmetry_group_IT_number 4
_symmetry_cell_setting 'monoclinic'
loop_
_space_group_symop_operation_xyz
x,y,z
-x,1/2+y,-z
loop_
_atom_site_type_symbol
_atom_site_label
_atom_site_fract_x
_atom_site_fract_y
_atom_site_fract_z
Si Si1 0.881048 0.036620 0.732334
Si Si2 0.606590 0.494419 0.352386
Si Si3 0.654140 0.721651 0.783683
Si Si4 0.186505 0.282520 0.748725
Si Si5 0.516453 0.939287 0.068728
Si Si6 0.379471 0.859588 0.399737
Si Si7 0.079239 0.488311 0.511202
O O1 0.752293 0.231137 0.691611
O O2 0.875427 0.913701 0.607056
O O3 0.037019 0.177418 0.777821
O O4 0.814091 0.850539 0.812122
O O5 0.484736 0.404000 0.240473
O O6 0.750655 0.557995 0.311047
O O7 0.531623 0.734708 0.391420
O O8 0.640138 0.342555 0.470819
O O9 0.608346 0.515529 0.862829
O O10 0.629803 0.623644 0.652759
O O11 0.320490 0.378176 0.850610
O O12 0.165835 0.481155 0.646059
O O13 0.529263 0.188274 0.999846
O O14 0.972025 0.261752 0.516937
#
# Coordination Sequence:
#
# PCOD9117938 Si02
#       7
#     2   2   2   2   2   2   2
#     4  10  26  41  71 113 160 198 238 302 387 483
#     4  11  22  39  66 109 154 204 247 291 366 479
#     4  11  24  45  73 103 151 198 249 318 386 444
#     4  11  25  46  74 110 151 204 251 316 380 449
#     4  12  29  53  82 109 140 197 280 342 383 443
#     4  11  22  39  63 109 154 201 243 293 374 469
#     4  10  24  41  63 111 162 198 228 280 364 473
#
# _framework density 23.551112
#
# number of rings (size 3 to 8) (size 9 to 14) (size 15 to 20)
#    0.000    1.143    2.857    1.714   18.000    2.286 
#    0.000    0.000    3.143    0.000    0.000    0.000 
#    0.000    0.000    0.000    0.000    0.000    0.000 
#
# Total GULP energy -78022.327776 kJ/mol
# GULP energy per Si atom -5573.023413 kJ/mol
# Density = 2.349751 g / cm^3
# Si number density = 23.551112 Si / 1000 Ang^3
#
#
#
# Elastic Constant Matrix: (Units=GPa)
#
#
# Indices 1 2 3 4 5 6 
#
# 1 142.9298 42.7031 40.5475 0.0000 -0.1252 0.0000
# 2 42.7031 84.5127 50.1811 0.0000 5.8857 0.0000
# 3 40.5475 50.1811 92.2830 0.0000 7.0113 0.0000
# 4 0.0000 0.0000 0.0000 43.9786 0.0000 -16.9397
# 5 -0.1252 5.8857 7.0113 0.0000 31.7974 0.0000
# 6 0.0000 0.0000 0.0000 -16.9397 0.0000 34.0858
#
#
#
# Elastic Compliance Matrix: (Units=1/GPa)
#
#
# Indices 1 2 3 4 5 6 
#
# 1 0.008535 -0.003120 -0.002136 0.000000 0.001082 0.000000
# 2 -0.003120 0.018657 -0.008656 0.000000 -0.001557 0.000000
# 3 -0.002136 -0.008656 0.016639 0.000000 -0.002075 0.000000
# 4 0.000000 0.000000 0.000000 0.028121 0.000000 0.013976
# 5 0.001082 -0.001557 -0.002075 0.000000 0.032199 0.000000
# 6 0.000000 0.000000 0.000000 0.013976 0.000000 0.036283
#
#
# Mechanical properties :
#
#
# Convention : Reuss Voigt Hill
#
# Bulk Modulus (GPa) = 62.46918 65.17655 63.82286
# Shear Modulus (GPa) = 28.80249 34.39196 31.59723
#
# Velocity S-wave (km/s) = 3.50090 3.82555 3.66682
# Velocity P-wave (km/s) = 6.55166 6.87369 6.71461
#
# Compressibility (1/GPa) = 0.01600789
#
# Stress axis : x y z
#
# Youngs Moduli (GPa) = 117.15783 53.59863 60.09822
#
# Poissons Ratio (x) = 0.16722 0.12837
# Poissons Ratio (y) = 0.36552 0.52022
# Poissons Ratio (z) = 0.25025 0.46396
#
# Static dielectric constant tensor:
#      x y z
#    x 2.015740 0.000000 -0.019970 
#    y 0.000000 2.107540 0.000000 
#    z -0.019970 0.000000 1.939020 
# 
# From -- ./inp_files/10663.got.cif
#   From: 2010.05.17/outbox.cif.g08.bks.cpg/sg4_6_cif.got.tgz:10663.got - 2010.06.03 18:43:04.
