data_PCOD9117021
_publ_section_title
;
Structure prediction by ZEFSAII (Michael W. Deem and Ramdas Pophale) SiO2 
 PCOD9117021
Probable space group: P 21
;
_chemical_formula_sum "Si O2"
_cell_formula_units_Z 14
_cell_length_a 5.183335
_cell_length_b 14.251635
_cell_length_c 8.689017
_cell_angle_alpha 90.000000
_cell_angle_beta 119.146453
_cell_angle_gamma 90.000000
_cell_volume 560.591726
_symmetry_space_group_name_H-M "P 21"
_symmetry_group_IT_number 4
_symmetry_cell_setting 'monoclinic'
loop_
_space_group_symop_operation_xyz
x,y,z
-x,1/2+y,-z
loop_
_atom_site_type_symbol
_atom_site_label
_atom_site_fract_x
_atom_site_fract_y
_atom_site_fract_z
Si Si1 0.062262 0.614040 0.416168
Si Si2 0.259342 0.189683 0.155257
Si Si3 0.521807 0.364196 0.410979
Si Si4 0.708753 0.209377 0.807942
Si Si5 0.205910 0.568508 0.789876
Si Si6 0.821162 0.815051 0.396738
Si Si7 0.474302 0.014045 0.857385
O O1 0.897034 0.703819 0.445853
O O2 0.867550 0.547377 0.247954
O O3 0.274894 0.672027 0.363386
O O4 0.155778 0.554840 0.592603
O O5 0.422753 0.270050 0.296087
O O6 0.515573 0.138512 0.137635
O O7 0.080937 0.116595 0.214288
O O8 0.028657 0.233352 0.967511
O O9 0.296919 0.368095 0.487128
O O10 0.490924 0.444871 0.275394
O O11 0.866795 0.358821 0.564547
O O12 0.484185 0.293260 0.781118
O O13 0.626755 0.112710 0.864866
O O14 0.348434 0.485713 0.936205
#
# Coordination Sequence:
#
# PCOD9117021 Si02
#       7
#     2   2   2   2   2   2   2
#     4  11  20  42  69  96 127 178 222 272 314 414
#     4  11  21  40  68  94 129 170 226 271 319 396
#     4  12  23  42  65  96 136 171 215 288 339 380
#     4  10  22  42  70  99 128 177 232 268 321 415
#     4  11  22  41  67  95 124 178 223 263 321 412
#     4  11  22  39  68  92 125 173 224 261 330 397
#     4  10  26  40  65  98 137 171 222 277 346 380
#
# _framework density 24.973611999999999
#
# number of rings (size 3 to 8) (size 9 to 14) (size 15 to 20)
#    0.000    1.143    5.714    0.000    4.000    0.000 
#    2.571    0.000    3.143    0.000    0.000    0.000 
#    0.000    0.000    0.000    0.000    0.000    0.000 
#
# Total GULP energy -78039.176100 kJ/mol
# GULP energy per Si atom -5574.226864 kJ/mol
# Density = 2.491677 g / cm^3
# Si number density = 24.973612 Si / 1000 Ang^3
#
#
#
# Elastic Constant Matrix: (Units=GPa)
#
#
# Indices 1 2 3 4 5 6 
#
# 1 146.3774 38.9600 13.3920 0.0000 -10.1017 0.0000
# 2 38.9600 51.7454 22.8763 0.0000 -1.6391 0.0000
# 3 13.3920 22.8763 70.8131 0.0000 3.4546 0.0000
# 4 0.0000 0.0000 0.0000 32.0048 0.0000 -9.5327
# 5 -10.1017 -1.6391 3.4546 0.0000 38.6261 0.0000
# 6 0.0000 0.0000 0.0000 -9.5327 0.0000 31.7435
#
#
#
# Elastic Compliance Matrix: (Units=1/GPa)
#
#
# Indices 1 2 3 4 5 6 
#
# 1 0.008706 -0.006676 0.000415 0.000000 0.001956 0.000000
# 2 -0.006676 0.027766 -0.007713 0.000000 0.000122 0.000000
# 3 0.000415 -0.007713 0.016618 0.000000 -0.001705 0.000000
# 4 0.000000 0.000000 0.000000 0.034315 0.000000 0.010305
# 5 0.001956 0.000122 -0.001705 0.000000 0.026559 0.000000
# 6 0.000000 0.000000 0.000000 0.010305 0.000000 0.034597
#
#
# Mechanical properties :
#
#
# Convention : Reuss Voigt Hill
#
# Bulk Modulus (GPa) = 39.77596 46.59917 43.18756
# Shear Modulus (GPa) = 27.04330 33.38873 30.21602
#
# Velocity S-wave (km/s) = 3.29428 3.66041 3.48216
# Velocity P-wave (km/s) = 5.51647 6.04688 5.78775
#
# Compressibility (1/GPa) = 0.02514082
#
# Stress axis : x y z
#
# Youngs Moduli (GPa) = 114.86848 36.01566 60.17514
#
# Poissons Ratio (x) = 0.24044 -0.02497
# Poissons Ratio (y) = 0.76687 0.46414
# Poissons Ratio (z) = -0.04766 0.27779
#
# Static dielectric constant tensor:
#      x y z
#    x 2.039740 0.000000 0.027780 
#    y 0.000000 2.021920 0.000000 
#    z 0.027780 0.000000 2.183690 
# 
# From -- ./inp_files/1633.got.cif
#   From: 2010.05.17/outbox.cif.g08.bks.cpg/sg4_1_cif.got.tgz:1633.got - 2010.06.03 18:43:04.
