data_PCOD9117513
_publ_section_title
;
Structure prediction by ZEFSAII (Michael W. Deem and Ramdas Pophale) SiO2 
 PCOD9117513
Probable space group: P 21
;
_chemical_formula_sum "Si O2"
_cell_formula_units_Z 16
_cell_length_a 10.340180
_cell_length_b 8.641567
_cell_length_c 18.352517
_cell_angle_alpha 90.000000
_cell_angle_beta 28.095628
_cell_angle_gamma 90.000000
_cell_volume 772.299988
_symmetry_space_group_name_H-M "P 21"
_symmetry_group_IT_number 4
_symmetry_cell_setting 'monoclinic'
loop_
_space_group_symop_operation_xyz
x,y,z
-x,1/2+y,-z
loop_
_atom_site_type_symbol
_atom_site_label
_atom_site_fract_x
_atom_site_fract_y
_atom_site_fract_z
Si Si1 0.590427 0.800590 0.022638
Si Si2 0.792905 0.474558 0.898455
Si Si3 0.670327 0.820787 0.438325
Si Si4 0.959651 0.213811 0.625606
Si Si5 0.091644 0.525100 0.025983
Si Si6 0.715349 0.350106 0.100351
Si Si7 0.827530 0.003352 0.562868
Si Si8 0.536622 0.611652 0.376633
O O1 0.451067 0.899237 0.027877
O O2 0.340379 0.715512 0.189296
O O3 0.778238 0.659954 0.902229
O O4 0.748507 0.916178 0.997481
O O5 0.075396 0.412922 0.723930
O O6 0.758402 0.415728 0.997958
O O7 0.512963 0.735015 0.452396
O O8 0.811787 0.702330 0.425042
O O9 0.496786 0.942023 0.571010
O O10 0.996281 0.382244 0.570568
O O11 0.980188 0.088483 0.552140
O O12 0.956419 0.419301 0.031044
O O13 0.838221 0.612583 0.191702
O O14 0.276114 0.664448 0.904245
O O15 0.430594 0.411530 0.274763
O O16 0.690841 0.123015 0.573459
#
# Coordination Sequence:
#
# PCOD9117513 Si02
#       8
#     2   2   2   2   2   2   2   2
#     4  11  24  40  64  93 125 163 210 257 312 369
#     4  11  22  41  64  91 126 161 205 260 310 366
#     4  10  23  42  63  91 126 163 208 254 308 372
#     4  10  23  42  61  90 126 163 208 255 304 373
#     4  11  24  40  64  93 125 163 210 257 312 369
#     4  11  22  41  64  91 126 161 205 260 310 366
#     4  10  23  42  63  91 126 163 208 254 308 372
#     4  10  23  42  61  90 126 163 208 255 304 373
#
# _framework density 20.71734
#
# number of rings (size 3 to 8) (size 9 to 14) (size 15 to 20)
#    0.000    1.500    2.500    1.500    7.000    1.000 
#    4.500    0.000    0.000    0.000    0.000    0.000 
#    0.000    0.000    0.000    0.000    0.000    0.000 
#
# Total GULP energy -89470.933066 kJ/mol
# GULP energy per Si atom -5591.933317 kJ/mol
# Density = 2.067019 g / cm^3
# Si number density = 20.717340 Si / 1000 Ang^3
#
#
#
# Elastic Constant Matrix: (Units=GPa)
#
#
# Indices 1 2 3 4 5 6 
#
# 1 75.8481 14.0645 22.9035 0.0000 14.9010 0.0000
# 2 14.0645 67.5917 -2.6247 0.0000 -7.0003 0.0000
# 3 22.9035 -2.6247 26.9941 0.0000 1.0323 0.0000
# 4 0.0000 0.0000 0.0000 24.3222 0.0000 13.0730
# 5 14.9010 -7.0003 1.0323 0.0000 17.9296 0.0000
# 6 0.0000 0.0000 0.0000 13.0730 0.0000 46.3853
#
#
#
# Elastic Compliance Matrix: (Units=1/GPa)
#
#
# Indices 1 2 3 4 5 6 
#
# 1 0.026220 -0.008798 -0.022186 0.000000 -0.023949 0.000000
# 2 -0.008798 0.018414 0.008720 0.000000 0.013999 0.000000
# 3 -0.022186 0.008720 0.056005 0.000000 0.018619 0.000000
# 4 0.000000 0.000000 0.000000 0.048455 0.000000 -0.013656
# 5 -0.023949 0.013999 0.018619 0.000000 0.080071 0.000000
# 6 0.000000 0.000000 0.000000 -0.013656 0.000000 0.025407
#
#
# Mechanical properties :
#
#
# Convention : Reuss Voigt Hill
#
# Bulk Modulus (GPa) = 17.82207 26.56896 22.19552
# Shear Modulus (GPa) = 15.73294 26.80012 21.26653
#
# Velocity S-wave (km/s) = 2.75873 3.60058 3.20739
# Velocity P-wave (km/s) = 4.33227 5.48980 4.94502
#
# Compressibility (1/GPa) = 0.05611020
#
# Stress axis : x y z
#
# Youngs Moduli (GPa) = 38.13877 54.30728 17.85543
#
# Poissons Ratio (x) = 0.47778 0.39615
# Poissons Ratio (y) = 0.33553 -0.15569
# Poissons Ratio (z) = 0.84616 -0.47354
#
# Static dielectric constant tensor:
#      x y z
#    x 1.725070 0.000000 0.003880 
#    y 0.000000 1.772740 0.000000 
#    z 0.003880 0.000000 1.718560 
# 
# From -- ./inp_files/10912.got.cif
#   From: 2010.05.17/outbox.cif.g08.bks.cpg/sg4_6_cif.got.tgz:10912.got - 2010.06.03 18:43:04.
