data_PCOD9117047
_publ_section_title
;
Structure prediction by ZEFSAII (Michael W. Deem and Ramdas Pophale) SiO2 
 PCOD9117047
Probable space group: P 21
;
_chemical_formula_sum "Si O2"
_cell_formula_units_Z 14
_cell_length_a 5.070383
_cell_length_b 19.336344
_cell_length_c 7.530858
_cell_angle_alpha 90.000000
_cell_angle_beta 109.678070
_cell_angle_gamma 90.000000
_cell_volume 695.225682
_symmetry_space_group_name_H-M "P 21"
_symmetry_group_IT_number 4
_symmetry_cell_setting 'monoclinic'
loop_
_space_group_symop_operation_xyz
x,y,z
-x,1/2+y,-z
loop_
_atom_site_type_symbol
_atom_site_label
_atom_site_fract_x
_atom_site_fract_y
_atom_site_fract_z
Si Si1 0.639993 0.881690 0.969972
Si Si2 0.510159 0.174947 0.520411
Si Si3 0.685912 0.315515 0.428387
Si Si4 0.157123 0.546745 0.338359
Si Si5 0.242154 0.034412 0.427952
Si Si6 0.830118 0.468160 0.970306
Si Si7 0.318973 0.303094 0.662094
O O1 0.467272 0.944718 0.019173
O O2 0.662285 0.825924 0.132229
O O3 0.947994 0.905120 0.980648
O O4 0.460289 0.853791 0.765488
O O5 0.607273 0.233558 0.404768
O O6 0.769736 0.128318 0.643874
O O7 0.297278 0.116380 0.404596
O O8 0.374258 0.221530 0.644077
O O9 0.552779 0.337688 0.587880
O O10 0.017477 0.322753 0.514401
O O11 0.003474 0.527133 0.486143
O O12 0.465228 0.512193 0.412562
O O13 0.970090 0.523860 0.132753
O O14 0.194557 0.996171 0.234045
#
# Coordination Sequence:
#
# PCOD9117047 Si02
#       7
#     2   2   2   2   2   2   2
#     4  12  26  42  64  98 126 168 214 246 320 378
#     4   8  22  44  64  96 120 164 214 250 334 348
#     4  10  22  43  64  94 127 164 205 266 307 369
#     4  10  22  43  64  94 127 164 205 266 307 369
#     4  10  22  43  64  94 127 164 205 266 307 369
#     4  12  26  42  64  98 126 168 214 246 320 378
#     4  10  22  43  64  94 127 164 205 266 307 369
#
# _framework density 20.137343000000001
#
# number of rings (size 3 to 8) (size 9 to 14) (size 15 to 20)
#    1.714    0.000    0.000    4.286    0.000    6.857 
#   10.286    0.000    0.000    0.000    0.000    0.000 
#    0.000    0.000    0.000    0.000    0.000    0.000 
#
# Total GULP energy -78085.019983 kJ/mol
# GULP energy per Si atom -5577.501427 kJ/mol
# Density = 2.009151 g / cm^3
# Si number density = 20.137343 Si / 1000 Ang^3
#
#
#
# Elastic Constant Matrix: (Units=GPa)
#
#
# Indices 1 2 3 4 5 6 
#
# 1 53.7953 1.2239 4.5629 0.0000 -0.4954 0.0000
# 2 1.2239 56.4352 11.4496 0.0000 0.6791 0.0000
# 3 4.5629 11.4496 39.8141 0.0000 -0.4298 0.0000
# 4 0.0000 0.0000 0.0000 33.0172 0.0000 0.0694
# 5 -0.4954 0.6791 -0.4298 0.0000 21.0581 0.0000
# 6 0.0000 0.0000 0.0000 0.0694 0.0000 31.4744
#
#
#
# Elastic Compliance Matrix: (Units=1/GPa)
#
#
# Indices 1 2 3 4 5 6 
#
# 1 0.018775 0.000025 -0.002155 0.000000 0.000397 0.000000
# 2 0.000025 0.018828 -0.005425 0.000000 -0.000717 0.000000
# 3 -0.002155 -0.005425 0.026931 0.000000 0.000674 0.000000
# 4 0.000000 0.000000 0.000000 0.030287 0.000000 -0.000067
# 5 0.000397 -0.000717 0.000674 0.000000 0.047534 0.000000
# 6 0.000000 0.000000 0.000000 -0.000067 0.000000 0.031772
#
#
# Mechanical properties :
#
#
# Convention : Reuss Voigt Hill
#
# Bulk Modulus (GPa) = 20.23275 20.50194 20.36734
# Shear Modulus (GPa) = 24.30587 25.96382 25.13485
#
# Velocity S-wave (km/s) = 3.47797 3.59463 3.53678
# Velocity P-wave (km/s) = 5.11835 5.23752 5.17828
#
# Compressibility (1/GPa) = 0.04942483
#
# Stress axis : x y z
#
# Youngs Moduli (GPa) = 53.26278 53.11191 37.13179
#
# Poissons Ratio (x) = -0.00134 0.08001
# Poissons Ratio (y) = -0.00134 0.20145
# Poissons Ratio (z) = 0.11476 0.28814
#
# Static dielectric constant tensor:
#      x y z
#    x 1.712380 0.000000 -0.004680 
#    y 0.000000 1.747230 0.000000 
#    z -0.004680 0.000000 1.643550 
# 
# From -- ./inp_files/710.got.cif
#   From: 2010.05.17/outbox.cif.g08.bks.cpg/sg4_1_cif.got.tgz:710.got - 2010.06.03 18:43:04.
