data_PCOD9117086
_publ_section_title
;
Structure prediction by ZEFSAII (Michael W. Deem and Ramdas Pophale) SiO2 
 PCOD9117086
Probable space group: P 21
;
_chemical_formula_sum "Si O2"
_cell_formula_units_Z 14
_cell_length_a 16.197134
_cell_length_b 5.147427
_cell_length_c 14.543353
_cell_angle_alpha 90.000000
_cell_angle_beta 153.203800
_cell_angle_gamma 90.000000
_cell_volume 546.631297
_symmetry_space_group_name_H-M "P 21"
_symmetry_group_IT_number 4
_symmetry_cell_setting 'monoclinic'
loop_
_space_group_symop_operation_xyz
x,y,z
-x,1/2+y,-z
loop_
_atom_site_type_symbol
_atom_site_label
_atom_site_fract_x
_atom_site_fract_y
_atom_site_fract_z
Si Si1 0.747345 0.805080 0.686211
Si Si2 0.718375 0.859135 0.156791
Si Si3 0.592870 0.612400 0.717946
Si Si4 0.388862 0.999615 0.618462
Si Si5 0.021200 0.799559 0.318281
Si Si6 0.085779 0.800950 0.903734
Si Si7 0.485814 0.360085 0.867725
O O1 0.712046 0.742209 0.756244
O O2 0.687524 0.573642 0.557868
O O3 0.954591 0.848377 0.861168
O O4 0.603531 0.030065 0.517617
O O5 0.687041 0.847261 0.234912
O O6 0.919863 0.833050 0.314769
O O7 0.593802 0.625525 0.992231
O O8 0.627171 0.129987 0.035674
O O9 0.556957 0.811337 0.764603
O O10 0.708618 0.362568 0.862880
O O11 0.238256 0.847215 0.529317
O O12 0.421760 0.268336 0.704329
O O13 0.972667 0.521106 0.227683
O O14 0.945545 0.024950 0.174845
#
# Coordination Sequence:
#
# PCOD9117086 Si02
#       7
#     2   2   2   2   2   2   2
#     4  11  26  45  66 105 141 181 246 291 343 423
#     4  10  22  43  68 102 138 177 235 290 341 431
#     4  12  25  45  73  97 145 191 235 294 354 410
#     4  11  25  44  69 101 141 186 235 292 353 417
#     4  11  24  45  69 103 142 177 241 292 342 429
#     4  11  27  44  71 103 141 189 235 289 356 414
#     4  10  23  42  70 101 136 183 233 284 357 418
#
# _framework density 25.611414
#
# number of rings (size 3 to 8) (size 9 to 14) (size 15 to 20)
#    0.000    1.143    2.857    1.714    8.000    3.429 
#    0.000    7.143    0.000    0.000    0.000    0.000 
#    0.000    0.000    0.000    0.000    0.000    0.000 
#
# Total GULP energy -78507.085816 kJ/mol
# GULP energy per Si atom -5607.648987 kJ/mol
# Density = 2.555312 g / cm^3
# Si number density = 25.611414 Si / 1000 Ang^3
#
#
#
# Elastic Constant Matrix: (Units=GPa)
#
#
# Indices 1 2 3 4 5 6 
#
# 1 192.3570 11.9488 45.3244 0.0000 53.3558 0.0000
# 2 11.9488 90.4441 24.6904 0.0000 -0.4642 0.0000
# 3 45.3244 24.6904 67.7095 0.0000 26.3495 0.0000
# 4 0.0000 0.0000 0.0000 33.7726 0.0000 4.1849
# 5 53.3558 -0.4642 26.3495 0.0000 46.4968 0.0000
# 6 0.0000 0.0000 0.0000 4.1849 0.0000 37.8516
#
#
#
# Elastic Compliance Matrix: (Units=1/GPa)
#
#
# Indices 1 2 3 4 5 6 
#
# 1 0.007908 -0.000538 -0.002006 0.000000 -0.007943 0.000000
# 2 -0.000538 0.012753 -0.005876 0.000000 0.004074 0.000000
# 3 -0.002006 -0.005876 0.022299 0.000000 -0.010393 0.000000
# 4 0.000000 0.000000 0.000000 0.030021 0.000000 -0.003319
# 5 -0.007943 0.004074 -0.010393 0.000000 0.036552 0.000000
# 6 0.000000 0.000000 0.000000 -0.003319 0.000000 0.026786
#
#
# Mechanical properties :
#
#
# Convention : Reuss Voigt Hill
#
# Bulk Modulus (GPa) = 38.28509 57.15976 47.72243
# Shear Modulus (GPa) = 30.88989 41.52732 36.20861
#
# Velocity S-wave (km/s) = 3.47666 4.03108 3.76409
# Velocity P-wave (km/s) = 5.57648 6.63571 6.12902
#
# Compressibility (1/GPa) = 0.02611983
#
# Stress axis : x y z
#
# Youngs Moduli (GPa) = 126.45333 78.41583 44.84466
#
# Poissons Ratio (x) = 0.04217 0.08998
# Poissons Ratio (y) = 0.06800 0.26349
# Poissons Ratio (z) = 0.25373 0.46075
#
# Static dielectric constant tensor:
#      x y z
#    x 2.014850 0.000000 -0.000660 
#    y 0.000000 2.007000 0.000000 
#    z -0.000660 0.000000 2.005610 
# 
# From -- ./inp_files/14089.got.cif
#   From: 2010.05.17/outbox.cif.g08.bks.cpg/sg4_8_cif.got.tgz:14089.got - 2010.06.03 18:43:04.
