data_PCOD9117627
_publ_section_title
;
Structure prediction by ZEFSAII (Michael W. Deem and Ramdas Pophale) SiO2 
 PCOD9117627
Probable space group: P 21
;
_chemical_formula_sum "Si O2"
_cell_formula_units_Z 14
_cell_length_a 5.396266
_cell_length_b 8.003321
_cell_length_c 13.397692
_cell_angle_alpha 90.000000
_cell_angle_beta 114.390672
_cell_angle_gamma 90.000000
_cell_volume 526.978851
_symmetry_space_group_name_H-M "P 21"
_symmetry_group_IT_number 4
_symmetry_cell_setting 'monoclinic'
loop_
_space_group_symop_operation_xyz
x,y,z
-x,1/2+y,-z
loop_
_atom_site_type_symbol
_atom_site_label
_atom_site_fract_x
_atom_site_fract_y
_atom_site_fract_z
Si Si1 0.282374 0.176230 0.850788
Si Si2 0.572023 0.274928 0.540930
Si Si3 0.204669 0.522133 0.948607
Si Si4 0.984349 0.559313 0.369099
Si Si5 0.126056 0.459998 0.598006
Si Si6 0.947400 0.875312 0.878517
Si Si7 0.597573 0.260698 0.309731
O O1 0.263811 0.364381 0.887650
O O2 0.240496 0.172810 0.725013
O O3 0.538350 0.087589 0.944439
O O4 0.044713 0.041609 0.837757
O O5 0.338729 0.356310 0.566428
O O6 0.509424 0.258155 0.412299
O O7 0.702167 0.102835 0.605751
O O8 0.851092 0.383417 0.595790
O O9 0.092813 0.696139 0.885724
O O10 0.013961 0.433250 0.000316
O O11 0.861616 0.375894 0.338102
O O12 0.998025 0.582498 0.490886
O O13 0.307425 0.574310 0.699461
O O14 0.639426 0.831511 0.798290
#
# Coordination Sequence:
#
# PCOD9117627 Si02
#       7
#     2   2   2   2   2   2   2
#     4  12  25  46  71 102 140 184 237 299 361 427
#     4  10  23  44  69 106 144 187 238 294 354 442
#     4  12  26  46  70 102 138 182 242 300 356 430
#     4  10  23  43  70 100 141 184 234 292 366 430
#     4  10  23  44  69 106 144 187 238 294 354 442
#     4  12  25  46  71 102 140 184 237 299 361 427
#     4  10  23  43  70 100 141 184 234 292 366 430
#
# _framework density 26.56653
#
# number of rings (size 3 to 8) (size 9 to 14) (size 15 to 20)
#    0.000    1.143    4.286    0.857    2.000   11.429 
#    5.143    0.000    0.000    0.000    0.000    0.000 
#    0.000    0.000    0.000    0.000    0.000    0.000 
#
# Total GULP energy -78246.201623 kJ/mol
# GULP energy per Si atom -5589.014402 kJ/mol
# Density = 2.650606 g / cm^3
# Si number density = 26.566530 Si / 1000 Ang^3
#
#
#
# Elastic Constant Matrix: (Units=GPa)
#
#
# Indices 1 2 3 4 5 6 
#
# 1 106.7207 72.1416 34.4081 0.0000 11.0195 0.0000
# 2 72.1416 170.9336 45.4958 0.0000 -0.5404 0.0000
# 3 34.4081 45.4958 94.3098 0.0000 3.6066 0.0000
# 4 0.0000 0.0000 0.0000 55.0104 0.0000 8.6231
# 5 11.0195 -0.5404 3.6066 0.0000 46.1975 0.0000
# 6 0.0000 0.0000 0.0000 8.6231 0.0000 62.6404
#
#
#
# Elastic Compliance Matrix: (Units=1/GPa)
#
#
# Indices 1 2 3 4 5 6 
#
# 1 0.014076 -0.005297 -0.002457 0.000000 -0.003228 0.000000
# 2 -0.005297 0.008711 -0.002329 0.000000 0.001547 0.000000
# 3 -0.002457 -0.002329 0.012639 0.000000 -0.000428 0.000000
# 4 0.000000 0.000000 0.000000 0.018579 0.000000 -0.002558
# 5 -0.003228 0.001547 -0.000428 0.000000 0.022468 0.000000
# 6 0.000000 0.000000 0.000000 -0.002558 0.000000 0.016316
#
#
# Mechanical properties :
#
#
# Convention : Reuss Voigt Hill
#
# Bulk Modulus (GPa) = 65.52555 75.11723 70.32139
# Shear Modulus (GPa) = 42.35786 47.43091 44.89438
#
# Velocity S-wave (km/s) = 3.99733 4.22994 4.11528
# Velocity P-wave (km/s) = 6.78404 7.22448 7.00772
#
# Compressibility (1/GPa) = 0.01526122
#
# Stress axis : x y z
#
# Youngs Moduli (GPa) = 71.04047 114.80341 79.11771
#
# Poissons Ratio (x) = 0.60814 0.19438
# Poissons Ratio (y) = 0.37632 0.18423
# Poissons Ratio (z) = 0.17453 0.26733
#
# Static dielectric constant tensor:
#      x y z
#    x 2.079540 0.000000 -0.086970 
#    y 0.000000 2.359410 0.000000 
#    z -0.086970 0.000000 2.203850 
# 
# From -- ./inp_files/4341.got.cif
#   From: 2010.05.17/outbox.cif.g08.bks.cpg/sg4_3_cif.got.tgz:4341.got - 2010.06.03 18:43:04.
