data_PCOD9117059
_publ_section_title
;
Structure prediction by ZEFSAII (Michael W. Deem and Ramdas Pophale) SiO2 
 PCOD9117059
Probable space group: P 21
;
_chemical_formula_sum "Si O2"
_cell_formula_units_Z 16
_cell_length_a 7.646102
_cell_length_b 17.116538
_cell_length_c 6.653435
_cell_angle_alpha 90.000000
_cell_angle_beta 56.087992
_cell_angle_gamma 90.000000
_cell_volume 722.645460
_symmetry_space_group_name_H-M "P 21"
_symmetry_group_IT_number 4
_symmetry_cell_setting 'monoclinic'
loop_
_space_group_symop_operation_xyz
x,y,z
-x,1/2+y,-z
loop_
_atom_site_type_symbol
_atom_site_label
_atom_site_fract_x
_atom_site_fract_y
_atom_site_fract_z
Si Si1 0.385037 0.047420 0.236237
Si Si2 0.811046 0.275655 0.222571
Si Si3 0.513274 0.189751 0.674044
Si Si4 0.092504 0.913263 0.575590
Si Si5 0.314161 0.803246 0.106752
Si Si6 0.883987 0.640373 0.882475
Si Si7 0.718961 0.046868 0.366866
Si Si8 0.613866 0.936792 0.770756
O O1 0.254722 0.118174 0.222764
O O2 0.577781 0.063846 0.262712
O O3 0.223551 0.992149 0.461525
O O4 0.480111 0.998954 0.987260
O O5 0.585321 0.244962 0.445614
O O6 0.852917 0.364238 0.260461
O O7 0.825234 0.265045 0.976849
O O8 0.976921 0.218488 0.225780
O O9 0.655727 0.112874 0.569251
O O10 0.566418 0.240236 0.835496
O O11 0.277231 0.159190 0.835327
O O12 0.845116 0.928123 0.718571
O O13 0.174280 0.856590 0.343839
O O14 0.482853 0.857728 0.883605
O O15 0.036727 0.566400 0.828216
O O16 0.657762 0.966422 0.515305
#
# Coordination Sequence:
#
# PCOD9117059 Si02
#       8
#     2   2   2   2   2   2   2   2
#     4  11  24  42  65  95 136 169 216 277 321 392
#     4  10  23  42  65  98 127 175 223 263 336 389
#     4  10  23  42  60  95 134 162 221 270 313 396
#     4  10  22  43  65  98 134 166 221 273 323 392
#     4  10  23  42  69  93 133 171 218 279 321 388
#     4  11  23  42  63  95 133 167 222 267 320 396
#     4  11  24  41  64  98 130 177 219 265 342 386
#     4  11  22  42  67  96 133 169 222 276 324 393
#
# _framework density 22.140872999999999
#
# number of rings (size 3 to 8) (size 9 to 14) (size 15 to 20)
#    0.000    1.500    2.500    1.500    3.500    3.000 
#    6.750    0.000    0.000    0.000    0.000    0.000 
#    0.000    0.000    0.000    0.000    0.000    0.000 
#
# Total GULP energy -89376.111009 kJ/mol
# GULP energy per Si atom -5586.006938 kJ/mol
# Density = 2.209048 g / cm^3
# Si number density = 22.140873 Si / 1000 Ang^3
#
#
#
# Elastic Constant Matrix: (Units=GPa)
#
#
# Indices 1 2 3 4 5 6 
#
# 1 77.9960 9.3546 27.5647 0.0000 -2.0766 0.0000
# 2 9.3546 54.1399 8.3789 0.0000 2.3084 0.0000
# 3 27.5647 8.3789 40.8857 0.0000 -5.2424 0.0000
# 4 0.0000 0.0000 0.0000 17.7121 0.0000 -10.5338
# 5 -2.0766 2.3084 -5.2424 0.0000 42.8767 0.0000
# 6 0.0000 0.0000 0.0000 -10.5338 0.0000 28.5808
#
#
#
# Elastic Compliance Matrix: (Units=1/GPa)
#
#
# Indices 1 2 3 4 5 6 
#
# 1 0.016916 -0.001164 -0.011229 0.000000 -0.000491 0.000000
# 2 -0.001164 0.019255 -0.003354 0.000000 -0.001503 0.000000
# 3 -0.011229 -0.003354 0.033190 0.000000 0.003695 0.000000
# 4 0.000000 0.000000 0.000000 0.072308 0.000000 0.026650
# 5 -0.000491 -0.001503 0.003695 0.000000 0.023832 0.000000
# 6 0.000000 0.000000 0.000000 0.026650 0.000000 0.044811
#
#
# Mechanical properties :
#
#
# Convention : Reuss Voigt Hill
#
# Bulk Modulus (GPa) = 26.40824 29.29089 27.84957
# Shear Modulus (GPa) = 19.65189 26.34879 23.00034
#
# Velocity S-wave (km/s) = 2.98247 3.45346 3.22657
# Velocity P-wave (km/s) = 4.87990 5.39999 5.14652
#
# Compressibility (1/GPa) = 0.03786697
#
# Stress axis : x y z
#
# Youngs Moduli (GPa) = 59.11485 51.93464 30.12946
#
# Poissons Ratio (x) = 0.06046 0.33833
# Poissons Ratio (y) = 0.06881 0.10105
# Poissons Ratio (z) = 0.66381 0.17419
#
# Static dielectric constant tensor:
#      x y z
#    x 1.820240 0.000000 -0.012450 
#    y 0.000000 1.836590 0.000000 
#    z -0.012450 0.000000 1.833850 
# 
# From -- ./inp_files/616.got.cif
#   From: 2010.05.17/outbox.cif.g08.bks.cpg/sg4_1_cif.got.tgz:616.got - 2010.06.03 18:43:04.
