data_PCOD9117022
_publ_section_title
;
Structure prediction by ZEFSAII (Michael W. Deem and Ramdas Pophale) SiO2 
 PCOD9117022
Probable space group: P 21
;
_chemical_formula_sum "Si O2"
_cell_formula_units_Z 16
_cell_length_a 5.968590
_cell_length_b 6.596456
_cell_length_c 17.114992
_cell_angle_alpha 90.000000
_cell_angle_beta 107.989996
_cell_angle_gamma 90.000000
_cell_volume 640.899708
_symmetry_space_group_name_H-M "P 21"
_symmetry_group_IT_number 4
_symmetry_cell_setting 'monoclinic'
loop_
_space_group_symop_operation_xyz
x,y,z
-x,1/2+y,-z
loop_
_atom_site_type_symbol
_atom_site_label
_atom_site_fract_x
_atom_site_fract_y
_atom_site_fract_z
Si Si1 0.800295 0.085900 0.042109
Si Si2 0.318430 0.846098 0.816181
Si Si3 0.513350 0.389260 0.389804
Si Si4 0.574910 0.748816 0.114470
Si Si5 0.826746 0.718718 0.373220
Si Si6 0.256098 0.540337 0.504566
Si Si7 0.067766 0.089676 0.301947
Si Si8 0.275249 0.079320 0.157866
O O1 0.733324 0.243676 0.104409
O O2 0.081827 0.087259 0.068530
O O3 0.719520 0.867226 0.064429
O O4 0.648523 0.144095 0.951236
O O5 0.585419 0.789772 0.822429
O O6 0.147286 0.742379 0.736410
O O7 0.278379 0.081694 0.824635
O O8 0.604464 0.560538 0.337704
O O9 0.461775 0.509369 0.464367
O O10 0.715308 0.232343 0.435965
O O11 0.289634 0.233784 0.352100
O O12 0.474003 0.916105 0.161404
O O13 0.031732 0.574077 0.426327
O O14 0.749690 0.853788 0.438227
O O15 0.960965 0.890225 0.333688
O O16 0.147851 0.022611 0.223762
#
# Coordination Sequence:
#
# PCOD9117022 Si02
#       8
#     2   2   2   2   2   2   2   2
#     4  10  22  42  71 106 139 178 244 311 379 448
#     4  10  24  49  67 102 149 185 248 307 368 465
#     4  12  26  47  80 109 151 197 251 319 390 455
#     4  11  22  43  76 102 139 192 238 320 382 439
#     4  12  26  47  80 109 155 196 253 322 388 456
#     4  12  24  48  72 117 142 184 256 324 372 452
#     4  11  28  52  69 109 158 208 253 303 392 485
#     4  10  26  46  67 104 149 186 253 306 367 474
#
# _framework density 24.964901000000001
#
# number of rings (size 3 to 8) (size 9 to 14) (size 15 to 20)
#    0.000    1.000    3.750    1.500    3.500    2.000 
#   18.000    0.000    0.000    0.000    0.000    0.000 
#    0.000    0.000    0.000    0.000    0.000    0.000 
#
# Total GULP energy -89427.814138 kJ/mol
# GULP energy per Si atom -5589.238384 kJ/mol
# Density = 2.490808 g / cm^3
# Si number density = 24.964901 Si / 1000 Ang^3
#
#
#
# Elastic Constant Matrix: (Units=GPa)
#
#
# Indices 1 2 3 4 5 6 
#
# 1 71.2945 45.3651 17.0327 0.0000 6.1364 0.0000
# 2 45.3651 140.8289 36.2717 0.0000 2.7450 0.0000
# 3 17.0327 36.2717 69.8353 0.0000 4.8101 0.0000
# 4 0.0000 0.0000 0.0000 45.5532 0.0000 -3.6044
# 5 6.1364 2.7450 4.8101 0.0000 50.3436 0.0000
# 6 0.0000 0.0000 0.0000 -3.6044 0.0000 44.4832
#
#
#
# Elastic Compliance Matrix: (Units=1/GPa)
#
#
# Indices 1 2 3 4 5 6 
#
# 1 0.017944 -0.005368 -0.001467 0.000000 -0.001754 0.000000
# 2 -0.005368 0.009803 -0.003816 0.000000 0.000484 0.000000
# 3 -0.001467 -0.003816 0.016743 0.000000 -0.001213 0.000000
# 4 0.000000 0.000000 0.000000 0.022094 0.000000 0.001790
# 5 -0.001754 0.000484 -0.001213 0.000000 0.020167 0.000000
# 6 0.000000 0.000000 0.000000 0.001790 0.000000 0.022625
#
#
# Mechanical properties :
#
#
# Convention : Reuss Voigt Hill
#
# Bulk Modulus (GPa) = 43.12760 53.25528 48.19144
# Shear Modulus (GPa) = 36.12513 40.29527 38.21020
#
# Velocity S-wave (km/s) = 3.80812 4.02192 3.91648
# Velocity P-wave (km/s) = 6.05380 6.55333 6.30851
#
# Compressibility (1/GPa) = 0.02318701
#
# Stress axis : x y z
#
# Youngs Moduli (GPa) = 55.73018 102.00564 59.72720
#
# Poissons Ratio (x) = 0.54757 0.08765
# Poissons Ratio (y) = 0.29916 0.22791
# Poissons Ratio (z) = 0.08178 0.38924
#
# Static dielectric constant tensor:
#      x y z
#    x 2.020580 0.000000 0.017050 
#    y 0.000000 2.012910 0.000000 
#    z 0.017050 0.000000 2.021020 
# 
# From -- ./inp_files/4211.got.cif
#   From: 2010.05.17/outbox.cif.g08.bks.cpg/sg4_3_cif.got.tgz:4211.got - 2010.06.03 18:43:04.
