data_PCOD9117131
_publ_section_title
;
Structure prediction by ZEFSAII (Michael W. Deem and Ramdas Pophale) SiO2 
 PCOD9117131
Probable space group: P 21
;
_chemical_formula_sum "Si O2"
_cell_formula_units_Z 16
_cell_length_a 5.067689
_cell_length_b 10.615594
_cell_length_c 13.362550
_cell_angle_alpha 90.000000
_cell_angle_beta 58.062438
_cell_angle_gamma 90.000000
_cell_volume 610.041607
_symmetry_space_group_name_H-M "P 21"
_symmetry_group_IT_number 4
_symmetry_cell_setting 'monoclinic'
loop_
_space_group_symop_operation_xyz
x,y,z
-x,1/2+y,-z
loop_
_atom_site_type_symbol
_atom_site_label
_atom_site_fract_x
_atom_site_fract_y
_atom_site_fract_z
Si Si1 0.307485 0.541910 0.189999
Si Si2 0.501928 0.855571 0.324521
Si Si3 0.237591 0.581705 0.617245
Si Si4 0.765196 0.331963 0.259766
Si Si5 0.804769 0.675026 0.388662
Si Si6 0.120170 0.878204 0.962097
Si Si7 0.406379 0.819351 0.113435
Si Si8 0.885967 0.905648 0.516785
O O1 0.655338 0.489123 0.123054
O O2 0.360062 0.668473 0.114531
O O3 0.048178 0.434666 0.213104
O O4 0.126488 0.601034 0.321559
O O5 0.700614 0.727446 0.301286
O O6 0.364637 0.854612 0.239426
O O7 0.234135 0.853920 0.465285
O O8 0.710174 0.977696 0.307097
O O9 0.163933 0.715084 0.681170
O O10 0.556667 0.588737 0.490896
O O11 0.033537 0.530773 0.565390
O O12 0.770418 0.277950 0.144857
O O13 0.420066 0.390733 0.352271
O O14 0.799872 0.800818 0.452228
O O15 0.205460 0.867868 0.060954
O O16 0.751942 0.873081 0.027019
#
# Coordination Sequence:
#
# PCOD9117131 Si02
#       8
#     2   2   2   2   2   2   2   2
#     4  12  26  51  84 109 164 214 279 342 410 507
#     4  11  25  44  76 119 161 225 267 342 416 490
#     4  10  24  43  72 115 176 199 270 334 411 502
#     4  11  26  48  76 127 166 217 278 339 428 490
#     4  10  22  44  73 114 157 216 266 324 420 495
#     4  12  30  52  78 123 150 223 278 348 409 480
#     4  12  29  53  82 115 162 215 295 335 415 492
#     4  10  22  43  77 120 162 215 261 334 417 496
#
# _framework density 26.227717999999999
#
# number of rings (size 3 to 8) (size 9 to 14) (size 15 to 20)
#    0.000    1.000    3.750    0.750    7.000    5.000 
#    0.000    0.000    0.000    0.000    0.000    0.000 
#    0.000    0.000    0.000    0.000    0.000    0.000 
#
# Total GULP energy -89169.312675 kJ/mol
# GULP energy per Si atom -5573.082042 kJ/mol
# Density = 2.616802 g / cm^3
# Si number density = 26.227718 Si / 1000 Ang^3
#
#
#
# Elastic Constant Matrix: (Units=GPa)
#
#
# Indices 1 2 3 4 5 6 
#
# 1 116.3390 36.0290 27.2061 0.0000 -2.0868 0.0000
# 2 36.0290 82.6367 35.1715 0.0000 1.0615 0.0000
# 3 27.2061 35.1715 150.2443 0.0000 -3.9700 0.0000
# 4 0.0000 0.0000 0.0000 24.2564 0.0000 -8.4856
# 5 -2.0868 1.0615 -3.9700 0.0000 58.2079 0.0000
# 6 0.0000 0.0000 0.0000 -8.4856 0.0000 38.7080
#
#
#
# Elastic Compliance Matrix: (Units=1/GPa)
#
#
# Indices 1 2 3 4 5 6 
#
# 1 0.010049 -0.004016 -0.000870 0.000000 0.000374 0.000000
# 2 -0.004016 0.015058 -0.002814 0.000000 -0.000610 0.000000
# 3 -0.000870 -0.002814 0.007486 0.000000 0.000531 0.000000
# 4 0.000000 0.000000 0.000000 0.044650 0.000000 0.009788
# 5 0.000374 -0.000610 0.000531 0.000000 0.017241 0.000000
# 6 0.000000 0.000000 0.000000 0.009788 0.000000 0.027980
#
#
# Mechanical properties :
#
#
# Convention : Reuss Voigt Hill
#
# Bulk Modulus (GPa) = 58.16051 60.67035 59.41543
# Shear Modulus (GPa) = 34.82019 40.95535 37.88777
#
# Velocity S-wave (km/s) = 3.64759 3.95591 3.80487
# Velocity P-wave (km/s) = 6.32165 6.63686 6.48117
#
# Compressibility (1/GPa) = 0.01719380
#
# Stress axis : x y z
#
# Youngs Moduli (GPa) = 99.50825 66.41163 133.58209
#
# Poissons Ratio (x) = 0.26672 0.11618
# Poissons Ratio (y) = 0.39964 0.37587
# Poissons Ratio (z) = 0.08654 0.18687
#
# Static dielectric constant tensor:
#      x y z
#    x 2.205320 0.000000 0.015670 
#    y 0.000000 2.140620 0.000000 
#    z 0.015670 0.000000 2.196770 
# 
# From -- ./inp_files/13411.got.cif
#   From: 2010.05.17/outbox.cif.g08.bks.cpg/sg4_7_cif.got.tgz:13411.got - 2010.06.03 18:43:04.
