data_PCOD9117941
_publ_section_title
;
Structure prediction by ZEFSAII (Michael W. Deem and Ramdas Pophale) SiO2 
 PCOD9117941
Probable space group: P 21
;
_chemical_formula_sum "Si O2"
_cell_formula_units_Z 16
_cell_length_a 12.203496
_cell_length_b 11.766461
_cell_length_c 9.439948
_cell_angle_alpha 90.000000
_cell_angle_beta 145.530332
_cell_angle_gamma 90.000000
_cell_volume 767.172518
_symmetry_space_group_name_H-M "P 21"
_symmetry_group_IT_number 4
_symmetry_cell_setting 'monoclinic'
loop_
_space_group_symop_operation_xyz
x,y,z
-x,1/2+y,-z
loop_
_atom_site_type_symbol
_atom_site_label
_atom_site_fract_x
_atom_site_fract_y
_atom_site_fract_z
Si Si1 0.039652 0.137480 0.942373
Si Si2 0.085007 0.076229 0.440727
Si Si3 0.137393 0.905886 0.893521
Si Si4 0.711527 0.922308 0.364700
Si Si5 0.139764 0.662730 0.529194
Si Si6 0.332454 0.220680 0.488123
Si Si7 0.345065 0.885744 0.836294
Si Si8 0.765961 0.155201 0.899726
O O1 0.196938 0.200527 0.207459
O O2 0.980060 0.201679 0.735793
O O3 0.847835 0.123799 0.833667
O O4 0.113017 0.012916 0.970991
O O5 0.225380 0.161156 0.505978
O O6 0.011539 0.118965 0.514610
O O7 0.215644 0.964326 0.597803
O O8 0.887630 0.076357 0.137667
O O9 0.296724 0.926924 0.944224
O O10 0.938142 0.891682 0.593160
O O11 0.173159 0.786802 0.007842
O O12 0.650845 0.851068 0.440677
O O13 0.725661 0.058771 0.381148
O O14 0.576887 0.890651 0.087904
O O15 0.271095 0.758772 0.737597
O O16 0.537266 0.159984 0.679269
#
# Coordination Sequence:
#
# PCOD9117941 Si02
#       8
#     2   2   2   2   2   2   2   2
#     4  10  24  41  67  99 141 175 233 279 349 415
#     4  11  23  41  69 100 138 177 229 292 347 411
#     4  11  21  43  67  97 133 185 217 289 348 405
#     4  11  22  40  71  94 137 181 226 281 351 404
#     4  11  24  45  68 106 139 182 232 297 351 412
#     4  11  23  45  71 100 132 197 230 283 349 430
#     4  12  24  40  71 105 140 176 235 291 353 418
#     4  11  23  45  70  95 138 183 234 278 354 419
#
# _framework density 20.855806000000001
#
# number of rings (size 3 to 8) (size 9 to 14) (size 15 to 20)
#    0.000    1.000    7.500    0.000    3.500    4.000 
#    0.000    0.000    0.000    0.000    0.000    0.000 
#    0.000    0.000    0.000    0.000    0.000    0.000 
#
# Total GULP energy -89236.901832 kJ/mol
# GULP energy per Si atom -5577.306364 kJ/mol
# Density = 2.080834 g / cm^3
# Si number density = 20.855806 Si / 1000 Ang^3
#
#
#
# Elastic Constant Matrix: (Units=GPa)
#
#
# Indices 1 2 3 4 5 6 
#
# 1 87.2042 0.5476 44.7067 0.0000 -7.3802 0.0000
# 2 0.5476 61.8948 20.0653 0.0000 3.6325 0.0000
# 3 44.7067 20.0653 123.7152 0.0000 16.4151 0.0000
# 4 0.0000 0.0000 0.0000 36.7288 0.0000 -3.9679
# 5 -7.3802 3.6325 16.4151 0.0000 32.8120 0.0000
# 6 0.0000 0.0000 0.0000 -3.9679 0.0000 32.4850
#
#
#
# Elastic Compliance Matrix: (Units=1/GPa)
#
#
# Indices 1 2 3 4 5 6 
#
# 1 0.015482 0.001659 -0.006750 0.000000 0.006675 0.000000
# 2 0.001659 0.017240 -0.003419 0.000000 0.000175 0.000000
# 3 -0.006750 -0.003419 0.012026 0.000000 -0.007156 0.000000
# 4 0.000000 0.000000 0.000000 0.027591 0.000000 0.003370
# 5 0.006675 0.000175 -0.007156 0.000000 0.035539 0.000000
# 6 0.000000 0.000000 0.000000 0.003370 0.000000 0.031195
#
#
# Mechanical properties :
#
#
# Convention : Reuss Voigt Hill
#
# Bulk Modulus (GPa) = 36.06234 44.82818 40.44526
# Shear Modulus (GPa) = 30.24172 34.23810 32.23991
#
# Velocity S-wave (km/s) = 3.81207 4.05613 3.93599
# Velocity P-wave (km/s) = 6.05843 6.59373 6.33174
#
# Compressibility (1/GPa) = 0.02772976
#
# Stress axis : x y z
#
# Youngs Moduli (GPa) = 64.59051 58.00503 83.15182
#
# Poissons Ratio (x) = -0.09625 0.56124
# Poissons Ratio (y) = -0.10718 0.28430
# Poissons Ratio (z) = 0.43596 0.19832
#
# Static dielectric constant tensor:
#      x y z
#    x 1.745060 0.000000 0.017490 
#    y 0.000000 1.770490 0.000000 
#    z 0.017490 0.000000 1.786430 
# 
# From -- ./inp_files/8482.got.cif
#   From: 2010.05.17/outbox.cif.g08.bks.cpg/sg4_5_cif.got.tgz:8482.got - 2010.06.03 18:43:04.
