data_PCOD9117392
_publ_section_title
;
Structure prediction by ZEFSAII (Michael W. Deem and Ramdas Pophale) SiO2 
 PCOD9117392
Probable space group: P 21
;
_chemical_formula_sum "Si O2"
_cell_formula_units_Z 16
_cell_length_a 6.638076
_cell_length_b 10.676971
_cell_length_c 11.431459
_cell_angle_alpha 90.000000
_cell_angle_beta 52.174506
_cell_angle_gamma 90.000000
_cell_volume 639.962143
_symmetry_space_group_name_H-M "P 21"
_symmetry_group_IT_number 4
_symmetry_cell_setting 'monoclinic'
loop_
_space_group_symop_operation_xyz
x,y,z
-x,1/2+y,-z
loop_
_atom_site_type_symbol
_atom_site_label
_atom_site_fract_x
_atom_site_fract_y
_atom_site_fract_z
Si Si1 0.237944 0.639160 0.597671
Si Si2 0.535524 0.439461 0.936400
Si Si3 0.988508 0.978089 0.798109
Si Si4 0.684089 0.721101 0.301589
Si Si5 0.198104 0.303207 0.326911
Si Si6 0.670965 0.673861 0.048362
Si Si7 0.038682 0.389015 0.631080
Si Si8 0.758051 0.240801 0.176521
O O1 0.439661 0.731972 0.470753
O O2 0.222660 0.506735 0.542880
O O3 0.303697 0.630893 0.709678
O O4 0.959791 0.698543 0.685894
O O5 0.458617 0.290169 0.976355
O O6 0.748645 0.433243 0.758806
O O7 0.248045 0.494678 0.027143
O O8 0.642087 0.538057 0.997225
O O9 0.867907 0.930468 0.719055
O O10 0.169305 0.869238 0.781938
O O11 0.150962 0.100397 0.723337
O O12 0.567854 0.692309 0.215995
O O13 0.870652 0.831984 0.276300
O O14 0.091672 0.305255 0.497960
O O15 0.494196 0.272448 0.211307
O O16 0.969003 0.702770 0.971188
#
# Coordination Sequence:
#
# PCOD9117392 Si02
#       8
#     2   2   2   2   2   2   2   2
#     4  11  25  47  69 105 146 191 251 309 377 456
#     4  11  25  49  73 113 150 203 260 311 389 462
#     4  10  26  44  75 103 148 195 249 303 381 452
#     4  12  27  47  73 114 151 194 255 325 382 450
#     4  11  25  45  77 103 145 203 246 309 377 458
#     4  11  26  48  80 110 158 203 257 323 384 465
#     4  12  26  44  72 109 148 191 257 312 374 466
#     4  10  22  50  71 107 142 200 247 302 384 453
#
# _framework density 25.001477000000001
#
# number of rings (size 3 to 8) (size 9 to 14) (size 15 to 20)
#    0.000    1.000    2.500    2.250    8.750    2.000 
#    2.250    0.000    0.000    0.000    0.000    0.000 
#    0.000    0.000    0.000    0.000    0.000    0.000 
#
# Total GULP energy -89283.176535 kJ/mol
# GULP energy per Si atom -5580.198533 kJ/mol
# Density = 2.494457 g / cm^3
# Si number density = 25.001477 Si / 1000 Ang^3
#
#
#
# Elastic Constant Matrix: (Units=GPa)
#
#
# Indices 1 2 3 4 5 6 
#
# 1 127.2157 47.9759 26.3666 0.0000 -14.3171 0.0000
# 2 47.9759 86.2396 0.1554 0.0000 -3.7882 0.0000
# 3 26.3666 0.1554 86.7150 0.0000 -18.1440 0.0000
# 4 0.0000 0.0000 0.0000 28.7171 0.0000 -1.7670
# 5 -14.3171 -3.7882 -18.1440 0.0000 42.8055 0.0000
# 6 0.0000 0.0000 0.0000 -1.7670 0.0000 28.7659
#
#
#
# Elastic Compliance Matrix: (Units=1/GPa)
#
#
# Indices 1 2 3 4 5 6 
#
# 1 0.010941 -0.005998 -0.002920 0.000000 0.001891 0.000000
# 2 -0.005998 0.014933 0.001815 0.000000 0.000085 0.000000
# 3 -0.002920 0.001815 0.013438 0.000000 0.004880 0.000000
# 4 0.000000 0.000000 0.000000 0.034955 0.000000 0.002147
# 5 0.001891 0.000085 0.004880 0.000000 0.026070 0.000000
# 6 0.000000 0.000000 0.000000 0.002147 0.000000 0.034895
#
#
# Mechanical properties :
#
#
# Convention : Reuss Voigt Hill
#
# Bulk Modulus (GPa) = 39.83436 49.90735 44.87086
# Shear Modulus (GPa) = 31.68442 35.10252 33.39347
#
# Velocity S-wave (km/s) = 3.56378 3.75109 3.65863
# Velocity P-wave (km/s) = 5.73598 6.22623 5.98613
#
# Compressibility (1/GPa) = 0.02510395
#
# Stress axis : x y z
#
# Youngs Moduli (GPa) = 91.40162 66.96647 74.41725
#
# Poissons Ratio (x) = 0.40167 0.21732
# Poissons Ratio (y) = 0.54824 -0.13505
# Poissons Ratio (z) = 0.26692 -0.12153
#
# Static dielectric constant tensor:
#      x y z
#    x 1.998330 0.000000 0.060580 
#    y 0.000000 2.001150 0.000000 
#    z 0.060580 0.000000 1.988050 
# 
# From -- ./inp_files/10389.got.cif
#   From: 2010.05.17/outbox.cif.g08.bks.cpg/sg4_6_cif.got.tgz:10389.got - 2010.06.03 18:43:04.
