data_PCOD9117363
_publ_section_title
;
Structure prediction by ZEFSAII (Michael W. Deem and Ramdas Pophale) SiO2 
 PCOD9117363
Probable space group: P 21
;
_chemical_formula_sum "Si O2"
_cell_formula_units_Z 14
_cell_length_a 7.143304
_cell_length_b 7.251676
_cell_length_c 10.739113
_cell_angle_alpha 90.000000
_cell_angle_beta 77.604095
_cell_angle_gamma 90.000000
_cell_volume 543.327418
_symmetry_space_group_name_H-M "P 21"
_symmetry_group_IT_number 4
_symmetry_cell_setting 'monoclinic'
loop_
_space_group_symop_operation_xyz
x,y,z
-x,1/2+y,-z
loop_
_atom_site_type_symbol
_atom_site_label
_atom_site_fract_x
_atom_site_fract_y
_atom_site_fract_z
Si Si1 0.077622 0.050900 0.792201
Si Si2 0.527642 0.457054 0.180391
Si Si3 0.988730 0.935808 0.151404
Si Si4 0.453370 0.173722 0.392172
Si Si5 0.890919 0.797124 0.418499
Si Si6 0.662964 0.256005 0.616378
Si Si7 0.790370 0.797562 0.932732
O O1 0.257989 0.035672 0.857565
O O2 0.942123 0.223603 0.848367
O O3 0.944814 0.879064 0.812611
O O4 0.150606 0.084736 0.102227
O O5 0.554969 0.286677 0.270226
O O6 0.407742 0.621246 0.263435
O O7 0.417153 0.368415 0.079801
O O8 0.889479 0.945580 0.303901
O O9 0.848564 0.906081 0.052503
O O10 0.572687 0.181032 0.501895
O O11 0.259738 0.293343 0.449822
O O12 0.409411 0.965973 0.357802
O O13 0.108557 0.771337 0.427550
O O14 0.837985 0.608072 0.352147
#
# Coordination Sequence:
#
# PCOD9117363 Si02
#       7
#     2   2   2   2   2   2   2
#     4  10  23  45  66 103 140 175 240 293 349 435
#     4  12  26  45  70 106 144 189 239 295 366 433
#     4  10  22  47  75 103 143 182 245 300 354 437
#     4  12  26  42  66 106 145 184 243 292 354 434
#     4  10  23  44  66 102 139 184 237 289 359 420
#     4  12  23  42  66  97 145 185 235 296 347 426
#     4  12  23  47  75 101 142 193 233 303 369 425
#
# _framework density 25.767150999999998
#
# number of rings (size 3 to 8) (size 9 to 14) (size 15 to 20)
#    0.857    0.000    5.714    0.857    2.000    3.429 
#    5.143    1.429    0.000    0.000    0.000    0.000 
#    0.000    0.000    0.000    0.000    0.000    0.000 
#
# Total GULP energy -78168.821120 kJ/mol
# GULP energy per Si atom -5583.487223 kJ/mol
# Density = 2.570850 g / cm^3
# Si number density = 25.767151 Si / 1000 Ang^3
#
#
#
# Elastic Constant Matrix: (Units=GPa)
#
#
# Indices 1 2 3 4 5 6 
#
# 1 120.2859 54.9040 10.9745 0.0000 28.0020 0.0000
# 2 54.9040 130.8514 27.8481 0.0000 0.1985 0.0000
# 3 10.9745 27.8481 47.1342 0.0000 8.4650 0.0000
# 4 0.0000 0.0000 0.0000 68.3850 0.0000 8.0321
# 5 28.0020 0.1985 8.4650 0.0000 36.2899 0.0000
# 6 0.0000 0.0000 0.0000 8.0321 0.0000 36.6046
#
#
#
# Elastic Compliance Matrix: (Units=1/GPa)
#
#
# Indices 1 2 3 4 5 6 
#
# 1 0.013431 -0.006143 0.002460 0.000000 -0.010904 0.000000
# 2 -0.006143 0.011602 -0.006538 0.000000 0.006201 0.000000
# 3 0.002460 -0.006538 0.025927 0.000000 -0.007910 0.000000
# 4 0.000000 0.000000 0.000000 0.015010 0.000000 -0.003294
# 5 -0.010904 0.006201 -0.007910 0.000000 0.037781 0.000000
# 6 0.000000 0.000000 0.000000 -0.003294 0.000000 0.028042
#
#
# Mechanical properties :
#
#
# Convention : Reuss Voigt Hill
#
# Bulk Modulus (GPa) = 32.76677 53.96942 43.36809
# Shear Modulus (GPa) = 30.78699 41.89223 36.33961
#
# Velocity S-wave (km/s) = 3.46036 4.03650 3.75948
# Velocity P-wave (km/s) = 5.35813 6.53566 5.97597
#
# Compressibility (1/GPa) = 0.03051873
#
# Stress axis : x y z
#
# Youngs Moduli (GPa) = 74.45291 86.19393 38.57023
#
# Poissons Ratio (x) = 0.52947 -0.09490
# Poissons Ratio (y) = 0.45734 0.25218
# Poissons Ratio (z) = -0.18318 0.56355
#
# Static dielectric constant tensor:
#      x y z
#    x 1.994410 0.000000 0.055870 
#    y 0.000000 2.087270 0.000000 
#    z 0.055870 0.000000 1.946290 
# 
# From -- ./inp_files/10724.got.cif
#   From: 2010.05.17/outbox.cif.g08.bks.cpg/sg4_6_cif.got.tgz:10724.got - 2010.06.03 18:43:04.
