data_PCOD9117426
_publ_section_title
;
Structure prediction by ZEFSAII (Michael W. Deem and Ramdas Pophale) SiO2 
 PCOD9117426
Probable space group: P 21
;
_chemical_formula_sum "Si O2"
_cell_formula_units_Z 14
_cell_length_a 8.550575
_cell_length_b 12.275112
_cell_length_c 5.869942
_cell_angle_alpha 90.000000
_cell_angle_beta 109.971851
_cell_angle_gamma 90.000000
_cell_volume 579.052592
_symmetry_space_group_name_H-M "P 21"
_symmetry_group_IT_number 4
_symmetry_cell_setting 'monoclinic'
loop_
_space_group_symop_operation_xyz
x,y,z
-x,1/2+y,-z
loop_
_atom_site_type_symbol
_atom_site_label
_atom_site_fract_x
_atom_site_fract_y
_atom_site_fract_z
Si Si1 0.411485 0.519740 0.285166
Si Si2 0.606570 0.660744 0.689929
Si Si3 0.754602 0.195925 0.526605
Si Si4 0.968470 0.016332 0.401433
Si Si5 0.898304 0.377374 0.899230
Si Si6 0.289308 0.025070 0.884244
Si Si7 0.188469 0.337300 0.365406
O O1 0.543697 0.546728 0.552010
O O2 0.283784 0.618978 0.270359
O O3 0.524672 0.521335 0.120993
O O4 0.314087 0.410060 0.277312
O O5 0.431058 0.718851 0.657768
O O6 0.710759 0.726393 0.553947
O O7 0.714948 0.632951 0.961794
O O8 0.861226 0.123434 0.405514
O O9 0.842752 0.302327 0.663374
O O10 0.139799 0.025259 0.628685
O O11 0.863333 0.913969 0.451595
O O12 0.013655 0.983946 0.167621
O O13 0.749156 0.420193 0.979880
O O14 0.026724 0.318988 0.131043
#
# Coordination Sequence:
#
# PCOD9117426 Si02
#       7
#     2   2   2   2   2   2   2
#     4   9  23  41  65  93 133 162 224 281 321 392
#     4  10  23  39  68  92 132 167 220 280 320 397
#     4   9  23  44  62  95 132 173 217 274 332 372
#     4  10  23  43  65  92 138 170 218 277 320 401
#     4  11  24  42  69  96 137 175 223 272 320 416
#     4  11  23  39  66  97 123 180 212 271 337 382
#     4  10  23  42  65  95 123 179 222 265 344 382
#
# _framework density 24.177422
#
# number of rings (size 3 to 8) (size 9 to 14) (size 15 to 20)
#    0.857    1.143    0.000    1.714    6.000    4.571 
#    2.571    0.000    0.000    0.000    0.000    0.000 
#    0.000    0.000    0.000    0.000    0.000    0.000 
#
# Total GULP energy -78213.549075 kJ/mol
# GULP energy per Si atom -5586.682077 kJ/mol
# Density = 2.412239 g / cm^3
# Si number density = 24.177422 Si / 1000 Ang^3
#
#
#
# Elastic Constant Matrix: (Units=GPa)
#
#
# Indices 1 2 3 4 5 6 
#
# 1 103.7774 45.7843 5.1026 0.0000 -22.9111 0.0000
# 2 45.7843 57.2284 4.2838 0.0000 6.8776 0.0000
# 3 5.1026 4.2838 30.1247 0.0000 7.6896 0.0000
# 4 0.0000 0.0000 0.0000 19.3589 0.0000 2.7483
# 5 -22.9111 6.8776 7.6896 0.0000 39.6207 0.0000
# 6 0.0000 0.0000 0.0000 2.7483 0.0000 46.8887
#
#
#
# Elastic Compliance Matrix: (Units=1/GPa)
#
#
# Indices 1 2 3 4 5 6 
#
# 1 0.022395 -0.019601 -0.005450 0.000000 0.017411 0.000000
# 2 -0.019601 0.035099 0.002922 0.000000 -0.017995 0.000000
# 3 -0.005450 0.002922 0.036442 0.000000 -0.010732 0.000000
# 4 0.000000 0.000000 0.000000 0.052089 0.000000 -0.003053
# 5 0.017411 -0.017995 -0.010732 0.000000 0.040514 0.000000
# 6 0.000000 0.000000 0.000000 -0.003053 0.000000 0.021506
#
#
# Mechanical properties :
#
#
# Convention : Reuss Voigt Hill
#
# Bulk Modulus (GPa) = 20.12957 33.49687 26.81322
# Shear Modulus (GPa) = 18.59672 30.23766 24.41719
#
# Velocity S-wave (km/s) = 2.77641 3.54030 3.18137
# Velocity P-wave (km/s) = 4.31530 5.53139 4.96075
#
# Compressibility (1/GPa) = 0.04967815
#
# Stress axis : x y z
#
# Youngs Moduli (GPa) = 44.65186 28.49055 27.44066
#
# Poissons Ratio (x) = 0.55846 0.14956
# Poissons Ratio (y) = 0.87524 -0.08019
# Poissons Ratio (z) = 0.24336 -0.08325
#
# Static dielectric constant tensor:
#      x y z
#    x 1.941060 0.000000 -0.023400 
#    y 0.000000 1.964800 0.000000 
#    z -0.023400 0.000000 1.902770 
# 
# From -- ./inp_files/1670.got.cif
#   From: 2010.05.17/outbox.cif.g08.bks.cpg/sg4_1_cif.got.tgz:1670.got - 2010.06.03 18:43:04.
