data_PCOD9117740
_publ_section_title
;
Structure prediction by ZEFSAII (Michael W. Deem and Ramdas Pophale) SiO2 
 PCOD9117740
Probable space group: P 21
;
_chemical_formula_sum "Si O2"
_cell_formula_units_Z 14
_cell_length_a 17.404400
_cell_length_b 4.911101
_cell_length_c 12.225601
_cell_angle_alpha 90.000000
_cell_angle_beta 147.729425
_cell_angle_gamma 90.000000
_cell_volume 557.934031
_symmetry_space_group_name_H-M "P 21"
_symmetry_group_IT_number 4
_symmetry_cell_setting 'monoclinic'
loop_
_space_group_symop_operation_xyz
x,y,z
-x,1/2+y,-z
loop_
_atom_site_type_symbol
_atom_site_label
_atom_site_fract_x
_atom_site_fract_y
_atom_site_fract_z
Si Si1 0.812504 0.675110 0.245243
Si Si2 0.118795 0.033783 0.985366
Si Si3 0.854759 0.309804 0.739076
Si Si4 0.928037 0.174070 0.274663
Si Si5 0.548404 0.486123 0.626914
Si Si6 0.328898 0.313429 0.541614
Si Si7 0.583760 0.955867 0.110461
O O1 0.817650 0.368994 0.209010
O O2 0.669452 0.815010 0.115232
O O3 0.923104 0.695977 0.479995
O O4 0.875632 0.866709 0.225287
O O5 0.064008 0.814329 0.832185
O O6 0.117747 0.910046 0.105890
O O7 0.287373 0.083948 0.163016
O O8 0.004565 0.278356 0.855115
O O9 0.736643 0.512392 0.545111
O O10 0.213613 0.510534 0.345927
O O11 0.539389 0.241607 0.527623
O O12 0.474451 0.366029 0.647128
O O13 0.347839 0.399786 0.689476
O O14 0.438511 0.774675 0.933777
#
# Coordination Sequence:
#
# PCOD9117740 Si02
#       7
#     2   2   2   2   2   2   2
#     4  10  23  45  66 101 137 180 239 294 375 410
#     4  12  27  46  77 110 145 193 260 299 370 451
#     4  12  27  47  74 110 151 194 252 311 373 449
#     4  10  24  44  73  97 138 185 233 309 355 432
#     4  12  26  48  73 109 154 201 241 307 377 458
#     4  12  26  51  72 107 157 201 238 315 389 433
#     4  12  27  45  73 106 142 192 249 301 357 459
#
# _framework density 25.092573000000002
#
# number of rings (size 3 to 8) (size 9 to 14) (size 15 to 20)
#    0.000    0.571    2.857    3.429    4.000    9.143 
#    0.000    0.000    0.000    0.000    0.000    0.000 
#    0.000    0.000    0.000    0.000    0.000    0.000 
#
# Total GULP energy -78480.073290 kJ/mol
# GULP energy per Si atom -5605.719521 kJ/mol
# Density = 2.503546 g / cm^3
# Si number density = 25.092573 Si / 1000 Ang^3
#
#
#
# Elastic Constant Matrix: (Units=GPa)
#
#
# Indices 1 2 3 4 5 6 
#
# 1 107.8138 2.0890 33.1735 0.0000 20.7443 0.0000
# 2 2.0890 83.2428 4.0961 0.0000 13.0042 0.0000
# 3 33.1735 4.0961 65.4752 0.0000 1.1370 0.0000
# 4 0.0000 0.0000 0.0000 20.9712 0.0000 2.5128
# 5 20.7443 13.0042 1.1370 0.0000 50.9796 0.0000
# 6 0.0000 0.0000 0.0000 2.5128 0.0000 30.3575
#
#
#
# Elastic Compliance Matrix: (Units=1/GPa)
#
#
# Indices 1 2 3 4 5 6 
#
# 1 0.012092 0.000774 -0.006089 0.000000 -0.004982 0.000000
# 2 0.000774 0.012596 -0.001120 0.000000 -0.003503 0.000000
# 3 -0.006089 -0.001120 0.018387 0.000000 0.002353 0.000000
# 4 0.000000 0.000000 0.000000 0.048162 0.000000 -0.003987
# 5 -0.004982 -0.003503 0.002353 0.000000 0.022484 0.000000
# 6 0.000000 0.000000 0.000000 -0.003987 0.000000 0.033271
#
#
# Mechanical properties :
#
#
# Convention : Reuss Voigt Hill
#
# Bulk Modulus (GPa) = 33.10390 37.24988 35.17689
# Shear Modulus (GPa) = 29.42406 34.93988 32.18197
#
# Velocity S-wave (km/s) = 3.42807 3.73559 3.58513
# Velocity P-wave (km/s) = 5.37496 5.78648 5.58451
#
# Compressibility (1/GPa) = 0.03020792
#
# Stress axis : x y z
#
# Youngs Moduli (GPa) = 82.69719 79.39034 54.38635
#
# Poissons Ratio (x) = -0.06149 0.33114
# Poissons Ratio (y) = -0.06405 0.06089
# Poissons Ratio (z) = 0.50351 0.08888
#
# Static dielectric constant tensor:
#      x y z
#    x 2.021030 0.000000 0.058720 
#    y 0.000000 1.905010 0.000000 
#    z 0.058720 0.000000 1.970530 
# 
# From -- ./inp_files/12771.got.cif
#   From: 2010.05.17/outbox.cif.g08.bks.cpg/sg4_7_cif.got.tgz:12771.got - 2010.06.03 18:43:04.
