data_PCOD9117562
_publ_section_title
;
Structure prediction by ZEFSAII (Michael W. Deem and Ramdas Pophale) SiO2 
 PCOD9117562
Probable space group: P 21
;
_chemical_formula_sum "Si O2"
_cell_formula_units_Z 12
_cell_length_a 11.420845
_cell_length_b 8.604214
_cell_length_c 7.990172
_cell_angle_alpha 90.000000
_cell_angle_beta 142.779728
_cell_angle_gamma 90.000000
_cell_volume 474.936383
_symmetry_space_group_name_H-M "P 21"
_symmetry_group_IT_number 4
_symmetry_cell_setting 'monoclinic'
loop_
_space_group_symop_operation_xyz
x,y,z
-x,1/2+y,-z
loop_
_atom_site_type_symbol
_atom_site_label
_atom_site_fract_x
_atom_site_fract_y
_atom_site_fract_z
Si Si1 0.917501 0.642790 0.027483
Si Si2 0.545091 0.241669 0.911194
Si Si3 0.315449 0.955201 0.492110
Si Si4 0.251565 0.524223 0.635056
Si Si5 0.236039 0.721111 0.162481
Si Si6 0.895751 0.933141 0.172116
O O1 0.093363 0.551143 0.312967
O O2 0.021293 0.743330 0.996832
O O3 0.837086 0.756942 0.075539
O O4 0.755797 0.543818 0.756352
O O5 0.450704 0.078623 0.738989
O O6 0.394963 0.381754 0.759138
O O7 0.700925 0.288354 0.945758
O O8 0.639728 0.185765 0.192583
O O9 0.368524 0.791205 0.461923
O O10 0.122649 0.943082 0.386093
O O11 0.142944 0.485090 0.684993
O O12 0.219794 0.539434 0.093042
#
# Coordination Sequence:
#
# PCOD9117562 Si02
#       6
#     2   2   2   2   2   2
#     4  10  23  42  69  96 124 173 228 274 324 385
#     4  11  27  43  64  98 141 178 215 270 338 397
#     4  10  23  42  69  96 124 173 228 274 324 385
#     4  11  27  43  64  98 141 178 215 270 338 397
#     4   9  22  43  66  93 130 169 223 271 327 385
#     4   9  22  43  66  93 130 169 223 271 327 385
#
# _framework density 25.266541
#
# number of rings (size 3 to 8) (size 9 to 14) (size 15 to 20)
#    0.000    2.000    0.000    0.000   18.667    4.000 
#    0.000    0.000    0.000    0.000    0.000    0.000 
#    0.000    0.000    0.000    0.000    0.000    0.000 
#
# Total GULP energy -66995.203197 kJ/mol
# GULP energy per Si atom -5582.933600 kJ/mol
# Density = 2.520903 g / cm^3
# Si number density = 25.266541 Si / 1000 Ang^3
#
#
#
# Elastic Constant Matrix: (Units=GPa)
#
#
# Indices 1 2 3 4 5 6 
#
# 1 93.9442 28.6065 21.6025 0.0000 -17.1662 0.0000
# 2 28.6065 86.5754 39.9504 0.0000 -6.4326 0.0000
# 3 21.6025 39.9504 113.4048 0.0000 -22.1073 0.0000
# 4 0.0000 0.0000 0.0000 56.0595 0.0000 2.7072
# 5 -17.1662 -6.4326 -22.1073 0.0000 34.3773 0.0000
# 6 0.0000 0.0000 0.0000 2.7072 0.0000 40.4272
#
#
#
# Elastic Compliance Matrix: (Units=1/GPa)
#
#
# Indices 1 2 3 4 5 6 
#
# 1 0.012850 -0.003828 0.000014 0.000000 0.005709 0.000000
# 2 -0.003828 0.014945 -0.004988 0.000000 -0.002323 0.000000
# 3 0.000014 -0.004988 0.011882 0.000000 0.006714 0.000000
# 4 0.000000 0.000000 0.000000 0.017896 0.000000 -0.001198
# 5 0.005709 -0.002323 0.006714 0.000000 0.035823 0.000000
# 6 0.000000 0.000000 0.000000 -0.001198 0.000000 0.024816
#
#
# Mechanical properties :
#
#
# Convention : Reuss Voigt Hill
#
# Bulk Modulus (GPa) = 45.30833 52.69369 49.00101
# Shear Modulus (GPa) = 34.92232 39.75711 37.33972
#
# Velocity S-wave (km/s) = 3.72177 3.97105 3.84843
# Velocity P-wave (km/s) = 6.03654 6.47503 6.25963
#
# Compressibility (1/GPa) = 0.02207100
#
# Stress axis : x y z
#
# Youngs Moduli (GPa) = 77.81846 66.91259 84.16395
#
# Poissons Ratio (x) = 0.25615 -0.00115
# Poissons Ratio (y) = 0.29790 0.41985
# Poissons Ratio (z) = -0.00107 0.33379
#
# Static dielectric constant tensor:
#      x y z
#    x 1.993890 0.000000 0.031670 
#    y 0.000000 2.180910 0.000000 
#    z 0.031670 0.000000 2.011360 
# 
# From -- ./inp_files/7908.got.cif
#   From: 2010.05.17/outbox.cif.g08.bks.cpg/sg4_4_cif.got.tgz:7908.got - 2010.06.03 18:43:04.
