data_PCOD9117700
_publ_section_title
;
Structure prediction by ZEFSAII (Michael W. Deem and Ramdas Pophale) SiO2 
 PCOD9117700
Probable space group: P 21
;
_chemical_formula_sum "Si O2"
_cell_formula_units_Z 16
_cell_length_a 8.641227
_cell_length_b 5.199179
_cell_length_c 16.028155
_cell_angle_alpha 90.000000
_cell_angle_beta 68.918869
_cell_angle_gamma 90.000000
_cell_volume 671.906579
_symmetry_space_group_name_H-M "P 21"
_symmetry_group_IT_number 4
_symmetry_cell_setting 'monoclinic'
loop_
_space_group_symop_operation_xyz
x,y,z
-x,1/2+y,-z
loop_
_atom_site_type_symbol
_atom_site_label
_atom_site_fract_x
_atom_site_fract_y
_atom_site_fract_z
Si Si1 0.287887 0.676880 0.031670
Si Si2 0.483768 0.709214 0.148044
Si Si3 0.724132 0.324890 0.153376
Si Si4 0.187572 0.376317 0.283424
Si Si5 0.951583 0.595209 0.458497
Si Si6 0.450242 0.074019 0.299162
Si Si7 0.094555 0.178878 0.129206
Si Si8 0.578414 0.393782 0.522178
O O1 0.449944 0.727135 0.057015
O O2 0.208496 0.404129 0.069046
O O3 0.160007 0.903699 0.084483
O O4 0.319564 0.695955 0.927532
O O5 0.663382 0.614154 0.144019
O O6 0.343383 0.509731 0.207383
O O7 0.433696 0.950752 0.211721
O O8 0.911405 0.253236 0.134775
O O9 0.615120 0.240219 0.254325
O O10 0.103018 0.205578 0.228075
O O11 0.058704 0.564463 0.352701
O O12 0.280521 0.229351 0.340544
O O13 0.764374 0.502155 0.475403
O O14 0.978187 0.881787 0.489253
O O15 0.458024 0.873684 0.371864
O O16 0.458603 0.621079 0.512226
#
# Coordination Sequence:
#
# PCOD9117700 Si02
#       8
#     2   2   2   2   2   2   2   2
#     4  11  25  46  69 101 147 187 242 282 352 417
#     4  10  24  42  71 100 141 188 235 292 340 433
#     4  11  27  40  73 103 144 188 234 295 355 419
#     4  10  23  44  69 100 136 186 240 285 351 425
#     4  12  25  45  78 103 136 189 240 289 357 436
#     4  11  24  47  69 101 145 182 238 291 360 420
#     4  11  25  45  67 104 141 189 235 297 345 416
#     4  12  29  49  72 108 148 183 230 307 368 426
#
# _framework density 23.812836000000001
#
# number of rings (size 3 to 8) (size 9 to 14) (size 15 to 20)
#    0.000    1.000    2.500    2.250   10.500    0.000 
#    2.250    0.000    0.000    0.000    0.000    0.000 
#    0.000    0.000    0.000    0.000    0.000    0.000 
#
# Total GULP energy -89463.390300 kJ/mol
# GULP energy per Si atom -5591.461894 kJ/mol
# Density = 2.375864 g / cm^3
# Si number density = 23.812836 Si / 1000 Ang^3
#
#
#
# Elastic Constant Matrix: (Units=GPa)
#
#
# Indices 1 2 3 4 5 6 
#
# 1 113.8030 13.7614 17.6467 0.0000 -4.1813 0.0000
# 2 13.7614 61.1876 4.9957 0.0000 -6.7782 0.0000
# 3 17.6467 4.9957 91.2623 0.0000 5.4460 0.0000
# 4 0.0000 0.0000 0.0000 30.6300 0.0000 8.4855
# 5 -4.1813 -6.7782 5.4460 0.0000 20.1936 0.0000
# 6 0.0000 0.0000 0.0000 8.4855 0.0000 28.0173
#
#
#
# Elastic Compliance Matrix: (Units=1/GPa)
#
#
# Indices 1 2 3 4 5 6 
#
# 1 0.009349 -0.001750 -0.001822 0.000000 0.001840 0.000000
# 2 -0.001750 0.017453 -0.000960 0.000000 0.005755 0.000000
# 3 -0.001822 -0.000960 0.011591 0.000000 -0.003825 0.000000
# 4 0.000000 0.000000 0.000000 0.035638 0.000000 -0.010793
# 5 0.001840 0.005755 -0.003825 0.000000 0.052865 0.000000
# 6 0.000000 0.000000 0.000000 -0.010793 0.000000 0.038961
#
#
# Mechanical properties :
#
#
# Convention : Reuss Voigt Hill
#
# Bulk Modulus (GPa) = 34.09739 37.67338 35.88538
# Shear Modulus (GPa) = 27.07151 31.09146 29.08149
#
# Velocity S-wave (km/s) = 3.37537 3.61731 3.49843
# Velocity P-wave (km/s) = 5.43515 5.77075 5.60546
#
# Compressibility (1/GPa) = 0.02932776
#
# Stress axis : x y z
#
# Youngs Moduli (GPa) = 106.96547 57.29771 86.27739
#
# Poissons Ratio (x) = 0.10028 0.15717
# Poissons Ratio (y) = 0.18720 0.08286
# Poissons Ratio (z) = 0.19486 0.05503
#
# Static dielectric constant tensor:
#      x y z
#    x 1.905650 0.000000 -0.002420 
#    y 0.000000 1.981660 0.000000 
#    z -0.002420 0.000000 1.933650 
# 
# From -- ./inp_files/8716.got.cif
#   From: 2010.05.17/outbox.cif.g08.bks.cpg/sg4_5_cif.got.tgz:8716.got - 2010.06.03 18:43:04.
