data_PCOD9117968
_publ_section_title
;
Structure prediction by ZEFSAII (Michael W. Deem and Ramdas Pophale) SiO2 
 PCOD9117968
Probable space group: P 21
;
_chemical_formula_sum "Si O2"
_cell_formula_units_Z 16
_cell_length_a 6.768394
_cell_length_b 6.296956
_cell_length_c 22.136045
_cell_angle_alpha 90.000000
_cell_angle_beta 49.473791
_cell_angle_gamma 90.000000
_cell_volume 717.120411
_symmetry_space_group_name_H-M "P 21"
_symmetry_group_IT_number 4
_symmetry_cell_setting 'monoclinic'
loop_
_space_group_symop_operation_xyz
x,y,z
-x,1/2+y,-z
loop_
_atom_site_type_symbol
_atom_site_label
_atom_site_fract_x
_atom_site_fract_y
_atom_site_fract_z
Si Si1 0.395853 0.807530 0.664687
Si Si2 0.727078 0.243025 0.083271
Si Si3 0.964193 0.063826 0.347536
Si Si4 0.784331 0.729417 0.289946
Si Si5 0.046902 0.125255 0.467148
Si Si6 0.317683 0.557818 0.128454
Si Si7 0.582518 0.049975 0.229879
Si Si8 0.287442 0.400554 0.003767
O O1 0.155479 0.750207 0.669619
O O2 0.642058 0.664124 0.599609
O O3 0.344508 0.757366 0.745108
O O4 0.435637 0.056632 0.652006
O O5 0.510773 0.425239 0.133369
O O6 0.703168 0.067952 0.140351
O O7 0.672816 0.134420 0.030481
O O8 0.015847 0.327816 0.029497
O O9 0.913144 0.101890 0.428005
O O10 0.274204 0.042769 0.281804
O O11 0.840046 0.861379 0.339264
O O12 0.058054 0.629915 0.213838
O O13 0.686966 0.866900 0.252621
O O14 0.974303 0.374801 0.503505
O O15 0.484234 0.753154 0.067768
O O16 0.253545 0.416671 0.082221
#
# Coordination Sequence:
#
# PCOD9117968 Si02
#       8
#     2   2   2   2   2   2   2   2
#     4  10  24  46  73 107 147 191 240 297 357 436
#     4  12  25  43  63  92 131 184 235 302 379 440
#     4  10  24  46  73 107 148 190 243 297 356 441
#     4  11  25  42  76 104 140 191 246 311 362 439
#     4  11  28  48  81 117 161 203 245 300 367 448
#     4  12  26  43  64  97 137 185 244 307 381 438
#     4  10  24  42  68 101 136 179 246 301 363 439
#     4  12  26  40  62  91 134 179 239 307 375 451
#
# _framework density 22.311457999999998
#
# number of rings (size 3 to 8) (size 9 to 14) (size 15 to 20)
#    0.000    1.000    2.500    2.250   10.500    7.000 
#    0.000    0.000    0.000    0.000    0.000    0.000 
#    0.000    0.000    0.000    0.000    0.000    0.000 
#
# Total GULP energy -89234.388076 kJ/mol
# GULP energy per Si atom -5577.149255 kJ/mol
# Density = 2.226068 g / cm^3
# Si number density = 22.311458 Si / 1000 Ang^3
#
#
#
# Elastic Constant Matrix: (Units=GPa)
#
#
# Indices 1 2 3 4 5 6 
#
# 1 120.1354 42.2284 32.0617 0.0000 16.0677 0.0000
# 2 42.2284 101.0327 31.8980 0.0000 2.9329 0.0000
# 3 32.0617 31.8980 60.9503 0.0000 7.7224 0.0000
# 4 0.0000 0.0000 0.0000 33.4085 0.0000 -16.2063
# 5 16.0677 2.9329 7.7224 0.0000 35.7611 0.0000
# 6 0.0000 0.0000 0.0000 -16.2063 0.0000 16.4379
#
#
#
# Elastic Compliance Matrix: (Units=1/GPa)
#
#
# Indices 1 2 3 4 5 6 
#
# 1 0.010964 -0.003359 -0.003516 0.000000 -0.003891 0.000000
# 2 -0.003359 0.012891 -0.005178 0.000000 0.001570 0.000000
# 3 -0.003516 -0.005178 0.021295 0.000000 -0.002594 0.000000
# 4 0.000000 0.000000 0.000000 0.057370 0.000000 0.056562
# 5 -0.003891 0.001570 -0.002594 0.000000 0.030143 0.000000
# 6 0.000000 0.000000 0.000000 0.056562 0.000000 0.116600
#
#
# Mechanical properties :
#
#
# Convention : Reuss Voigt Hill
#
# Bulk Modulus (GPa) = 47.52333 54.94384 51.23358
# Shear Modulus (GPa) = 17.83260 28.85017 23.34138
#
# Velocity S-wave (km/s) = 2.83018 3.59982 3.23795
# Velocity P-wave (km/s) = 5.65916 6.47747 6.08209
#
# Compressibility (1/GPa) = 0.02104230
#
# Stress axis : x y z
#
# Youngs Moduli (GPa) = 91.21096 77.57210 46.95911
#
# Poissons Ratio (x) = 0.26059 0.16511
# Poissons Ratio (y) = 0.30641 0.24317
# Poissons Ratio (z) = 0.32070 0.40170
#
# Static dielectric constant tensor:
#      x y z
#    x 1.786480 0.000000 -0.011890 
#    y 0.000000 1.922780 0.000000 
#    z -0.011890 0.000000 1.829460 
# 
# From -- ./inp_files/3965.got.cif
#   From: 2010.05.17/outbox.cif.g08.bks.cpg/sg4_2_cif.got.tgz:3965.got - 2010.06.03 18:43:04.
