data_PCOD9117689
_publ_section_title
;
Structure prediction by ZEFSAII (Michael W. Deem and Ramdas Pophale) SiO2 
 PCOD9117689
Probable space group: P 21
;
_chemical_formula_sum "Si O2"
_cell_formula_units_Z 14
_cell_length_a 7.929130
_cell_length_b 9.103863
_cell_length_c 8.716303
_cell_angle_alpha 90.000000
_cell_angle_beta 122.291797
_cell_angle_gamma 90.000000
_cell_volume 531.880577
_symmetry_space_group_name_H-M "P 21"
_symmetry_group_IT_number 4
_symmetry_cell_setting 'monoclinic'
loop_
_space_group_symop_operation_xyz
x,y,z
-x,1/2+y,-z
loop_
_atom_site_type_symbol
_atom_site_label
_atom_site_fract_x
_atom_site_fract_y
_atom_site_fract_z
Si Si1 0.962015 0.548190 0.156025
Si Si2 0.686601 0.114517 0.146155
Si Si3 0.322501 0.100528 0.204746
Si Si4 0.657141 0.723751 0.206446
Si Si5 0.663355 0.467282 0.455995
Si Si6 0.000349 0.820830 0.553165
Si Si7 0.274154 0.415159 0.131231
O O1 0.830870 0.673523 0.173386
O O2 0.987838 0.435169 0.305482
O O3 0.175501 0.548636 0.177846
O O4 0.823452 0.486176 0.952713
O O5 0.526017 0.090718 0.204601
O O6 0.892078 0.175755 0.320157
O O7 0.554603 0.234745 0.982962
O O8 0.711678 0.977342 0.037760
O O9 0.344041 0.048883 0.387754
O O10 0.187255 0.250747 0.116984
O O11 0.635191 0.583582 0.306123
O O12 0.775868 0.826985 0.380556
O O13 0.857635 0.372506 0.516269
O O14 0.474139 0.369863 0.322836
#
# Coordination Sequence:
#
# PCOD9117689 Si02
#       7
#     2   2   2   2   2   2   2
#     4  10  25  42  66 107 134 180 238 281 355 418
#     4  10  24  45  72  99 138 189 231 283 356 413
#     4  11  24  46  66 101 145 177 240 290 347 428
#     4   9  22  45  67 101 140 177 237 282 343 422
#     4  10  23  44  68 105 137 183 238 284 355 419
#     4  11  22  49  70  99 142 183 233 294 343 417
#     4  11  24  45  69 100 144 183 233 292 353 417
#
# _framework density 26.321698000000001
#
# number of rings (size 3 to 8) (size 9 to 14) (size 15 to 20)
#    0.000    1.714    1.429    1.714    6.000    2.286 
#   12.857    1.429    0.000    0.000    0.000    0.000 
#    0.000    0.000    0.000    0.000    0.000    0.000 
#
# Total GULP energy -78012.820289 kJ/mol
# GULP energy per Si atom -5572.344306 kJ/mol
# Density = 2.626179 g / cm^3
# Si number density = 26.321698 Si / 1000 Ang^3
#
#
#
# Elastic Constant Matrix: (Units=GPa)
#
#
# Indices 1 2 3 4 5 6 
#
# 1 60.9802 18.6260 17.8984 0.0000 -9.2859 0.0000
# 2 18.6260 68.1821 26.6717 0.0000 -6.2669 0.0000
# 3 17.8984 26.6717 148.4716 0.0000 -11.6847 0.0000
# 4 0.0000 0.0000 0.0000 37.7456 0.0000 4.2262
# 5 -9.2859 -6.2669 -11.6847 0.0000 46.1657 0.0000
# 6 0.0000 0.0000 0.0000 4.2262 0.0000 33.8170
#
#
#
# Elastic Compliance Matrix: (Units=1/GPa)
#
#
# Indices 1 2 3 4 5 6 
#
# 1 0.018509 -0.004314 -0.001234 0.000000 0.002825 0.000000
# 2 -0.004314 0.016877 -0.002448 0.000000 0.000804 0.000000
# 3 -0.001234 -0.002448 0.007426 0.000000 0.001299 0.000000
# 4 0.000000 0.000000 0.000000 0.026869 0.000000 -0.003358
# 5 0.002825 0.000804 0.001299 0.000000 0.022667 0.000000
# 6 0.000000 0.000000 0.000000 -0.003358 0.000000 0.029991
#
#
# Mechanical properties :
#
#
# Convention : Reuss Voigt Hill
#
# Bulk Modulus (GPa) = 37.28700 44.89179 41.08939
# Shear Modulus (GPa) = 33.95106 37.84152 35.89629
#
# Velocity S-wave (km/s) = 3.59535 3.79576 3.69691
# Velocity P-wave (km/s) = 5.60642 6.02515 5.81955
#
# Compressibility (1/GPa) = 0.02681900
#
# Stress axis : x y z
#
# Youngs Moduli (GPa) = 54.02844 59.25317 134.65961
#
# Poissons Ratio (x) = 0.25561 0.16617
# Poissons Ratio (y) = 0.23307 0.32971
# Poissons Ratio (z) = 0.06667 0.14508
#
# Static dielectric constant tensor:
#      x y z
#    x 2.191100 0.000000 0.108630 
#    y 0.000000 2.357900 0.000000 
#    z 0.108630 0.000000 2.189060 
# 
# From -- ./inp_files/5777.got.cif
#   From: 2010.05.17/outbox.cif.g08.bks.cpg/sg4_3_cif.got.tgz:5777.got - 2010.06.03 18:43:04.
