data_PCOD9117157
_publ_section_title
;
Structure prediction by ZEFSAII (Michael W. Deem and Ramdas Pophale) SiO2 
 PCOD9117157
Probable space group: P 21
;
_chemical_formula_sum "Si O2"
_cell_formula_units_Z 14
_cell_length_a 11.455137
_cell_length_b 7.904092
_cell_length_c 12.271580
_cell_angle_alpha 90.000000
_cell_angle_beta 33.712639
_cell_angle_gamma 90.000000
_cell_volume 616.690986
_symmetry_space_group_name_H-M "P 21"
_symmetry_group_IT_number 4
_symmetry_cell_setting 'monoclinic'
loop_
_space_group_symop_operation_xyz
x,y,z
-x,1/2+y,-z
loop_
_atom_site_type_symbol
_atom_site_label
_atom_site_fract_x
_atom_site_fract_y
_atom_site_fract_z
Si Si1 0.272485 0.121680 0.086450
Si Si2 0.706066 0.012834 0.648942
Si Si3 0.094452 0.152439 0.445011
Si Si4 0.829910 0.629285 0.214692
Si Si5 0.026024 0.448946 0.246499
Si Si6 0.067671 0.652642 0.812133
Si Si7 0.576748 0.936925 0.503796
O O1 0.494856 0.058172 0.875497
O O2 0.239113 0.073507 0.237952
O O3 0.228540 0.326849 0.109746
O O4 0.094161 0.049426 0.141801
O O5 0.812773 0.835014 0.599317
O O6 0.647631 0.991353 0.569111
O O7 0.873209 0.156378 0.552346
O O8 0.053043 0.045041 0.585758
O O9 0.670982 0.756278 0.398973
O O10 0.669948 0.475762 0.309526
O O11 0.016778 0.579523 0.152936
O O12 0.930516 0.698947 0.024781
O O13 0.873510 0.305486 0.314657
O O14 0.274428 0.555411 0.686718
#
# Coordination Sequence:
#
# PCOD9117157 Si02
#       7
#     2   2   2   2   2   2   2
#     4  10  24  46  74 106 147 195 247 317 374 446
#     4  12  24  48  76 107 147 198 252 309 384 441
#     4  12  24  47  75 108 151 192 250 312 374 462
#     4  12  24  43  72 105 146 193 253 301 378 454
#     4  10  22  46  71 106 150 194 243 311 378 442
#     4  10  22  44  67 102 143 187 240 311 361 439
#     4  12  24  42  73 102 146 197 243 307 375 444
#
# _framework density 22.701808
#
# number of rings (size 3 to 8) (size 9 to 14) (size 15 to 20)
#    0.857    0.000    5.714    1.714    0.000    1.143 
#    0.000    2.857    0.000    0.000    0.000    0.000 
#    0.000    0.000    0.000    0.000    0.000    0.000 
#
# Total GULP energy -78009.965589 kJ/mol
# GULP energy per Si atom -5572.140399 kJ/mol
# Density = 2.265014 g / cm^3
# Si number density = 22.701808 Si / 1000 Ang^3
#
#
#
# Elastic Constant Matrix: (Units=GPa)
#
#
# Indices 1 2 3 4 5 6 
#
# 1 119.9579 38.4774 57.7391 0.0000 22.0400 0.0000
# 2 38.4774 72.8441 31.5091 0.0000 1.1574 0.0000
# 3 57.7391 31.5091 123.7812 0.0000 7.9969 0.0000
# 4 0.0000 0.0000 0.0000 31.4834 0.0000 -0.7460
# 5 22.0400 1.1574 7.9969 0.0000 43.7336 0.0000
# 6 0.0000 0.0000 0.0000 -0.7460 0.0000 35.1011
#
#
#
# Elastic Compliance Matrix: (Units=1/GPa)
#
#
# Indices 1 2 3 4 5 6 
#
# 1 0.013112 -0.004887 -0.004507 0.000000 -0.005654 0.000000
# 2 -0.004887 0.017252 -0.002269 0.000000 0.002421 0.000000
# 3 -0.004507 -0.002269 0.010735 0.000000 0.000368 0.000000
# 4 0.000000 0.000000 0.000000 0.031779 0.000000 0.000675
# 5 -0.005654 0.002421 0.000368 0.000000 0.025584 0.000000
# 6 0.000000 0.000000 0.000000 0.000675 0.000000 0.028503
#
#
# Mechanical properties :
#
#
# Convention : Reuss Voigt Hill
#
# Bulk Modulus (GPa) = 56.26082 63.55940 59.91011
# Shear Modulus (GPa) = 32.00743 34.65412 33.33078
#
# Velocity S-wave (km/s) = 3.75895 3.91127 3.83587
# Velocity P-wave (km/s) = 6.60877 6.96101 6.78718
#
# Compressibility (1/GPa) = 0.01777436
#
# Stress axis : x y z
#
# Youngs Moduli (GPa) = 76.26676 57.96457 93.15521
#
# Poissons Ratio (x) = 0.28325 0.41985
# Poissons Ratio (y) = 0.37268 0.21133
# Poissons Ratio (z) = 0.34373 0.13150
#
# Static dielectric constant tensor:
#      x y z
#    x 1.868860 0.000000 0.002080 
#    y 0.000000 1.994170 0.000000 
#    z 0.002080 0.000000 1.834210 
# 
# From -- ./inp_files/11942.got.cif
#   From: 2010.05.17/outbox.cif.g08.bks.cpg/sg4_6_cif.got.tgz:11942.got - 2010.06.03 18:43:04.
