data_PCOD9117976
_publ_section_title
;
Structure prediction by ZEFSAII (Michael W. Deem and Ramdas Pophale) SiO2 
 PCOD9117976
Probable space group: P 21
;
_chemical_formula_sum "Si O2"
_cell_formula_units_Z 16
_cell_length_a 14.624403
_cell_length_b 5.156773
_cell_length_c 8.750223
_cell_angle_alpha 90.000000
_cell_angle_beta 105.199615
_cell_angle_gamma 90.000000
_cell_volume 636.811373
_symmetry_space_group_name_H-M "P 21"
_symmetry_group_IT_number 4
_symmetry_cell_setting 'monoclinic'
loop_
_space_group_symop_operation_xyz
x,y,z
-x,1/2+y,-z
loop_
_atom_site_type_symbol
_atom_site_label
_atom_site_fract_x
_atom_site_fract_y
_atom_site_fract_z
Si Si1 0.900665 0.639750 0.844727
Si Si2 0.886508 0.015330 0.130142
Si Si3 0.058417 0.600384 0.526220
Si Si4 0.518252 0.554601 0.109257
Si Si5 0.609895 0.245559 0.378942
Si Si6 0.241940 0.772444 0.111820
Si Si7 0.224880 0.478642 0.401684
Si Si8 0.580061 0.416511 0.704667
O O1 0.861709 0.364930 0.879790
O O2 0.009202 0.645163 0.844779
O O3 0.829842 0.720853 0.676272
O O4 0.886868 0.806781 0.993463
O O5 0.891331 0.953095 0.310196
O O6 0.786211 0.160054 0.061870
O O7 0.135556 0.636629 0.428531
O O8 0.979764 0.385598 0.448808
O O9 0.611147 0.434479 0.233114
O O10 0.454657 0.654501 0.224269
O O11 0.524755 0.816204 0.009286
O O12 0.691444 0.030558 0.441241
O O13 0.606304 0.402225 0.537443
O O14 0.509146 0.102724 0.322868
O O15 0.266917 0.575977 0.258620
O O16 0.324590 0.982357 0.158757
#
# Coordination Sequence:
#
# PCOD9117976 Si02
#       8
#     2   2   2   2   2   2   2   2
#     4  11  21  41  69  99 141 179 245 299 362 426
#     4  11  23  39  68  97 137 189 230 295 363 425
#     4  12  27  46  69 102 143 187 234 294 358 437
#     4  12  26  48  74 110 154 200 240 311 383 437
#     4  11  24  45  79 107 145 201 253 309 365 447
#     4  10  24  42  71 106 135 187 245 302 356 435
#     4  10  25  44  68 109 139 187 244 302 363 432
#     4  11  24  45  76 110 144 194 261 306 368 449
#
# _framework density 25.125177000000001
#
# number of rings (size 3 to 8) (size 9 to 14) (size 15 to 20)
#    0.000    1.000    5.000    0.750    5.250    2.000 
#    0.000    0.000    0.000    0.000    0.000    0.000 
#    0.000    0.000    0.000    0.000    0.000    0.000 
#
# Total GULP energy -89164.448637 kJ/mol
# GULP energy per Si atom -5572.778040 kJ/mol
# Density = 2.506799 g / cm^3
# Si number density = 25.125177 Si / 1000 Ang^3
#
#
#
# Elastic Constant Matrix: (Units=GPa)
#
#
# Indices 1 2 3 4 5 6 
#
# 1 54.9851 -2.7443 -15.9237 0.0000 9.2976 0.0000
# 2 -2.7443 72.2422 21.9957 0.0000 -0.1851 0.0000
# 3 -15.9237 21.9957 92.9059 0.0000 3.8318 0.0000
# 4 0.0000 0.0000 0.0000 26.7078 0.0000 4.9369
# 5 9.2976 -0.1851 3.8318 0.0000 31.6932 0.0000
# 6 0.0000 0.0000 0.0000 4.9369 0.0000 12.5565
#
#
#
# Elastic Compliance Matrix: (Units=1/GPa)
#
#
# Indices 1 2 3 4 5 6 
#
# 1 0.020373 -0.000417 0.003856 0.000000 -0.006445 0.000000
# 2 -0.000417 0.014935 -0.003634 0.000000 0.000649 0.000000
# 3 0.003856 -0.003634 0.012394 0.000000 -0.002651 0.000000
# 4 0.000000 0.000000 0.000000 0.040377 0.000000 -0.015875
# 5 -0.006445 0.000649 -0.002651 0.000000 0.033768 0.000000
# 6 0.000000 0.000000 0.000000 -0.015875 0.000000 0.085881
#
#
# Mechanical properties :
#
#
# Convention : Reuss Voigt Hill
#
# Bulk Modulus (GPa) = 21.13609 25.19874 23.16742
# Shear Modulus (GPa) = 22.33271 28.64521 25.48896
#
# Velocity S-wave (km/s) = 2.98461 3.38020 3.18854
# Velocity P-wave (km/s) = 4.50641 5.02846 4.77457
#
# Compressibility (1/GPa) = 0.04731244
#
# Stress axis : x y z
#
# Youngs Moduli (GPa) = 49.08565 66.95854 80.68271
#
# Poissons Ratio (x) = 0.02790 -0.31113
# Poissons Ratio (y) = 0.02046 0.29320
# Poissons Ratio (z) = -0.18929 0.24333
#
# Static dielectric constant tensor:
#      x y z
#    x 2.071720 0.000000 0.000850 
#    y 0.000000 2.103360 0.000000 
#    z 0.000850 0.000000 2.034430 
# 
# From -- ./inp_files/8611.got.cif
#   From: 2010.05.17/outbox.cif.g08.bks.cpg/sg4_5_cif.got.tgz:8611.got - 2010.06.03 18:43:04.
