data_PCOD9117304
_publ_section_title
;
Structure prediction by ZEFSAII (Michael W. Deem and Ramdas Pophale) SiO2 
 PCOD9117304
Probable space group: P 21
;
_chemical_formula_sum "Si O2"
_cell_formula_units_Z 12
_cell_length_a 15.324862
_cell_length_b 5.398262
_cell_length_c 7.591982
_cell_angle_alpha 90.000000
_cell_angle_beta 56.985377
_cell_angle_gamma 90.000000
_cell_volume 526.653655
_symmetry_space_group_name_H-M "P 21"
_symmetry_group_IT_number 4
_symmetry_cell_setting 'monoclinic'
loop_
_space_group_symop_operation_xyz
x,y,z
-x,1/2+y,-z
loop_
_atom_site_type_symbol
_atom_site_label
_atom_site_fract_x
_atom_site_fract_y
_atom_site_fract_z
Si Si1 0.349944 0.855990 0.058109
Si Si2 0.448845 0.654326 0.276587
Si Si3 0.388498 0.467940 0.716631
Si Si4 0.200237 0.133980 0.026992
Si Si5 0.062475 0.876709 0.900287
Si Si6 0.995233 0.918957 0.613078
O O1 0.363214 0.709077 0.224049
O O2 0.244913 0.011290 0.155330
O O3 0.350732 0.691880 0.880346
O O4 0.455156 0.019047 0.926919
O O5 0.406249 0.510746 0.492033
O O6 0.503216 0.889594 0.310101
O O7 0.301487 0.259266 0.832815
O O8 0.112404 0.331504 0.176065
O O9 0.151636 0.943427 0.940661
O O10 0.081571 0.910625 0.671936
O O11 0.978685 0.097482 0.030717
O O12 0.014295 0.694244 0.454916
#
# Coordination Sequence:
#
# PCOD9117304 Si02
#       6
#     2   2   2   2   2   2
#     4  11  23  42  70  98 144 175 238 289 341 430
#     4  11  22  43  69  97 135 195 220 283 362 400
#     4  11  23  42  70  97 142 178 241 282 346 431
#     4  10  26  45  67 102 132 185 235 295 345 427
#     4  10  22  45  75  95 139 185 225 286 367 425
#     4  11  24  47  75 103 142 184 233 297 369 429
#
# _framework density 22.785373
#
# number of rings (size 3 to 8) (size 9 to 14) (size 15 to 20)
#    0.000    1.333    3.333    2.000    7.000    0.000 
#    6.000    0.000    0.000    0.000    0.000    0.000 
#    0.000    0.000    0.000    0.000    0.000    0.000 
#
# Total GULP energy -67055.606799 kJ/mol
# GULP energy per Si atom -5587.967233 kJ/mol
# Density = 2.273351 g / cm^3
# Si number density = 22.785373 Si / 1000 Ang^3
#
#
#
# Elastic Constant Matrix: (Units=GPa)
#
#
# Indices 1 2 3 4 5 6 
#
# 1 137.3452 20.6877 23.2687 0.0000 11.3404 0.0000
# 2 20.6877 49.6357 0.8163 0.0000 1.3431 0.0000
# 3 23.2687 0.8163 54.4469 0.0000 18.3477 0.0000
# 4 0.0000 0.0000 0.0000 -113.5947 0.0000 139.1241
# 5 11.3404 1.3431 18.3477 0.0000 32.6902 0.0000
# 6 0.0000 0.0000 0.0000 139.1241 0.0000 -63.9702
#
#
#
# Elastic Compliance Matrix: (Units=1/GPa)
#
#
# Indices 1 2 3 4 5 6 
#
# 1 0.008424 -0.003432 -0.003220 0.000000 -0.000974 0.000000
# 2 -0.003432 0.021567 0.001283 0.000000 -0.000416 0.000000
# 3 -0.003220 0.001283 0.023882 0.000000 -0.012339 0.000000
# 4 0.000000 0.000000 0.000000 0.005292 0.000000 0.011508
# 5 -0.000974 -0.000416 -0.012339 0.000000 0.037871 0.000000
# 6 0.000000 0.000000 0.000000 0.011508 0.000000 0.009397
#
#
# Mechanical properties :
#
#
# Convention : Reuss Voigt Hill
#
# Bulk Modulus (GPa) = 23.18285 36.77480 29.97882
# Shear Modulus (GPa) = 38.00905 -15.86460 11.07222
#
# Velocity S-wave (km/s) = 4.08871 -2.64154 2.20679
# Velocity P-wave (km/s) = 5.69970 2.62127 4.43608
#
# Compressibility (1/GPa) = 0.04313534
#
# Stress axis : x y z
#
# Youngs Moduli (GPa) = 118.71089 46.36669 41.87301
#
# Poissons Ratio (x) = 0.15911 0.13485
# Poissons Ratio (y) = 0.40737 -0.05374
# Poissons Ratio (z) = 0.38230 -0.05951
#
# Static dielectric constant tensor:
#      x y z
#    x 2.019800 0.000000 0.187110 
#    y 0.000000 1.928180 0.000000 
#    z 0.187110 0.000000 2.007020 
# 
# From -- ./inp_files/8557.got.cif
#   From: 2010.05.17/outbox.cif.g08.bks.cpg/sg4_5_cif.got.tgz:8557.got - 2010.06.03 18:43:04.
