data_PCOD9117454
_publ_section_title
;
Structure prediction by ZEFSAII (Michael W. Deem and Ramdas Pophale) SiO2 
 PCOD9117454
Probable space group: P 21
;
_chemical_formula_sum "Si O2"
_cell_formula_units_Z 14
_cell_length_a 14.368333
_cell_length_b 8.386103
_cell_length_c 14.982030
_cell_angle_alpha 90.000000
_cell_angle_beta 160.861799
_cell_angle_gamma 90.000000
_cell_volume 591.847184
_symmetry_space_group_name_H-M "P 21"
_symmetry_group_IT_number 4
_symmetry_cell_setting 'monoclinic'
loop_
_space_group_symop_operation_xyz
x,y,z
-x,1/2+y,-z
loop_
_atom_site_type_symbol
_atom_site_label
_atom_site_fract_x
_atom_site_fract_y
_atom_site_fract_z
Si Si1 0.548403 0.444270 0.655640
Si Si2 0.267818 0.943807 0.381176
Si Si3 0.015291 0.776981 0.829473
Si Si4 0.661147 0.136044 0.287492
Si Si5 0.698675 0.774288 0.884186
Si Si6 0.915727 0.813290 0.537862
Si Si7 0.242412 0.096372 0.758408
O O1 0.645782 0.417803 0.642703
O O2 0.212225 0.417724 0.357916
O O3 0.643762 0.618533 0.774189
O O4 0.706241 0.318474 0.862811
O O5 0.132642 0.116760 0.270989
O O6 0.538823 0.917438 0.689213
O O7 0.026367 0.817160 0.190404
O O8 0.047503 0.767649 0.751811
O O9 0.458404 0.237993 0.165377
O O10 0.680543 0.952746 0.339413
O O11 0.989149 0.187081 0.583057
O O12 0.535257 0.122219 0.073953
O O13 0.141175 0.914728 0.682071
O O14 0.783607 0.666928 0.363589
#
# Coordination Sequence:
#
# PCOD9117454 Si02
#       7
#     2   2   2   2   2   2   2
#     4  12  23  45  70  95 140 187 227 282 343 411
#     4  12  26  41  66 108 134 178 236 285 340 398
#     4  12  26  45  70 101 143 179 230 289 341 406
#     4  10  23  42  65  96 127 176 223 267 346 393
#     4  12  24  45  69  96 139 182 229 282 341 413
#     4  10  25  44  69  98 134 177 225 276 343 402
#     4  10  23  40  69  96 131 169 228 271 336 405
#
# _framework density 23.654755000000002
#
# number of rings (size 3 to 8) (size 9 to 14) (size 15 to 20)
#    0.857    0.000    1.429    6.000    2.000    2.286 
#    0.000    0.000    0.000    0.000    0.000    0.000 
#    0.000    0.000    0.000    0.000    0.000    0.000 
#
# Total GULP energy -78330.306508 kJ/mol
# GULP energy per Si atom -5595.021893 kJ/mol
# Density = 2.360092 g / cm^3
# Si number density = 23.654755 Si / 1000 Ang^3
#
#
#
# Elastic Constant Matrix: (Units=GPa)
#
#
# Indices 1 2 3 4 5 6 
#
# 1 47.6437 6.4159 0.5089 0.0000 -7.7754 0.0000
# 2 6.4159 52.0298 2.5613 0.0000 -1.4944 0.0000
# 3 0.5089 2.5613 89.1278 0.0000 -9.9268 0.0000
# 4 0.0000 0.0000 0.0000 36.4031 0.0000 2.6482
# 5 -7.7754 -1.4944 -9.9268 0.0000 28.4837 0.0000
# 6 0.0000 0.0000 0.0000 2.6482 0.0000 24.7290
#
#
#
# Elastic Compliance Matrix: (Units=1/GPa)
#
#
# Indices 1 2 3 4 5 6 
#
# 1 0.022343 -0.002609 0.000636 0.000000 0.006184 0.000000
# 2 -0.002609 0.019571 -0.000533 0.000000 0.000129 0.000000
# 3 0.000636 -0.000533 0.011702 0.000000 0.004224 0.000000
# 4 0.000000 0.000000 0.000000 0.027686 0.000000 -0.002965
# 5 0.006184 0.000129 0.004224 0.000000 0.038275 0.000000
# 6 0.000000 0.000000 0.000000 -0.002965 0.000000 0.040756
#
#
# Mechanical properties :
#
#
# Convention : Reuss Voigt Hill
#
# Bulk Modulus (GPa) = 20.57424 23.08595 21.83009
# Shear Modulus (GPa) = 27.54125 29.87750 28.70938
#
# Velocity S-wave (km/s) = 3.41589 3.55782 3.48757
# Velocity P-wave (km/s) = 4.92690 5.16315 5.04641
#
# Compressibility (1/GPa) = 0.04860446
#
# Stress axis : x y z
#
# Youngs Moduli (GPa) = 44.75704 51.09492 85.45564
#
# Poissons Ratio (x) = 0.13330 -0.05436
# Poissons Ratio (y) = 0.11676 0.04556
# Poissons Ratio (z) = -0.02847 0.02724
#
# Static dielectric constant tensor:
#      x y z
#    x 1.897330 0.000000 0.033000 
#    y 0.000000 1.914260 0.000000 
#    z 0.033000 0.000000 1.828390 
# 
# From -- ./inp_files/14153.got.cif
#   From: 2010.05.17/outbox.cif.g08.bks.cpg/sg4_8_cif.got.tgz:14153.got - 2010.06.03 18:43:04.
