data_PCOD9117353
_publ_section_title
;
Structure prediction by ZEFSAII (Michael W. Deem and Ramdas Pophale) SiO2 
 PCOD9117353
Probable space group: P 21
;
_chemical_formula_sum "Si O2"
_cell_formula_units_Z 16
_cell_length_a 9.346464
_cell_length_b 9.771978
_cell_length_c 17.701168
_cell_angle_alpha 90.000000
_cell_angle_beta 152.139341
_cell_angle_gamma 90.000000
_cell_volume 755.524914
_symmetry_space_group_name_H-M "P 21"
_symmetry_group_IT_number 4
_symmetry_cell_setting 'monoclinic'
loop_
_space_group_symop_operation_xyz
x,y,z
-x,1/2+y,-z
loop_
_atom_site_type_symbol
_atom_site_label
_atom_site_fract_x
_atom_site_fract_y
_atom_site_fract_z
Si Si1 0.124533 0.977850 0.723641
Si Si2 0.817565 0.257020 0.545592
Si Si3 0.052367 0.328584 0.957690
Si Si4 0.038314 0.023087 0.946490
Si Si5 0.251700 0.764182 0.666408
Si Si6 0.155599 0.323293 0.265382
Si Si7 0.253092 0.512139 0.766338
Si Si8 0.816307 0.049402 0.090708
O O1 0.084761 0.892203 0.627710
O O2 0.031364 0.880191 0.750061
O O3 0.471249 0.033664 0.897866
O O4 0.918949 0.110772 0.623092
O O5 0.753398 0.252394 0.425579
O O6 0.508912 0.293493 0.446381
O O7 0.087066 0.367813 0.679432
O O8 0.031179 0.409308 0.868801
O O9 0.912193 0.177321 0.894700
O O10 0.401834 0.291345 0.143176
O O11 0.947679 0.441125 0.968886
O O12 0.834846 0.940304 0.793168
O O13 0.381128 0.012177 0.073245
O O14 0.137670 0.624819 0.652652
O O15 0.991810 0.189481 0.152193
O O16 0.191465 0.555609 0.823016
#
# Coordination Sequence:
#
# PCOD9117353 Si02
#       8
#     2   2   2   2   2   2   2   2
#     4  11  25  43  74  97 131 183 227 272 342 399
#     4  12  27  43  65  99 138 181 220 276 345 403
#     4  10  23  40  72 101 133 170 227 280 336 389
#     4  11  22  43  68 102 130 177 222 280 329 397
#     4  10  22  47  65  96 135 178 222 278 331 406
#     4  12  25  44  67  99 144 169 226 284 332 401
#     4  11  24  43  71  95 133 176 226 277 335 401
#     4  11  24  45  70 101 130 176 228 285 330 394
#
# _framework density 21.177329
#
# number of rings (size 3 to 8) (size 9 to 14) (size 15 to 20)
#    0.000    1.000    3.750    2.250    5.250    1.000 
#    2.250    0.000    0.000    0.000    0.000    0.000 
#    0.000    0.000    0.000    0.000    0.000    0.000 
#
# Total GULP energy -89356.685988 kJ/mol
# GULP energy per Si atom -5584.792874 kJ/mol
# Density = 2.112913 g / cm^3
# Si number density = 21.177329 Si / 1000 Ang^3
#
#
#
# Elastic Constant Matrix: (Units=GPa)
#
#
# Indices 1 2 3 4 5 6 
#
# 1 52.7863 5.2695 -44.0811 0.0000 -47.3915 0.0000
# 2 5.2695 90.9839 -96.5784 0.0000 -145.6420 0.0000
# 3 -44.0811 -96.5784 -206.4652 0.0000 -293.3984 0.0000
# 4 0.0000 0.0000 0.0000 48.2460 0.0000 -16.4280
# 5 -47.3915 -145.6420 -293.3984 0.0000 -355.9867 0.0000
# 6 0.0000 0.0000 0.0000 -16.4280 0.0000 43.5588
#
#
#
# Elastic Compliance Matrix: (Units=1/GPa)
#
#
# Indices 1 2 3 4 5 6 
#
# 1 0.019019 -0.003943 0.005319 0.000000 -0.005302 0.000000
# 2 -0.003943 0.008225 -0.006018 0.000000 0.002120 0.000000
# 3 0.005319 -0.006018 0.033039 0.000000 -0.025476 0.000000
# 4 0.000000 0.000000 0.000000 0.023781 0.000000 0.008969
# 5 -0.005302 0.002120 -0.025476 0.000000 0.018026 0.000000
# 6 0.000000 0.000000 0.000000 0.008969 0.000000 0.026340
#
#
# Mechanical properties :
#
#
# Convention : Reuss Voigt Hill
#
# Bulk Modulus (GPa) = 19.60899 -37.05277 -8.72189
# Shear Modulus (GPa) = 32.31761 -47.99005 -7.83622
#
# Velocity S-wave (km/s) = 3.91070 -4.76553 -1.92570
# Velocity P-wave (km/s) = 5.44711 6.91482 3.01195
#
# Compressibility (1/GPa) = 0.05099703
#
# Stress axis : x y z
#
# Youngs Moduli (GPa) = 52.57848 121.58310 30.26764
#
# Poissons Ratio (x) = 0.47944 -0.16098
# Poissons Ratio (y) = 0.20733 0.18216
# Poissons Ratio (z) = -0.27965 0.73171
#
# Static dielectric constant tensor:
#      x y z
#    x 1.673210 0.000000 0.057540 
#    y 0.000000 1.800770 0.000000 
#    z 0.057540 0.000000 1.740860 
# 
# From -- ./inp_files/5413.got.cif
#   From: 2010.05.17/outbox.cif.g08.bks.cpg/sg4_3_cif.got.tgz:5413.got - 2010.06.03 18:43:04.
