data_PCOD9117125
_publ_section_title
;
Structure prediction by ZEFSAII (Michael W. Deem and Ramdas Pophale) SiO2 
 PCOD9117125
Probable space group: P 21
;
_chemical_formula_sum "Si O2"
_cell_formula_units_Z 14
_cell_length_a 12.498057
_cell_length_b 7.118667
_cell_length_c 9.641177
_cell_angle_alpha 90.000000
_cell_angle_beta 134.699706
_cell_angle_gamma 90.000000
_cell_volume 609.706097
_symmetry_space_group_name_H-M "P 21"
_symmetry_group_IT_number 4
_symmetry_cell_setting 'monoclinic'
loop_
_space_group_symop_operation_xyz
x,y,z
-x,1/2+y,-z
loop_
_atom_site_type_symbol
_atom_site_label
_atom_site_fract_x
_atom_site_fract_y
_atom_site_fract_z
Si Si1 0.444599 0.328540 0.270365
Si Si2 0.293623 0.057485 0.908664
Si Si3 0.716385 0.481352 0.392537
Si Si4 0.773886 0.748562 0.688005
Si Si5 0.233688 0.661197 0.994552
Si Si6 0.043516 0.624064 0.090682
Si Si7 0.030834 0.337561 0.698995
O O1 0.621396 0.348107 0.408435
O O2 0.377418 0.280974 0.360142
O O3 0.374793 0.530191 0.163272
O O4 0.383489 0.179312 0.103237
O O5 0.140487 0.177056 0.741700
O O6 0.369023 0.030643 0.827349
O O7 0.988355 0.265607 0.814039
O O8 0.749899 0.664570 0.514962
O O9 0.870536 0.380546 0.486490
O O10 0.878324 0.605596 0.871013
O O11 0.872341 0.939109 0.776759
O O12 0.147085 0.693243 0.059618
O O13 0.266892 0.855054 0.950952
O O14 0.126266 0.527743 0.803646
#
# Coordination Sequence:
#
# PCOD9117125 Si02
#       7
#     2   2   2   2   2   2   2
#     4  10  26  50  67 100 140 192 237 279 360 438
#     4  11  26  47  71  95 145 192 230 290 358 425
#     4  12  28  45  69 108 145 177 240 298 355 416
#     4  11  22  43  73 104 143 180 241 294 351 417
#     4  10  22  43  73  96 136 190 233 277 349 426
#     4  11  18  40  74 107 135 188 228 295 353 412
#     4  11  24  40  69 110 136 171 245 287 346 416
#
# _framework density 22.961881000000002
#
# number of rings (size 3 to 8) (size 9 to 14) (size 15 to 20)
#    0.000    1.143    5.714    0.857    6.000    2.286 
#    5.143    0.000    0.000    0.000    0.000    0.000 
#    0.000    0.000    0.000    0.000    0.000    0.000 
#
# Total GULP energy -78290.230512 kJ/mol
# GULP energy per Si atom -5592.159322 kJ/mol
# Density = 2.290962 g / cm^3
# Si number density = 22.961881 Si / 1000 Ang^3
#
#
#
# Elastic Constant Matrix: (Units=GPa)
#
#
# Indices 1 2 3 4 5 6 
#
# 1 66.0775 29.2335 2.9165 0.0000 -9.3957 0.0000
# 2 29.2335 136.6668 19.5744 0.0000 -11.7443 0.0000
# 3 2.9165 19.5744 27.4411 0.0000 -9.2701 0.0000
# 4 0.0000 0.0000 0.0000 25.9048 0.0000 -6.1719
# 5 -9.3957 -11.7443 -9.2701 0.0000 33.8883 0.0000
# 6 0.0000 0.0000 0.0000 -6.1719 0.0000 29.9944
#
#
#
# Elastic Compliance Matrix: (Units=1/GPa)
#
#
# Indices 1 2 3 4 5 6 
#
# 1 0.017234 -0.003642 0.002153 0.000000 0.004105 0.000000
# 2 -0.003642 0.008977 -0.005847 0.000000 0.000502 0.000000
# 3 0.002153 -0.005847 0.043963 0.000000 0.010597 0.000000
# 4 0.000000 0.000000 0.000000 0.040593 0.000000 0.008353
# 5 0.004105 0.000502 0.010597 0.000000 0.033720 0.000000
# 6 0.000000 0.000000 0.000000 0.008353 0.000000 0.035058
#
#
# Mechanical properties :
#
#
# Convention : Reuss Voigt Hill
#
# Bulk Modulus (GPa) = 18.01727 37.07047 27.54387
# Shear Modulus (GPa) = 23.50549 29.85490 26.68020
#
# Velocity S-wave (km/s) = 3.20296 3.60973 3.41241
# Velocity P-wave (km/s) = 4.64136 5.79249 5.24858
#
# Compressibility (1/GPa) = 0.05550230
#
# Stress axis : x y z
#
# Youngs Moduli (GPa) = 58.02600 111.40054 22.74628
#
# Poissons Ratio (x) = 0.40572 -0.04897
# Poissons Ratio (y) = 0.21133 0.13299
# Poissons Ratio (z) = -0.12493 0.65132
#
# Static dielectric constant tensor:
#      x y z
#    x 1.847790 0.000000 0.050070 
#    y 0.000000 1.917200 0.000000 
#    z 0.050070 0.000000 1.880690 
# 
# From -- ./inp_files/8058.got.cif
#   From: 2010.05.17/outbox.cif.g08.bks.cpg/sg4_5_cif.got.tgz:8058.got - 2010.06.03 18:43:04.
