data_PCOD9117617
_publ_section_title
;
Structure prediction by ZEFSAII (Michael W. Deem and Ramdas Pophale) SiO2 
 PCOD9117617
Probable space group: P 21
;
_chemical_formula_sum "Si O2"
_cell_formula_units_Z 14
_cell_length_a 5.441941
_cell_length_b 9.010574
_cell_length_c 12.773627
_cell_angle_alpha 90.000000
_cell_angle_beta 57.943199
_cell_angle_gamma 90.000000
_cell_volume 530.849814
_symmetry_space_group_name_H-M "P 21"
_symmetry_group_IT_number 4
_symmetry_cell_setting 'monoclinic'
loop_
_space_group_symop_operation_xyz
x,y,z
-x,1/2+y,-z
loop_
_atom_site_type_symbol
_atom_site_label
_atom_site_fract_x
_atom_site_fract_y
_atom_site_fract_z
Si Si1 0.524843 0.873850 0.369476
Si Si2 0.462508 0.125638 0.227990
Si Si3 0.136528 0.617656 0.388086
Si Si4 0.906000 0.229558 0.827136
Si Si5 0.008293 0.005300 0.976473
Si Si6 0.283127 0.222676 0.054428
Si Si7 0.366266 0.329533 0.427512
O O1 0.381637 0.713741 0.389970
O O2 0.504457 0.905865 0.497913
O O3 0.862784 0.856208 0.257317
O O4 0.374954 0.984793 0.320119
O O5 0.256350 0.198775 0.185944
O O6 0.548654 0.249477 0.294973
O O7 0.716567 0.059559 0.100003
O O8 0.182524 0.642166 0.256045
O O9 0.169281 0.450503 0.415154
O O10 0.839600 0.699504 0.483308
O O11 0.062773 0.110516 0.865263
O O12 0.608924 0.274597 0.951390
O O13 0.934964 0.840975 0.951275
O O14 0.242704 0.063180 0.007042
#
# Coordination Sequence:
#
# PCOD9117617 Si02
#       7
#     2   2   2   2   2   2   2
#     4  11  24  44  71  97 135 188 237 295 362 421
#     4  11  25  44  69 104 145 187 241 296 356 428
#     4  11  23  42  69  97 138 182 236 296 356 426
#     4  10  23  43  68  99 137 182 234 294 357 424
#     4  11  24  43  71 103 141 187 235 292 360 427
#     4  11  26  45  71 105 145 188 238 294 359 430
#     4  11  25  43  67 103 139 184 237 295 358 426
#
# _framework density 26.372809
#
# number of rings (size 3 to 8) (size 9 to 14) (size 15 to 20)
#    0.000    1.143    0.000    5.143    0.000   17.143 
#    0.000    1.429    0.000    1.714    0.000    0.000 
#    0.000    0.000    0.000    0.000    0.000    0.000 
#
# Total GULP energy -78335.820302 kJ/mol
# GULP energy per Si atom -5595.415736 kJ/mol
# Density = 2.631278 g / cm^3
# Si number density = 26.372809 Si / 1000 Ang^3
#
#
#
# Elastic Constant Matrix: (Units=GPa)
#
#
# Indices 1 2 3 4 5 6 
#
# 1 83.2715 35.1470 43.8290 0.0000 21.6507 0.0000
# 2 35.1470 135.8618 78.0764 0.0000 24.8939 0.0000
# 3 43.8290 78.0764 136.5265 0.0000 39.1553 0.0000
# 4 0.0000 0.0000 0.0000 37.0144 0.0000 13.5218
# 5 21.6507 24.8939 39.1553 0.0000 52.6092 0.0000
# 6 0.0000 0.0000 0.0000 13.5218 0.0000 45.4226
#
#
#
# Elastic Compliance Matrix: (Units=1/GPa)
#
#
# Indices 1 2 3 4 5 6 
#
# 1 0.015103 -0.001581 -0.003021 0.000000 -0.003219 0.000000
# 2 -0.001581 0.011147 -0.005773 0.000000 -0.000327 0.000000
# 3 -0.003021 -0.005773 0.013294 0.000000 -0.005919 0.000000
# 4 0.000000 0.000000 0.000000 0.030313 0.000000 -0.009024
# 5 -0.003219 -0.000327 -0.005919 0.000000 0.024893 0.000000
# 6 0.000000 0.000000 0.000000 -0.009024 0.000000 0.024702
#
#
# Mechanical properties :
#
#
# Convention : Reuss Voigt Hill
#
# Bulk Modulus (GPa) = 53.21259 74.41828 63.81544
# Shear Modulus (GPa) = 34.13723 40.24973 37.19348
#
# Velocity S-wave (km/s) = 3.60169 3.91088 3.75947
# Velocity P-wave (km/s) = 6.12512 6.97656 6.56466
#
# Compressibility (1/GPa) = 0.01879255
#
# Stress axis : x y z
#
# Youngs Moduli (GPa) = 66.21029 89.70817 75.22362
#
# Poissons Ratio (x) = 0.14184 0.22727
# Poissons Ratio (y) = 0.10469 0.43430
# Poissons Ratio (z) = 0.20004 0.51793
#
# Static dielectric constant tensor:
#      x y z
#    x 2.096740 0.000000 0.002420 
#    y 0.000000 2.039860 0.000000 
#    z 0.002420 0.000000 2.057760 
# 
# From -- ./inp_files/10242.got.cif
#   From: 2010.05.17/outbox.cif.g08.bks.cpg/sg4_6_cif.got.tgz:10242.got - 2010.06.03 18:43:04.
