data_PCOD9117844
_publ_section_title
;
Structure prediction by ZEFSAII (Michael W. Deem and Ramdas Pophale) SiO2 
 PCOD9117844
Probable space group: P 21
;
_chemical_formula_sum "Si O2"
_cell_formula_units_Z 16
_cell_length_a 16.061090
_cell_length_b 5.152245
_cell_length_c 8.668568
_cell_angle_alpha 90.000000
_cell_angle_beta 68.737067
_cell_angle_gamma 90.000000
_cell_volume 668.498331
_symmetry_space_group_name_H-M "P 21"
_symmetry_group_IT_number 4
_symmetry_cell_setting 'monoclinic'
loop_
_space_group_symop_operation_xyz
x,y,z
-x,1/2+y,-z
loop_
_atom_site_type_symbol
_atom_site_label
_atom_site_fract_x
_atom_site_fract_y
_atom_site_fract_z
Si Si1 0.703827 0.846870 0.849442
Si Si2 0.850251 0.205042 0.673077
Si Si3 0.711283 0.548184 0.566669
Si Si4 0.472025 0.916238 0.428011
Si Si5 0.866841 0.750045 0.268077
Si Si6 0.463436 0.624496 0.944155
Si Si7 0.153102 0.090596 0.070871
Si Si8 0.034271 0.753396 0.676648
O O1 0.658827 0.701967 0.736788
O O2 0.745843 0.676986 0.956366
O O3 0.794893 0.944381 0.709961
O O4 0.641132 0.072698 0.950769
O O5 0.784171 0.386289 0.614906
O O6 0.855040 0.307594 0.844545
O O7 0.941082 0.196783 0.517617
O O8 0.634327 0.388555 0.532515
O O9 0.768707 0.720824 0.410014
O O10 0.511634 0.643236 0.457522
O O11 0.517429 0.023849 0.240914
O O12 0.930198 0.536334 0.304627
O O13 0.909382 0.033752 0.266208
O O14 0.861609 0.653708 0.096297
O O15 0.487595 0.918199 0.973371
O O16 0.068694 0.226417 0.212211
#
# Coordination Sequence:
#
# PCOD9117844 Si02
#       8
#     2   2   2   2   2   2   2   2
#     4  11  24  44  70 101 136 180 234 281 345 400
#     4  10  24  42  71  97 134 188 229 285 334 411
#     4  10  23  47  67  97 141 182 227 276 356 409
#     4  12  28  45  73 107 140 182 229 292 350 419
#     4  11  25  45  70  98 138 191 220 285 346 413
#     4  12  26  48  76 100 141 186 232 286 346 420
#     4  11  27  40  68 106 138 175 238 290 328 410
#     4  11  25  45  69  96 144 184 229 273 357 402
#
# _framework density 23.934239000000002
#
# number of rings (size 3 to 8) (size 9 to 14) (size 15 to 20)
#    0.000    1.000    2.500    2.250   10.500    1.000 
#    0.000    0.000    0.000    0.000    0.000    0.000 
#    0.000    0.000    0.000    0.000    0.000    0.000 
#
# Total GULP energy -89450.638233 kJ/mol
# GULP energy per Si atom -5590.664890 kJ/mol
# Density = 2.387976 g / cm^3
# Si number density = 23.934239 Si / 1000 Ang^3
#
#
#
# Elastic Constant Matrix: (Units=GPa)
#
#
# Indices 1 2 3 4 5 6 
#
# 1 85.5571 19.5299 30.2083 0.0000 -6.7276 0.0000
# 2 19.5299 59.2832 -1.1164 0.0000 13.8953 0.0000
# 3 30.2083 -1.1164 107.6847 0.0000 7.2393 0.0000
# 4 0.0000 0.0000 0.0000 28.0072 0.0000 -2.5557
# 5 -6.7276 13.8953 7.2393 0.0000 31.0587 0.0000
# 6 0.0000 0.0000 0.0000 -2.5557 0.0000 38.5055
#
#
#
# Elastic Compliance Matrix: (Units=1/GPa)
#
#
# Indices 1 2 3 4 5 6 
#
# 1 0.015668 -0.007064 -0.004987 0.000000 0.007717 0.000000
# 2 -0.007064 0.022093 0.003026 0.000000 -0.012120 0.000000
# 3 -0.004987 0.003026 0.011054 0.000000 -0.005010 0.000000
# 4 0.000000 0.000000 0.000000 0.035923 0.000000 0.002384
# 5 0.007717 -0.012120 -0.005010 0.000000 0.040459 0.000000
# 6 0.000000 0.000000 0.000000 0.002384 0.000000 0.026129
#
#
# Mechanical properties :
#
#
# Convention : Reuss Voigt Hill
#
# Bulk Modulus (GPa) = 32.50693 38.86319 35.68506
# Shear Modulus (GPa) = 27.83471 33.10782 30.47127
#
# Velocity S-wave (km/s) = 3.41393 3.72329 3.57196
# Velocity P-wave (km/s) = 5.39918 5.89547 5.65277
#
# Compressibility (1/GPa) = 0.03076267
#
# Stress axis : x y z
#
# Youngs Moduli (GPa) = 63.82269 45.26304 90.46774
#
# Poissons Ratio (x) = 0.31975 0.45120
# Poissons Ratio (y) = 0.45087 -0.27371
# Poissons Ratio (z) = 0.31831 -0.13695
#
# Static dielectric constant tensor:
#      x y z
#    x 1.984950 0.000000 0.027310 
#    y 0.000000 1.945570 0.000000 
#    z 0.027310 0.000000 1.917910 
# 
# From -- ./inp_files/9018.got.cif
#   From: 2010.05.17/outbox.cif.g08.bks.cpg/sg4_5_cif.got.tgz:9018.got - 2010.06.03 18:43:04.
