data_PCOD9117816
_publ_section_title
;
Structure prediction by ZEFSAII (Michael W. Deem and Ramdas Pophale) SiO2 
 PCOD9117816
Probable space group: P 21
;
_chemical_formula_sum "Si O2"
_cell_formula_units_Z 10
_cell_length_a 11.613902
_cell_length_b 5.197090
_cell_length_c 16.573652
_cell_angle_alpha 90.000000
_cell_angle_beta 157.745289
_cell_angle_gamma 90.000000
_cell_volume 378.861312
_symmetry_space_group_name_H-M "P 21"
_symmetry_group_IT_number 4
_symmetry_cell_setting 'monoclinic'
loop_
_space_group_symop_operation_xyz
x,y,z
-x,1/2+y,-z
loop_
_atom_site_type_symbol
_atom_site_label
_atom_site_fract_x
_atom_site_fract_y
_atom_site_fract_z
Si Si1 0.021222 0.270280 0.678233
Si Si2 0.549147 0.107626 0.137307
Si Si3 0.500481 0.433481 0.729412
Si Si4 0.685817 0.525006 0.610700
Si Si5 0.280223 0.436067 0.097196
O O1 0.821275 0.053398 0.504312
O O2 0.826283 0.401578 0.621573
O O3 0.142234 0.496917 0.698835
O O4 0.310793 0.140829 0.910402
O O5 0.463232 0.898887 0.149797
O O6 0.510636 0.353572 0.171841
O O7 0.586858 0.152725 0.758530
O O8 0.731244 0.665924 0.862449
O O9 0.427586 0.318535 0.469570
O O10 0.961717 0.506112 0.852322
#
# Coordination Sequence:
#
# PCOD9117816 Si02
#       5
#     2   2   2   2   2
#     4  11  25  44  79 108 147 207 239 293 391 430
#     4   9  25  42  70 113 146 186 238 308 356 464
#     4  10  23  46  69 112 145 185 238 310 370 440
#     4  11  25  47  75 109 145 199 256 305 351 439
#     4   9  22  47  69 100 153 177 235 314 360 419
#
# _framework density 26.394883
#
# number of rings (size 3 to 8) (size 9 to 14) (size 15 to 20)
#    1.200    0.800    0.000    1.200    5.600    6.400 
#    0.000    4.000    0.000    0.000    0.000    0.000 
#    0.000    0.000    0.000    0.000    0.000    0.000 
#
# Total GULP energy -55909.022255 kJ/mol
# GULP energy per Si atom -5590.902226 kJ/mol
# Density = 2.633481 g / cm^3
# Si number density = 26.394883 Si / 1000 Ang^3
#
#
#
# Elastic Constant Matrix: (Units=GPa)
#
#
# Indices 1 2 3 4 5 6 
#
# 1 91.8978 38.9357 30.2502 0.0000 11.6872 0.0000
# 2 38.9357 159.9119 75.6142 0.0000 -14.4689 0.0000
# 3 30.2502 75.6142 149.8709 0.0000 -17.2402 0.0000
# 4 0.0000 0.0000 0.0000 53.4297 0.0000 -3.4190
# 5 11.6872 -14.4689 -17.2402 0.0000 35.2074 0.0000
# 6 0.0000 0.0000 0.0000 -3.4190 0.0000 11.3545
#
#
#
# Elastic Compliance Matrix: (Units=1/GPa)
#
#
# Indices 1 2 3 4 5 6 
#
# 1 0.013673 -0.002979 -0.002034 0.000000 -0.006759 0.000000
# 2 -0.002979 0.008930 -0.003569 0.000000 0.002911 0.000000
# 3 -0.002034 -0.003569 0.009318 0.000000 0.003771 0.000000
# 4 0.000000 0.000000 0.000000 0.019084 0.000000 0.005746
# 5 -0.006759 0.002911 0.003771 0.000000 0.033690 0.000000
# 6 0.000000 0.000000 0.000000 0.005746 0.000000 0.089801
#
#
# Mechanical properties :
#
#
# Convention : Reuss Voigt Hill
#
# Bulk Modulus (GPa) = 67.77111 76.80899 72.29005
# Shear Modulus (GPa) = 25.43509 37.12369 31.27939
#
# Velocity S-wave (km/s) = 3.10762 3.75437 3.44620
# Velocity P-wave (km/s) = 6.21353 6.92509 6.57894
#
# Compressibility (1/GPa) = 0.01475555
#
# Stress axis : x y z
#
# Youngs Moduli (GPa) = 73.13694 111.98451 107.32309
#
# Poissons Ratio (x) = 0.33357 0.21835
# Poissons Ratio (y) = 0.21785 0.38307
# Poissons Ratio (z) = 0.14879 0.39970
#
# Static dielectric constant tensor:
#      x y z
#    x 2.099590 0.000000 0.016990 
#    y 0.000000 2.108710 0.000000 
#    z 0.016990 0.000000 2.047770 
# 
# From -- ./inp_files/15107.got.cif
#   From: 2010.05.17/outbox.cif.g08.bks.cpg/sg4_8_cif.got.tgz:15107.got - 2010.06.03 18:43:04.
