data_PCOD9117547
_publ_section_title
;
Structure prediction by ZEFSAII (Michael W. Deem and Ramdas Pophale) SiO2 
 PCOD9117547
Probable space group: P 21
;
_chemical_formula_sum "Si O2"
_cell_formula_units_Z 14
_cell_length_a 5.190843
_cell_length_b 7.461714
_cell_length_c 13.710982
_cell_angle_alpha 90.000000
_cell_angle_beta 110.753335
_cell_angle_gamma 90.000000
_cell_volume 496.603624
_symmetry_space_group_name_H-M "P 21"
_symmetry_group_IT_number 4
_symmetry_cell_setting 'monoclinic'
loop_
_space_group_symop_operation_xyz
x,y,z
-x,1/2+y,-z
loop_
_atom_site_type_symbol
_atom_site_label
_atom_site_fract_x
_atom_site_fract_y
_atom_site_fract_z
Si Si1 0.558053 0.848460 0.604797
Si Si2 0.113904 0.078409 0.484617
Si Si3 0.559247 0.944931 0.815889
Si Si4 0.198288 0.516199 0.731560
Si Si5 0.034668 0.682173 0.900769
Si Si6 0.738039 0.323733 0.886117
Si Si7 0.975197 0.640577 0.306134
O O1 0.722804 0.702720 0.568092
O O2 0.503864 0.828915 0.711155
O O3 0.276497 0.891820 0.513130
O O4 0.757090 0.022381 0.637421
O O5 0.147271 0.144134 0.599460
O O6 0.829317 0.052310 0.388279
O O7 0.764605 0.799515 0.891480
O O8 0.747244 0.127504 0.836049
O O9 0.260273 0.040610 0.791465
O O10 0.481443 0.429887 0.806061
O O11 0.989748 0.346482 0.719104
O O12 0.111582 0.671231 0.796410
O O13 0.973998 0.474509 0.914981
O O14 0.274163 0.762397 0.001381
#
# Coordination Sequence:
#
# PCOD9117547 Si02
#       7
#     2   2   2   2   2   2   2
#     4  11  22  41  66  96 141 180 229 282 351 425
#     4  11  23  39  66 103 138 187 228 285 349 428
#     4  10  23  45  67 103 136 182 230 291 353 418
#     4  11  25  45  67 107 136 184 237 294 354 424
#     4  12  24  46  73 100 138 187 237 296 357 418
#     4  11  26  46  73 102 141 183 241 296 356 421
#     4  10  23  42  68 101 140 179 230 286 354 426
#
# _framework density 28.191497999999999
#
# number of rings (size 3 to 8) (size 9 to 14) (size 15 to 20)
#    0.000    1.143    2.857    2.571    2.000    5.714 
#    5.143    0.000    0.000    0.000    0.000    0.000 
#    0.000    0.000    0.000    0.000    0.000    0.000 
#
# Total GULP energy -78239.487563 kJ/mol
# GULP energy per Si atom -5588.534826 kJ/mol
# Density = 2.812733 g / cm^3
# Si number density = 28.191498 Si / 1000 Ang^3
#
#
#
# Elastic Constant Matrix: (Units=GPa)
#
#
# Indices 1 2 3 4 5 6 
#
# 1 62.2813 3.7403 20.5237 0.0000 8.3727 0.0000
# 2 3.7403 143.3980 40.9549 0.0000 6.5973 0.0000
# 3 20.5237 40.9549 178.7695 0.0000 23.6820 0.0000
# 4 0.0000 0.0000 0.0000 62.6577 0.0000 7.9773
# 5 8.3727 6.5973 23.6820 0.0000 32.3896 0.0000
# 6 0.0000 0.0000 0.0000 7.9773 0.0000 53.6704
#
#
#
# Elastic Compliance Matrix: (Units=1/GPa)
#
#
# Indices 1 2 3 4 5 6 
#
# 1 0.017001 0.000151 -0.001550 0.000000 -0.003292 0.000000
# 2 0.000151 0.007466 -0.001684 0.000000 -0.000328 0.000000
# 3 -0.001550 -0.001684 0.006709 0.000000 -0.004162 0.000000
# 4 0.000000 0.000000 0.000000 0.016268 0.000000 -0.002418
# 5 -0.003292 -0.000328 -0.004162 0.000000 0.034835 0.000000
# 6 0.000000 0.000000 0.000000 -0.002418 0.000000 0.018992
#
#
# Mechanical properties :
#
#
# Convention : Reuss Voigt Hill
#
# Bulk Modulus (GPa) = 39.98733 57.20962 48.59847
# Shear Modulus (GPa) = 43.18824 51.02554 47.10689
#
# Velocity S-wave (km/s) = 3.91827 4.25898 4.09217
# Velocity P-wave (km/s) = 5.88944 6.67252 6.29317
#
# Compressibility (1/GPa) = 0.02500792
#
# Stress axis : x y z
#
# Youngs Moduli (GPa) = 58.82173 133.94454 149.05607
#
# Poissons Ratio (x) = -0.02019 0.23107
# Poissons Ratio (y) = -0.00887 0.25104
# Poissons Ratio (z) = 0.09119 0.22559
#
# Static dielectric constant tensor:
#      x y z
#    x 2.384970 0.000000 -0.168000 
#    y 0.000000 2.196190 0.000000 
#    z -0.168000 0.000000 2.279650 
# 
# From -- ./inp_files/10293.got.cif
#   From: 2010.05.17/outbox.cif.g08.bks.cpg/sg4_6_cif.got.tgz:10293.got - 2010.06.03 18:43:04.
