data_PCOD9117849
_publ_section_title
;
Structure prediction by ZEFSAII (Michael W. Deem and Ramdas Pophale) SiO2 
 PCOD9117849
Probable space group: P 21
;
_chemical_formula_sum "Si O2"
_cell_formula_units_Z 16
_cell_length_a 8.186409
_cell_length_b 12.651302
_cell_length_c 7.913609
_cell_angle_alpha 90.000000
_cell_angle_beta 53.968220
_cell_angle_gamma 90.000000
_cell_volume 662.805002
_symmetry_space_group_name_H-M "P 21"
_symmetry_group_IT_number 4
_symmetry_cell_setting 'monoclinic'
loop_
_space_group_symop_operation_xyz
x,y,z
-x,1/2+y,-z
loop_
_atom_site_type_symbol
_atom_site_label
_atom_site_fract_x
_atom_site_fract_y
_atom_site_fract_z
Si Si1 0.040498 0.641000 0.139500
Si Si2 0.503342 0.136274 0.172745
Si Si3 0.834609 0.036314 0.585471
Si Si4 0.863922 0.436575 0.183155
Si Si5 0.559241 0.865784 0.676755
Si Si6 0.217185 0.332934 0.780538
Si Si7 0.771137 0.432966 0.631576
Si Si8 0.430894 0.717049 0.236538
O O1 0.077843 0.594387 0.302486
O O2 0.879010 0.562508 0.154262
O O3 0.945847 0.755323 0.203529
O O4 0.260430 0.636600 0.920829
O O5 0.408357 0.241643 0.312927
O O6 0.393585 0.026446 0.275559
O O7 0.495661 0.158200 0.976496
O O8 0.707714 0.131784 0.579252
O O9 0.679197 0.942680 0.729171
O O10 0.033758 0.980174 0.390114
O O11 0.676505 0.391164 0.192760
O O12 0.829597 0.408747 0.400683
O O13 0.083386 0.397380 0.993056
O O14 0.663683 0.896662 0.435052
O O15 0.386936 0.263315 0.767790
O O16 0.691036 0.321726 0.748723
#
# Coordination Sequence:
#
# PCOD9117849 Si02
#       8
#     2   2   2   2   2   2   2   2
#     4  10  23  47  69 102 150 189 242 303 379 434
#     4  11  26  45  78 105 151 197 246 314 377 453
#     4  10  26  43  74 103 148 198 243 305 368 450
#     4  11  24  46  74 107 146 198 240 314 368 442
#     4  12  25  46  74 112 146 196 252 300 384 447
#     4  12  25  48  75 110 150 190 250 318 366 448
#     4  11  25  48  75 107 155 199 249 306 383 443
#     4  11  26  47  75 112 148 195 260 312 377 445
#
# _framework density 24.139828999999999
#
# number of rings (size 3 to 8) (size 9 to 14) (size 15 to 20)
#    0.000    1.000    2.500    3.000   12.250    0.000 
#    4.500    0.000    0.000    0.000    0.000    0.000 
#    0.000    0.000    0.000    0.000    0.000    0.000 
#
# Total GULP energy -89496.777975 kJ/mol
# GULP energy per Si atom -5593.548623 kJ/mol
# Density = 2.408489 g / cm^3
# Si number density = 24.139829 Si / 1000 Ang^3
#
#
#
# Elastic Constant Matrix: (Units=GPa)
#
#
# Indices 1 2 3 4 5 6 
#
# 1 79.2997 10.6299 11.9203 0.0000 -22.6709 0.0000
# 2 10.6299 112.1838 18.5908 0.0000 -14.4397 0.0000
# 3 11.9203 18.5908 74.1955 0.0000 -12.8000 0.0000
# 4 0.0000 0.0000 0.0000 40.0922 0.0000 -20.1639
# 5 -22.6709 -14.4397 -12.8000 0.0000 36.7963 0.0000
# 6 0.0000 0.0000 0.0000 -20.1639 0.0000 52.2445
#
#
#
# Elastic Compliance Matrix: (Units=1/GPa)
#
#
# Indices 1 2 3 4 5 6 
#
# 1 0.015363 -0.000140 -0.000861 0.000000 0.009111 0.000000
# 2 -0.000140 0.009628 -0.001865 0.000000 0.003043 0.000000
# 3 -0.000861 -0.001865 0.014751 0.000000 0.003869 0.000000
# 4 0.000000 0.000000 0.000000 0.030950 0.000000 0.011945
# 5 0.009111 0.003043 0.003869 0.000000 0.035330 0.000000
# 6 0.000000 0.000000 0.000000 0.011945 0.000000 0.023751
#
#
# Mechanical properties :
#
#
# Convention : Reuss Voigt Hill
#
# Bulk Modulus (GPa) = 29.40377 38.66236 34.03306
# Shear Modulus (GPa) = 34.04988 40.79580 37.42284
#
# Velocity S-wave (km/s) = 3.75977 4.11540 3.94160
# Velocity P-wave (km/s) = 5.57269 6.21552 5.90287
#
# Compressibility (1/GPa) = 0.03400925
#
# Stress axis : x y z
#
# Youngs Moduli (GPa) = 65.08976 103.86400 67.79200
#
# Poissons Ratio (x) = 0.01457 0.05839
# Poissons Ratio (y) = 0.00913 0.12643
# Poissons Ratio (z) = 0.05607 0.19370
#
# Static dielectric constant tensor:
#      x y z
#    x 1.952650 0.000000 -0.006760 
#    y 0.000000 1.949680 0.000000 
#    z -0.006760 0.000000 1.966330 
# 
# From -- ./inp_files/6398.got.cif
#   From: 2010.05.17/outbox.cif.g08.bks.cpg/sg4_4_cif.got.tgz:6398.got - 2010.06.03 18:43:04.
