data_PCOD9117218
_publ_section_title
;
Structure prediction by ZEFSAII (Michael W. Deem and Ramdas Pophale) SiO2 
 PCOD9117218
Probable space group: P 21
;
_chemical_formula_sum "Si O2"
_cell_formula_units_Z 12
_cell_length_a 16.811893
_cell_length_b 4.733882
_cell_length_c 7.221815
_cell_angle_alpha 90.000000
_cell_angle_beta 120.250042
_cell_angle_gamma 90.000000
_cell_volume 496.490873
_symmetry_space_group_name_H-M "P 21"
_symmetry_group_IT_number 4
_symmetry_cell_setting 'monoclinic'
loop_
_space_group_symop_operation_xyz
x,y,z
-x,1/2+y,-z
loop_
_atom_site_type_symbol
_atom_site_label
_atom_site_fract_x
_atom_site_fract_y
_atom_site_fract_z
Si Si1 0.940134 0.850300 0.389907
Si Si2 0.748159 0.974467 0.768325
Si Si3 0.203857 0.994479 0.932176
Si Si4 0.760942 0.812981 0.374548
Si Si5 0.438784 0.623150 0.387351
Si Si6 0.564366 0.062239 0.031352
O O1 0.894683 0.659233 0.175920
O O2 0.005275 0.113595 0.427254
O O3 0.850429 0.966215 0.391416
O O4 0.780631 0.829974 0.616439
O O5 0.654494 0.140088 0.608673
O O6 0.800301 0.206508 0.956951
O O7 0.729309 0.713990 0.884060
O O8 0.233258 0.028225 0.748772
O O9 0.659493 0.938750 0.221369
O O10 0.477365 0.311536 0.453259
O O11 0.414644 0.682462 0.147153
O O12 0.511396 0.312354 0.074564
#
# Coordination Sequence:
#
# PCOD9117218 Si02
#       6
#     2   2   2   2   2   2
#     4  10  22  44  73 103 139 187 237 302 377 443
#     4  12  23  45  68 103 141 196 239 299 375 440
#     4  10  25  42  72 100 144 183 242 298 368 433
#     4  10  26  45  74 104 146 195 241 304 376 437
#     4  12  24  41  63  97 138 183 243 304 348 429
#     4  12  26  43  66 101 142 190 242 293 362 438
#
# _framework density 24.169626999999998
#
# number of rings (size 3 to 8) (size 9 to 14) (size 15 to 20)
#    1.000    0.000    1.667    5.000    2.333    5.333 
#    0.000    3.333    0.000    0.000    0.000    0.000 
#    0.000    0.000    0.000    0.000    0.000    0.000 
#
# Total GULP energy -66873.548572 kJ/mol
# GULP energy per Si atom -5572.795714 kJ/mol
# Density = 2.411462 g / cm^3
# Si number density = 24.169627 Si / 1000 Ang^3
#
#
#
# Elastic Constant Matrix: (Units=GPa)
#
#
# Indices 1 2 3 4 5 6 
#
# 1 74.9992 29.0588 50.9513 0.0000 -10.1357 0.0000
# 2 29.0588 114.0685 47.8725 0.0000 -15.3115 0.0000
# 3 50.9513 47.8725 98.9372 0.0000 -13.3141 0.0000
# 4 0.0000 0.0000 0.0000 38.6101 0.0000 4.0385
# 5 -10.1357 -15.3115 -13.3141 0.0000 48.5165 0.0000
# 6 0.0000 0.0000 0.0000 4.0385 0.0000 22.7707
#
#
#
# Elastic Compliance Matrix: (Units=1/GPa)
#
#
# Indices 1 2 3 4 5 6 
#
# 1 0.020674 -0.000877 -0.010050 0.000000 0.001285 0.000000
# 2 -0.000877 0.011245 -0.004711 0.000000 0.002073 0.000000
# 3 -0.010050 -0.004711 0.017735 0.000000 0.001281 0.000000
# 4 0.000000 0.000000 0.000000 0.026390 0.000000 -0.004680
# 5 0.001285 0.002073 0.001281 0.000000 0.021886 0.000000
# 6 0.000000 0.000000 0.000000 -0.004680 0.000000 0.044746
#
#
# Mechanical properties :
#
#
# Convention : Reuss Voigt Hill
#
# Bulk Modulus (GPa) = 54.40819 60.41891 57.41355
# Shear Modulus (GPa) = 27.76596 32.65428 30.21012
#
# Velocity S-wave (km/s) = 3.39307 3.67965 3.53926
# Velocity P-wave (km/s) = 6.15714 6.56545 6.36457
#
# Compressibility (1/GPa) = 0.01837959
#
# Stress axis : x y z
#
# Youngs Moduli (GPa) = 48.36957 88.92610 56.38649
#
# Poissons Ratio (x) = 0.07795 0.56668
# Poissons Ratio (y) = 0.04240 0.26563
# Poissons Ratio (z) = 0.48611 0.41892
#
# Static dielectric constant tensor:
#      x y z
#    x 1.941150 0.000000 0.012790 
#    y 0.000000 1.952790 0.000000 
#    z 0.012790 0.000000 1.977830 
# 
# From -- ./inp_files/9058.got.cif
#   From: 2010.05.17/outbox.cif.g08.bks.cpg/sg4_5_cif.got.tgz:9058.got - 2010.06.03 18:43:04.
