data_PCOD9117308
_publ_section_title
;
Structure prediction by ZEFSAII (Michael W. Deem and Ramdas Pophale) SiO2 
 PCOD9117308
Probable space group: P 21
;
_chemical_formula_sum "Si O2"
_cell_formula_units_Z 14
_cell_length_a 13.236679
_cell_length_b 4.980036
_cell_length_c 13.306453
_cell_angle_alpha 90.000000
_cell_angle_beta 44.474081
_cell_angle_gamma 90.000000
_cell_volume 614.519419
_symmetry_space_group_name_H-M "P 21"
_symmetry_group_IT_number 4
_symmetry_cell_setting 'monoclinic'
loop_
_space_group_symop_operation_xyz
x,y,z
-x,1/2+y,-z
loop_
_atom_site_type_symbol
_atom_site_label
_atom_site_fract_x
_atom_site_fract_y
_atom_site_fract_z
Si Si1 0.054495 0.641420 0.333707
Si Si2 0.805207 0.012645 0.170460
Si Si3 0.651684 0.592749 0.145640
Si Si4 0.439823 0.865230 0.599281
Si Si5 0.948252 0.272907 0.895548
Si Si6 0.518794 0.916239 0.922129
Si Si7 0.814670 0.648759 0.656161
O O1 0.066297 0.681371 0.207557
O O2 0.098272 0.340098 0.329424
O O3 0.894480 0.681940 0.493011
O O4 0.156717 0.849334 0.322797
O O5 0.685302 0.855443 0.189072
O O6 0.892342 0.880078 0.198396
O O7 0.724976 0.264036 0.277579
O O8 0.925528 0.057644 0.999815
O O9 0.540348 0.435933 0.297832
O O10 0.579364 0.575867 0.088404
O O11 0.810536 0.464530 0.016373
O O12 0.532965 0.623997 0.488198
O O13 0.655040 0.767589 0.774964
O O14 0.441305 0.657390 0.028804
#
# Coordination Sequence:
#
# PCOD9117308 Si02
#       7
#     2   2   2   2   2   2   2
#     4  10  23  42  73  91 139 169 222 282 342 388
#     4  11  24  42  69 103 139 183 237 284 339 422
#     4  11  25  44  70 100 142 181 230 292 340 417
#     4  11  24  46  69  98 139 186 226 280 349 415
#     4  11  23  41  67 103 134 181 228 286 343 404
#     4  12  27  43  71 102 136 181 229 282 349 409
#     4  10  22  46  63 105 127 175 224 278 332 419
#
# _framework density 22.782029000000001
#
# number of rings (size 3 to 8) (size 9 to 14) (size 15 to 20)
#    0.000    1.143    2.857    2.571    8.000    1.143 
#    0.000    1.429    0.000    0.000    0.000    0.000 
#    0.000    0.000    0.000    0.000    0.000    0.000 
#
# Total GULP energy -78096.767090 kJ/mol
# GULP energy per Si atom -5578.340506 kJ/mol
# Density = 2.273018 g / cm^3
# Si number density = 22.782029 Si / 1000 Ang^3
#
#
#
# Elastic Constant Matrix: (Units=GPa)
#
#
# Indices 1 2 3 4 5 6 
#
# 1 56.8487 -7.9328 4.3337 0.0000 -1.2023 0.0000
# 2 -7.9328 58.8256 19.3694 0.0000 5.8822 0.0000
# 3 4.3337 19.3694 101.4738 0.0000 -4.5097 0.0000
# 4 0.0000 0.0000 0.0000 44.2563 0.0000 -9.4172
# 5 -1.2023 5.8822 -4.5097 0.0000 31.9283 0.0000
# 6 0.0000 0.0000 0.0000 -9.4172 0.0000 16.9703
#
#
#
# Elastic Compliance Matrix: (Units=1/GPa)
#
#
# Indices 1 2 3 4 5 6 
#
# 1 0.018093 0.002879 -0.001324 0.000000 -0.000036 0.000000
# 2 0.002879 0.019082 -0.003941 0.000000 -0.003964 0.000000
# 3 -0.001324 -0.003941 0.010761 0.000000 0.002196 0.000000
# 4 0.000000 0.000000 0.000000 0.025621 0.000000 0.014218
# 5 -0.000036 -0.003964 0.002196 0.000000 0.032359 0.000000
# 6 0.000000 0.000000 0.000000 0.014218 0.000000 0.066816
#
#
# Mechanical properties :
#
#
# Convention : Reuss Voigt Hill
#
# Bulk Modulus (GPa) = 23.16766 27.63206 25.39986
# Shear Modulus (GPa) = 26.05632 32.05618 29.05625
#
# Velocity S-wave (km/s) = 3.38557 3.75518 3.57515
# Velocity P-wave (km/s) = 5.04719 5.56390 5.31183
#
# Compressibility (1/GPa) = 0.04316361
#
# Stress axis : x y z
#
# Youngs Moduli (GPa) = 55.27144 52.40577 92.92592
#
# Poissons Ratio (x) = -0.15090 0.12303
# Poissons Ratio (y) = -0.15915 0.36627
# Poissons Ratio (z) = 0.07317 0.20656
#
# Static dielectric constant tensor:
#      x y z
#    x 1.828090 0.000000 -0.027980 
#    y 0.000000 1.951700 0.000000 
#    z -0.027980 0.000000 1.868400 
# 
# From -- ./inp_files/11567.got.cif
#   From: 2010.05.17/outbox.cif.g08.bks.cpg/sg4_6_cif.got.tgz:11567.got - 2010.06.03 18:43:04.
