data_PCOD9117413
_publ_section_title
;
Structure prediction by ZEFSAII (Michael W. Deem and Ramdas Pophale) SiO2 
 PCOD9117413
Probable space group: P 21
;
_chemical_formula_sum "Si O2"
_cell_formula_units_Z 12
_cell_length_a 18.224010
_cell_length_b 5.201404
_cell_length_c 12.347877
_cell_angle_alpha 90.000000
_cell_angle_beta 156.613624
_cell_angle_gamma 90.000000
_cell_volume 464.590549
_symmetry_space_group_name_H-M "P 21"
_symmetry_group_IT_number 4
_symmetry_cell_setting 'monoclinic'
loop_
_space_group_symop_operation_xyz
x,y,z
-x,1/2+y,-z
loop_
_atom_site_type_symbol
_atom_site_label
_atom_site_fract_x
_atom_site_fract_y
_atom_site_fract_z
Si Si1 0.990765 0.616830 0.556503
Si Si2 0.051019 0.098838 0.901716
Si Si3 0.694542 0.265759 0.631424
Si Si4 0.695000 0.966601 0.859435
Si Si5 0.272670 0.931092 0.619081
Si Si6 0.683764 0.932322 0.403097
O O1 0.813547 0.510345 0.383391
O O2 0.029025 0.402233 0.516311
O O3 0.169736 0.603926 0.875098
O O4 0.908864 0.342512 0.700822
O O5 0.899381 0.894503 0.657548
O O6 0.310198 0.616915 0.260815
O O7 0.216246 0.187879 0.049064
O O8 0.507203 0.425109 0.369049
O O9 0.859880 0.474065 0.870717
O O10 0.693128 0.048911 0.536230
O O11 0.387896 0.151687 0.715596
O O12 0.385448 0.663415 0.766247
#
# Coordination Sequence:
#
# PCOD9117413 Si02
#       6
#     2   2   2   2   2   2
#     4  11  24  43  73  97 133 184 243 295 331 398
#     4   9  21  36  58  91 135 182 211 270 322 424
#     4  12  24  39  66 102 152 181 214 289 364 433
#     4  11  25  40  63 104 146 179 231 285 354 416
#     4   9  21  42  63  95 131 165 242 275 324 409
#     4  10  23  38  65  95 137 183 217 274 349 422
#
# _framework density 25.829194999999999
#
# number of rings (size 3 to 8) (size 9 to 14) (size 15 to 20)
#    1.000    0.667    1.667    3.000    9.333    0.000 
#    0.000    0.000    0.000    4.000    0.000    0.000 
#    0.000    0.000    0.000    0.000    0.000    0.000 
#
# Total GULP energy -66987.780065 kJ/mol
# GULP energy per Si atom -5582.315005 kJ/mol
# Density = 2.577041 g / cm^3
# Si number density = 25.829195 Si / 1000 Ang^3
#
#
#
# Elastic Constant Matrix: (Units=GPa)
#
#
# Indices 1 2 3 4 5 6 
#
# 1 90.5960 21.1297 24.8811 0.0000 -16.6741 0.0000
# 2 21.1297 113.5006 16.1491 0.0000 -2.6216 0.0000
# 3 24.8811 16.1491 81.8552 0.0000 -16.6115 0.0000
# 4 0.0000 0.0000 0.0000 13.7901 0.0000 -3.9809
# 5 -16.6741 -2.6216 -16.6115 0.0000 18.0629 0.0000
# 6 0.0000 0.0000 0.0000 -3.9809 0.0000 58.9968
#
#
#
# Elastic Compliance Matrix: (Units=1/GPa)
#
#
# Indices 1 2 3 4 5 6 
#
# 1 0.014026 -0.002129 -0.001572 0.000000 0.011193 0.000000
# 2 -0.002129 0.009391 -0.001632 0.000000 -0.002104 0.000000
# 3 -0.001572 -0.001632 0.015582 0.000000 0.012642 0.000000
# 4 0.000000 0.000000 0.000000 0.073956 0.000000 0.004990
# 5 0.011193 -0.002104 0.012642 0.000000 0.077016 0.000000
# 6 0.000000 0.000000 0.000000 0.004990 0.000000 0.017287
#
#
# Mechanical properties :
#
#
# Convention : Reuss Voigt Hill
#
# Bulk Modulus (GPa) = 35.29533 45.58573 40.44053
# Shear Modulus (GPa) = 21.99067 33.08941 27.54004
#
# Velocity S-wave (km/s) = 2.92102 3.58311 3.26887
# Velocity P-wave (km/s) = 5.00710 5.89961 5.47159
#
# Compressibility (1/GPa) = 0.02833236
#
# Stress axis : x y z
#
# Youngs Moduli (GPa) = 71.29410 106.49010 64.17603
#
# Poissons Ratio (x) = 0.22672 0.10088
# Poissons Ratio (y) = 0.15179 0.10476
# Poissons Ratio (z) = 0.11207 0.17384
#
# Static dielectric constant tensor:
#      x y z
#    x 2.080140 0.000000 0.017020 
#    y 0.000000 2.156290 0.000000 
#    z 0.017020 0.000000 2.034980 
# 
# From -- ./inp_files/14404.got.cif
#   From: 2010.05.17/outbox.cif.g08.bks.cpg/sg4_8_cif.got.tgz:14404.got - 2010.06.03 18:43:04.
