data_PCOD9117991
_publ_section_title
;
Structure prediction by ZEFSAII (Michael W. Deem and Ramdas Pophale) SiO2 
 PCOD9117991
Probable space group: P 21
;
_chemical_formula_sum "Si O2"
_cell_formula_units_Z 14
_cell_length_a 7.828877
_cell_length_b 8.711519
_cell_length_c 12.920221
_cell_angle_alpha 90.000000
_cell_angle_beta 50.491380
_cell_angle_gamma 90.000000
_cell_volume 679.853733
_symmetry_space_group_name_H-M "P 21"
_symmetry_group_IT_number 4
_symmetry_cell_setting 'monoclinic'
loop_
_space_group_symop_operation_xyz
x,y,z
-x,1/2+y,-z
loop_
_atom_site_type_symbol
_atom_site_label
_atom_site_fract_x
_atom_site_fract_y
_atom_site_fract_z
Si Si1 0.389640 0.810060 0.078553
Si Si2 0.907445 0.709132 0.309842
Si Si3 0.772901 0.994204 0.235501
Si Si4 0.189273 0.958497 0.810041
Si Si5 0.582036 0.731661 0.620226
Si Si6 0.148602 0.178915 0.020975
Si Si7 0.475703 0.608772 0.863524
O O1 0.165008 0.751692 0.216885
O O2 0.432973 0.985466 0.091956
O O3 0.612969 0.731549 0.033968
O O4 0.375443 0.752325 0.964931
O O5 0.887240 0.541384 0.266258
O O6 0.785716 0.735327 0.465184
O O7 0.784556 0.827201 0.278549
O O8 0.591306 0.104266 0.358584
O O9 0.697839 0.019486 0.144712
O O10 0.018620 0.061457 0.146212
O O11 0.429276 0.881331 0.697394
O O12 0.181318 0.088192 0.901328
O O13 0.023514 0.822011 0.909309
O O14 0.642840 0.672659 0.712245
#
# Coordination Sequence:
#
# PCOD9117991 Si02
#       7
#     2   2   2   2   2   2   2
#     4  12  24  38  65  98 131 170 207 281 326 396
#     4  12  22  41  67  97 132 172 217 265 349 384
#     4   9  21  41  68  90 128 169 223 277 304 397
#     4  11  23  40  70  94 128 174 228 279 314 395
#     4   9  24  44  63  94 128 173 220 268 316 407
#     4  11  22  39  64 102 125 167 224 276 329 370
#     4  10  24  43  61  95 128 167 225 262 328 371
#
# _framework density 20.592663000000002
#
# number of rings (size 3 to 8) (size 9 to 14) (size 15 to 20)
#    0.857    0.571    0.000    6.000    4.000    0.000 
#    2.571    0.000    0.000    0.000    0.000    0.000 
#    0.000    0.000    0.000    0.000    0.000    0.000 
#
# Total GULP energy -78038.334674 kJ/mol
# GULP energy per Si atom -5574.166762 kJ/mol
# Density = 2.054579 g / cm^3
# Si number density = 20.592663 Si / 1000 Ang^3
#
#
#
# Elastic Constant Matrix: (Units=GPa)
#
#
# Indices 1 2 3 4 5 6 
#
# 1 68.1178 16.6874 53.4836 0.0000 -7.1706 0.0000
# 2 16.6874 97.1410 73.4332 0.0000 11.4501 0.0000
# 3 53.4836 73.4332 142.1630 0.0000 -6.2151 0.0000
# 4 0.0000 0.0000 0.0000 24.3384 0.0000 7.3950
# 5 -7.1706 11.4501 -6.2151 0.0000 21.4296 0.0000
# 6 0.0000 0.0000 0.0000 7.3950 0.0000 7.0768
#
#
#
# Elastic Compliance Matrix: (Units=1/GPa)
#
#
# Indices 1 2 3 4 5 6 
#
# 1 0.021873 0.003385 -0.009862 0.000000 0.002650 0.000000
# 2 0.003385 0.020911 -0.012674 0.000000 -0.013716 0.000000
# 3 -0.009862 -0.012674 0.017667 0.000000 0.008596 0.000000
# 4 0.000000 0.000000 0.000000 0.060202 0.000000 -0.062908
# 5 0.002650 -0.013716 0.008596 0.000000 0.057373 0.000000
# 6 0.000000 0.000000 0.000000 -0.062908 0.000000 0.207043
#
#
# Mechanical properties :
#
#
# Convention : Reuss Voigt Hill
#
# Bulk Modulus (GPa) = 45.14941 66.07005 55.60973
# Shear Modulus (GPa) = 11.60758 21.49016 16.54887
#
# Velocity S-wave (km/s) = 2.37676 3.23396 2.83791
# Velocity P-wave (km/s) = 5.43181 6.78959 6.14830
#
# Compressibility (1/GPa) = 0.02214868
#
# Stress axis : x y z
#
# Youngs Moduli (GPa) = 45.71819 47.82265 56.60329
#
# Poissons Ratio (x) = -0.16187 0.55819
# Poissons Ratio (y) = -0.15475 0.71741
# Poissons Ratio (z) = 0.45085 0.60612
#
# Static dielectric constant tensor:
#      x y z
#    x 1.778580 0.000000 0.036300 
#    y 0.000000 1.802270 0.000000 
#    z 0.036300 0.000000 1.732740 
# 
# From -- ./inp_files/11017.got.cif
#   From: 2010.05.17/outbox.cif.g08.bks.cpg/sg4_6_cif.got.tgz:11017.got - 2010.06.03 18:43:04.
