data_PCOD9117504
_publ_section_title
;
Structure prediction by ZEFSAII (Michael W. Deem and Ramdas Pophale) SiO2 
 PCOD9117504
Probable space group: P 21
;
_chemical_formula_sum "Si O2"
_cell_formula_units_Z 14
_cell_length_a 11.328587
_cell_length_b 8.684746
_cell_length_c 9.567286
_cell_angle_alpha 90.000000
_cell_angle_beta 42.283247
_cell_angle_gamma 90.000000
_cell_volume 633.293696
_symmetry_space_group_name_H-M "P 21"
_symmetry_group_IT_number 4
_symmetry_cell_setting 'monoclinic'
loop_
_space_group_symop_operation_xyz
x,y,z
-x,1/2+y,-z
loop_
_atom_site_type_symbol
_atom_site_label
_atom_site_fract_x
_atom_site_fract_y
_atom_site_fract_z
Si Si1 0.085471 0.667120 0.113572
Si Si2 0.519571 0.827584 0.487630
Si Si3 0.757197 0.105317 0.311597
Si Si4 0.302582 0.061092 0.539014
Si Si5 0.335656 0.936124 0.199768
Si Si6 0.005741 0.488852 0.659637
Si Si7 0.705294 0.070676 0.812572
O O1 0.035218 0.826221 0.232565
O O2 0.214215 0.573399 0.102328
O O3 0.901353 0.582799 0.259151
O O4 0.173352 0.688549 0.887155
O O5 0.414334 0.700425 0.485630
O O6 0.586281 0.720147 0.554878
O O7 0.691892 0.935700 0.316473
O O8 0.374305 0.959843 0.604401
O O9 0.908578 0.093351 0.294214
O O10 0.334405 0.984064 0.362500
O O11 0.175971 0.024218 0.260704
O O12 0.311112 0.751980 0.211141
O O13 0.518945 0.987927 0.972898
O O14 0.156684 0.487989 0.410129
#
# Coordination Sequence:
#
# PCOD9117504 Si02
#       7
#     2   2   2   2   2   2   2
#     4  11  25  45  73 100 150 189 241 307 368 433
#     4  10  23  41  71  98 146 183 242 293 363 429
#     4  11  24  45  69 109 142 192 242 302 374 433
#     4  11  22  46  69 107 146 193 237 312 358 437
#     4  11  26  47  77 107 149 196 245 305 369 438
#     4  11  25  47  71 110 145 191 246 304 365 441
#     4  11  25  47  76 107 144 198 247 295 375 437
#
# _framework density 22.106649999999998
#
# number of rings (size 3 to 8) (size 9 to 14) (size 15 to 20)
#    0.000    1.143    2.857    2.571    4.000    2.286 
#    7.714    0.000    0.000    0.000    0.000    0.000 
#    0.000    0.000    0.000    0.000    0.000    0.000 
#
# Total GULP energy -78033.540035 kJ/mol
# GULP energy per Si atom -5573.824288 kJ/mol
# Density = 2.205633 g / cm^3
# Si number density = 22.106650 Si / 1000 Ang^3
#
#
#
# Elastic Constant Matrix: (Units=GPa)
#
#
# Indices 1 2 3 4 5 6 
#
# 1 128.7539 39.3370 68.5073 0.0000 -23.8979 0.0000
# 2 39.3370 65.9619 19.4747 0.0000 1.6710 0.0000
# 3 68.5073 19.4747 89.2023 0.0000 -6.8950 0.0000
# 4 0.0000 0.0000 0.0000 31.1788 0.0000 -0.8370
# 5 -23.8979 1.6710 -6.8950 0.0000 33.5561 0.0000
# 6 0.0000 0.0000 0.0000 -0.8370 0.0000 32.7888
#
#
#
# Elastic Compliance Matrix: (Units=1/GPa)
#
#
# Indices 1 2 3 4 5 6 
#
# 1 0.018346 -0.007819 -0.011526 0.000000 0.011087 0.000000
# 2 -0.007819 0.019618 0.001236 0.000000 -0.006291 0.000000
# 3 -0.011526 0.001236 0.019462 0.000000 -0.004271 0.000000
# 4 0.000000 0.000000 0.000000 0.032095 0.000000 0.000819
# 5 0.011087 -0.006291 -0.004271 0.000000 0.037132 0.000000
# 6 0.000000 0.000000 0.000000 0.000819 0.000000 0.030519
#
#
# Mechanical properties :
#
#
# Convention : Reuss Voigt Hill
#
# Bulk Modulus (GPa) = 47.15177 59.83955 53.49566
# Shear Modulus (GPa) = 24.94269 29.94467 27.44368
#
# Velocity S-wave (km/s) = 3.36265 3.68442 3.52720
# Velocity P-wave (km/s) = 6.03755 6.72512 6.39059
#
# Compressibility (1/GPa) = 0.02120811
#
# Stress axis : x y z
#
# Youngs Moduli (GPa) = 54.50802 50.97456 51.38129
#
# Poissons Ratio (x) = 0.39856 0.59221
# Poissons Ratio (y) = 0.42618 -0.06348
# Poissons Ratio (z) = 0.62824 -0.06298
#
# Static dielectric constant tensor:
#      x y z
#    x 1.834220 0.000000 -0.008050 
#    y 0.000000 1.860510 0.000000 
#    z -0.008050 0.000000 1.809580 
# 
# From -- ./inp_files/7928.got.cif
#   From: 2010.05.17/outbox.cif.g08.bks.cpg/sg4_4_cif.got.tgz:7928.got - 2010.06.03 18:43:04.
