data_PCOD9117004
_publ_section_title
;
Structure prediction by ZEFSAII (Michael W. Deem and Ramdas Pophale) SiO2 
 PCOD9117004
Probable space group: P 21
;
_chemical_formula_sum "Si O2"
_cell_formula_units_Z 16
_cell_length_a 18.907458
_cell_length_b 5.819120
_cell_length_c 8.481403
_cell_angle_alpha 90.000000
_cell_angle_beta 45.346063
_cell_angle_gamma 90.000000
_cell_volume 663.820242
_symmetry_space_group_name_H-M "P 21"
_symmetry_group_IT_number 4
_symmetry_cell_setting 'monoclinic'
loop_
_space_group_symop_operation_xyz
x,y,z
-x,1/2+y,-z
loop_
_atom_site_type_symbol
_atom_site_label
_atom_site_fract_x
_atom_site_fract_y
_atom_site_fract_z
Si Si1 0.182772 0.417790 0.408938
Si Si2 0.980836 0.658488 0.775240
Si Si3 0.611540 0.500267 0.413384
Si Si4 0.922283 0.534179 0.219161
Si Si5 0.542854 0.545209 0.977058
Si Si6 0.255688 0.834338 0.378594
Si Si7 0.560504 0.001574 0.549503
Si Si8 0.215710 0.060902 0.109983
O O1 0.138893 0.238598 0.604275
O O2 0.272870 0.564295 0.340211
O O3 0.222085 0.305525 0.188349
O O4 0.081186 0.561234 0.541320
O O5 0.888132 0.575622 0.819654
O O6 0.966037 0.572517 0.979265
O O7 0.998024 0.930670 0.781984
O O8 0.616147 0.756920 0.483130
O O9 0.497192 0.497525 0.527414
O O10 0.619993 0.242628 0.474459
O O11 0.697329 0.509123 0.147755
O O12 0.832009 0.352398 0.357016
O O13 0.653035 0.500004 0.741264
O O14 0.510590 0.807473 0.996300
O O15 0.528667 0.515785 0.185453
O O16 0.219961 0.894863 0.255362
#
# Coordination Sequence:
#
# PCOD9117004 Si02
#       8
#     2   2   2   2   2   2   2   2
#     4  10  24  42  70  96 142 178 233 295 358 426
#     4  11  23  42  68 100 137 188 234 292 359 426
#     4  10  22  42  69  99 133 185 221 303 346 425
#     4  10  22  44  66  97 141 186 231 290 356 434
#     4  12  27  45  76 106 144 192 242 298 361 442
#     4  10  25  46  69 103 138 188 235 301 359 431
#     4  10  22  43  68  97 140 176 238 279 367 410
#     4  11  25  40  72 102 137 181 242 294 358 428
#
# _framework density 24.102910000000001
#
# number of rings (size 3 to 8) (size 9 to 14) (size 15 to 20)
#    0.000    1.500    2.500    0.750   10.500    3.000 
#    0.000    0.000    0.000    0.000    0.000    0.000 
#    0.000    0.000    0.000    0.000    0.000    0.000 
#
# Total GULP energy -89145.737746 kJ/mol
# GULP energy per Si atom -5571.608609 kJ/mol
# Density = 2.404805 g / cm^3
# Si number density = 24.102910 Si / 1000 Ang^3
#
#
#
# Elastic Constant Matrix: (Units=GPa)
#
#
# Indices 1 2 3 4 5 6 
#
# 1 51.1031 38.0699 5.4202 0.0000 -8.5033 0.0000
# 2 38.0699 126.1640 15.5912 0.0000 -7.4768 0.0000
# 3 5.4202 15.5912 100.3890 0.0000 -13.4915 0.0000
# 4 0.0000 0.0000 0.0000 42.3513 0.0000 0.6202
# 5 -8.5033 -7.4768 -13.4915 0.0000 25.8328 0.0000
# 6 0.0000 0.0000 0.0000 0.6202 0.0000 35.0334
#
#
#
# Elastic Compliance Matrix: (Units=1/GPa)
#
#
# Indices 1 2 3 4 5 6 
#
# 1 0.026304 -0.007618 0.000678 0.000000 0.006808 0.000000
# 2 -0.007618 0.010367 -0.001218 0.000000 -0.000143 0.000000
# 3 0.000678 -0.001218 0.010859 0.000000 0.005542 0.000000
# 4 0.000000 0.000000 0.000000 0.023618 0.000000 -0.000418
# 5 0.006808 -0.000143 0.005542 0.000000 0.043804 0.000000
# 6 0.000000 0.000000 0.000000 -0.000418 0.000000 0.028552
#
#
# Mechanical properties :
#
#
# Convention : Reuss Voigt Hill
#
# Bulk Modulus (GPa) = 32.03712 43.97985 38.00849
# Shear Modulus (GPa) = 29.37318 35.21514 32.29416
#
# Velocity S-wave (km/s) = 3.49471 3.82649 3.66436
# Velocity P-wave (km/s) = 5.44102 6.14891 5.80576
#
# Compressibility (1/GPa) = 0.03121379
#
# Stress axis : x y z
#
# Youngs Moduli (GPa) = 38.01718 96.46173 92.09317
#
# Poissons Ratio (x) = 0.73480 -0.06242
# Poissons Ratio (y) = 0.28960 0.11217
# Poissons Ratio (z) = -0.02577 0.11749
#
# Static dielectric constant tensor:
#      x y z
#    x 2.008820 0.000000 -0.005640 
#    y 0.000000 2.160550 0.000000 
#    z -0.005640 0.000000 1.859620 
# 
# From -- ./inp_files/8960.got.cif
#   From: 2010.05.17/outbox.cif.g08.bks.cpg/sg4_5_cif.got.tgz:8960.got - 2010.06.03 18:43:04.
