data_PCOD9117916
_publ_section_title
;
Structure prediction by ZEFSAII (Michael W. Deem and Ramdas Pophale) SiO2 
 PCOD9117916
Probable space group: P 21
;
_chemical_formula_sum "Si O2"
_cell_formula_units_Z 16
_cell_length_a 5.878671
_cell_length_b 17.638760
_cell_length_c 7.406663
_cell_angle_alpha 90.000000
_cell_angle_beta 120.088117
_cell_angle_gamma 90.000000
_cell_volume 664.529273
_symmetry_space_group_name_H-M "P 21"
_symmetry_group_IT_number 4
_symmetry_cell_setting 'monoclinic'
loop_
_space_group_symop_operation_xyz
x,y,z
-x,1/2+y,-z
loop_
_atom_site_type_symbol
_atom_site_label
_atom_site_fract_x
_atom_site_fract_y
_atom_site_fract_z
Si Si1 0.795654 0.686490 0.410492
Si Si2 0.308126 0.723872 0.000276
Si Si3 0.528321 0.539954 0.343784
Si Si4 0.210121 0.421932 0.670290
Si Si5 0.475009 0.563286 0.909959
Si Si6 0.688549 0.391660 0.627618
Si Si7 0.988145 0.628367 0.102365
Si Si8 0.826179 0.320595 0.347063
O O1 0.724918 0.607909 0.477151
O O2 0.914064 0.662227 0.265388
O O3 0.979477 0.748731 0.568101
O O4 0.518889 0.723012 0.244489
O O5 0.370630 0.648055 0.906959
O O6 0.329072 0.799327 0.892377
O O7 0.042218 0.699625 0.994094
O O8 0.589035 0.467167 0.484312
O O9 0.238487 0.575564 0.237720
O O10 0.545423 0.526548 0.133612
O O11 0.274386 0.509695 0.727588
O O12 0.496778 0.389611 0.723666
O O13 0.012954 0.396519 0.758724
O O14 0.013744 0.394466 0.431420
O O15 0.755478 0.576885 0.930420
O O16 0.655675 0.326197 0.462077
#
# Coordination Sequence:
#
# PCOD9117916 Si02
#       8
#     2   2   2   2   2   2   2   2
#     4   9  20  39  60  91 118 155 204 252 303 359
#     4   9  20  39  60  91 118 155 204 252 303 359
#     4   9  20  37  63  88 119 154 205 253 306 353
#     4  10  25  41  57  90 124 159 204 244 300 364
#     4   9  20  37  63  88 119 154 205 253 306 353
#     4  10  25  41  57  90 124 159 204 244 300 364
#     4   8  18  34  64  90 116 154 200 262 302 350
#     4  10  24  38  58  86 128 164 200 244 306 362
#
# _framework density 24.077193999999999
#
# number of rings (size 3 to 8) (size 9 to 14) (size 15 to 20)
#    0.750    2.500    0.000    0.000    8.750    5.000 
#    0.000    0.000    0.000    0.000    0.000    0.000 
#    0.000    0.000    0.000    0.000    0.000    0.000 
#
# Total GULP energy -89092.329717 kJ/mol
# GULP energy per Si atom -5568.270607 kJ/mol
# Density = 2.402239 g / cm^3
# Si number density = 24.077194 Si / 1000 Ang^3
#
#
#
# Elastic Constant Matrix: (Units=GPa)
#
#
# Indices 1 2 3 4 5 6 
#
# 1 116.8424 6.3958 15.8312 0.0000 2.2438 0.0000
# 2 6.3958 89.3323 45.3393 0.0000 -3.3614 0.0000
# 3 15.8312 45.3393 58.5157 0.0000 -5.4437 0.0000
# 4 0.0000 0.0000 0.0000 49.7913 0.0000 -5.3936
# 5 2.2438 -3.3614 -5.4437 0.0000 11.0741 0.0000
# 6 0.0000 0.0000 0.0000 -5.3936 0.0000 16.9285
#
#
#
# Elastic Compliance Matrix: (Units=1/GPa)
#
#
# Indices 1 2 3 4 5 6 
#
# 1 0.009046 0.001031 -0.003550 0.000000 -0.003265 0.000000
# 2 0.001031 0.018591 -0.014857 0.000000 -0.001869 0.000000
# 3 -0.003550 -0.014857 0.030609 0.000000 0.011256 0.000000
# 4 0.000000 0.000000 0.000000 0.020802 0.000000 0.006628
# 5 -0.003265 -0.001869 0.011256 0.000000 0.095928 0.000000
# 6 0.000000 0.000000 0.000000 0.006628 0.000000 0.061184
#
#
# Mechanical properties :
#
#
# Convention : Reuss Voigt Hill
#
# Bulk Modulus (GPa) = 42.56600 44.42478 43.49539
# Shear Modulus (GPa) = 17.93776 28.70040 23.31908
#
# Velocity S-wave (km/s) = 2.73245 3.45630 3.11547
# Velocity P-wave (km/s) = 5.26045 5.86678 5.57187
#
# Compressibility (1/GPa) = 0.02349293
#
# Stress axis : x y z
#
# Youngs Moduli (GPa) = 110.54857 53.79057 32.67028
#
# Poissons Ratio (x) = -0.05548 0.11598
# Poissons Ratio (y) = -0.11401 0.48539
# Poissons Ratio (z) = 0.39246 0.79919
#
# Static dielectric constant tensor:
#      x y z
#    x 2.039520 0.000000 0.022410 
#    y 0.000000 1.927740 0.000000 
#    z 0.022410 0.000000 1.982060 
# 
# From -- ./inp_files/2083.got.cif
#   From: 2010.05.17/outbox.cif.g08.bks.cpg/sg4_2_cif.got.tgz:2083.got - 2010.06.03 18:43:04.
