data_PCOD9117881
_publ_section_title
;
Structure prediction by ZEFSAII (Michael W. Deem and Ramdas Pophale) SiO2 
 PCOD9117881
Probable space group: P 21
;
_chemical_formula_sum "Si O2"
_cell_formula_units_Z 16
_cell_length_a 26.298988
_cell_length_b 5.098848
_cell_length_c 9.104775
_cell_angle_alpha 90.000000
_cell_angle_beta 28.924657
_cell_angle_gamma 90.000000
_cell_volume 590.499692
_symmetry_space_group_name_H-M "P 21"
_symmetry_group_IT_number 4
_symmetry_cell_setting 'monoclinic'
loop_
_space_group_symop_operation_xyz
x,y,z
-x,1/2+y,-z
loop_
_atom_site_type_symbol
_atom_site_label
_atom_site_fract_x
_atom_site_fract_y
_atom_site_fract_z
Si Si1 0.140703 0.717550 0.135392
Si Si2 0.132100 0.050651 0.695482
Si Si3 0.240728 0.067334 0.127747
Si Si4 0.253542 0.538305 0.430067
Si Si5 0.430734 0.724513 0.196825
Si Si6 0.410858 0.724779 0.827355
Si Si7 0.389685 0.448533 0.594170
Si Si8 0.073665 0.206230 0.134087
O O1 0.214768 0.828915 0.080995
O O2 0.135265 0.463375 0.040375
O O3 0.032579 0.698457 0.501840
O O4 0.138072 0.955997 0.027119
O O5 0.219663 0.244648 0.547070
O O6 0.144943 0.114293 0.487444
O O7 0.158950 0.744527 0.645508
O O8 0.044739 0.151795 0.033738
O O9 0.337255 0.975013 0.985959
O O10 0.285331 0.297860 0.910723
O O11 0.334820 0.672254 0.332133
O O12 0.324191 0.524752 0.106346
O O13 0.383010 0.633822 0.472569
O O14 0.475774 0.014924 0.068297
O O15 0.440783 0.619943 0.593914
O O16 0.513063 0.745930 0.669037
#
# Coordination Sequence:
#
# PCOD9117881 Si02
#       8
#     2   2   2   2   2   2   2   2
#     4  10  24  46  75 107 139 180 234 285 356 433
#     4  11  24  44  71 101 140 180 227 291 354 416
#     4  11  26  43  69 107 136 183 241 289 341 426
#     4  11  24  44  63 100 137 179 235 289 340 410
#     4  12  28  43  64  95 134 183 242 289 336 403
#     4  11  24  42  65  91 136 184 231 279 345 395
#     4  12  25  42  67  92 137 190 231 288 342 400
#     4  10  23  48  74 103 143 183 221 292 366 425
#
# _framework density 27.095694999999999
#
# number of rings (size 3 to 8) (size 9 to 14) (size 15 to 20)
#    0.000    1.000    3.750    1.500    8.750    1.000 
#    0.000    6.250    0.000    0.000    0.000    0.000 
#    0.000    0.000    0.000    0.000    0.000    0.000 
#
# Total GULP energy -89376.560335 kJ/mol
# GULP energy per Si atom -5586.035021 kJ/mol
# Density = 2.703402 g / cm^3
# Si number density = 27.095695 Si / 1000 Ang^3
#
#
#
# Elastic Constant Matrix: (Units=GPa)
#
#
# Indices 1 2 3 4 5 6 
#
# 1 98.3906 19.3471 28.8784 0.0000 15.4003 0.0000
# 2 19.3471 119.1852 27.9011 0.0000 8.6313 0.0000
# 3 28.8784 27.9011 89.1940 0.0000 35.1895 0.0000
# 4 0.0000 0.0000 0.0000 43.0630 0.0000 15.3784
# 5 15.4003 8.6313 35.1895 0.0000 43.2778 0.0000
# 6 0.0000 0.0000 0.0000 15.3784 0.0000 29.4320
#
#
#
# Elastic Compliance Matrix: (Units=1/GPa)
#
#
# Indices 1 2 3 4 5 6 
#
# 1 0.011433 -0.001103 -0.002707 0.000000 -0.001648 0.000000
# 2 -0.001103 0.009175 -0.002865 0.000000 0.000892 0.000000
# 3 -0.002707 -0.002865 0.018225 0.000000 -0.013284 0.000000
# 4 0.000000 0.000000 0.000000 0.028549 0.000000 -0.014917
# 5 -0.001648 0.000892 -0.013284 0.000000 0.034317 0.000000
# 6 0.000000 0.000000 0.000000 -0.014917 0.000000 0.041771
#
#
# Mechanical properties :
#
#
# Convention : Reuss Voigt Hill
#
# Bulk Modulus (GPa) = 39.24002 51.00255 45.12128
# Shear Modulus (GPa) = 30.24562 38.53080 34.38821
#
# Velocity S-wave (km/s) = 3.34466 3.77507 3.56636
# Velocity P-wave (km/s) = 5.42486 6.15349 5.80063
#
# Compressibility (1/GPa) = 0.02548419
#
# Stress axis : x y z
#
# Youngs Moduli (GPa) = 87.46820 108.98655 54.86932
#
# Poissons Ratio (x) = 0.12021 0.14851
# Poissons Ratio (y) = 0.09647 0.15720
# Poissons Ratio (z) = 0.23674 0.31225
#
# Static dielectric constant tensor:
#      x y z
#    x 2.170840 0.000000 -0.006620 
#    y 0.000000 2.147480 0.000000 
#    z -0.006620 0.000000 2.388510 
# 
# From -- ./inp_files/10152.got.cif
#   From: 2010.05.17/outbox.cif.g08.bks.cpg/sg4_6_cif.got.tgz:10152.got - 2010.06.03 18:43:04.
