data_PCOD9117766
_publ_section_title
;
Structure prediction by ZEFSAII (Michael W. Deem and Ramdas Pophale) SiO2 
 PCOD9117766
Probable space group: P 21
;
_chemical_formula_sum "Si O2"
_cell_formula_units_Z 14
_cell_length_a 10.072144
_cell_length_b 7.335614
_cell_length_c 7.344561
_cell_angle_alpha 90.000000
_cell_angle_beta 79.677327
_cell_angle_gamma 90.000000
_cell_volume 533.872226
_symmetry_space_group_name_H-M "P 21"
_symmetry_group_IT_number 4
_symmetry_cell_setting 'monoclinic'
loop_
_space_group_symop_operation_xyz
x,y,z
-x,1/2+y,-z
loop_
_atom_site_type_symbol
_atom_site_label
_atom_site_fract_x
_atom_site_fract_y
_atom_site_fract_z
Si Si1 0.041779 0.768260 0.380713
Si Si2 0.439345 0.172764 0.683593
Si Si3 0.601518 0.659819 0.889084
Si Si4 0.880426 0.540485 0.925894
Si Si5 0.369155 0.570647 0.662289
Si Si6 0.158822 0.369498 0.288729
Si Si7 0.793852 0.393498 0.312419
O O1 0.034537 0.898090 0.209047
O O2 0.112257 0.576471 0.318599
O O3 0.897088 0.766647 0.517559
O O4 0.132883 0.864432 0.515163
O O5 0.577485 0.152265 0.540901
O O6 0.358518 0.355318 0.650550
O O7 0.347503 0.001797 0.648056
O O8 0.456517 0.185206 0.895688
O O9 0.683531 0.834901 0.791484
O O10 0.488069 0.605043 0.777438
O O11 0.724606 0.517767 0.890906
O O12 0.907544 0.747527 0.857142
O O13 0.874666 0.506506 0.140396
O O14 0.240646 0.689227 0.749588
#
# Coordination Sequence:
#
# PCOD9117766 Si02
#       7
#     2   2   2   2   2   2   2
#     4  12  23  46  72  98 138 187 226 297 347 423
#     4  11  25  43  64 100 137 179 229 279 347 411
#     4   9  24  44  65  95 138 173 226 285 332 421
#     4   9  23  46  64 101 136 176 236 280 351 415
#     4  12  25  41  68 100 134 184 223 285 346 411
#     4  10  23  45  71  99 135 185 233 282 357 410
#     4  11  27  43  66 105 138 176 239 282 350 419
#
# _framework density 26.223502
#
# number of rings (size 3 to 8) (size 9 to 14) (size 15 to 20)
#    0.857    0.571    2.857    0.857    8.000    0.000 
#    2.571    1.429    0.000    0.000    0.000    0.000 
#    0.000    0.000    0.000    0.000    0.000    0.000 
#
# Total GULP energy -78414.025010 kJ/mol
# GULP energy per Si atom -5601.001786 kJ/mol
# Density = 2.616382 g / cm^3
# Si number density = 26.223502 Si / 1000 Ang^3
#
#
#
# Elastic Constant Matrix: (Units=GPa)
#
#
# Indices 1 2 3 4 5 6 
#
# 1 59.0842 -1.0553 42.7975 0.0000 15.3292 0.0000
# 2 -1.0553 144.9258 48.3623 0.0000 -2.2721 0.0000
# 3 42.7975 48.3623 163.5625 0.0000 -19.6611 0.0000
# 4 0.0000 0.0000 0.0000 39.7369 0.0000 -5.7467
# 5 15.3292 -2.2721 -19.6611 0.0000 36.6214 0.0000
# 6 0.0000 0.0000 0.0000 -5.7467 0.0000 26.3865
#
#
#
# Elastic Compliance Matrix: (Units=1/GPa)
#
#
# Indices 1 2 3 4 5 6 
#
# 1 0.029650 0.003602 -0.010998 0.000000 -0.018092 0.000000
# 2 0.003602 0.008115 -0.003702 0.000000 -0.002992 0.000000
# 3 -0.010998 -0.003702 0.011344 0.000000 0.010464 0.000000
# 4 0.000000 0.000000 0.000000 0.025984 0.000000 0.005659
# 5 -0.018092 -0.002992 0.010464 0.000000 0.040312 0.000000
# 6 0.000000 0.000000 0.000000 0.005659 0.000000 0.039131
#
#
# Mechanical properties :
#
#
# Convention : Reuss Voigt Hill
#
# Bulk Modulus (GPa) = 37.15573 60.86462 49.01018
# Shear Modulus (GPa) = 26.92517 39.04682 32.98599
#
# Velocity S-wave (km/s) = 3.20778 3.86294 3.55051
# Velocity P-wave (km/s) = 5.28389 6.56938 5.96139
#
# Compressibility (1/GPa) = 0.02691375
#
# Stress axis : x y z
#
# Youngs Moduli (GPa) = 33.72736 123.23427 88.15322
#
# Poissons Ratio (x) = -0.44393 0.96950
# Poissons Ratio (y) = -0.12150 0.32630
# Poissons Ratio (z) = 0.37093 0.45615
#
# Static dielectric constant tensor:
#      x y z
#    x 2.066330 0.000000 -0.010730 
#    y 0.000000 2.048310 0.000000 
#    z -0.010730 0.000000 2.000020 
# 
# From -- ./inp_files/6130.got.cif
#   From: 2010.05.17/outbox.cif.g08.bks.cpg/sg4_4_cif.got.tgz:6130.got - 2010.06.03 18:43:04.
