data_PCOD9117312
_publ_section_title
;
Structure prediction by ZEFSAII (Michael W. Deem and Ramdas Pophale) SiO2 
 PCOD9117312
Probable space group: P 21
;
_chemical_formula_sum "Si O2"
_cell_formula_units_Z 16
_cell_length_a 6.934051
_cell_length_b 5.215816
_cell_length_c 18.325069
_cell_angle_alpha 90.000000
_cell_angle_beta 70.123863
_cell_angle_gamma 90.000000
_cell_volume 623.277284
_symmetry_space_group_name_H-M "P 21"
_symmetry_group_IT_number 4
_symmetry_cell_setting 'monoclinic'
loop_
_space_group_symop_operation_xyz
x,y,z
-x,1/2+y,-z
loop_
_atom_site_type_symbol
_atom_site_label
_atom_site_fract_x
_atom_site_fract_y
_atom_site_fract_z
Si Si1 0.757952 0.581590 0.291028
Si Si2 0.256258 0.250697 0.857135
Si Si3 0.392746 0.240872 0.332648
Si Si4 0.996825 0.227256 0.104477
Si Si5 0.936543 0.686985 0.737860
Si Si6 0.329922 0.463859 0.597657
Si Si7 0.862281 0.052675 0.526183
Si Si8 0.415720 0.120692 0.976123
O O1 0.711011 0.783698 0.233640
O O2 0.608835 0.359107 0.281382
O O3 0.684347 0.665246 0.380116
O O4 0.988603 0.484852 0.269144
O O5 0.177022 0.524317 0.894206
O O6 0.438074 0.157901 0.886328
O O7 0.090787 0.015881 0.881476
O O8 0.266629 0.132429 0.281406
O O9 0.248464 0.461237 0.386059
O O10 0.463452 0.061890 0.390570
O O11 0.074617 0.133132 0.174712
O O12 0.182959 0.194717 0.025582
O O13 0.124061 0.561532 0.667575
O O14 0.297869 0.548203 0.519991
O O15 0.022459 0.823268 0.486213
O O16 0.545510 0.333462 0.002309
#
# Coordination Sequence:
#
# PCOD9117312 Si02
#       8
#     2   2   2   2   2   2   2   2
#     4  10  24  42  70  98 136 177 226 284 336 409
#     4  11  23  45  70  96 135 181 224 271 337 404
#     4  11  26  42  70 100 134 181 222 287 341 401
#     4  11  23  44  72  94 133 186 221 270 339 403
#     4  10  22  46  66  99 133 178 229 276 342 406
#     4  11  24  44  68  99 136 174 231 279 342 404
#     4  12  28  47  71  97 139 184 227 282 340 408
#     4  12  26  42  65 105 140 173 226 281 329 397
#
# _framework density 25.670757999999999
#
# number of rings (size 3 to 8) (size 9 to 14) (size 15 to 20)
#    0.000    1.000    2.500    3.000    7.000    2.000 
#    0.000    0.000    0.000    0.000    0.000    0.000 
#    0.000    0.000    0.000    0.000    0.000    0.000 
#
# Total GULP energy -89472.916118 kJ/mol
# GULP energy per Si atom -5592.057257 kJ/mol
# Density = 2.561233 g / cm^3
# Si number density = 25.670758 Si / 1000 Ang^3
#
#
#
# Elastic Constant Matrix: (Units=GPa)
#
#
# Indices 1 2 3 4 5 6 
#
# 1 102.9937 17.2196 13.7233 0.0000 39.5129 0.0000
# 2 17.2196 77.6205 -3.5186 0.0000 2.4634 0.0000
# 3 13.7233 -3.5186 86.4150 0.0000 33.3007 0.0000
# 4 0.0000 0.0000 0.0000 32.9077 0.0000 3.3707
# 5 39.5129 2.4634 33.3007 0.0000 49.6762 0.0000
# 6 0.0000 0.0000 0.0000 3.3707 0.0000 38.9192
#
#
#
# Elastic Compliance Matrix: (Units=1/GPa)
#
#
# Indices 1 2 3 4 5 6 
#
# 1 0.015061 -0.002781 0.002775 0.000000 -0.013702 0.000000
# 2 -0.002781 0.013487 0.000534 0.000000 0.001185 0.000000
# 3 0.002775 0.000534 0.016198 0.000000 -0.013093 0.000000
# 4 0.000000 0.000000 0.000000 0.030660 0.000000 -0.002655
# 5 -0.013702 0.001185 -0.013093 0.000000 0.039747 0.000000
# 6 0.000000 0.000000 0.000000 -0.002655 0.000000 0.025924
#
#
# Mechanical properties :
#
#
# Convention : Reuss Voigt Hill
#
# Bulk Modulus (GPa) = 21.83216 35.76418 28.79817
# Shear Modulus (GPa) = 32.19818 40.27428 36.23623
#
# Velocity S-wave (km/s) = 3.54542 3.96520 3.76117
# Velocity P-wave (km/s) = 5.02823 5.90981 5.48676
#
# Compressibility (1/GPa) = 0.04580398
#
# Stress axis : x y z
#
# Youngs Moduli (GPa) = 66.39546 74.14740 61.73441
#
# Poissons Ratio (x) = 0.20617 -0.17133
# Poissons Ratio (y) = 0.18462 -0.03297
# Poissons Ratio (z) = -0.18427 -0.03960
#
# Static dielectric constant tensor:
#      x y z
#    x 1.978460 0.000000 -0.017500 
#    y 0.000000 2.135530 0.000000 
#    z -0.017500 0.000000 2.023530 
# 
# From -- ./inp_files/3987.got.cif
#   From: 2010.05.17/outbox.cif.g08.bks.cpg/sg4_2_cif.got.tgz:3987.got - 2010.06.03 18:43:04.
