data_PCOD9117880
_publ_section_title
;
Structure prediction by ZEFSAII (Michael W. Deem and Ramdas Pophale) SiO2 
 PCOD9117880
Probable space group: P 21
;
_chemical_formula_sum "Si O2"
_cell_formula_units_Z 16
_cell_length_a 12.262632
_cell_length_b 4.995916
_cell_length_c 12.727824
_cell_angle_alpha 90.000000
_cell_angle_beta 46.868718
_cell_angle_gamma 90.000000
_cell_volume 569.049921
_symmetry_space_group_name_H-M "P 21"
_symmetry_group_IT_number 4
_symmetry_cell_setting 'monoclinic'
loop_
_space_group_symop_operation_xyz
x,y,z
-x,1/2+y,-z
loop_
_atom_site_type_symbol
_atom_site_label
_atom_site_fract_x
_atom_site_fract_y
_atom_site_fract_z
Si Si1 0.958890 0.586120 0.586364
Si Si2 0.083067 0.940591 0.817337
Si Si3 0.553795 0.034465 0.297807
Si Si4 0.342629 0.375257 0.987988
Si Si5 0.120389 0.946641 0.039745
Si Si6 0.314492 0.738456 0.199479
Si Si7 0.249339 0.716526 0.475591
Si Si8 0.659977 0.766654 0.425070
O O1 0.792442 0.501470 0.729431
O O2 0.030614 0.291190 0.518301
O O3 0.069830 0.749102 0.589416
O O4 0.220396 0.026131 0.654180
O O5 0.949548 0.155773 0.888843
O O6 0.138821 0.948954 0.901586
O O7 0.017230 0.648063 0.848985
O O8 0.386014 0.928740 0.385173
O O9 0.645124 0.839857 0.312786
O O10 0.633606 0.056987 0.133913
O O11 0.507691 0.253085 0.415060
O O12 0.509892 0.300918 0.915705
O O13 0.255291 0.107885 0.007855
O O14 0.276998 0.550274 0.125980
O O15 0.280373 0.606682 0.334951
O O16 0.276803 0.495941 0.543748
#
# Coordination Sequence:
#
# PCOD9117880 Si02
#       8
#     2   2   2   2   2   2   2   2
#     4  10  24  49  78 107 148 194 257 316 368 438
#     4  10  24  45  74 108 148 194 244 305 368 455
#     4  11  25  46  73 112 150 192 252 300 389 442
#     4  11  25  48  72 105 150 200 252 310 371 449
#     4  10  23  48  73 107 148 194 248 299 376 442
#     4  10  26  47  72 106 147 199 257 305 372 438
#     4  10  25  46  71 105 142 198 240 314 365 442
#     4  12  24  43  73 108 149 193 242 313 373 454
#
# _framework density 28.117042000000001
#
# number of rings (size 3 to 8) (size 9 to 14) (size 15 to 20)
#    0.000    1.500    2.500    0.000   10.500    2.000 
#   13.500    0.000    0.000    0.000    0.000    0.000 
#    0.000    0.000    0.000    0.000    0.000    0.000 
#
# Total GULP energy -89512.023768 kJ/mol
# GULP energy per Si atom -5594.501485 kJ/mol
# Density = 2.805305 g / cm^3
# Si number density = 28.117042 Si / 1000 Ang^3
#
#
#
# Elastic Constant Matrix: (Units=GPa)
#
#
# Indices 1 2 3 4 5 6 
#
# 1 151.3669 5.1023 10.5790 0.0000 -11.0581 0.0000
# 2 5.1023 68.9820 -0.9175 0.0000 0.9167 0.0000
# 3 10.5790 -0.9175 121.6607 0.0000 14.5836 0.0000
# 4 0.0000 0.0000 0.0000 47.3899 0.0000 -6.7324
# 5 -11.0581 0.9167 14.5836 0.0000 50.7001 0.0000
# 6 0.0000 0.0000 0.0000 -6.7324 0.0000 41.7653
#
#
#
# Elastic Compliance Matrix: (Units=1/GPa)
#
#
# Indices 1 2 3 4 5 6 
#
# 1 0.006807 -0.000537 -0.000803 0.000000 0.001725 0.000000
# 2 -0.000537 0.014545 0.000209 0.000000 -0.000440 0.000000
# 3 -0.000803 0.000209 0.008609 0.000000 -0.002655 0.000000
# 4 0.000000 0.000000 0.000000 0.021596 0.000000 0.003481
# 5 0.001725 -0.000440 -0.002655 0.000000 0.020872 0.000000
# 6 0.000000 0.000000 0.000000 0.003481 0.000000 0.024504
#
#
# Mechanical properties :
#
#
# Convention : Reuss Voigt Hill
#
# Bulk Modulus (GPa) = 36.10160 41.28189 38.69175
# Shear Modulus (GPa) = 46.11366 49.78744 47.95055
#
# Velocity S-wave (km/s) = 4.05416 4.21256 4.13412
# Velocity P-wave (km/s) = 5.89768 6.19475 6.04804
#
# Compressibility (1/GPa) = 0.02769960
#
# Stress axis : x y z
#
# Youngs Moduli (GPa) = 146.91391 68.75263 116.15414
#
# Poissons Ratio (x) = 0.03692 0.09324
# Poissons Ratio (y) = 0.07890 -0.02430
# Poissons Ratio (z) = 0.11793 -0.01438
#
# Static dielectric constant tensor:
#      x y z
#    x 2.268780 0.000000 0.062080 
#    y 0.000000 2.319870 0.000000 
#    z 0.062080 0.000000 2.229860 
# 
# From -- ./inp_files/11578.got.cif
#   From: 2010.05.17/outbox.cif.g08.bks.cpg/sg4_6_cif.got.tgz:11578.got - 2010.06.03 18:43:04.
