data_PCOD9117631
_publ_section_title
;
Structure prediction by ZEFSAII (Michael W. Deem and Ramdas Pophale) SiO2 
 PCOD9117631
Probable space group: P 21
;
_chemical_formula_sum "Si O2"
_cell_formula_units_Z 16
_cell_length_a 7.586180
_cell_length_b 16.958425
_cell_length_c 5.483433
_cell_angle_alpha 90.000000
_cell_angle_beta 64.917420
_cell_angle_gamma 90.000000
_cell_volume 638.917051
_symmetry_space_group_name_H-M "P 21"
_symmetry_group_IT_number 4
_symmetry_cell_setting 'monoclinic'
loop_
_space_group_symop_operation_xyz
x,y,z
-x,1/2+y,-z
loop_
_atom_site_type_symbol
_atom_site_label
_atom_site_fract_x
_atom_site_fract_y
_atom_site_fract_z
Si Si1 0.948719 0.873660 0.322327
Si Si2 0.495064 0.566533 0.090222
Si Si3 0.396626 0.137433 0.413659
Si Si4 0.429960 0.797205 0.519090
Si Si5 0.414556 0.889673 0.039441
Si Si6 0.968611 0.781824 0.803805
Si Si7 0.257451 0.537168 0.629464
Si Si8 0.897236 0.614793 0.071004
O O1 0.927951 0.831329 0.073626
O O2 0.178375 0.896463 0.207452
O O3 0.813777 0.950233 0.385480
O O4 0.898224 0.820762 0.590680
O O5 0.527698 0.642604 0.902395
O O6 0.485976 0.475112 0.017021
O O7 0.712150 0.565887 0.083842
O O8 0.293211 0.580080 0.350537
O O9 0.461007 0.214238 0.519806
O O10 0.526254 0.058994 0.401261
O O11 0.170938 0.126184 0.608499
O O12 0.482797 0.841750 0.238333
O O13 0.453078 0.847377 0.756174
O O14 0.201441 0.778816 0.639856
O O15 0.902315 0.694951 0.915115
O O16 0.099994 0.573320 0.902238
#
# Coordination Sequence:
#
# PCOD9117631 Si02
#       8
#     2   2   2   2   2   2   2   2
#     4  10  23  43  70 103 137 187 240 288 355 423
#     4  11  27  44  70 107 140 188 239 290 359 423
#     4  11  27  44  70 107 140 188 239 290 359 423
#     4  10  23  44  71 100 143 186 233 295 353 420
#     4  10  23  44  71 100 143 186 233 295 353 420
#     4  10  23  43  70 103 137 187 240 288 355 423
#     4  11  25  46  70 101 143 185 237 293 352 423
#     4  11  25  46  70 101 143 185 237 293 352 423
#
# _framework density 25.042373000000001
#
# number of rings (size 3 to 8) (size 9 to 14) (size 15 to 20)
#    0.000    1.500    2.500    0.000   10.500    5.000 
#    0.000    0.000    0.000    0.000    0.000    0.000 
#    0.000    0.000    0.000    0.000    0.000    0.000 
#
# Total GULP energy -89305.047802 kJ/mol
# GULP energy per Si atom -5581.565488 kJ/mol
# Density = 2.498538 g / cm^3
# Si number density = 25.042373 Si / 1000 Ang^3
#
#
#
# Elastic Constant Matrix: (Units=GPa)
#
#
# Indices 1 2 3 4 5 6 
#
# 1 62.1208 11.4356 31.8564 0.0000 -24.9014 0.0000
# 2 11.4356 59.5162 48.1222 0.0000 -8.6015 0.0000
# 3 31.8564 48.1222 155.0576 0.0000 -13.2827 0.0000
# 4 0.0000 0.0000 0.0000 33.2407 0.0000 6.6357
# 5 -24.9014 -8.6015 -13.2827 0.0000 36.5922 0.0000
# 6 0.0000 0.0000 0.0000 6.6357 0.0000 27.9001
#
#
#
# Elastic Compliance Matrix: (Units=1/GPa)
#
#
# Indices 1 2 3 4 5 6 
#
# 1 0.023996 0.000683 -0.003849 0.000000 0.015093 0.000000
# 2 0.000683 0.022739 -0.006915 0.000000 0.003300 0.000000
# 3 -0.003849 -0.006915 0.009312 0.000000 -0.000864 0.000000
# 4 0.000000 0.000000 0.000000 0.031583 0.000000 -0.007512
# 5 0.015093 0.003300 -0.000864 0.000000 0.038061 0.000000
# 6 0.000000 0.000000 0.000000 -0.007512 0.000000 0.037629
#
#
# Mechanical properties :
#
#
# Convention : Reuss Voigt Hill
#
# Bulk Modulus (GPa) = 27.86694 51.05811 39.46253
# Shear Modulus (GPa) = 25.58302 31.89863 28.74082
#
# Velocity S-wave (km/s) = 3.19970 3.57289 3.39143
# Velocity P-wave (km/s) = 4.98024 6.11994 5.57927
#
# Compressibility (1/GPa) = 0.03588481
#
# Stress axis : x y z
#
# Youngs Moduli (GPa) = 41.67405 43.97793 107.39000
#
# Poissons Ratio (x) = -0.03002 0.41333
# Poissons Ratio (y) = -0.02845 0.74256
# Poissons Ratio (z) = 0.16040 0.30409
#
# Static dielectric constant tensor:
#      x y z
#    x 2.168500 0.000000 0.334900 
#    y 0.000000 2.001210 0.000000 
#    z 0.334900 0.000000 2.451780 
# 
# From -- ./inp_files/2146.got.cif
#   From: 2010.05.17/outbox.cif.g08.bks.cpg/sg4_2_cif.got.tgz:2146.got - 2010.06.03 18:43:04.
