data_PCOD9117544
_publ_section_title
;
Structure prediction by ZEFSAII (Michael W. Deem and Ramdas Pophale) SiO2 
 PCOD9117544
Probable space group: P 21
;
_chemical_formula_sum "Si O2"
_cell_formula_units_Z 16
_cell_length_a 8.691548
_cell_length_b 12.017627
_cell_length_c 9.272139
_cell_angle_alpha 90.000000
_cell_angle_beta 131.711804
_cell_angle_gamma 90.000000
_cell_volume 722.979942
_symmetry_space_group_name_H-M "P 21"
_symmetry_group_IT_number 4
_symmetry_cell_setting 'monoclinic'
loop_
_space_group_symop_operation_xyz
x,y,z
-x,1/2+y,-z
loop_
_atom_site_type_symbol
_atom_site_label
_atom_site_fract_x
_atom_site_fract_y
_atom_site_fract_z
Si Si1 0.346051 0.625000 0.175604
Si Si2 0.188766 0.329842 0.436306
Si Si3 0.770391 0.638513 0.307581
Si Si4 0.200192 0.868098 0.011680
Si Si5 0.848238 0.003163 0.363259
Si Si6 0.584904 0.656812 0.590804
Si Si7 0.034523 0.986382 0.182250
Si Si8 0.566334 0.599277 0.904923
O O1 0.561399 0.584100 0.241455
O O2 0.388142 0.622448 0.373400
O O3 0.321037 0.752190 0.104703
O O4 0.148411 0.555511 0.008091
O O5 0.165556 0.237167 0.546213
O O6 0.258224 0.432612 0.576451
O O7 0.351830 0.278272 0.427559
O O8 0.982534 0.350571 0.217477
O O9 0.961869 0.557709 0.435957
O O10 0.703512 0.666980 0.104068
O O11 0.108760 0.895964 0.113219
O O12 0.329717 0.976480 0.043631
O O13 0.947267 0.947107 0.282560
O O14 0.670898 0.085204 0.195788
O O15 0.560591 0.654053 0.745182
O O16 0.775773 0.572713 0.676164
#
# Coordination Sequence:
#
# PCOD9117544 Si02
#       8
#     2   2   2   2   2   2   2   2
#     4  11  21  45  71  94 142 184 215 286 349 399
#     4  11  23  43  67  95 146 173 223 285 341 398
#     4  11  23  43  71 100 138 181 226 286 340 403
#     4  11  24  44  71 102 136 181 226 283 349 416
#     4  12  23  45  71 104 135 178 232 291 337 405
#     4  10  23  42  67  99 136 181 223 273 341 408
#     4  11  23  43  70 101 137 174 233 283 338 405
#     4  11  24  41  72 103 136 182 230 275 349 406
#
# _framework density 22.130625999999999
#
# number of rings (size 3 to 8) (size 9 to 14) (size 15 to 20)
#    0.000    1.000    6.250    1.500    1.750    1.000 
#    2.250    0.000    0.000    0.000    0.000    0.000 
#    0.000    0.000    0.000    0.000    0.000    0.000 
#
# Total GULP energy -89382.233737 kJ/mol
# GULP energy per Si atom -5586.389609 kJ/mol
# Density = 2.208026 g / cm^3
# Si number density = 22.130626 Si / 1000 Ang^3
#
#
#
# Elastic Constant Matrix: (Units=GPa)
#
#
# Indices 1 2 3 4 5 6 
#
# 1 64.4632 10.7613 21.1974 0.0000 -10.6943 0.0000
# 2 10.7613 26.2025 8.2455 0.0000 5.6969 0.0000
# 3 21.1974 8.2455 167.9305 0.0000 -8.8204 0.0000
# 4 0.0000 0.0000 0.0000 37.2109 0.0000 -10.5679
# 5 -10.6943 5.6969 -8.8204 0.0000 37.1197 0.0000
# 6 0.0000 0.0000 0.0000 -10.5679 0.0000 9.8500
#
#
#
# Elastic Compliance Matrix: (Units=1/GPa)
#
#
# Indices 1 2 3 4 5 6 
#
# 1 0.018482 -0.008447 -0.001590 0.000000 0.006243 0.000000
# 2 -0.008447 0.044228 -0.001610 0.000000 -0.009604 0.000000
# 3 -0.001590 -0.001610 0.006302 0.000000 0.001286 0.000000
# 4 0.000000 0.000000 0.000000 0.038651 0.000000 0.041468
# 5 0.006243 -0.009604 0.001286 0.000000 0.030518 0.000000
# 6 0.000000 0.000000 0.000000 0.041468 0.000000 0.146013
#
#
# Mechanical properties :
#
#
# Convention : Reuss Voigt Hill
#
# Bulk Modulus (GPa) = 21.87352 37.66719 29.77035
# Shear Modulus (GPa) = 15.49293 31.39559 23.44426
#
# Velocity S-wave (km/s) = 2.64875 3.77058 3.25831
# Velocity P-wave (km/s) = 4.38860 6.00114 5.25707
#
# Compressibility (1/GPa) = 0.04571739
#
# Stress axis : x y z
#
# Youngs Moduli (GPa) = 54.10812 22.60996 158.67517
#
# Poissons Ratio (x) = 0.19099 0.25232
# Poissons Ratio (y) = 0.45707 0.25544
# Poissons Ratio (z) = 0.08604 0.03640
#
# Static dielectric constant tensor:
#      x y z
#    x 1.837610 0.000000 -0.026040 
#    y 0.000000 1.865420 0.000000 
#    z -0.026040 0.000000 1.808620 
# 
# From -- ./inp_files/6387.got.cif
#   From: 2010.05.17/outbox.cif.g08.bks.cpg/sg4_4_cif.got.tgz:6387.got - 2010.06.03 18:43:04.
