data_PCOD9117317
_publ_section_title
;
Structure prediction by ZEFSAII (Michael W. Deem and Ramdas Pophale) SiO2 
 PCOD9117317
Probable space group: P 21
;
_chemical_formula_sum "Si O2"
_cell_formula_units_Z 12
_cell_length_a 22.140922
_cell_length_b 5.038253
_cell_length_c 19.641306
_cell_angle_alpha 90.000000
_cell_angle_beta 167.765775
_cell_angle_gamma 90.000000
_cell_volume 464.295670
_symmetry_space_group_name_H-M "P 21"
_symmetry_group_IT_number 4
_symmetry_cell_setting 'monoclinic'
loop_
_space_group_symop_operation_xyz
x,y,z
-x,1/2+y,-z
loop_
_atom_site_type_symbol
_atom_site_label
_atom_site_fract_x
_atom_site_fract_y
_atom_site_fract_z
Si Si1 0.552251 0.116360 0.722149
Si Si2 0.038185 0.766922 0.181494
Si Si3 0.324076 0.921157 0.682225
Si Si4 0.653930 0.846597 0.641935
Si Si5 0.028555 0.340685 0.576158
Si Si6 0.045667 0.415942 0.307981
O O1 0.387924 0.282038 0.482956
O O2 0.333634 0.916650 0.515230
O O3 0.725694 0.305879 0.963888
O O4 0.789625 0.934346 0.945491
O O5 0.054064 0.485990 0.236768
O O6 0.947200 0.768531 0.002256
O O7 0.132851 0.687501 0.439591
O O8 0.214949 0.931961 0.639753
O O9 0.248954 0.192633 0.561768
O O10 0.657566 0.859632 0.045689
O O11 0.433795 0.645006 0.436984
O O12 0.022909 0.544033 0.506769
#
# Coordination Sequence:
#
# PCOD9117317 Si02
#       6
#     2   2   2   2   2   2
#     4  11  26  46  73 102 149 202 261 324 389 451
#     4  11  26  46  73 102 149 202 261 324 389 451
#     4  12  28  45  81 112 156 194 242 304 376 454
#     4  10  22  46  68 102 138 196 266 332 386 446
#     4  12  26  52  80 114 148 194 244 298 362 450
#     4  12  26  51  69 118 154 202 248 314 386 464
#
# _framework density 25.845596
#
# number of rings (size 3 to 8) (size 9 to 14) (size 15 to 20)
#    0.000    0.667    3.333    3.000    2.333    9.333 
#    0.000    0.000    0.000    0.000    0.000    0.000 
#    0.000    0.000    0.000    0.000    0.000    0.000 
#
# Total GULP energy -67369.995434 kJ/mol
# GULP energy per Si atom -5614.166286 kJ/mol
# Density = 2.578677 g / cm^3
# Si number density = 25.845596 Si / 1000 Ang^3
#
#
#
# Elastic Constant Matrix: (Units=GPa)
#
#
# Indices 1 2 3 4 5 6 
#
# 1 57.9154 7.1483 -0.4546 0.0000 17.8412 0.0000
# 2 7.1483 95.9253 19.0676 0.0000 0.9362 0.0000
# 3 -0.4546 19.0676 100.5203 0.0000 6.6641 0.0000
# 4 0.0000 0.0000 0.0000 52.1534 0.0000 -14.7256
# 5 17.8412 0.9362 6.6641 0.0000 47.6050 0.0000
# 6 0.0000 0.0000 0.0000 -14.7256 0.0000 49.8417
#
#
#
# Elastic Compliance Matrix: (Units=1/GPa)
#
#
# Indices 1 2 3 4 5 6 
#
# 1 0.019781 -0.001577 0.000886 0.000000 -0.007506 0.000000
# 2 -0.001577 0.010959 -0.002131 0.000000 0.000674 0.000000
# 3 0.000886 -0.002131 0.010473 0.000000 -0.001756 0.000000
# 4 0.000000 0.000000 0.000000 0.020919 0.000000 0.006181
# 5 -0.007506 0.000674 -0.001756 0.000000 0.024052 0.000000
# 6 0.000000 0.000000 0.000000 0.006181 0.000000 0.021890
#
#
# Mechanical properties :
#
#
# Convention : Reuss Voigt Hill
#
# Bulk Modulus (GPa) = 28.11366 33.98705 31.05036
# Shear Modulus (GPa) = 39.81758 45.16001 42.48880
#
# Velocity S-wave (km/s) = 3.92930 4.18461 4.05896
# Velocity P-wave (km/s) = 5.61133 6.04372 5.83153
#
# Compressibility (1/GPa) = 0.03556989
#
# Stress axis : x y z
#
# Youngs Moduli (GPa) = 50.55483 91.24725 95.48506
#
# Poissons Ratio (x) = 0.14389 -0.08462
# Poissons Ratio (y) = 0.07972 0.20344
# Poissons Ratio (z) = -0.04480 0.19441
#
# Static dielectric constant tensor:
#      x y z
#    x 2.069710 0.000000 -0.017520 
#    y 0.000000 1.976110 0.000000 
#    z -0.017520 0.000000 2.001250 
# 
# From -- ./inp_files/15941.got.cif
#   From: 2010.05.17/outbox.cif.g08.bks.cpg/sg4_8_cif.got.tgz:15941.got - 2010.06.03 18:43:04.
