data_PCOD9117746
_publ_section_title
;
Structure prediction by ZEFSAII (Michael W. Deem and Ramdas Pophale) SiO2 
 PCOD9117746
Probable space group: P 21
;
_chemical_formula_sum "Si O2"
_cell_formula_units_Z 16
_cell_length_a 9.900422
_cell_length_b 7.692755
_cell_length_c 11.524092
_cell_angle_alpha 90.000000
_cell_angle_beta 129.014312
_cell_angle_gamma 90.000000
_cell_volume 681.957090
_symmetry_space_group_name_H-M "P 21"
_symmetry_group_IT_number 4
_symmetry_cell_setting 'monoclinic'
loop_
_space_group_symop_operation_xyz
x,y,z
-x,1/2+y,-z
loop_
_atom_site_type_symbol
_atom_site_label
_atom_site_fract_x
_atom_site_fract_y
_atom_site_fract_z
Si Si1 0.178420 0.127040 0.379609
Si Si2 0.227817 0.956043 0.915641
Si Si3 0.438488 0.637466 0.328511
Si Si4 0.199319 0.554881 0.805030
Si Si5 0.847768 0.028592 0.648539
Si Si6 0.315115 0.012463 0.228956
Si Si7 0.507175 0.991351 0.885607
Si Si8 0.344665 0.684764 0.657743
O O1 0.371783 0.077916 0.525212
O O2 0.166276 0.330436 0.404383
O O3 0.005216 0.030664 0.328001
O O4 0.175589 0.094046 0.239719
O O5 0.215489 0.752424 0.868316
O O6 0.386484 0.042226 0.929431
O O7 0.047364 0.049366 0.789074
O O8 0.251739 0.971496 0.065901
O O9 0.283930 0.541917 0.313777
O O10 0.397004 0.838936 0.328017
O O11 0.441952 0.617683 0.191515
O O12 0.291766 0.549615 0.729970
O O13 0.309864 0.439500 0.955133
O O14 0.791727 0.163366 0.518934
O O15 0.472625 0.145000 0.302583
O O16 0.383730 0.856896 0.750806
#
# Coordination Sequence:
#
# PCOD9117746 Si02
#       8
#     2   2   2   2   2   2   2   2
#     4  11  24  43  68  98 139 178 230 285 341 413
#     4  10  24  45  68 101 136 181 232 283 350 412
#     4  12  24  42  66 100 138 182 228 285 344 408
#     4  10  23  45  68 101 136 179 233 287 345 409
#     4  11  25  45  66  99 137 186 231 283 343 416
#     4  12  23  43  68  97 138 182 230 284 348 406
#     4  11  24  43  70  98 136 176 231 288 347 414
#     4  11  23  44  70  94 136 184 225 285 352 408
#
# _framework density 23.461886
#
# number of rings (size 3 to 8) (size 9 to 14) (size 15 to 20)
#    0.000    1.000    5.000    0.750    5.250    0.000 
#    2.250    0.000    0.000    0.000    0.000    0.000 
#    0.000    0.000    0.000    0.000    0.000    0.000 
#
# Total GULP energy -89354.759074 kJ/mol
# GULP energy per Si atom -5584.672442 kJ/mol
# Density = 2.340849 g / cm^3
# Si number density = 23.461886 Si / 1000 Ang^3
#
#
#
# Elastic Constant Matrix: (Units=GPa)
#
#
# Indices 1 2 3 4 5 6 
#
# 1 96.2254 5.7325 31.8928 0.0000 12.7868 0.0000
# 2 5.7325 39.4404 23.5345 0.0000 -10.1187 0.0000
# 3 31.8928 23.5345 96.7658 0.0000 24.0465 0.0000
# 4 0.0000 0.0000 0.0000 37.5908 0.0000 -10.2356
# 5 12.7868 -10.1187 24.0465 0.0000 33.1694 0.0000
# 6 0.0000 0.0000 0.0000 -10.2356 0.0000 22.7227
#
#
#
# Elastic Compliance Matrix: (Units=1/GPa)
#
#
# Indices 1 2 3 4 5 6 
#
# 1 0.011790 -0.000402 -0.003206 0.000000 -0.002344 0.000000
# 2 -0.000402 0.041096 -0.015877 0.000000 0.024202 0.000000
# 3 -0.003206 -0.015877 0.019697 0.000000 -0.017887 0.000000
# 4 0.000000 0.000000 0.000000 0.030321 0.000000 0.013658
# 5 -0.002344 0.024202 -0.017887 0.000000 0.051402 0.000000
# 6 0.000000 0.000000 0.000000 0.013658 0.000000 0.050161
#
#
# Mechanical properties :
#
#
# Convention : Reuss Voigt Hill
#
# Bulk Modulus (GPa) = 29.74908 39.41680 34.58294
# Shear Modulus (GPa) = 19.63542 30.11472 24.87507
#
# Velocity S-wave (km/s) = 2.89607 3.58657 3.25965
# Velocity P-wave (km/s) = 4.88777 5.82993 5.37951
#
# Compressibility (1/GPa) = 0.03361449
#
# Stress axis : x y z
#
# Youngs Moduli (GPa) = 84.81660 24.33325 50.76872
#
# Poissons Ratio (x) = 0.00978 0.16275
# Poissons Ratio (y) = 0.03411 0.80604
# Poissons Ratio (z) = 0.27189 0.38633
#
# Static dielectric constant tensor:
#      x y z
#    x 1.775270 0.000000 0.093920 
#    y 0.000000 1.980170 0.000000 
#    z 0.093920 0.000000 1.717470 
# 
# From -- ./inp_files/9669.got.cif
#   From: 2010.05.17/outbox.cif.g08.bks.cpg/sg4_5_cif.got.tgz:9669.got - 2010.06.03 18:43:04.
