data_PCOD9117777
_publ_section_title
;
Structure prediction by ZEFSAII (Michael W. Deem and Ramdas Pophale) SiO2 
 PCOD9117777
Probable space group: P 21
;
_chemical_formula_sum "Si O2"
_cell_formula_units_Z 12
_cell_length_a 9.326851
_cell_length_b 10.044293
_cell_length_c 5.225444
_cell_angle_alpha 90.000000
_cell_angle_beta 107.051685
_cell_angle_gamma 90.000000
_cell_volume 468.008733
_symmetry_space_group_name_H-M "P 21"
_symmetry_group_IT_number 4
_symmetry_cell_setting 'monoclinic'
loop_
_space_group_symop_operation_xyz
x,y,z
-x,1/2+y,-z
loop_
_atom_site_type_symbol
_atom_site_label
_atom_site_fract_x
_atom_site_fract_y
_atom_site_fract_z
Si Si1 0.555467 0.211220 0.035843
Si Si2 0.270973 0.928473 0.586177
Si Si3 0.439002 0.328782 0.461298
Si Si4 0.771194 0.988851 0.310105
Si Si5 0.041666 0.069853 0.737563
Si Si6 0.000467 0.337319 0.919044
O O1 0.681509 0.322948 0.169331
O O2 0.435876 0.243673 0.198615
O O3 0.634413 0.069501 0.113505
O O4 0.495403 0.237894 0.724380
O O5 0.427045 0.935873 0.516410
O O6 0.144818 0.869370 0.332116
O O7 0.197781 0.060365 0.668322
O O8 0.295654 0.405704 0.488701
O O9 0.857081 0.895306 0.158458
O O10 0.899725 0.088156 0.478633
O O11 0.027225 0.180169 0.947574
O O12 0.021304 0.922464 0.839741
#
# Coordination Sequence:
#
# PCOD9117777 Si02
#       6
#     2   2   2   2   2   2
#     4  10  23  45  72  99 146 187 243 296 375 417
#     4   9  22  43  68  98 144 191 237 296 371 425
#     4  10  24  43  72 105 136 196 236 304 366 438
#     4  11  26  44  74 102 148 195 251 304 371 445
#     4  11  24  44  70 110 149 196 249 308 365 443
#     4  11  25  41  74 106 149 197 248 306 368 442
#
# _framework density 25.640547999999999
#
# number of rings (size 3 to 8) (size 9 to 14) (size 15 to 20)
#    1.000    0.667    1.667    1.000    9.333    2.667 
#    6.000    0.000    0.000    0.000    0.000    0.000 
#    0.000    0.000    0.000    0.000    0.000    0.000 
#
# Total GULP energy -67159.881746 kJ/mol
# GULP energy per Si atom -5596.656812 kJ/mol
# Density = 2.558219 g / cm^3
# Si number density = 25.640548 Si / 1000 Ang^3
#
#
#
# Elastic Constant Matrix: (Units=GPa)
#
#
# Indices 1 2 3 4 5 6 
#
# 1 114.3112 15.8205 26.5030 0.0000 -20.5083 0.0000
# 2 15.8205 52.3819 11.7636 0.0000 6.3500 0.0000
# 3 26.5030 11.7636 93.7183 0.0000 -3.6143 0.0000
# 4 0.0000 0.0000 0.0000 36.8633 0.0000 -4.5617
# 5 -20.5083 6.3500 -3.6143 0.0000 36.6299 0.0000
# 6 0.0000 0.0000 0.0000 -4.5617 0.0000 25.6179
#
#
#
# Elastic Compliance Matrix: (Units=1/GPa)
#
#
# Indices 1 2 3 4 5 6 
#
# 1 0.010968 -0.003564 -0.002403 0.000000 0.006522 0.000000
# 2 -0.003564 0.021304 -0.001893 0.000000 -0.005875 0.000000
# 3 -0.002403 -0.001893 0.011592 0.000000 0.000127 0.000000
# 4 0.000000 0.000000 0.000000 0.027738 0.000000 0.004939
# 5 0.006522 -0.005875 0.000127 0.000000 0.031982 0.000000
# 6 0.000000 0.000000 0.000000 0.004939 0.000000 0.039915
#
#
# Mechanical properties :
#
#
# Convention : Reuss Voigt Hill
#
# Bulk Modulus (GPa) = 35.52927 40.95395 38.24161
# Shear Modulus (GPa) = 29.65571 33.57717 31.61644
#
# Velocity S-wave (km/s) = 3.40456 3.62267 3.51531
# Velocity P-wave (km/s) = 5.41678 5.78838 5.60566
#
# Compressibility (1/GPa) = 0.02814581
#
# Stress axis : x y z
#
# Youngs Moduli (GPa) = 91.17082 46.93905 86.26414
#
# Poissons Ratio (x) = 0.16728 0.20729
# Poissons Ratio (y) = 0.32490 0.16329
# Poissons Ratio (z) = 0.21908 0.08885
#
# Static dielectric constant tensor:
#      x y z
#    x 1.985570 0.000000 0.005600 
#    y 0.000000 2.015310 0.000000 
#    z 0.005600 0.000000 1.984470 
# 
# From -- ./inp_files/1307.got.cif
#   From: 2010.05.17/outbox.cif.g08.bks.cpg/sg4_1_cif.got.tgz:1307.got - 2010.06.03 18:43:04.
