data_PCOD9117851
_publ_section_title
;
Structure prediction by ZEFSAII (Michael W. Deem and Ramdas Pophale) SiO2 
 PCOD9117851
Probable space group: P 21
;
_chemical_formula_sum "Si O2"
_cell_formula_units_Z 16
_cell_length_a 12.879043
_cell_length_b 8.353365
_cell_length_c 6.691536
_cell_angle_alpha 90.000000
_cell_angle_beta 100.594489
_cell_angle_gamma 90.000000
_cell_volume 707.625769
_symmetry_space_group_name_H-M "P 21"
_symmetry_group_IT_number 4
_symmetry_cell_setting 'monoclinic'
loop_
_space_group_symop_operation_xyz
x,y,z
-x,1/2+y,-z
loop_
_atom_site_type_symbol
_atom_site_label
_atom_site_fract_x
_atom_site_fract_y
_atom_site_fract_z
Si Si1 0.607626 0.600770 0.670459
Si Si2 0.743255 0.416204 0.016067
Si Si3 0.544024 0.085329 0.731985
Si Si4 0.525839 0.297492 0.065664
Si Si5 0.868272 0.739965 0.076474
Si Si6 0.928277 0.943705 0.466793
Si Si7 0.049799 0.744791 0.814114
Si Si8 0.741005 0.921758 0.705950
O O1 0.685229 0.469225 0.790892
O O2 0.540730 0.539137 0.462132
O O3 0.522716 0.664962 0.803453
O O4 0.674713 0.759199 0.637234
O O5 0.649619 0.344816 0.121194
O O6 0.793399 0.588196 0.093431
O O7 0.839632 0.292313 0.045274
O O8 0.541010 0.951733 0.902242
O O9 0.661681 0.070506 0.693837
O O10 0.510788 0.244513 0.832402
O O11 0.915549 0.805020 0.297479
O O12 0.800526 0.876254 0.934218
O O13 0.961952 0.704270 0.950604
O O14 0.822723 0.953361 0.559951
O O15 0.014504 0.895138 0.663310
O O16 0.945315 0.099692 0.339643
#
# Coordination Sequence:
#
# PCOD9117851 Si02
#       8
#     2   2   2   2   2   2   2   2
#     4  10  24  45  69 102 142 188 237 290 347 432
#     4  11  24  46  70 101 141 188 231 290 365 408
#     4  11  25  45  70 101 145 180 239 289 353 427
#     4  11  25  44  67 102 140 187 229 297 344 421
#     4  10  23  47  69  98 138 182 236 294 350 421
#     4  11  24  46  75  99 144 179 235 295 355 428
#     4  11  25  46  70 109 135 185 235 294 359 425
#     4   9  24  41  68 100 133 183 228 289 353 410
#
# _framework density 22.61082
#
# number of rings (size 3 to 8) (size 9 to 14) (size 15 to 20)
#    0.000    1.500    1.250    1.500    8.750    1.000 
#    6.750    0.000    0.000    0.000    0.000    0.000 
#    0.000    0.000    0.000    0.000    0.000    0.000 
#
# Total GULP energy -89397.949657 kJ/mol
# GULP energy per Si atom -5587.371854 kJ/mol
# Density = 2.255936 g / cm^3
# Si number density = 22.610820 Si / 1000 Ang^3
#
#
#
# Elastic Constant Matrix: (Units=GPa)
#
#
# Indices 1 2 3 4 5 6 
#
# 1 123.0028 14.3958 52.0791 0.0000 10.3138 0.0000
# 2 14.3958 43.4971 24.0978 0.0000 14.9719 0.0000
# 3 52.0791 24.0978 95.0783 0.0000 7.3091 0.0000
# 4 0.0000 0.0000 0.0000 24.6707 0.0000 3.2351
# 5 10.3138 14.9719 7.3091 0.0000 15.4628 0.0000
# 6 0.0000 0.0000 0.0000 3.2351 0.0000 38.1099
#
#
#
# Elastic Compliance Matrix: (Units=1/GPa)
#
#
# Indices 1 2 3 4 5 6 
#
# 1 0.010981 0.001853 -0.006001 0.000000 -0.006281 0.000000
# 2 0.001853 0.039015 -0.008202 0.000000 -0.035135 0.000000
# 3 -0.006001 -0.008202 0.015530 0.000000 0.004604 0.000000
# 4 0.000000 0.000000 0.000000 0.040990 0.000000 -0.003480
# 5 -0.006281 -0.035135 0.004604 0.000000 0.100704 0.000000
# 6 0.000000 0.000000 0.000000 -0.003480 0.000000 0.026535
#
#
# Mechanical properties :
#
#
# Convention : Reuss Voigt Hill
#
# Bulk Modulus (GPa) = 24.49576 49.19152 36.84364
# Shear Modulus (GPa) = 18.37800 27.04905 22.71353
#
# Velocity S-wave (km/s) = 2.85405 3.46249 3.17289
# Velocity P-wave (km/s) = 4.66026 6.14720 5.45464
#
# Compressibility (1/GPa) = 0.04082338
#
# Stress axis : x y z
#
# Youngs Moduli (GPa) = 91.06876 25.63146 64.39223
#
# Poissons Ratio (x) = -0.04749 0.38644
# Poissons Ratio (y) = -0.16872 0.52816
# Poissons Ratio (z) = 0.54654 0.21023
#
# Static dielectric constant tensor:
#      x y z
#    x 1.834120 0.000000 0.009510 
#    y 0.000000 1.915980 0.000000 
#    z 0.009510 0.000000 1.805400 
# 
# From -- ./inp_files/2630.got.cif
#   From: 2010.05.17/outbox.cif.g08.bks.cpg/sg4_2_cif.got.tgz:2630.got - 2010.06.03 18:43:04.
