data_PCOD9117418
_publ_section_title
;
Structure prediction by ZEFSAII (Michael W. Deem and Ramdas Pophale) SiO2 
 PCOD9117418
Probable space group: P 21
;
_chemical_formula_sum "Si O2"
_cell_formula_units_Z 14
_cell_length_a 12.938913
_cell_length_b 4.862259
_cell_length_c 8.892690
_cell_angle_alpha 90.000000
_cell_angle_beta 106.178500
_cell_angle_gamma 90.000000
_cell_volume 537.304430
_symmetry_space_group_name_H-M "P 21"
_symmetry_group_IT_number 4
_symmetry_cell_setting 'monoclinic'
loop_
_space_group_symop_operation_xyz
x,y,z
-x,1/2+y,-z
loop_
_atom_site_type_symbol
_atom_site_label
_atom_site_fract_x
_atom_site_fract_y
_atom_site_fract_z
Si Si1 0.280012 0.982180 0.392225
Si Si2 0.052319 0.765573 0.192786
Si Si3 0.483832 0.670336 0.895386
Si Si4 0.061967 0.383044 0.459627
Si Si5 0.343865 0.480402 0.231624
Si Si6 0.849700 0.111835 0.069297
Si Si7 0.260685 0.676022 0.681474
O O1 0.155137 0.924772 0.302853
O O2 0.348462 0.778805 0.310717
O O3 0.291579 0.901090 0.569886
O O4 0.310341 0.284193 0.354889
O O5 0.056000 0.476428 0.283552
O O6 0.081960 0.768068 0.029261
O O7 0.934060 0.887810 0.163256
O O8 0.554164 0.841045 0.805079
O O9 0.373284 0.556028 0.783186
O O10 0.542678 0.406526 0.991098
O O11 0.178417 0.466129 0.569363
O O12 0.022770 0.085700 0.491632
O O13 0.249646 0.488494 0.067338
O O14 0.801481 0.270763 0.192515
#
# Coordination Sequence:
#
# PCOD9117418 Si02
#       7
#     2   2   2   2   2   2   2
#     4  10  25  47  70 107 143 190 242 305 370 450
#     4  10  23  38  69  99 143 183 238 291 366 433
#     4  12  27  47  76 110 146 193 252 316 372 439
#     4  11  25  45  69 101 144 186 235 298 365 441
#     4  11  24  47  73 101 149 189 245 306 366 438
#     4  11  22  44  70 110 143 200 245 308 369 450
#     4  11  26  46  75 108 148 195 253 306 380 447
#
# _framework density 26.055989
#
# number of rings (size 3 to 8) (size 9 to 14) (size 15 to 20)
#    0.000    1.143    2.857    1.714    4.000   11.429 
#    0.000    0.000    0.000    0.000    0.000    0.000 
#    0.000    0.000    0.000    0.000    0.000    0.000 
#
# Total GULP energy -78493.220243 kJ/mol
# GULP energy per Si atom -5606.658589 kJ/mol
# Density = 2.599668 g / cm^3
# Si number density = 26.055989 Si / 1000 Ang^3
#
#
#
# Elastic Constant Matrix: (Units=GPa)
#
#
# Indices 1 2 3 4 5 6 
#
# 1 120.6662 2.2026 50.4922 0.0000 -8.7780 0.0000
# 2 2.2026 57.1955 5.8844 0.0000 -1.9534 0.0000
# 3 50.4922 5.8844 145.8518 0.0000 -13.9749 0.0000
# 4 0.0000 0.0000 0.0000 28.6836 0.0000 -10.8862
# 5 -8.7780 -1.9534 -13.9749 0.0000 53.7227 0.0000
# 6 0.0000 0.0000 0.0000 -10.8862 0.0000 42.5260
#
#
#
# Elastic Compliance Matrix: (Units=1/GPa)
#
#
# Indices 1 2 3 4 5 6 
#
# 1 0.009719 -0.000010 -0.003294 0.000000 0.000731 0.000000
# 2 -0.000010 0.017568 -0.000661 0.000000 0.000465 0.000000
# 3 -0.003294 -0.000661 0.008173 0.000000 0.001564 0.000000
# 4 0.000000 0.000000 0.000000 0.038615 0.000000 0.009885
# 5 0.000731 0.000465 0.001564 0.000000 0.019157 0.000000
# 6 0.000000 0.000000 0.000000 0.009885 0.000000 0.026045
#
#
# Mechanical properties :
#
#
# Convention : Reuss Voigt Hill
#
# Bulk Modulus (GPa) = 36.32402 48.98576 42.65489
# Shear Modulus (GPa) = 36.66094 42.66208 39.66151
#
# Velocity S-wave (km/s) = 3.75508 4.05078 3.90573
# Velocity P-wave (km/s) = 5.72467 6.38117 6.06182
#
# Compressibility (1/GPa) = 0.02752999
#
# Stress axis : x y z
#
# Youngs Moduli (GPa) = 102.88998 56.92124 122.35140
#
# Poissons Ratio (x) = 0.00059 0.40305
# Poissons Ratio (y) = 0.00107 0.08083
# Poissons Ratio (z) = 0.33894 0.03760
#
# Static dielectric constant tensor:
#      x y z
#    x 2.030480 0.000000 -0.039640 
#    y 0.000000 2.046640 0.000000 
#    z -0.039640 0.000000 2.052880 
# 
# From -- ./inp_files/7240.got.cif
#   From: 2010.05.17/outbox.cif.g08.bks.cpg/sg4_4_cif.got.tgz:7240.got - 2010.06.03 18:43:04.
