data_PCOD9117514
_publ_section_title
;
Structure prediction by ZEFSAII (Michael W. Deem and Ramdas Pophale) SiO2 
 PCOD9117514
Probable space group: P 21
;
_chemical_formula_sum "Si O2"
_cell_formula_units_Z 16
_cell_length_a 16.865117
_cell_length_b 8.417897
_cell_length_c 5.128512
_cell_angle_alpha 90.000000
_cell_angle_beta 118.194639
_cell_angle_gamma 90.000000
_cell_volume 641.699350
_symmetry_space_group_name_H-M "P 21"
_symmetry_group_IT_number 4
_symmetry_cell_setting 'monoclinic'
loop_
_space_group_symop_operation_xyz
x,y,z
-x,1/2+y,-z
loop_
_atom_site_type_symbol
_atom_site_label
_atom_site_fract_x
_atom_site_fract_y
_atom_site_fract_z
Si Si1 0.416069 0.243750 0.096949
Si Si2 0.683276 0.212427 0.539396
Si Si3 0.775668 0.511448 0.611050
Si Si4 0.221287 0.640268 0.824850
Si Si5 0.223466 0.289394 0.993857
Si Si6 0.069757 0.834103 0.815562
Si Si7 0.528246 0.948986 0.311023
Si Si8 0.073891 0.125508 0.515778
O O1 0.453358 0.349012 0.398103
O O2 0.439600 0.058088 0.168682
O O3 0.308129 0.260617 0.932229
O O4 0.457316 0.326072 0.903334
O O5 0.690959 0.395108 0.453652
O O6 0.750848 0.131331 0.431495
O O7 0.599898 0.094310 0.397455
O O8 0.706897 0.232757 0.882806
O O9 0.832465 0.555695 0.446928
O O10 0.754477 0.672538 0.732499
O O11 0.854217 0.407410 0.880282
O O12 0.222104 0.478547 0.990962
O O13 0.126466 0.726393 0.704075
O O14 0.119049 0.251633 0.776249
O O15 0.990648 0.716754 0.784455
O O16 0.028649 0.984094 0.602161
#
# Coordination Sequence:
#
# PCOD9117514 Si02
#       8
#     2   2   2   2   2   2   2   2
#     4  12  28  48  74 110 146 188 243 294 367 433
#     4  11  22  45  71  95 141 182 231 285 357 423
#     4  10  25  41  66 102 135 191 238 294 360 423
#     4  11  22  43  71  99 136 185 234 288 344 424
#     4  11  25  43  68 104 135 184 240 293 351 429
#     4  10  23  42  62 100 136 184 240 291 358 420
#     4  12  26  49  73 108 146 190 238 299 364 433
#     4  11  23  43  65  94 141 182 238 296 357 423
#
# _framework density 24.933796000000001
#
# number of rings (size 3 to 8) (size 9 to 14) (size 15 to 20)
#    0.000    1.000    3.750    1.500    5.250    4.000 
#    2.250    0.000    0.000    0.000    0.000    0.000 
#    0.000    0.000    0.000    0.000    0.000    0.000 
#
# Total GULP energy -89229.561814 kJ/mol
# GULP energy per Si atom -5576.847613 kJ/mol
# Density = 2.487705 g / cm^3
# Si number density = 24.933796 Si / 1000 Ang^3
#
#
#
# Elastic Constant Matrix: (Units=GPa)
#
#
# Indices 1 2 3 4 5 6 
#
# 1 29.7057 21.1933 27.5156 0.0000 -3.5673 0.0000
# 2 21.1933 103.3067 43.0252 0.0000 9.9619 0.0000
# 3 27.5156 43.0252 92.2313 0.0000 -11.2191 0.0000
# 4 0.0000 0.0000 0.0000 40.2297 0.0000 11.5828
# 5 -3.5673 9.9619 -11.2191 0.0000 30.2917 0.0000
# 6 0.0000 0.0000 0.0000 11.5828 0.0000 53.5627
#
#
#
# Elastic Compliance Matrix: (Units=1/GPa)
#
#
# Indices 1 2 3 4 5 6 
#
# 1 0.048683 -0.005481 -0.011571 0.000000 0.003250 0.000000
# 2 -0.005481 0.013906 -0.005745 0.000000 -0.007346 0.000000
# 3 -0.011571 -0.005745 0.017842 0.000000 0.007135 0.000000
# 4 0.000000 0.000000 0.000000 0.026508 0.000000 -0.005732
# 5 0.003250 -0.007346 0.007135 0.000000 0.038454 0.000000
# 6 0.000000 0.000000 0.000000 -0.005732 0.000000 0.019909
#
#
# Mechanical properties :
#
#
# Convention : Reuss Voigt Hill
#
# Bulk Modulus (GPa) = 28.70678 45.41244 37.05961
# Shear Modulus (GPa) = 22.47102 33.71745 28.09423
#
# Velocity S-wave (km/s) = 3.00530 3.68132 3.36036
# Velocity P-wave (km/s) = 4.85599 6.02680 5.47279
#
# Compressibility (1/GPa) = 0.03483497
#
# Stress axis : x y z
#
# Youngs Moduli (GPa) = 20.54114 71.91349 56.04635
#
# Poissons Ratio (x) = 0.39419 0.64853
# Poissons Ratio (y) = 0.11259 0.32200
# Poissons Ratio (z) = 0.23769 0.41316
#
# Static dielectric constant tensor:
#      x y z
#    x 2.014780 0.000000 0.051110 
#    y 0.000000 2.107420 0.000000 
#    z 0.051110 0.000000 2.061160 
# 
# From -- ./inp_files/3563.got.cif
#   From: 2010.05.17/outbox.cif.g08.bks.cpg/sg4_2_cif.got.tgz:3563.got - 2010.06.03 18:43:04.
