data_PCOD9117629
_publ_section_title
;
Structure prediction by ZEFSAII (Michael W. Deem and Ramdas Pophale) SiO2 
 PCOD9117629
Probable space group: P 21
;
_chemical_formula_sum "Si O2"
_cell_formula_units_Z 16
_cell_length_a 13.665565
_cell_length_b 5.505069
_cell_length_c 24.757270
_cell_angle_alpha 90.000000
_cell_angle_beta 159.789861
_cell_angle_gamma 90.000000
_cell_volume 643.422504
_symmetry_space_group_name_H-M "P 21"
_symmetry_group_IT_number 4
_symmetry_cell_setting 'monoclinic'
loop_
_space_group_symop_operation_xyz
x,y,z
-x,1/2+y,-z
loop_
_atom_site_type_symbol
_atom_site_label
_atom_site_fract_x
_atom_site_fract_y
_atom_site_fract_z
Si Si1 0.520645 0.291990 0.876670
Si Si2 0.207655 0.414661 0.054207
Si Si3 0.570955 0.806866 0.475294
Si Si4 0.373541 0.195015 0.242070
Si Si5 0.091655 0.540711 0.169841
Si Si6 0.648932 0.760411 0.094138
Si Si7 0.181140 0.449598 0.594754
Si Si8 0.745645 0.307311 0.581489
O O1 0.325888 0.275733 0.827822
O O2 0.370206 0.424393 0.747801
O O3 0.610831 0.030921 0.899727
O O4 0.818529 0.406931 0.052972
O O5 0.396555 0.385028 0.204656
O O6 0.940744 0.585569 0.926495
O O7 0.063249 0.167031 0.960608
O O8 0.271641 0.748069 0.292466
O O9 0.701620 0.060602 0.525786
O O10 0.516299 0.827204 0.511786
O O11 0.764787 0.573275 0.565703
O O12 0.328263 0.348554 0.272913
O O13 0.610051 0.998764 0.348640
O O14 0.966526 0.765063 0.236784
O O15 0.503324 0.505180 0.004731
O O16 0.988675 0.694706 0.498629
#
# Coordination Sequence:
#
# PCOD9117629 Si02
#       8
#     2   2   2   2   2   2   2   2
#     4  11  27  46  71 108 145 187 252 307 356 438
#     4  11  21  41  72 100 140 176 235 312 354 408
#     4  10  23  43  70 101 138 183 227 288 365 413
#     4  11  22  42  67 105 139 186 236 302 356 419
#     4  11  24  40  76 104 137 181 245 303 358 424
#     4  12  28  48  78 107 143 193 242 295 362 432
#     4  12  28  48  72 102 152 208 241 291 368 442
#     4  10  23  46  68  99 146 178 226 294 349 426
#
# _framework density 24.867018999999999
#
# number of rings (size 3 to 8) (size 9 to 14) (size 15 to 20)
#    0.000    1.000    2.500    3.000    8.750    2.000 
#    0.000    1.250    0.000    0.000    0.000    0.000 
#    0.000    0.000    0.000    0.000    0.000    0.000 
#
# Total GULP energy -89370.343796 kJ/mol
# GULP energy per Si atom -5585.646487 kJ/mol
# Density = 2.481042 g / cm^3
# Si number density = 24.867019 Si / 1000 Ang^3
#
#
#
# Elastic Constant Matrix: (Units=GPa)
#
#
# Indices 1 2 3 4 5 6 
#
# 1 69.6366 16.6891 10.6443 0.0000 7.4355 0.0000
# 2 16.6891 170.1168 59.7163 0.0000 4.0406 0.0000
# 3 10.6443 59.7163 94.7115 0.0000 4.7314 0.0000
# 4 0.0000 0.0000 0.0000 56.4311 0.0000 -9.2386
# 5 7.4355 4.0406 4.7314 0.0000 24.7146 0.0000
# 6 0.0000 0.0000 0.0000 -9.2386 0.0000 21.3145
#
#
#
# Elastic Compliance Matrix: (Units=1/GPa)
#
#
# Indices 1 2 3 4 5 6 
#
# 1 0.015201 -0.001111 -0.000796 0.000000 -0.004239 0.000000
# 2 -0.001111 0.007633 -0.004687 0.000000 -0.000016 0.000000
# 3 -0.000796 -0.004687 0.013684 0.000000 -0.001614 0.000000
# 4 0.000000 0.000000 0.000000 0.019074 0.000000 0.008268
# 5 -0.004239 -0.000016 -0.001614 0.000000 0.042049 0.000000
# 6 0.000000 0.000000 0.000000 0.008268 0.000000 0.050500
#
#
# Mechanical properties :
#
#
# Convention : Reuss Voigt Hill
#
# Bulk Modulus (GPa) = 42.86464 56.50716 49.68590
# Shear Modulus (GPa) = 29.56738 36.98639 33.27688
#
# Velocity S-wave (km/s) = 3.45196 3.86082 3.66210
# Velocity P-wave (km/s) = 5.75873 6.53052 6.15673
#
# Compressibility (1/GPa) = 0.02332925
#
# Stress axis : x y z
#
# Youngs Moduli (GPa) = 65.78562 131.01046 73.08007
#
# Poissons Ratio (x) = 0.14557 0.05817
# Poissons Ratio (y) = 0.07310 0.34252
# Poissons Ratio (z) = 0.05237 0.61404
#
# Static dielectric constant tensor:
#      x y z
#    x 2.023520 0.000000 0.000180 
#    y 0.000000 2.056620 0.000000 
#    z 0.000180 0.000000 2.036660 
# 
# From -- ./inp_files/10043.got.cif
#   From: 2010.05.17/outbox.cif.g08.bks.cpg/sg4_6_cif.got.tgz:10043.got - 2010.06.03 18:43:04.
