data_PCOD9117947
_publ_section_title
;
Structure prediction by ZEFSAII (Michael W. Deem and Ramdas Pophale) SiO2 
 PCOD9117947
Probable space group: P 21
;
_chemical_formula_sum "Si O2"
_cell_formula_units_Z 12
_cell_length_a 15.730168
_cell_length_b 5.472214
_cell_length_c 9.799741
_cell_angle_alpha 90.000000
_cell_angle_beta 38.461925
_cell_angle_gamma 90.000000
_cell_volume 524.683645
_symmetry_space_group_name_H-M "P 21"
_symmetry_group_IT_number 4
_symmetry_cell_setting 'monoclinic'
loop_
_space_group_symop_operation_xyz
x,y,z
-x,1/2+y,-z
loop_
_atom_site_type_symbol
_atom_site_label
_atom_site_fract_x
_atom_site_fract_y
_atom_site_fract_z
Si Si1 0.663864 0.776330 0.704862
Si Si2 0.600598 0.549000 0.053369
Si Si3 0.073101 0.448785 0.742042
Si Si4 0.920132 0.943172 0.937491
Si Si5 0.668907 0.207765 0.195241
Si Si6 0.593647 0.436855 0.554625
O O1 0.778851 0.963933 0.513684
O O2 0.670639 0.563313 0.582545
O O3 0.509929 0.878966 0.886564
O O4 0.683408 0.688091 0.833563
O O5 0.689415 0.385972 0.042802
O O6 0.504543 0.728419 0.261914
O O7 0.987719 0.688651 0.811899
O O8 0.088974 0.442863 0.886169
O O9 0.002461 0.189773 0.793409
O O10 0.768893 0.978910 0.067632
O O11 0.689398 0.338508 0.314786
O O12 0.510229 0.130995 0.383347
#
# Coordination Sequence:
#
# PCOD9117947 Si02
#       6
#     2   2   2   2   2   2
#     4  11  24  41  69 103 138 183 238 285 363 434
#     4  11  23  41  66 103 141 181 226 299 358 426
#     4  10  24  41  71 102 136 189 236 293 347 415
#     4  10  24  43  67 104 139 182 240 296 344 415
#     4  11  24  39  68 104 141 182 233 292 363 419
#     4  11  23  39  67 104 139 181 225 299 359 421
#
# _framework density 22.870925
#
# number of rings (size 3 to 8) (size 9 to 14) (size 15 to 20)
#    0.000    1.333    3.333    1.000   14.000    0.000 
#    0.000    0.000    3.667    0.000    0.000    0.000 
#    0.000    0.000    0.000    0.000    0.000    0.000 
#
# Total GULP energy -67190.507070 kJ/mol
# GULP energy per Si atom -5599.208923 kJ/mol
# Density = 2.281887 g / cm^3
# Si number density = 22.870925 Si / 1000 Ang^3
#
#
#
# Elastic Constant Matrix: (Units=GPa)
#
#
# Indices 1 2 3 4 5 6 
#
# 1 55.9034 32.0993 37.2088 0.0000 4.5826 0.0000
# 2 32.0993 106.1245 36.7235 0.0000 5.3804 0.0000
# 3 37.2088 36.7235 72.5196 0.0000 3.1747 0.0000
# 4 0.0000 0.0000 0.0000 30.0118 0.0000 -5.4709
# 5 4.5826 5.3804 3.1747 0.0000 30.3560 0.0000
# 6 0.0000 0.0000 0.0000 -5.4709 0.0000 41.3023
#
#
#
# Elastic Compliance Matrix: (Units=1/GPa)
#
#
# Indices 1 2 3 4 5 6 
#
# 1 0.028889 -0.004277 -0.012557 0.000000 -0.002290 0.000000
# 2 -0.004277 0.012120 -0.003895 0.000000 -0.001095 0.000000
# 3 -0.012557 -0.003895 0.022193 0.000000 0.000265 0.000000
# 4 0.000000 0.000000 0.000000 0.034145 0.000000 0.004523
# 5 -0.002290 -0.001095 0.000265 0.000000 0.033455 0.000000
# 6 0.000000 0.000000 0.000000 0.004523 0.000000 0.024811
#
#
# Mechanical properties :
#
#
# Convention : Reuss Voigt Hill
#
# Bulk Modulus (GPa) = 45.98815 49.62343 47.80579
# Shear Modulus (GPa) = 24.47179 28.90174 26.68676
#
# Velocity S-wave (km/s) = 3.27463 3.55870 3.41961
# Velocity P-wave (km/s) = 5.86932 6.21531 6.04479
#
# Compressibility (1/GPa) = 0.02174473
#
# Stress axis : x y z
#
# Youngs Moduli (GPa) = 34.61535 82.50897 45.05955
#
# Poissons Ratio (x) = 0.35287 0.56579
# Poissons Ratio (y) = 0.14804 0.17551
# Poissons Ratio (z) = 0.43465 0.32138
#
# Static dielectric constant tensor:
#      x y z
#    x 1.847150 0.000000 -0.039960 
#    y 0.000000 1.918080 0.000000 
#    z -0.039960 0.000000 1.815470 
# 
# From -- ./inp_files/7040.got.cif
#   From: 2010.05.17/outbox.cif.g08.bks.cpg/sg4_4_cif.got.tgz:7040.got - 2010.06.03 18:43:04.
