data_PCOD9117778
_publ_section_title
;
Structure prediction by ZEFSAII (Michael W. Deem and Ramdas Pophale) SiO2 
 PCOD9117778
Probable space group: P 21
;
_chemical_formula_sum "Si O2"
_cell_formula_units_Z 16
_cell_length_a 19.064827
_cell_length_b 6.016532
_cell_length_c 7.798158
_cell_angle_alpha 90.000000
_cell_angle_beta 45.861321
_cell_angle_gamma 90.000000
_cell_volume 641.929975
_symmetry_space_group_name_H-M "P 21"
_symmetry_group_IT_number 4
_symmetry_cell_setting 'monoclinic'
loop_
_space_group_symop_operation_xyz
x,y,z
-x,1/2+y,-z
loop_
_atom_site_type_symbol
_atom_site_label
_atom_site_fract_x
_atom_site_fract_y
_atom_site_fract_z
Si Si1 0.753754 0.350720 0.873747
Si Si2 0.195764 0.454031 0.030240
Si Si3 0.204279 0.450007 0.640817
Si Si4 0.637865 0.190037 0.762825
Si Si5 0.037338 0.736618 0.995074
Si Si6 0.463771 0.015894 0.282150
Si Si7 0.604665 0.703453 0.246515
Si Si8 0.102662 0.221148 0.491695
O O1 0.719356 0.203917 0.772331
O O2 0.844231 0.498909 0.659410
O O3 0.655333 0.484376 0.085354
O O4 0.786463 0.215209 0.983867
O O5 0.177487 0.356129 0.873810
O O6 0.301956 0.363377 0.904574
O O7 0.117847 0.382287 0.304952
O O8 0.319083 0.495095 0.429184
O O9 0.163749 0.308297 0.553112
O O10 0.147201 0.686705 0.749169
O O11 0.625103 0.412188 0.673939
O O12 0.536411 0.136131 0.027294
O O13 0.005709 0.715374 0.247794
O O14 0.989739 0.494291 0.008212
O O15 0.523281 0.807101 0.262657
O O16 0.435571 0.159059 0.495442
#
# Coordination Sequence:
#
# PCOD9117778 Si02
#       8
#     2   2   2   2   2   2   2   2
#     4  11  21  45  68  95 141 181 233 300 366 422
#     4  11  24  45  69 103 139 187 239 291 366 434
#     4  11  24  45  73 105 141 189 236 293 367 441
#     4  12  24  40  67  97 131 183 235 297 351 440
#     4  10  23  47  77 113 149 194 239 300 367 440
#     4  12  26  40  65  95 136 179 245 291 364 427
#     4  11  25  43  62  94 134 185 229 308 354 431
#     4  10  23  45  73 102 145 186 232 300 353 445
#
# _framework density 24.924835999999999
#
# number of rings (size 3 to 8) (size 9 to 14) (size 15 to 20)
#    0.000    1.000    2.500    3.750    7.000    0.000 
#   11.250    0.000    0.000    0.000    0.000    0.000 
#    0.000    0.000    0.000    0.000    0.000    0.000 
#
# Total GULP energy -89405.875437 kJ/mol
# GULP energy per Si atom -5587.867215 kJ/mol
# Density = 2.486811 g / cm^3
# Si number density = 24.924836 Si / 1000 Ang^3
#
#
#
# Elastic Constant Matrix: (Units=GPa)
#
#
# Indices 1 2 3 4 5 6 
#
# 1 68.1482 17.1139 1.3205 0.0000 16.5548 0.0000
# 2 17.1139 74.2432 19.4648 0.0000 12.4688 0.0000
# 3 1.3205 19.4648 152.3305 0.0000 16.4237 0.0000
# 4 0.0000 0.0000 0.0000 24.1984 0.0000 -2.4041
# 5 16.5548 12.4688 16.4237 0.0000 41.5977 0.0000
# 6 0.0000 0.0000 0.0000 -2.4041 0.0000 24.8154
#
#
#
# Elastic Compliance Matrix: (Units=1/GPa)
#
#
# Indices 1 2 3 4 5 6 
#
# 1 0.016935 -0.003108 0.000915 0.000000 -0.006170 0.000000
# 2 -0.003108 0.015051 -0.001612 0.000000 -0.002638 0.000000
# 3 0.000915 -0.001612 0.007050 0.000000 -0.002665 0.000000
# 4 0.000000 0.000000 0.000000 0.041727 0.000000 0.004042
# 5 -0.006170 -0.002638 -0.002665 0.000000 0.028338 0.000000
# 6 0.000000 0.000000 0.000000 0.004042 0.000000 0.040689
#
#
# Mechanical properties :
#
#
# Convention : Reuss Voigt Hill
#
# Bulk Modulus (GPa) = 31.81807 41.16890 36.49348
# Shear Modulus (GPa) = 29.78410 35.24382 32.51396
#
# Velocity S-wave (km/s) = 3.46056 3.76440 3.61568
# Velocity P-wave (km/s) = 5.36290 5.95377 5.66604
#
# Compressibility (1/GPa) = 0.03142869
#
# Stress axis : x y z
#
# Youngs Moduli (GPa) = 59.04807 66.43947 141.84409
#
# Poissons Ratio (x) = 0.20647 -0.12986
# Poissons Ratio (y) = 0.18350 0.22863
# Poissons Ratio (z) = -0.05406 0.10709
#
# Static dielectric constant tensor:
#      x y z
#    x 1.993380 0.000000 -0.000930 
#    y 0.000000 2.054940 0.000000 
#    z -0.000930 0.000000 1.965680 
# 
# From -- ./inp_files/9964.got.cif
#   From: 2010.05.17/outbox.cif.g08.bks.cpg/sg4_5_cif.got.tgz:9964.got - 2010.06.03 18:43:04.
