data_PCOD9117027
_publ_section_title
;
Structure prediction by ZEFSAII (Michael W. Deem and Ramdas Pophale) SiO2 
 PCOD9117027
Probable space group: P 21
;
_chemical_formula_sum "Si O2"
_cell_formula_units_Z 16
_cell_length_a 8.889032
_cell_length_b 5.581636
_cell_length_c 21.777287
_cell_angle_alpha 90.000000
_cell_angle_beta 140.966301
_cell_angle_gamma 90.000000
_cell_volume 680.466586
_symmetry_space_group_name_H-M "P 21"
_symmetry_group_IT_number 4
_symmetry_cell_setting 'monoclinic'
loop_
_space_group_symop_operation_xyz
x,y,z
-x,1/2+y,-z
loop_
_atom_site_type_symbol
_atom_site_label
_atom_site_fract_x
_atom_site_fract_y
_atom_site_fract_z
Si Si1 0.286972 0.944410 0.723525
Si Si2 0.606107 0.955526 0.611717
Si Si3 0.959168 0.117955 0.023792
Si Si4 0.496416 0.858215 0.909755
Si Si5 0.835116 0.651033 0.113274
Si Si6 0.808595 0.702146 0.566380
Si Si7 0.956647 0.822540 0.269573
Si Si8 0.274000 0.351169 0.221658
O O1 0.399103 0.775520 0.813139
O O2 0.490358 0.945527 0.737531
O O3 0.031954 0.861189 0.616363
O O4 0.225843 0.182187 0.743312
O O5 0.616945 0.839256 0.547915
O O6 0.659279 0.788122 0.686994
O O7 0.345823 0.073733 0.534348
O O8 0.824421 0.142450 0.677119
O O9 0.686178 0.074889 0.958264
O O10 0.862028 0.652510 0.861912
O O11 0.017542 0.868981 0.006216
O O12 0.273099 0.942235 0.878730
O O13 0.654892 0.685030 0.000685
O O14 0.849831 0.866994 0.167716
O O15 0.085895 0.568757 0.166139
O O16 0.931482 0.529788 0.655063
#
# Coordination Sequence:
#
# PCOD9117027 Si02
#       8
#     2   2   2   2   2   2   2   2
#     4  10  24  41  62  97 141 181 233 284 369 444
#     4  10  22  42  71  97 129 172 244 300 366 432
#     4  12  26  46  74 105 153 201 243 297 373 445
#     4  11  23  42  67 105 140 190 242 300 357 439
#     4  10  23  39  67  99 139 182 243 297 353 428
#     4  11  21  43  69  95 127 183 232 303 369 426
#     4   9  21  41  66  95 128 177 225 296 355 431
#     4  11  24  46  64 103 143 184 242 299 364 449
#
# _framework density 23.513280000000002
#
# number of rings (size 3 to 8) (size 9 to 14) (size 15 to 20)
#    0.000    1.500    2.500    2.250    3.500    2.000 
#    2.250    0.000    0.000    0.000    0.000    0.000 
#    0.000    0.000    0.000    0.000    0.000    0.000 
#
# Total GULP energy -89366.091485 kJ/mol
# GULP energy per Si atom -5585.380718 kJ/mol
# Density = 2.345976 g / cm^3
# Si number density = 23.513280 Si / 1000 Ang^3
#
#
#
# Elastic Constant Matrix: (Units=GPa)
#
#
# Indices 1 2 3 4 5 6 
#
# 1 131.6625 22.0639 36.4841 0.0000 27.9171 0.0000
# 2 22.0639 56.8691 12.6901 0.0000 4.4886 0.0000
# 3 36.4841 12.6901 120.4187 0.0000 16.0116 0.0000
# 4 0.0000 0.0000 0.0000 41.6038 0.0000 6.2291
# 5 27.9171 4.4886 16.0116 0.0000 33.4433 0.0000
# 6 0.0000 0.0000 0.0000 6.2291 0.0000 16.6380
#
#
#
# Elastic Compliance Matrix: (Units=1/GPa)
#
#
# Indices 1 2 3 4 5 6 
#
# 1 0.010112 -0.002955 -0.001797 0.000000 -0.007184 0.000000
# 2 -0.002955 0.018953 -0.001166 0.000000 0.000481 0.000000
# 3 -0.001797 -0.001166 0.009346 0.000000 -0.002818 0.000000
# 4 0.000000 0.000000 0.000000 0.025464 0.000000 -0.009533
# 5 -0.007184 0.000481 -0.002818 0.000000 0.037183 0.000000
# 6 0.000000 0.000000 0.000000 -0.009533 0.000000 0.063672
#
#
# Mechanical properties :
#
#
# Convention : Reuss Voigt Hill
#
# Bulk Modulus (GPa) = 37.62953 50.15851 43.89402
# Shear Modulus (GPa) = 26.96525 34.18450 30.57487
#
# Velocity S-wave (km/s) = 3.39013 3.81706 3.60991
# Velocity P-wave (km/s) = 5.60020 6.38787 6.00696
#
# Compressibility (1/GPa) = 0.02657487
#
# Stress axis : x y z
#
# Youngs Moduli (GPa) = 98.89702 52.76227 106.99305
#
# Poissons Ratio (x) = 0.15592 0.19226
# Poissons Ratio (y) = 0.29225 0.12475
# Poissons Ratio (z) = 0.17771 0.06152
#
# Static dielectric constant tensor:
#      x y z
#    x 1.892840 0.000000 -0.009270 
#    y 0.000000 1.981970 0.000000 
#    z -0.009270 0.000000 1.931280 
# 
# From -- ./inp_files/9965.got.cif
#   From: 2010.05.17/outbox.cif.g08.bks.cpg/sg4_5_cif.got.tgz:9965.got - 2010.06.03 18:43:04.
