data_PCOD9117371
_publ_section_title
;
Structure prediction by ZEFSAII (Michael W. Deem and Ramdas Pophale) SiO2 
 PCOD9117371
Probable space group: P 21
;
_chemical_formula_sum "Si O2"
_cell_formula_units_Z 12
_cell_length_a 9.282485
_cell_length_b 13.511378
_cell_length_c 5.980750
_cell_angle_alpha 90.000000
_cell_angle_beta 143.838316
_cell_angle_gamma 90.000000
_cell_volume 442.608814
_symmetry_space_group_name_H-M "P 21"
_symmetry_group_IT_number 4
_symmetry_cell_setting 'monoclinic'
loop_
_space_group_symop_operation_xyz
x,y,z
-x,1/2+y,-z
loop_
_atom_site_type_symbol
_atom_site_label
_atom_site_fract_x
_atom_site_fract_y
_atom_site_fract_z
Si Si1 0.421636 0.064740 0.777777
Si Si2 0.764045 0.247668 0.197051
Si Si3 0.792791 0.216632 0.742304
Si Si4 0.907614 0.449452 0.375421
Si Si5 0.791941 0.000736 0.627707
Si Si6 0.382679 0.381524 0.213206
O O1 0.156337 0.042453 0.548804
O O2 0.458903 0.980367 0.638712
O O3 0.531586 0.173658 0.873368
O O4 0.593321 0.028711 0.194887
O O5 0.884520 0.222996 0.593865
O O6 0.707494 0.363894 0.149512
O O7 0.896762 0.247702 0.118087
O O8 0.780733 0.099400 0.758947
O O9 0.546092 0.283516 0.412982
O O10 0.957428 0.487875 0.191949
O O11 0.153497 0.392586 0.759851
O O12 0.738893 0.903148 0.700594
#
# Coordination Sequence:
#
# PCOD9117371 Si02
#       6
#     2   2   2   2   2   2
#     4  10  22  48  69 102 153 193 242 307 380 439
#     4  11  24  47  74 108 148 202 241 302 382 443
#     4  11  24  47  74 103 154 196 245 300 385 439
#     4  11  25  45  76 110 149 193 258 312 366 448
#     4  10  24  46  70 109 148 198 248 311 371 446
#     4  11  23  45  73 106 148 194 248 312 370 443
#
# _framework density 27.111981
#
# number of rings (size 3 to 8) (size 9 to 14) (size 15 to 20)
#    0.000    1.333    3.333    1.000    4.667    1.333 
#   18.000    0.000    0.000    0.000    0.000    0.000 
#    0.000    0.000    0.000    0.000    0.000    0.000 
#
# Total GULP energy -66891.307301 kJ/mol
# GULP energy per Si atom -5574.275608 kJ/mol
# Density = 2.705027 g / cm^3
# Si number density = 27.111981 Si / 1000 Ang^3
#
#
#
# Elastic Constant Matrix: (Units=GPa)
#
#
# Indices 1 2 3 4 5 6 
#
# 1 145.9056 49.2491 33.3644 0.0000 -28.8180 0.0000
# 2 49.2491 165.8366 40.9960 0.0000 14.1914 0.0000
# 3 33.3644 40.9960 126.7066 0.0000 -22.9084 0.0000
# 4 0.0000 0.0000 0.0000 32.7268 0.0000 -3.0963
# 5 -28.8180 14.1914 -22.9084 0.0000 26.8053 0.0000
# 6 0.0000 0.0000 0.0000 -3.0963 0.0000 58.6111
#
#
#
# Elastic Compliance Matrix: (Units=1/GPa)
#
#
# Indices 1 2 3 4 5 6 
#
# 1 0.011524 -0.005254 0.001666 0.000000 0.016595 0.000000
# 2 -0.005254 0.009972 -0.004517 0.000000 -0.014789 0.000000
# 3 0.001666 -0.004517 0.011439 0.000000 0.013958 0.000000
# 4 0.000000 0.000000 0.000000 0.030709 0.000000 0.001622
# 5 0.016595 -0.014789 0.013958 0.000000 0.074905 0.000000
# 6 0.000000 0.000000 0.000000 0.001622 0.000000 0.017147
#
#
# Mechanical properties :
#
#
# Convention : Reuss Voigt Hill
#
# Bulk Modulus (GPa) = 59.79228 76.18532 67.98880
# Shear Modulus (GPa) = 28.17189 44.61791 36.39490
#
# Velocity S-wave (km/s) = 3.22699 4.06111 3.66784
# Velocity P-wave (km/s) = 5.99886 7.08177 6.56269
#
# Compressibility (1/GPa) = 0.01672457
#
# Stress axis : x y z
#
# Youngs Moduli (GPa) = 86.77601 100.27576 87.42331
#
# Poissons Ratio (x) = 0.52686 -0.14563
# Poissons Ratio (y) = 0.45593 0.39488
# Poissons Ratio (z) = -0.14455 0.45293
#
# Static dielectric constant tensor:
#      x y z
#    x 2.298020 0.000000 0.076290 
#    y 0.000000 2.101840 0.000000 
#    z 0.076290 0.000000 2.163090 
# 
# From -- ./inp_files/306.got.cif
#   From: 2010.05.17/outbox.cif.g08.bks.cpg/sg4_1_cif.got.tgz:306.got - 2010.06.03 18:43:04.
