data_PCOD9117134
_publ_section_title
;
Structure prediction by ZEFSAII (Michael W. Deem and Ramdas Pophale) SiO2 
 PCOD9117134
Probable space group: P 21
;
_chemical_formula_sum "Si O2"
_cell_formula_units_Z 16
_cell_length_a 6.057596
_cell_length_b 11.459849
_cell_length_c 11.673495
_cell_angle_alpha 90.000000
_cell_angle_beta 90.002055
_cell_angle_gamma 90.000000
_cell_volume 810.363930
_symmetry_space_group_name_H-M "P 21"
_symmetry_group_IT_number 4
_symmetry_cell_setting 'monoclinic'
loop_
_space_group_symop_operation_xyz
x,y,z
-x,1/2+y,-z
loop_
_atom_site_type_symbol
_atom_site_label
_atom_site_fract_x
_atom_site_fract_y
_atom_site_fract_z
Si Si1 0.965544 0.926880 0.188183
Si Si2 0.999970 0.063426 0.719534
Si Si3 0.283219 0.353574 0.370631
Si Si4 0.283179 0.273279 0.629388
Si Si5 0.337274 0.313438 0.000010
Si Si6 0.342271 0.740014 0.190785
Si Si7 0.342247 0.886824 0.809186
Si Si8 0.965520 0.699977 0.811807
O O1 0.837427 0.874307 0.297583
O O2 0.194011 0.855948 0.179235
O O3 0.816946 0.893098 0.079057
O O4 0.000040 0.063426 0.196907
O O5 0.128919 0.159298 0.644654
O O6 0.824608 0.132554 0.797436
O O7 0.175361 0.994277 0.797408
O O8 0.871001 0.967569 0.644639
O O9 0.312781 0.313423 0.500007
O O10 0.511959 0.380435 0.305899
O O11 0.162592 0.252556 0.297596
O O12 0.511915 0.246402 0.694130
O O13 0.490721 0.388477 0.084805
O O14 0.183043 0.233786 0.079070
O O15 0.490701 0.238385 0.915220
O O16 0.194009 0.770884 0.820749
#
# Coordination Sequence:
#
# PCOD9117134 Si02
#       8
#     2   2   2   2   2   2   2   2
#     4  10  23  45  64  97 132 168 212 266 320 383
#     4  10  22  44  66  94 132 166 214 268 316 386
#     4  10  23  42  68  98 127 170 213 264 325 380
#     4  10  23  42  68  98 127 170 213 264 325 380
#     4  10  22  44  64 100 128 170 214 262 322 384
#     4  10  22  45  62  98 131 168 215 260 325 385
#     4  10  22  45  62  98 131 168 215 260 325 385
#     4  10  23  45  64  97 132 168 212 266 320 383
#
# _framework density 19.744215000000001
#
# number of rings (size 3 to 8) (size 9 to 14) (size 15 to 20)
#    0.000    2.000    0.000    1.500    1.750    8.000 
#   58.500    0.000    0.000    0.000    0.000    0.000 
#    0.000    0.000    0.000    0.000    0.000    0.000 
#
# Total GULP energy -89476.124708 kJ/mol
# GULP energy per Si atom -5592.257794 kJ/mol
# Density = 1.969928 g / cm^3
# Si number density = 19.744215 Si / 1000 Ang^3
#
#
#
# Elastic Constant Matrix: (Units=GPa)
#
#
# Indices 1 2 3 4 5 6 
#
# 1 140.1169 77.7379 70.7254 0.0000 -0.0150 0.0000
# 2 77.7379 166.4693 73.2957 0.0000 0.0097 0.0000
# 3 70.7254 73.2957 149.9346 0.0000 -0.0244 0.0000
# 4 0.0000 0.0000 0.0000 5.2341 0.0000 -0.0071
# 5 -0.0150 0.0097 -0.0244 0.0000 6.7103 0.0000
# 6 0.0000 0.0000 0.0000 -0.0071 0.0000 25.4906
#
#
#
# Elastic Compliance Matrix: (Units=1/GPa)
#
#
# Indices 1 2 3 4 5 6 
#
# 1 0.010812 -0.003572 -0.003354 0.000000 0.000017 0.000000
# 2 -0.003572 0.008835 -0.002634 0.000000 -0.000030 0.000000
# 3 -0.003354 -0.002634 0.009539 0.000000 0.000031 0.000000
# 4 0.000000 0.000000 0.000000 0.191055 0.000000 0.000053
# 5 0.000017 -0.000030 0.000031 0.000000 0.149025 0.000000
# 6 0.000000 0.000000 0.000000 0.000053 0.000000 0.039230
#
#
# Mechanical properties :
#
#
# Convention : Reuss Voigt Hill
#
# Bulk Modulus (GPa) = 99.34335 100.00430 99.67382
# Shear Modulus (GPa) = 11.60172 23.13779 17.36976
#
# Velocity S-wave (km/s) = 2.42668 3.42698 2.96926
# Velocity P-wave (km/s) = 7.63388 8.14977 7.89604
#
# Compressibility (1/GPa) = 0.01006610
#
# Stress axis : x y z
#
# Youngs Moduli (GPa) = 92.49364 113.18643 104.83141
#
# Poissons Ratio (x) = 0.40432 0.35156
# Poissons Ratio (y) = 0.33041 0.27612
# Poissons Ratio (z) = 0.31019 0.29813
#
# Static dielectric constant tensor:
#      x y z
#    x 1.707700 0.000000 0.000000 
#    y 0.000000 1.669590 0.000000 
#    z 0.000000 0.000000 1.664150 
# 
# From -- ./inp_files/2725.got.cif
#   From: 2010.05.17/outbox.cif.g08.bks.cpg/sg4_2_cif.got.tgz:2725.got - 2010.06.03 18:43:04.
