data_PCOD9117640
_publ_section_title
;
Structure prediction by ZEFSAII (Michael W. Deem and Ramdas Pophale) SiO2 
 PCOD9117640
Probable space group: P 21
;
_chemical_formula_sum "Si O2"
_cell_formula_units_Z 14
_cell_length_a 13.018378
_cell_length_b 7.653555
_cell_length_c 8.996477
_cell_angle_alpha 90.000000
_cell_angle_beta 142.144775
_cell_angle_gamma 90.000000
_cell_volume 550.080558
_symmetry_space_group_name_H-M "P 21"
_symmetry_group_IT_number 4
_symmetry_cell_setting 'monoclinic'
loop_
_space_group_symop_operation_xyz
x,y,z
-x,1/2+y,-z
loop_
_atom_site_type_symbol
_atom_site_label
_atom_site_fract_x
_atom_site_fract_y
_atom_site_fract_z
Si Si1 0.508415 0.907600 0.031530
Si Si2 0.024778 0.402660 0.085455
Si Si3 0.625794 0.825703 0.602092
Si Si4 0.646488 0.702897 0.943620
Si Si5 0.279015 0.686863 0.125588
Si Si6 0.743653 0.143294 0.228391
Si Si7 0.987965 0.260885 0.738567
O O1 0.529413 0.858214 0.878013
O O2 0.444183 0.718295 0.007658
O O3 0.392907 0.034654 0.000114
O O4 0.700433 0.969248 0.271492
O O5 0.204416 0.302364 0.299159
O O6 0.031143 0.583661 0.183916
O O7 0.864224 0.299475 0.960724
O O8 0.994664 0.409920 0.871462
O O9 0.615304 0.697043 0.732303
O O10 0.450732 0.800183 0.320753
O O11 0.665424 0.013982 0.721601
O O12 0.843719 0.742746 0.166369
O O13 0.199722 0.636463 0.874652
O O14 0.842315 0.268998 0.450650
#
# Coordination Sequence:
#
# PCOD9117640 Si02
#       7
#     2   2   2   2   2   2   2
#     4  10  23  43  71 104 145 190 244 311 376 445
#     4  11  26  50  76 110 153 205 252 311 392 450
#     4  11  27  47  76 111 154 202 261 318 369 478
#     4  10  23  47  67 110 147 197 257 307 384 453
#     4  12  27  48  77 110 151 205 256 313 391 450
#     4  11  26  46  70 110 147 193 254 309 380 449
#     4  11  26  49  75 107 157 194 256 317 376 471
#
# _framework density 25.450818999999999
#
# number of rings (size 3 to 8) (size 9 to 14) (size 15 to 20)
#    0.000    1.143    2.857    0.857   12.000    2.286 
#    2.571    0.000    0.000    0.000    0.000    0.000 
#    0.000    0.000    0.000    0.000    0.000    0.000 
#
# Total GULP energy -77968.428255 kJ/mol
# GULP energy per Si atom -5569.173447 kJ/mol
# Density = 2.539289 g / cm^3
# Si number density = 25.450819 Si / 1000 Ang^3
#
#
#
# Elastic Constant Matrix: (Units=GPa)
#
#
# Indices 1 2 3 4 5 6 
#
# 1 159.2886 29.3070 62.8401 0.0000 21.7622 0.0000
# 2 29.3070 71.3773 40.2616 0.0000 2.4802 0.0000
# 3 62.8401 40.2616 110.8604 0.0000 -1.9904 0.0000
# 4 0.0000 0.0000 0.0000 31.3672 0.0000 0.5316
# 5 21.7622 2.4802 -1.9904 0.0000 25.6721 0.0000
# 6 0.0000 0.0000 0.0000 0.5316 0.0000 41.5230
#
#
#
# Elastic Compliance Matrix: (Units=1/GPa)
#
#
# Indices 1 2 3 4 5 6 
#
# 1 0.009709 -0.000625 -0.005431 0.000000 -0.008591 0.000000
# 2 -0.000625 0.017785 -0.006135 0.000000 -0.001664 0.000000
# 3 -0.005431 -0.006135 0.014440 0.000000 0.006316 0.000000
# 4 0.000000 0.000000 0.000000 0.031887 0.000000 -0.000408
# 5 -0.008591 -0.001664 0.006316 0.000000 0.046886 0.000000
# 6 0.000000 0.000000 0.000000 -0.000408 0.000000 0.024088
#
#
# Mechanical properties :
#
#
# Convention : Reuss Voigt Hill
#
# Bulk Modulus (GPa) = 56.96873 67.37152 62.17013
# Shear Modulus (GPa) = 28.56696 33.65364 31.11030
#
# Velocity S-wave (km/s) = 3.35391 3.64029 3.50003
# Velocity P-wave (km/s) = 6.11807 6.64813 6.38860
#
# Compressibility (1/GPa) = 0.01755349
#
# Stress axis : x y z
#
# Youngs Moduli (GPa) = 102.99649 56.22781 69.25096
#
# Poissons Ratio (x) = 0.03512 0.37610
# Poissons Ratio (y) = 0.06433 0.42484
# Poissons Ratio (z) = 0.55937 0.34495
#
# Static dielectric constant tensor:
#      x y z
#    x 2.031180 0.000000 0.003700 
#    y 0.000000 2.171740 0.000000 
#    z 0.003700 0.000000 2.044120 
# 
# From -- ./inp_files/8079.got.cif
#   From: 2010.05.17/outbox.cif.g08.bks.cpg/sg4_5_cif.got.tgz:8079.got - 2010.06.03 18:43:04.
