data_PCOD9117153
_publ_section_title
;
Structure prediction by ZEFSAII (Michael W. Deem and Ramdas Pophale) SiO2 
 PCOD9117153
Probable space group: P 21
;
_chemical_formula_sum "Si O2"
_cell_formula_units_Z 16
_cell_length_a 9.486169
_cell_length_b 5.531951
_cell_length_c 15.595158
_cell_angle_alpha 90.000000
_cell_angle_beta 65.625306
_cell_angle_gamma 90.000000
_cell_volume 745.441328
_symmetry_space_group_name_H-M "P 21"
_symmetry_group_IT_number 4
_symmetry_cell_setting 'monoclinic'
loop_
_space_group_symop_operation_xyz
x,y,z
-x,1/2+y,-z
loop_
_atom_site_type_symbol
_atom_site_label
_atom_site_fract_x
_atom_site_fract_y
_atom_site_fract_z
Si Si1 0.122518 0.507530 0.109808
Si Si2 0.963110 0.398745 0.750935
Si Si3 0.064517 0.953528 0.442997
Si Si4 0.653884 0.612901 0.917479
Si Si5 0.591153 0.493847 0.376217
Si Si6 0.174310 0.752226 0.798515
Si Si7 0.667043 0.256965 0.065588
Si Si8 0.410654 0.992477 0.418233
O O1 0.283280 0.382858 0.092176
O O2 0.055593 0.627409 0.211960
O O3 0.984291 0.337123 0.116755
O O4 0.173791 0.673131 0.019398
O O5 0.109475 0.523272 0.761487
O O6 0.975413 0.436335 0.647364
O O7 0.797109 0.497665 0.828590
O O8 0.248668 0.967250 0.410684
O O9 0.005009 0.704207 0.501806
O O10 0.640810 0.502343 0.016643
O O11 0.510857 0.105825 0.086587
O O12 0.748216 0.439039 0.286844
O O13 0.514951 0.753677 0.373126
O O14 0.617522 0.489439 0.471926
O O15 0.486851 0.255108 0.381649
O O16 0.299105 0.738586 0.842826
#
# Coordination Sequence:
#
# PCOD9117153 Si02
#       8
#     2   2   2   2   2   2   2   2
#     4  10  24  43  66  93 141 171 234 291 352 422
#     4  10  26  44  68 103 139 185 237 299 350 435
#     4  12  27  45  78 106 146 194 240 296 365 433
#     4  10  22  44  66  98 136 185 229 297 348 428
#     4  10  23  44  68 100 139 179 228 295 344 423
#     4  11  26  40  71  97 134 185 234 289 358 427
#     4  11  23  42  68  97 135 184 234 287 361 417
#     4  10  23  44  69 100 140 179 232 286 354 417
#
# _framework density 21.463794
#
# number of rings (size 3 to 8) (size 9 to 14) (size 15 to 20)
#    0.000    1.500    1.250    1.500   14.000    2.000 
#    0.000    0.000    0.000    0.000    0.000    0.000 
#    0.000    0.000    0.000    0.000    0.000    0.000 
#
# Total GULP energy -89168.684076 kJ/mol
# GULP energy per Si atom -5573.042755 kJ/mol
# Density = 2.141494 g / cm^3
# Si number density = 21.463794 Si / 1000 Ang^3
#
#
#
# Elastic Constant Matrix: (Units=GPa)
#
#
# Indices 1 2 3 4 5 6 
#
# 1 127.2096 36.5193 48.7696 0.0000 7.5086 0.0000
# 2 36.5193 78.1159 31.1697 0.0000 10.0099 0.0000
# 3 48.7696 31.1697 103.3520 0.0000 11.8380 0.0000
# 4 0.0000 0.0000 0.0000 21.9379 0.0000 -13.6896
# 5 7.5086 10.0099 11.8380 0.0000 31.9810 0.0000
# 6 0.0000 0.0000 0.0000 -13.6896 0.0000 27.9185
#
#
#
# Elastic Compliance Matrix: (Units=1/GPa)
#
#
# Indices 1 2 3 4 5 6 
#
# 1 0.010280 -0.003267 -0.003871 0.000000 0.000042 0.000000
# 2 -0.003267 0.015884 -0.002890 0.000000 -0.003135 0.000000
# 3 -0.003871 -0.002890 0.012705 0.000000 -0.002890 0.000000
# 4 0.000000 0.000000 0.000000 0.065680 0.000000 0.032205
# 5 0.000042 -0.003135 -0.002890 0.000000 0.033310 0.000000
# 6 0.000000 0.000000 0.000000 0.032205 0.000000 0.051610
#
#
# Mechanical properties :
#
#
# Convention : Reuss Voigt Hill
#
# Bulk Modulus (GPa) = 53.15152 60.17718 56.66435
# Shear Modulus (GPa) = 23.17028 29.18209 26.17618
#
# Velocity S-wave (km/s) = 3.28915 3.69127 3.49599
# Velocity P-wave (km/s) = 6.26432 6.80182 6.53860
#
# Compressibility (1/GPa) = 0.01881414
#
# Stress axis : x y z
#
# Youngs Moduli (GPa) = 97.27281 62.95832 78.71208
#
# Poissons Ratio (x) = 0.20568 0.30466
# Poissons Ratio (y) = 0.31779 0.22745
# Poissons Ratio (z) = 0.37650 0.18192
#
# Static dielectric constant tensor:
#      x y z
#    x 1.787230 0.000000 -0.017610 
#    y 0.000000 1.927100 0.000000 
#    z -0.017610 0.000000 1.790060 
# 
# From -- ./inp_files/13589.got.cif
#   From: 2010.05.17/outbox.cif.g08.bks.cpg/sg4_7_cif.got.tgz:13589.got - 2010.06.03 18:43:04.
