data_PCOD9117036
_publ_section_title
;
Structure prediction by ZEFSAII (Michael W. Deem and Ramdas Pophale) SiO2 
 PCOD9117036
Probable space group: P 21
;
_chemical_formula_sum "Si O2"
_cell_formula_units_Z 16
_cell_length_a 9.346867
_cell_length_b 11.859999
_cell_length_c 9.555172
_cell_angle_alpha 90.000000
_cell_angle_beta 132.761491
_cell_angle_gamma 90.000000
_cell_volume 777.670338
_symmetry_space_group_name_H-M "P 21"
_symmetry_group_IT_number 4
_symmetry_cell_setting 'monoclinic'
loop_
_space_group_symop_operation_xyz
x,y,z
-x,1/2+y,-z
loop_
_atom_site_type_symbol
_atom_site_label
_atom_site_fract_x
_atom_site_fract_y
_atom_site_fract_z
Si Si1 0.736597 0.594690 0.638445
Si Si2 0.668678 0.161000 0.762213
Si Si3 0.207718 0.301947 0.134200
Si Si4 0.375540 0.477316 0.061689
Si Si5 0.001305 0.427811 0.640534
Si Si6 0.791366 0.408910 0.908320
Si Si7 0.813139 0.488536 0.242366
Si Si8 0.993905 0.190781 0.758279
O O1 0.534211 0.612923 0.425758
O O2 0.782382 0.720117 0.726999
O O3 0.886877 0.532934 0.634122
O O4 0.722753 0.509691 0.761911
O O5 0.673553 0.293973 0.798222
O O6 0.827118 0.139656 0.746058
O O7 0.713723 0.091121 0.931716
O O8 0.372815 0.385804 0.187454
O O9 0.170085 0.218188 0.980121
O O10 0.014590 0.378143 0.017869
O O11 0.593899 0.495128 0.154860
O O12 0.226111 0.437555 0.840651
O O13 0.949714 0.423307 0.443028
O O14 0.924195 0.310206 0.652917
O O15 0.794539 0.439486 0.073664
O O16 0.921658 0.608192 0.300183
#
# Coordination Sequence:
#
# PCOD9117036 Si02
#       8
#     2   2   2   2   2   2   2   2
#     4  12  22  43  75 104 133 186 246 285 348 426
#     4  11  24  41  75 102 136 186 241 287 350 418
#     4  10  22  42  75  92 135 186 236 293 342 413
#     4  11  24  44  69 102 147 182 231 291 359 412
#     4  11  24  46  72 103 145 185 236 292 356 418
#     4  11  24  46  69 102 139 180 239 294 347 422
#     4  12  26  45  68 106 144 183 229 293 364 419
#     4  10  22  45  67  99 137 182 238 291 342 414
#
# _framework density 20.574271
#
# number of rings (size 3 to 8) (size 9 to 14) (size 15 to 20)
#    0.000    1.000    6.250    2.250    3.500    5.000 
#    2.250    0.000    0.000    0.000    0.000    0.000 
#    0.000    0.000    0.000    0.000    0.000    0.000 
#
# Total GULP energy -89295.780356 kJ/mol
# GULP energy per Si atom -5580.986272 kJ/mol
# Density = 2.052744 g / cm^3
# Si number density = 20.574271 Si / 1000 Ang^3
#
#
#
# Elastic Constant Matrix: (Units=GPa)
#
#
# Indices 1 2 3 4 5 6 
#
# 1 70.8797 36.3238 23.6095 0.0000 -4.0701 0.0000
# 2 36.3238 72.7452 26.3313 0.0000 5.1821 0.0000
# 3 23.6095 26.3313 98.5236 0.0000 -6.0438 0.0000
# 4 0.0000 0.0000 0.0000 37.2137 0.0000 -11.9183
# 5 -4.0701 5.1821 -6.0438 0.0000 26.1889 0.0000
# 6 0.0000 0.0000 0.0000 -11.9183 0.0000 27.5282
#
#
#
# Elastic Compliance Matrix: (Units=1/GPa)
#
#
# Indices 1 2 3 4 5 6 
#
# 1 0.019918 -0.009568 -0.001937 0.000000 0.004542 0.000000
# 2 -0.009568 0.020241 -0.003503 0.000000 -0.006301 0.000000
# 3 -0.001937 -0.003503 0.011741 0.000000 0.003102 0.000000
# 4 0.000000 0.000000 0.000000 0.031198 0.000000 0.013507
# 5 0.004542 -0.006301 0.003102 0.000000 0.040853 0.000000
# 6 0.000000 0.000000 0.000000 0.013507 0.000000 0.042174
#
#
# Mechanical properties :
#
#
# Convention : Reuss Voigt Hill
#
# Bulk Modulus (GPa) = 45.69845 46.07531 45.88688
# Shear Modulus (GPa) = 24.57787 28.57841 26.57814
#
# Velocity S-wave (km/s) = 3.46004 3.73102 3.59808
# Velocity P-wave (km/s) = 6.18241 6.40343 6.29389
#
# Compressibility (1/GPa) = 0.02188258
#
# Stress axis : x y z
#
# Youngs Moduli (GPa) = 50.20650 49.40453 85.17417
#
# Poissons Ratio (x) = 0.47269 0.16500
# Poissons Ratio (y) = 0.48037 0.29840
# Poissons Ratio (z) = 0.09726 0.17308
#
# Static dielectric constant tensor:
#      x y z
#    x 1.731280 0.000000 -0.026850 
#    y 0.000000 1.787210 0.000000 
#    z -0.026850 0.000000 1.761790 
# 
# From -- ./inp_files/6047.got.cif
#   From: 2010.05.17/outbox.cif.g08.bks.cpg/sg4_4_cif.got.tgz:6047.got - 2010.06.03 18:43:04.
