data_PCOD9117793
_publ_section_title
;
Structure prediction by ZEFSAII (Michael W. Deem and Ramdas Pophale) SiO2 
 PCOD9117793
Probable space group: P 21
;
_chemical_formula_sum "Si O2"
_cell_formula_units_Z 16
_cell_length_a 17.331680
_cell_length_b 5.080865
_cell_length_c 13.350134
_cell_angle_alpha 90.000000
_cell_angle_beta 140.253377
_cell_angle_gamma 90.000000
_cell_volume 751.678772
_symmetry_space_group_name_H-M "P 21"
_symmetry_group_IT_number 4
_symmetry_cell_setting 'monoclinic'
loop_
_space_group_symop_operation_xyz
x,y,z
-x,1/2+y,-z
loop_
_atom_site_type_symbol
_atom_site_label
_atom_site_fract_x
_atom_site_fract_y
_atom_site_fract_z
Si Si1 0.492199 0.327780 0.653904
Si Si2 0.326597 0.135959 0.316489
Si Si3 0.294482 0.483126 0.102552
Si Si4 0.659390 0.578442 0.185675
Si Si5 0.447012 0.580189 0.817620
Si Si6 0.854864 0.500218 0.100476
Si Si7 0.067612 0.947925 0.602497
Si Si8 0.064913 0.952371 0.030961
O O1 0.385757 0.211959 0.480065
O O2 0.578528 0.480623 0.660100
O O3 0.454402 0.510606 0.708152
O O4 0.571904 0.092723 0.780849
O O5 0.293091 0.393528 0.217330
O O6 0.203484 0.974758 0.203974
O O7 0.208878 0.723227 0.987090
O O8 0.247063 0.226680 0.997935
O O9 0.637092 0.864544 0.210611
O O10 0.797985 0.513997 0.301815
O O11 0.605784 0.364430 0.209020
O O12 0.576781 0.555761 0.003116
O O13 0.927746 0.488715 0.274181
O O14 0.935560 0.553796 0.083913
O O15 0.026943 0.652811 0.538172
O O16 0.014201 0.660203 0.986910
#
# Coordination Sequence:
#
# PCOD9117793 Si02
#       8
#     2   2   2   2   2   2   2   2
#     4  12  23  41  69 105 144 174 222 282 351 401
#     4  11  25  40  68 104 141 178 228 280 332 405
#     4  11  21  39  68  99 135 169 228 275 318 405
#     4  10  23  46  66 102 133 172 232 276 340 410
#     4  10  24  42  71  98 137 179 216 282 345 406
#     4  11  24  44  71 101 125 184 238 263 338 402
#     4  12  26  47  75 101 137 175 228 295 337 395
#     4  11  24  45  66  96 138 183 228 275 325 404
#
# _framework density 21.285689000000001
#
# number of rings (size 3 to 8) (size 9 to 14) (size 15 to 20)
#    0.000    1.000    3.750    3.750    1.750    2.000 
#    6.750    0.000    0.000    0.000    0.000    0.000 
#    0.000    0.000    0.000    0.000    0.000    0.000 
#
# Total GULP energy -89519.911104 kJ/mol
# GULP energy per Si atom -5594.994444 kJ/mol
# Density = 2.123724 g / cm^3
# Si number density = 21.285689 Si / 1000 Ang^3
#
#
#
# Elastic Constant Matrix: (Units=GPa)
#
#
# Indices 1 2 3 4 5 6 
#
# 1 74.6950 -3.5127 28.8932 0.0000 -2.2843 0.0000
# 2 -3.5127 81.2001 -8.9332 0.0000 -1.6068 0.0000
# 3 28.8932 -8.9332 76.1837 0.0000 -15.9221 0.0000
# 4 0.0000 0.0000 0.0000 24.4355 0.0000 10.8651
# 5 -2.2843 -1.6068 -15.9221 0.0000 38.8696 0.0000
# 6 0.0000 0.0000 0.0000 10.8651 0.0000 25.7961
#
#
#
# Elastic Compliance Matrix: (Units=1/GPa)
#
#
# Indices 1 2 3 4 5 6 
#
# 1 0.015788 -0.000048 -0.006343 0.000000 -0.001672 0.000000
# 2 -0.000048 0.012529 0.001744 0.000000 0.001230 0.000000
# 3 -0.006343 0.001744 0.017141 0.000000 0.006721 0.000000
# 4 0.000000 0.000000 0.000000 0.050354 0.000000 -0.021209
# 5 -0.001672 0.001230 0.006721 0.000000 0.028433 0.000000
# 6 0.000000 0.000000 0.000000 -0.021209 0.000000 0.047698
#
#
# Mechanical properties :
#
#
# Convention : Reuss Voigt Hill
#
# Bulk Modulus (GPa) = 27.65069 29.44148 28.54608
# Shear Modulus (GPa) = 25.86768 32.19569 29.03168
#
# Velocity S-wave (km/s) = 3.48984 3.89337 3.69712
# Velocity P-wave (km/s) = 5.40899 5.83719 5.62716
#
# Compressibility (1/GPa) = 0.03616546
#
# Stress axis : x y z
#
# Youngs Moduli (GPa) = 63.33974 79.81210 58.34006
#
# Poissons Ratio (x) = 0.00382 0.37004
# Poissons Ratio (y) = 0.00304 -0.10177
# Poissons Ratio (z) = 0.40175 -0.13922
#
# Static dielectric constant tensor:
#      x y z
#    x 1.787530 0.000000 0.011480 
#    y 0.000000 1.781280 0.000000 
#    z 0.011480 0.000000 1.735990 
# 
# From -- ./inp_files/12511.got.cif
#   From: 2010.05.17/outbox.cif.g08.bks.cpg/sg4_7_cif.got.tgz:12511.got - 2010.06.03 18:43:04.
