data_PCOD9117754
_publ_section_title
;
Structure prediction by ZEFSAII (Michael W. Deem and Ramdas Pophale) SiO2 
 PCOD9117754
Probable space group: P 21
;
_chemical_formula_sum "Si O2"
_cell_formula_units_Z 14
_cell_length_a 13.247114
_cell_length_b 7.588752
_cell_length_c 10.343642
_cell_angle_alpha 90.000000
_cell_angle_beta 34.450490
_cell_angle_gamma 90.000000
_cell_volume 588.229230
_symmetry_space_group_name_H-M "P 21"
_symmetry_group_IT_number 4
_symmetry_cell_setting 'monoclinic'
loop_
_space_group_symop_operation_xyz
x,y,z
-x,1/2+y,-z
loop_
_atom_site_type_symbol
_atom_site_label
_atom_site_fract_x
_atom_site_fract_y
_atom_site_fract_z
Si Si1 0.334390 0.687490 0.383066
Si Si2 0.976087 0.027334 0.149919
Si Si3 0.754645 0.714386 0.282381
Si Si4 0.790238 0.220729 0.765131
Si Si5 0.534931 0.590037 0.738898
Si Si6 0.703203 0.645099 0.054539
Si Si7 0.803040 0.634214 0.678108
O O1 0.157096 0.677445 0.656648
O O2 0.277037 0.635016 0.299512
O O3 0.418887 0.882646 0.298426
O O4 0.503222 0.572283 0.252055
O O5 0.136944 0.007843 0.082281
O O6 0.846147 0.868944 0.262982
O O7 0.085954 0.073050 0.905202
O O8 0.589400 0.644439 0.537208
O O9 0.708873 0.758390 0.181185
O O10 0.778005 0.428757 0.744119
O O11 0.659419 0.151829 0.013669
O O12 0.994576 0.170961 0.572763
O O13 0.669077 0.675625 0.703744
O O14 0.756854 0.731340 0.861704
#
# Coordination Sequence:
#
# PCOD9117754 Si02
#       7
#     2   2   2   2   2   2   2
#     4  11  23  44  72  95 138 180 225 281 338 401
#     4  10  23  45  69  94 141 177 226 276 334 404
#     4  10  24  45  68 100 137 177 224 283 335 401
#     4  11  25  43  70 102 138 174 230 281 336 406
#     4  11  26  43  67 106 137 170 232 285 339 398
#     4  10  24  45  70  95 136 184 227 268 349 400
#     4  11  25  43  72  98 133 186 224 276 345 404
#
# _framework density 23.800246999999999
#
# number of rings (size 3 to 8) (size 9 to 14) (size 15 to 20)
#    0.857    0.571    2.857    0.857    6.000    1.143 
#    2.571    0.000    0.000    0.000    0.000    0.000 
#    0.000    0.000    0.000    0.000    0.000    0.000 
#
# Total GULP energy -78195.312642 kJ/mol
# GULP energy per Si atom -5585.379474 kJ/mol
# Density = 2.374608 g / cm^3
# Si number density = 23.800247 Si / 1000 Ang^3
#
#
#
# Elastic Constant Matrix: (Units=GPa)
#
#
# Indices 1 2 3 4 5 6 
#
# 1 105.0551 3.1509 45.1384 0.0000 -13.4867 0.0000
# 2 3.1509 41.1457 20.3714 0.0000 3.5044 0.0000
# 3 45.1384 20.3714 190.6685 0.0000 1.1199 0.0000
# 4 0.0000 0.0000 0.0000 28.1217 0.0000 -6.6231
# 5 -13.4867 3.5044 1.1199 0.0000 38.7923 0.0000
# 6 0.0000 0.0000 0.0000 -6.6231 0.0000 14.8056
#
#
#
# Elastic Compliance Matrix: (Units=1/GPa)
#
#
# Indices 1 2 3 4 5 6 
#
# 1 0.011175 0.000136 -0.002683 0.000000 0.003950 0.000000
# 2 0.000136 0.025859 -0.002782 0.000000 -0.002208 0.000000
# 3 -0.002683 -0.002782 0.006182 0.000000 -0.000860 0.000000
# 4 0.000000 0.000000 0.000000 0.039747 0.000000 0.017781
# 5 0.003950 -0.002208 -0.000860 0.000000 0.027376 0.000000
# 6 0.000000 0.000000 0.000000 0.017781 0.000000 0.075496
#
#
# Mechanical properties :
#
#
# Convention : Reuss Voigt Hill
#
# Bulk Modulus (GPa) = 30.71459 52.68785 41.70122
# Shear Modulus (GPa) = 24.11426 34.22449 29.16938
#
# Velocity S-wave (km/s) = 3.18652 3.79620 3.50464
# Velocity P-wave (km/s) = 5.14507 6.43431 5.82547
#
# Compressibility (1/GPa) = 0.03255781
#
# Stress axis : x y z
#
# Youngs Moduli (GPa) = 89.48759 38.67130 161.75400
#
# Poissons Ratio (x) = -0.00527 0.43403
# Poissons Ratio (y) = -0.01220 0.45002
# Poissons Ratio (z) = 0.24012 0.10759
#
# Static dielectric constant tensor:
#      x y z
#    x 1.904550 0.000000 0.022750 
#    y 0.000000 2.036350 0.000000 
#    z 0.022750 0.000000 1.902120 
# 
# From -- ./inp_files/7481.got.cif
#   From: 2010.05.17/outbox.cif.g08.bks.cpg/sg4_4_cif.got.tgz:7481.got - 2010.06.03 18:43:04.
