data_PCOD9117706
_publ_section_title
;
Structure prediction by ZEFSAII (Michael W. Deem and Ramdas Pophale) SiO2 
 PCOD9117706
Probable space group: P 21
;
_chemical_formula_sum "Si O2"
_cell_formula_units_Z 16
_cell_length_a 11.036360
_cell_length_b 7.837736
_cell_length_c 13.991186
_cell_angle_alpha 90.000000
_cell_angle_beta 30.981027
_cell_angle_gamma 90.000000
_cell_volume 622.975434
_symmetry_space_group_name_H-M "P 21"
_symmetry_group_IT_number 4
_symmetry_cell_setting 'monoclinic'
loop_
_space_group_symop_operation_xyz
x,y,z
-x,1/2+y,-z
loop_
_atom_site_type_symbol
_atom_site_label
_atom_site_fract_x
_atom_site_fract_y
_atom_site_fract_z
Si Si1 0.065540 0.291170 0.394376
Si Si2 0.724100 0.438480 0.235690
Si Si3 0.396980 0.721581 0.216635
Si Si4 0.180629 0.819854 0.030538
Si Si5 0.252869 0.108872 0.450372
Si Si6 0.691973 0.760480 0.380896
Si Si7 0.743026 0.937596 0.076210
Si Si8 0.499385 0.418997 0.015003
O O1 0.201641 0.253059 0.403060
O O2 0.276327 0.288983 0.175403
O O3 0.825183 0.179775 0.566731
O O4 0.930614 0.464247 0.456539
O O5 0.679495 0.631276 0.300447
O O6 0.558263 0.336586 0.421387
O O7 0.675757 0.386652 0.159077
O O8 0.999884 0.395815 0.058135
O O9 0.641535 0.760046 0.103043
O O10 0.396539 0.590709 0.129886
O O11 0.385788 0.904702 0.166858
O O12 0.910548 0.882964 0.208109
O O13 0.192372 0.612638 0.024755
O O14 0.300230 0.877781 0.045474
O O15 0.219289 0.177798 0.579407
O O16 0.508269 0.013784 0.285422
#
# Coordination Sequence:
#
# PCOD9117706 Si02
#       8
#     2   2   2   2   2   2   2   2
#     4  11  23  42  70  99 145 181 232 290 363 427
#     4  11  26  47  72 103 140 196 242 304 363 419
#     4  11  26  40  66 107 135 188 236 286 364 435
#     4  11  24  45  70 100 142 188 241 308 359 418
#     4  11  22  46  72 106 144 193 237 300 366 432
#     4  11  26  46  74 103 144 192 247 301 364 435
#     4  10  23  44  69  97 145 184 236 303 356 418
#     4  12  24  42  69  99 143 184 235 292 363 436
#
# _framework density 25.683195000000001
#
# number of rings (size 3 to 8) (size 9 to 14) (size 15 to 20)
#    0.000    1.000    3.750    1.500    7.000    3.000 
#    2.250    0.000    0.000    0.000    0.000    0.000 
#    0.000    0.000    0.000    0.000    0.000    0.000 
#
# Total GULP energy -89160.658064 kJ/mol
# GULP energy per Si atom -5572.541129 kJ/mol
# Density = 2.562474 g / cm^3
# Si number density = 25.683195 Si / 1000 Ang^3
#
#
#
# Elastic Constant Matrix: (Units=GPa)
#
#
# Indices 1 2 3 4 5 6 
#
# 1 76.2838 7.1497 39.8576 0.0000 -12.2386 0.0000
# 2 7.1497 41.7845 14.7297 0.0000 -7.8905 0.0000
# 3 39.8576 14.7297 185.5701 0.0000 -19.5976 0.0000
# 4 0.0000 0.0000 0.0000 29.8764 0.0000 -7.1264
# 5 -12.2386 -7.8905 -19.5976 0.0000 46.3969 0.0000
# 6 0.0000 0.0000 0.0000 -7.1264 0.0000 29.2755
#
#
#
# Elastic Compliance Matrix: (Units=1/GPa)
#
#
# Indices 1 2 3 4 5 6 
#
# 1 0.015136 -0.001082 -0.002892 0.000000 0.002587 0.000000
# 2 -0.001082 0.025260 -0.001412 0.000000 0.003414 0.000000
# 3 -0.002892 -0.001412 0.006297 0.000000 0.001657 0.000000
# 4 0.000000 0.000000 0.000000 0.035535 0.000000 0.008650
# 5 0.002587 0.003414 0.001657 0.000000 0.023516 0.000000
# 6 0.000000 0.000000 0.000000 0.008650 0.000000 0.036264
#
#
# Mechanical properties :
#
#
# Convention : Reuss Voigt Hill
#
# Bulk Modulus (GPa) = 27.83863 47.45694 37.64779
# Shear Modulus (GPa) = 30.34836 37.23653 33.79245
#
# Velocity S-wave (km/s) = 3.44123 3.81181 3.63125
# Velocity P-wave (km/s) = 5.16258 6.15557 5.68081
#
# Compressibility (1/GPa) = 0.03592131
#
# Stress axis : x y z
#
# Youngs Moduli (GPa) = 66.06571 39.58841 158.80568
#
# Poissons Ratio (x) = 0.04283 0.45926
# Poissons Ratio (y) = 0.07148 0.22425
# Poissons Ratio (z) = 0.19106 0.05590
#
# Static dielectric constant tensor:
#      x y z
#    x 2.018760 0.000000 -0.033160 
#    y 0.000000 2.246790 0.000000 
#    z -0.033160 0.000000 2.018340 
# 
# From -- ./inp_files/13935.got.cif
#   From: 2010.05.17/outbox.cif.g08.bks.cpg/sg4_7_cif.got.tgz:13935.got - 2010.06.03 18:43:04.
