data_PCOD9117449
_publ_section_title
;
Structure prediction by ZEFSAII (Michael W. Deem and Ramdas Pophale) SiO2 
 PCOD9117449
Probable space group: P 21
;
_chemical_formula_sum "Si O2"
_cell_formula_units_Z 16
_cell_length_a 8.141765
_cell_length_b 9.924241
_cell_length_c 10.767284
_cell_angle_alpha 90.000000
_cell_angle_beta 134.696382
_cell_angle_gamma 90.000000
_cell_volume 618.438143
_symmetry_space_group_name_H-M "P 21"
_symmetry_group_IT_number 4
_symmetry_cell_setting 'monoclinic'
loop_
_space_group_symop_operation_xyz
x,y,z
-x,1/2+y,-z
loop_
_atom_site_type_symbol
_atom_site_label
_atom_site_fract_x
_atom_site_fract_y
_atom_site_fract_z
Si Si1 0.990317 0.243150 0.875897
Si Si2 0.409571 0.944312 0.737228
Si Si3 0.172986 0.499043 0.855725
Si Si4 0.962803 0.280021 0.141804
Si Si5 0.996522 0.535127 0.303656
Si Si6 0.467988 0.658891 0.652743
Si Si7 0.546538 0.675236 0.416530
Si Si8 0.525125 0.894042 0.208478
O O1 0.998791 0.388595 0.817459
O O2 0.121980 0.141753 0.853821
O O3 0.730650 0.189303 0.742000
O O4 0.061189 0.250578 0.056745
O O5 0.448002 0.788063 0.729705
O O6 0.182235 0.975314 0.694417
O O7 0.390141 0.028734 0.600400
O O8 0.623030 0.000246 0.932170
O O9 0.062672 0.646148 0.789636
O O10 0.287929 0.445209 0.791075
O O11 0.079358 0.409235 0.265615
O O12 0.694640 0.327555 0.976084
O O13 0.205348 0.612043 0.480225
O O14 0.585915 0.692094 0.583429
O O15 0.567271 0.524220 0.767076
O O16 0.631164 0.787613 0.363260
#
# Coordination Sequence:
#
# PCOD9117449 Si02
#       8
#     2   2   2   2   2   2   2   2
#     4  10  23  40  68 100 141 183 230 297 351 422
#     4  12  24  45  73 101 145 188 239 296 353 428
#     4  12  24  42  72 107 138 184 240 296 360 414
#     4  11  23  44  69 106 142 182 236 293 357 418
#     4  11  25  45  70 102 147 183 238 294 356 424
#     4  11  27  45  69 105 141 195 231 289 362 424
#     4  10  23  48  64  98 144 184 234 290 352 425
#     4  11  23  43  73 103 140 187 238 291 353 425
#
# _framework density 25.871627
#
# number of rings (size 3 to 8) (size 9 to 14) (size 15 to 20)
#    0.000    1.000    3.750    3.000    3.500    3.000 
#    0.000    2.500    0.000    0.000    0.000    0.000 
#    0.000    0.000    0.000    0.000    0.000    0.000 
#
# Total GULP energy -89794.790677 kJ/mol
# GULP energy per Si atom -5612.174417 kJ/mol
# Density = 2.581274 g / cm^3
# Si number density = 25.871627 Si / 1000 Ang^3
#
#
#
# Elastic Constant Matrix: (Units=GPa)
#
#
# Indices 1 2 3 4 5 6 
#
# 1 132.1051 43.0390 8.0109 0.0000 -16.5441 0.0000
# 2 43.0390 156.6497 1.9579 0.0000 -4.3352 0.0000
# 3 8.0109 1.9579 76.1367 0.0000 -3.1261 0.0000
# 4 0.0000 0.0000 0.0000 33.6436 0.0000 -13.0779
# 5 -16.5441 -4.3352 -3.1261 0.0000 29.9263 0.0000
# 6 0.0000 0.0000 0.0000 -13.0779 0.0000 53.5492
#
#
#
# Elastic Compliance Matrix: (Units=1/GPa)
#
#
# Indices 1 2 3 4 5 6 
#
# 1 0.008935 -0.002321 -0.000694 0.000000 0.004531 0.000000
# 2 -0.002321 0.007013 0.000053 0.000000 -0.000262 0.000000
# 3 -0.000694 0.000053 0.013247 0.000000 0.001008 0.000000
# 4 0.000000 0.000000 0.000000 0.032841 0.000000 0.008021
# 5 0.004531 -0.000262 0.001008 0.000000 0.035988 0.000000
# 6 0.000000 0.000000 0.000000 0.008021 0.000000 0.020633
#
#
# Mechanical properties :
#
#
# Convention : Reuss Voigt Hill
#
# Bulk Modulus (GPa) = 42.97062 52.32302 47.64682
# Shear Modulus (GPa) = 37.78154 44.21607 40.99880
#
# Velocity S-wave (km/s) = 3.82559 4.13856 3.98515
# Velocity P-wave (km/s) = 6.01322 6.56543 6.29538
#
# Compressibility (1/GPa) = 0.02327172
#
# Stress axis : x y z
#
# Youngs Moduli (GPa) = 111.91427 142.58363 75.48680
#
# Poissons Ratio (x) = 0.33092 0.05242
# Poissons Ratio (y) = 0.25974 -0.00401
# Poissons Ratio (z) = 0.07772 -0.00757
#
# Static dielectric constant tensor:
#      x y z
#    x 1.999150 0.000000 0.021650 
#    y 0.000000 1.966090 0.000000 
#    z 0.021650 0.000000 2.116020 
# 
# From -- ./inp_files/5733.got.cif
#   From: 2010.05.17/outbox.cif.g08.bks.cpg/sg4_3_cif.got.tgz:5733.got - 2010.06.03 18:43:04.
