data_PCOD9117973
_publ_section_title
;
Structure prediction by ZEFSAII (Michael W. Deem and Ramdas Pophale) SiO2 
 PCOD9117973
Probable space group: P 21
;
_chemical_formula_sum "Si O2"
_cell_formula_units_Z 16
_cell_length_a 16.472375
_cell_length_b 8.223340
_cell_length_c 5.023124
_cell_angle_alpha 90.000000
_cell_angle_beta 119.775099
_cell_angle_gamma 90.000000
_cell_volume 590.593638
_symmetry_space_group_name_H-M "P 21"
_symmetry_group_IT_number 4
_symmetry_cell_setting 'monoclinic'
loop_
_space_group_symop_operation_xyz
x,y,z
-x,1/2+y,-z
loop_
_atom_site_type_symbol
_atom_site_label
_atom_site_fract_x
_atom_site_fract_y
_atom_site_fract_z
Si Si1 0.193483 0.025900 0.938670
Si Si2 0.892096 0.781282 0.832269
Si Si3 0.951773 0.112863 0.187231
Si Si4 0.148310 0.735549 0.485475
Si Si5 0.516500 0.687220 0.861626
Si Si6 0.294433 0.292145 0.748267
Si Si7 0.649168 0.121066 0.069628
Si Si8 0.392681 0.923932 0.373571
O O1 0.245738 0.153786 0.837246
O O2 0.146655 0.898497 0.661067
O O3 0.122688 0.122853 0.008521
O O4 0.282812 0.957530 0.254283
O O5 0.787066 0.839922 0.589361
O O6 0.945186 0.929294 0.063393
O O7 0.951093 0.710114 0.681522
O O8 0.890309 0.218004 0.873719
O O9 0.908843 0.114855 0.411537
O O10 0.256397 0.689994 0.652356
O O11 0.429401 0.593218 0.840446
O O12 0.465208 0.857268 0.707401
O O13 0.560775 0.576386 0.701030
O O14 0.606808 0.722368 0.194396
O O15 0.321360 0.443377 0.982272
O O16 0.613497 0.262088 0.820932
#
# Coordination Sequence:
#
# PCOD9117973 Si02
#       8
#     2   2   2   2   2   2   2   2
#     4  10  26  45  75 109 160 201 264 330 400 472
#     4  12  28  48  80 113 158 208 267 340 400 491
#     4  12  29  51  84 115 158 208 271 330 415 472
#     4  11  27  50  81 118 153 208 261 336 396 485
#     4  11  24  43  71 107 152 203 258 321 391 478
#     4  11  25  44  69 110 150 201 261 324 394 471
#     4  11  23  43  73 102 153 202 260 312 395 470
#     4  10  24  42  69 108 150 209 260 323 391 475
#
# _framework density 27.091386
#
# number of rings (size 3 to 8) (size 9 to 14) (size 15 to 20)
#    0.000    1.000    1.250    3.000    8.750    8.000 
#    0.000    0.000    0.000    0.000    0.000    0.000 
#    0.000    0.000    0.000    0.000    0.000    0.000 
#
# Total GULP energy -89632.059781 kJ/mol
# GULP energy per Si atom -5602.003736 kJ/mol
# Density = 2.702972 g / cm^3
# Si number density = 27.091386 Si / 1000 Ang^3
#
#
#
# Elastic Constant Matrix: (Units=GPa)
#
#
# Indices 1 2 3 4 5 6 
#
# 1 122.9891 20.2413 50.6123 0.0000 23.0018 0.0000
# 2 20.2413 125.5124 12.4754 0.0000 5.6910 0.0000
# 3 50.6123 12.4754 101.6522 0.0000 25.2995 0.0000
# 4 0.0000 0.0000 0.0000 50.4008 0.0000 6.0861
# 5 23.0018 5.6910 25.2995 0.0000 44.0110 0.0000
# 6 0.0000 0.0000 0.0000 6.0861 0.0000 49.3449
#
#
#
# Elastic Compliance Matrix: (Units=1/GPa)
#
#
# Indices 1 2 3 4 5 6 
#
# 1 0.010697 -0.001151 -0.004470 0.000000 -0.002872 0.000000
# 2 -0.001151 0.008201 -0.000373 0.000000 -0.000245 0.000000
# 3 -0.004470 -0.000373 0.013438 0.000000 -0.005340 0.000000
# 4 0.000000 0.000000 0.000000 0.020141 0.000000 -0.002484
# 5 -0.002872 -0.000245 -0.005340 0.000000 0.027324 0.000000
# 6 0.000000 0.000000 0.000000 -0.002484 0.000000 0.020572
#
#
# Mechanical properties :
#
#
# Convention : Reuss Voigt Hill
#
# Bulk Modulus (GPa) = 49.14108 57.42353 53.28231
# Shear Modulus (GPa) = 41.96674 46.53967 44.25321
#
# Velocity S-wave (km/s) = 3.94011 4.14922 4.04602
# Velocity P-wave (km/s) = 6.23519 6.64808 6.44495
#
# Compressibility (1/GPa) = 0.02034957
#
# Stress axis : x y z
#
# Youngs Moduli (GPa) = 93.48637 121.93583 74.41678
#
# Poissons Ratio (x) = 0.14029 0.33263
# Poissons Ratio (y) = 0.10756 0.02773
# Poissons Ratio (z) = 0.41787 0.04544
#
# Static dielectric constant tensor:
#      x y z
#    x 2.050830 0.000000 0.003440 
#    y 0.000000 2.178130 0.000000 
#    z 0.003440 0.000000 2.198170 
# 
# From -- ./inp_files/3590.got.cif
#   From: 2010.05.17/outbox.cif.g08.bks.cpg/sg4_2_cif.got.tgz:3590.got - 2010.06.03 18:43:04.
