data_PCOD9117279
_publ_section_title
;
Structure prediction by ZEFSAII (Michael W. Deem and Ramdas Pophale) SiO2 
 PCOD9117279
Probable space group: P 21
;
_chemical_formula_sum "Si O2"
_cell_formula_units_Z 16
_cell_length_a 22.852607
_cell_length_b 6.171209
_cell_length_c 9.722437
_cell_angle_alpha 90.000000
_cell_angle_beta 33.289012
_cell_angle_gamma 90.000000
_cell_volume 752.566216
_symmetry_space_group_name_H-M "P 21"
_symmetry_group_IT_number 4
_symmetry_cell_setting 'monoclinic'
loop_
_space_group_symop_operation_xyz
x,y,z
-x,1/2+y,-z
loop_
_atom_site_type_symbol
_atom_site_label
_atom_site_fract_x
_atom_site_fract_y
_atom_site_fract_z
Si Si1 0.605779 0.558950 0.664396
Si Si2 0.823123 0.727876 0.123716
Si Si3 0.948366 0.935099 0.111959
Si Si4 0.001643 0.392965 0.708481
Si Si5 0.411763 0.866712 0.016057
Si Si6 0.489599 0.254365 0.671780
Si Si7 0.122489 0.547477 0.207085
Si Si8 0.343783 0.626793 0.890297
O O1 0.704677 0.667277 0.394868
O O2 0.511428 0.729016 0.877201
O O3 0.555437 0.395781 0.652532
O O4 0.640881 0.460937 0.742545
O O5 0.863897 0.895949 0.158584
O O6 0.901062 0.521367 0.969232
O O7 0.837027 0.832568 0.947490
O O8 0.912128 0.899022 0.339824
O O9 0.016224 0.695706 0.966297
O O10 0.052439 0.507308 0.478270
O O11 0.954377 0.169410 0.747905
O O12 0.342889 0.723828 0.045947
O O13 0.457851 0.045390 0.821246
O O14 0.382614 0.379217 0.834903
O O15 0.563595 0.217204 0.392895
O O16 0.230916 0.665598 0.039322
#
# Coordination Sequence:
#
# PCOD9117279 Si02
#       8
#     2   2   2   2   2   2   2   2
#     4  11  24  43  69  97 136 182 227 281 352 422
#     4  11  24  43  71  98 132 186 235 291 359 429
#     4  10  22  45  70 100 139 181 236 300 358 419
#     4  11  24  46  68  97 139 179 241 299 350 431
#     4  11  23  45  65  99 140 173 225 289 343 425
#     4  11  22  43  66  99 139 173 228 282 340 426
#     4  12  24  45  68  99 136 183 232 290 364 424
#     4  11  25  40  69 101 135 183 222 284 354 420
#
# _framework density 21.260587000000001
#
# number of rings (size 3 to 8) (size 9 to 14) (size 15 to 20)
#    0.000    1.000    5.000    1.500    1.750    2.000 
#   11.250    0.000    0.000    0.000    0.000    0.000 
#    0.000    0.000    0.000    0.000    0.000    0.000 
#
# Total GULP energy -89154.958646 kJ/mol
# GULP energy per Si atom -5572.184915 kJ/mol
# Density = 2.121220 g / cm^3
# Si number density = 21.260587 Si / 1000 Ang^3
#
#
#
# Elastic Constant Matrix: (Units=GPa)
#
#
# Indices 1 2 3 4 5 6 
#
# 1 55.4844 -0.4897 12.8739 0.0000 24.0478 0.0000
# 2 -0.4897 51.8562 1.2369 0.0000 6.2549 0.0000
# 3 12.8739 1.2369 30.7890 0.0000 11.9605 0.0000
# 4 0.0000 0.0000 0.0000 24.4532 0.0000 19.7043
# 5 24.0478 6.2549 11.9605 0.0000 36.1127 0.0000
# 6 0.0000 0.0000 0.0000 19.7043 0.0000 19.4523
#
#
#
# Elastic Compliance Matrix: (Units=1/GPa)
#
#
# Indices 1 2 3 4 5 6 
#
# 1 0.026197 0.002324 -0.004721 0.000000 -0.016283 0.000000
# 2 0.002324 0.019912 0.000194 0.000000 -0.005061 0.000000
# 3 -0.004721 0.000194 0.038145 0.000000 -0.009523 0.000000
# 4 0.000000 0.000000 0.000000 0.222537 0.000000 -0.225420
# 5 -0.016283 -0.005061 -0.009523 0.000000 0.042565 0.000000
# 6 0.000000 0.000000 0.000000 -0.225420 0.000000 0.279748
#
#
# Mechanical properties :
#
#
# Convention : Reuss Voigt Hill
#
# Bulk Modulus (GPa) = 12.52392 18.37465 15.44929
# Shear Modulus (GPa) = 7.57432 24.30422 15.93927
#
# Velocity S-wave (km/s) = 1.88954 3.38473 2.74105
# Velocity P-wave (km/s) = 3.26557 4.89250 4.15936
#
# Compressibility (1/GPa) = 0.07984720
#
# Stress axis : x y z
#
# Youngs Moduli (GPa) = 38.17299 50.22139 26.21575
#
# Poissons Ratio (x) = -0.11672 0.12378
# Poissons Ratio (y) = -0.08872 -0.00509
# Poissons Ratio (z) = 0.18023 -0.00976
#
# Static dielectric constant tensor:
#      x y z
#    x 1.798410 0.000000 0.009340 
#    y 0.000000 1.851800 0.000000 
#    z 0.009340 0.000000 1.715300 
# 
# From -- ./inp_files/7302.got.cif
#   From: 2010.05.17/outbox.cif.g08.bks.cpg/sg4_4_cif.got.tgz:7302.got - 2010.06.03 18:43:04.
