data_PCOD9117375
_publ_section_title
;
Structure prediction by ZEFSAII (Michael W. Deem and Ramdas Pophale) SiO2 
 PCOD9117375
Probable space group: P 21
;
_chemical_formula_sum "Si O2"
_cell_formula_units_Z 16
_cell_length_a 4.866820
_cell_length_b 11.118259
_cell_length_c 12.635231
_cell_angle_alpha 90.000000
_cell_angle_beta 127.436663
_cell_angle_gamma 90.000000
_cell_volume 542.875039
_symmetry_space_group_name_H-M "P 21"
_symmetry_group_IT_number 4
_symmetry_cell_setting 'monoclinic'
loop_
_space_group_symop_operation_xyz
x,y,z
-x,1/2+y,-z
loop_
_atom_site_type_symbol
_atom_site_label
_atom_site_fract_x
_atom_site_fract_y
_atom_site_fract_z
Si Si1 0.398076 0.819060 0.367763
Si Si2 0.238790 0.209665 0.239436
Si Si3 0.520319 0.313266 0.008975
Si Si4 0.990892 0.124351 0.788460
Si Si5 0.820536 0.669263 0.370027
Si Si6 0.160666 0.035025 0.410503
Si Si7 0.534704 0.943305 0.800536
Si Si8 0.374008 0.977248 0.167906
O O1 0.803330 0.790999 0.442457
O O2 0.392085 0.693598 0.266147
O O3 0.238998 0.907878 0.239898
O O4 0.405472 0.919732 0.462658
O O5 0.498876 0.316795 0.268755
O O6 0.221383 0.110609 0.140614
O O7 0.306494 0.140313 0.366006
O O8 0.856118 0.263428 0.147291
O O9 0.284715 0.201999 0.916006
O O10 0.622163 0.389576 0.930186
O O11 0.360900 0.405387 0.056711
O O12 0.901682 0.217423 0.655269
O O13 0.229614 0.048864 0.743911
O O14 0.146834 0.505875 0.184895
O O15 0.867184 0.575130 0.475266
O O16 0.777859 0.004817 0.283712
#
# Coordination Sequence:
#
# PCOD9117375 Si02
#       8
#     2   2   2   2   2   2   2   2
#     4  10  22  48  72 108 142 202 250 308 394 456
#     4  11  28  47  71 113 152 199 254 321 387 460
#     4  12  26  50  74 114 156 206 262 318 396 486
#     4  11  25  50  75 107 151 204 254 319 393 460
#     4  11  25  47  77 108 150 197 260 319 388 469
#     4  11  25  47  77 108 150 197 260 319 388 469
#     4  11  28  47  71 113 152 199 254 321 387 460
#     4  11  25  50  75 107 151 204 254 319 393 460
#
# _framework density 29.472711
#
# number of rings (size 3 to 8) (size 9 to 14) (size 15 to 20)
#    0.000    1.000    2.500    1.500    3.500   10.000 
#    9.000    0.000    0.000    0.000    0.000    0.000 
#    0.000    0.000    0.000    0.000    0.000    0.000 
#
# Total GULP energy -89516.534364 kJ/mol
# GULP energy per Si atom -5594.783398 kJ/mol
# Density = 2.940563 g / cm^3
# Si number density = 29.472711 Si / 1000 Ang^3
#
#
#
# Elastic Constant Matrix: (Units=GPa)
#
#
# Indices 1 2 3 4 5 6 
#
# 1 194.1043 93.7444 68.9802 0.0000 -61.3571 0.0000
# 2 93.7444 221.5813 68.8814 0.0000 -35.1288 0.0000
# 3 68.9802 68.8814 146.7587 0.0000 -44.6256 0.0000
# 4 0.0000 0.0000 0.0000 47.2366 0.0000 -13.6470
# 5 -61.3571 -35.1288 -44.6256 0.0000 74.7001 0.0000
# 6 0.0000 0.0000 0.0000 -13.6470 0.0000 69.5075
#
#
#
# Elastic Compliance Matrix: (Units=1/GPa)
#
#
# Indices 1 2 3 4 5 6 
#
# 1 0.008301 -0.002321 -0.001309 0.000000 0.004945 0.000000
# 2 -0.002321 0.006027 -0.001779 0.000000 -0.000135 0.000000
# 3 -0.001309 -0.001779 0.009388 0.000000 0.003697 0.000000
# 4 0.000000 0.000000 0.000000 0.022443 0.000000 0.004406
# 5 0.004945 -0.000135 0.003697 0.000000 0.019594 0.000000
# 6 0.000000 0.000000 0.000000 0.004406 0.000000 0.015252
#
#
# Mechanical properties :
#
#
# Convention : Reuss Voigt Hill
#
# Bulk Modulus (GPa) = 77.52673 113.96181 95.74427
# Shear Modulus (GPa) = 52.01785 60.34473 56.18129
#
# Velocity S-wave (km/s) = 4.20569 4.52982 4.37076
# Velocity P-wave (km/s) = 7.06721 8.13079 7.61759
#
# Compressibility (1/GPa) = 0.01289878
#
# Stress axis : x y z
#
# Youngs Moduli (GPa) = 120.46615 165.93287 106.51935
#
# Poissons Ratio (x) = 0.38516 0.13939
# Poissons Ratio (y) = 0.27962 0.18946
# Poissons Ratio (z) = 0.15764 0.29513
#
# Static dielectric constant tensor:
#      x y z
#    x 2.265080 0.000000 -0.018810 
#    y 0.000000 2.463870 0.000000 
#    z -0.018810 0.000000 2.333540 
# 
# From -- ./inp_files/10427.got.cif
#   From: 2010.05.17/outbox.cif.g08.bks.cpg/sg4_6_cif.got.tgz:10427.got - 2010.06.03 18:43:04.
