data_PCOD9117043
_publ_section_title
;
Structure prediction by ZEFSAII (Michael W. Deem and Ramdas Pophale) SiO2 
 PCOD9117043
Probable space group: P 21
;
_chemical_formula_sum "Si O2"
_cell_formula_units_Z 16
_cell_length_a 11.540371
_cell_length_b 5.697524
_cell_length_c 24.957451
_cell_angle_alpha 90.000000
_cell_angle_beta 23.034425
_cell_angle_gamma 90.000000
_cell_volume 642.093670
_symmetry_space_group_name_H-M "P 21"
_symmetry_group_IT_number 4
_symmetry_cell_setting 'monoclinic'
loop_
_space_group_symop_operation_xyz
x,y,z
-x,1/2+y,-z
loop_
_atom_site_type_symbol
_atom_site_label
_atom_site_fract_x
_atom_site_fract_y
_atom_site_fract_z
Si Si1 0.175912 0.424290 0.636291
Si Si2 0.037841 0.085393 0.546157
Si Si3 0.553964 0.686450 0.894753
Si Si4 0.837971 0.586679 0.627385
Si Si5 0.433744 0.731590 0.613971
Si Si6 0.987458 0.179438 0.943414
Si Si7 0.129270 0.515580 0.170289
Si Si8 0.178738 0.676868 0.867820
O O1 0.406878 0.542829 0.578292
O O2 0.341634 0.412583 0.509345
O O3 0.864542 0.554504 0.760087
O O4 0.076643 0.200069 0.712546
O O5 0.982520 0.067473 0.505823
O O6 0.383049 0.134399 0.413873
O O7 0.863956 0.320590 0.638978
O O8 0.950638 0.829593 0.606630
O O9 0.652718 0.937326 0.874645
O O10 0.356908 0.668165 0.926165
O O11 0.339263 0.595407 0.033188
O O12 0.506469 0.639757 0.750012
O O13 0.099485 0.826647 0.757765
O O14 0.092549 0.431739 0.875720
O O15 0.028082 0.188783 0.990392
O O16 0.140237 0.937092 0.859340
#
# Coordination Sequence:
#
# PCOD9117043 Si02
#       8
#     2   2   2   2   2   2   2   2
#     4  11  24  44  65  95 138 166 232 271 333 402
#     4  10  24  40  67  95 128 171 221 265 338 386
#     4  11  25  42  68  98 130 183 215 282 333 401
#     4  10  22  43  63  96 131 166 220 273 322 400
#     4  11  25  42  68  98 130 183 215 282 333 401
#     4  10  24  40  67  95 128 171 221 265 338 386
#     4  11  24  44  65  95 138 166 232 271 333 402
#     4  10  22  43  63  96 131 166 220 273 322 400
#
# _framework density 24.918482999999998
#
# number of rings (size 3 to 8) (size 9 to 14) (size 15 to 20)
#    0.000    1.500    2.500    0.750    7.000    2.000 
#    0.000    0.000    0.000    0.000    0.000    0.000 
#    0.000    0.000    0.000    0.000    0.000    0.000 
#
# Total GULP energy -89279.899859 kJ/mol
# GULP energy per Si atom -5579.993741 kJ/mol
# Density = 2.486177 g / cm^3
# Si number density = 24.918483 Si / 1000 Ang^3
#
#
#
# Elastic Constant Matrix: (Units=GPa)
#
#
# Indices 1 2 3 4 5 6 
#
# 1 59.8636 9.0782 -1.7408 0.0000 -10.3032 0.0000
# 2 9.0782 144.3958 28.8462 0.0000 -12.0520 0.0000
# 3 -1.7408 28.8462 94.1380 0.0000 -19.2166 0.0000
# 4 0.0000 0.0000 0.0000 -23.0227 0.0000 -18.8490
# 5 -10.3032 -12.0520 -19.2166 0.0000 44.8538 0.0000
# 6 0.0000 0.0000 0.0000 -18.8490 0.0000 16.4784
#
#
#
# Elastic Compliance Matrix: (Units=1/GPa)
#
#
# Indices 1 2 3 4 5 6 
#
# 1 0.017674 -0.001051 0.001556 0.000000 0.004444 0.000000
# 2 -0.001051 0.007490 -0.002140 0.000000 0.000854 0.000000
# 3 0.001556 -0.002140 0.012342 0.000000 0.005070 0.000000
# 4 0.000000 0.000000 0.000000 -0.022430 0.000000 -0.025657
# 5 0.004444 0.000854 0.005070 0.000000 0.025717 0.000000
# 6 0.000000 0.000000 0.000000 -0.025657 0.000000 0.031338
#
#
# Mechanical properties :
#
#
# Convention : Reuss Voigt Hill
#
# Bulk Modulus (GPa) = 29.20883 41.19606 35.20244
# Shear Modulus (GPa) = 57.59397 25.14280 41.36839
#
# Velocity S-wave (km/s) = 4.81281 3.17993 4.07891
# Velocity P-wave (km/s) = 6.52927 5.48186 6.02836
#
# Compressibility (1/GPa) = 0.03423622
#
# Stress axis : x y z
#
# Youngs Moduli (GPa) = 56.57971 133.50486 81.02213
#
# Poissons Ratio (x) = 0.14033 -0.12608
# Poissons Ratio (y) = 0.05947 0.17341
# Poissons Ratio (z) = -0.08804 0.28574
#
# Static dielectric constant tensor:
#      x y z
#    x 2.164480 0.000000 0.357920 
#    y 0.000000 2.080820 0.000000 
#    z 0.357920 0.000000 2.437320 
# 
# From -- ./inp_files/13036.got.cif
#   From: 2010.05.17/outbox.cif.g08.bks.cpg/sg4_7_cif.got.tgz:13036.got - 2010.06.03 18:43:04.
