data_PCOD9117017
_publ_section_title
;
Structure prediction by ZEFSAII (Michael W. Deem and Ramdas Pophale) SiO2 
 PCOD9117017
Probable space group: P 21
;
_chemical_formula_sum "Si O2"
_cell_formula_units_Z 14
_cell_length_a 8.589183
_cell_length_b 5.530744
_cell_length_c 12.393984
_cell_angle_alpha 90.000000
_cell_angle_beta 77.315676
_cell_angle_gamma 90.000000
_cell_volume 574.401753
_symmetry_space_group_name_H-M "P 21"
_symmetry_group_IT_number 4
_symmetry_cell_setting 'monoclinic'
loop_
_space_group_symop_operation_xyz
x,y,z
-x,1/2+y,-z
loop_
_atom_site_type_symbol
_atom_site_label
_atom_site_fract_x
_atom_site_fract_y
_atom_site_fract_z
Si Si1 0.980872 0.751020 0.769678
Si Si2 0.266214 0.503067 0.070740
Si Si3 0.664400 0.325261 0.325383
Si Si4 0.075497 0.418115 0.446453
Si Si5 0.356680 0.097254 0.458387
Si Si6 0.451305 0.746447 0.875676
Si Si7 0.706700 0.380052 0.747012
O O1 0.954606 0.940562 0.675884
O O2 0.865410 0.530197 0.755867
O O3 0.168403 0.703631 0.734163
O O4 0.900008 0.863165 0.889077
O O5 0.423053 0.334497 0.053273
O O6 0.290856 0.651297 0.177175
O O7 0.292757 0.666466 0.962624
O O8 0.540704 0.149294 0.405470
O O9 0.682757 0.530329 0.413240
O O10 0.591214 0.409795 0.221753
O O11 0.256283 0.335906 0.441684
O O12 0.016611 0.666279 0.508362
O O13 0.302999 0.889883 0.381133
O O14 0.550240 0.530586 0.805677
#
# Coordination Sequence:
#
# PCOD9117017 Si02
#       7
#     2   2   2   2   2   2   2
#     4  10  24  40  64  97 137 178 240 287 359 428
#     4  11  21  43  71  92 126 183 241 294 352 433
#     4  11  24  44  60 105 140 178 232 299 365 433
#     4  11  24  44  73 102 143 195 239 294 353 444
#     4  10  24  39  68  98 144 186 232 289 370 435
#     4  10  22  42  70  95 130 172 241 291 358 423
#     4   9  21  42  66  95 122 180 229 288 345 436
#
# _framework density 24.373184999999999
#
# number of rings (size 3 to 8) (size 9 to 14) (size 15 to 20)
#    0.000    1.714    2.857    0.857    8.000    0.000 
#    2.571    0.000    0.000    0.000    0.000    0.000 
#    0.000    0.000    0.000    0.000    0.000    0.000 
#
# Total GULP energy -78150.895219 kJ/mol
# GULP energy per Si atom -5582.206801 kJ/mol
# Density = 2.431771 g / cm^3
# Si number density = 24.373185 Si / 1000 Ang^3
#
#
#
# Elastic Constant Matrix: (Units=GPa)
#
#
# Indices 1 2 3 4 5 6 
#
# 1 137.7089 16.8715 39.3831 0.0000 -41.5145 0.0000
# 2 16.8715 46.5071 23.2897 0.0000 -18.3816 0.0000
# 3 39.3831 23.2897 118.9763 0.0000 -15.8666 0.0000
# 4 0.0000 0.0000 0.0000 36.5699 0.0000 -13.9657
# 5 -41.5145 -18.3816 -15.8666 0.0000 41.8891 0.0000
# 6 0.0000 0.0000 0.0000 -13.9657 0.0000 24.6489
#
#
#
# Elastic Compliance Matrix: (Units=1/GPa)
#
#
# Indices 1 2 3 4 5 6 
#
# 1 0.010991 0.001452 -0.002512 0.000000 0.010579 0.000000
# 2 0.001452 0.027907 -0.004337 0.000000 0.012042 0.000000
# 3 -0.002512 -0.004337 0.010005 0.000000 -0.000603 0.000000
# 4 0.000000 0.000000 0.000000 0.034895 0.000000 0.019771
# 5 0.010579 0.012042 -0.000603 0.000000 0.039412 0.000000
# 6 0.000000 0.000000 0.000000 0.019771 0.000000 0.051772
#
#
# Mechanical properties :
#
#
# Convention : Reuss Voigt Hill
#
# Bulk Modulus (GPa) = 26.24110 51.36457 38.80283
# Shear Modulus (GPa) = 25.19143 35.53146 30.36144
#
# Velocity S-wave (km/s) = 3.21841 3.82227 3.53326
# Velocity P-wave (km/s) = 4.95990 6.37178 5.70965
#
# Compressibility (1/GPa) = 0.03810815
#
# Stress axis : x y z
#
# Youngs Moduli (GPa) = 90.98164 35.83338 99.94897
#
# Poissons Ratio (x) = -0.05201 0.25104
# Poissons Ratio (y) = -0.13206 0.43352
# Poissons Ratio (z) = 0.22852 0.15543
#
# Static dielectric constant tensor:
#      x y z
#    x 2.015010 0.000000 -0.028660 
#    y 0.000000 2.024780 0.000000 
#    z -0.028660 0.000000 1.960330 
# 
# From -- ./inp_files/7396.got.cif
#   From: 2010.05.17/outbox.cif.g08.bks.cpg/sg4_4_cif.got.tgz:7396.got - 2010.06.03 18:43:04.
