data_PCOD9117694
_publ_section_title
;
Structure prediction by ZEFSAII (Michael W. Deem and Ramdas Pophale) SiO2 
 PCOD9117694
Probable space group: P 21
;
_chemical_formula_sum "Si O2"
_cell_formula_units_Z 12
_cell_length_a 5.474768
_cell_length_b 16.216070
_cell_length_c 6.671814
_cell_angle_alpha 90.000000
_cell_angle_beta 46.418268
_cell_angle_gamma 90.000000
_cell_volume 429.070570
_symmetry_space_group_name_H-M "P 21"
_symmetry_group_IT_number 4
_symmetry_cell_setting 'monoclinic'
loop_
_space_group_symop_operation_xyz
x,y,z
-x,1/2+y,-z
loop_
_atom_site_type_symbol
_atom_site_label
_atom_site_fract_x
_atom_site_fract_y
_atom_site_fract_z
Si Si1 0.666745 0.531700 0.010218
Si Si2 0.589233 0.734087 0.427427
Si Si3 0.587182 0.063678 0.430276
Si Si4 0.273911 0.361132 0.220864
Si Si5 0.637361 0.200640 0.910363
Si Si6 0.529854 0.391912 0.675027
O O1 0.675379 0.558855 0.238420
O O2 0.516926 0.440022 0.108890
O O3 0.448154 0.603727 0.031154
O O4 0.038971 0.538936 0.710586
O O5 0.397960 0.658616 0.644678
O O6 0.452661 0.721042 0.274092
O O7 0.528219 0.832410 0.483263
O O8 0.979042 0.717359 0.248650
O O9 0.483342 0.989026 0.348701
O O10 0.912181 0.372760 0.524800
O O11 0.415857 0.268455 0.155983
O O12 0.237402 0.370032 0.997611
#
# Coordination Sequence:
#
# PCOD9117694 Si02
#       6
#     2   2   2   2   2   2
#     4  11  23  42  66  99 134 176 222 275 332 396
#     4  10  23  44  68  98 134 176 222 274 332 396
#     4  11  23  42  66  99 134 176 222 275 332 396
#     4  11  23  42  66  99 134 176 222 275 332 396
#     4  10  23  44  68  98 134 176 222 274 332 396
#     4  11  23  42  66  99 134 176 222 275 332 396
#
# _framework density 27.967427000000001
#
# number of rings (size 3 to 8) (size 9 to 14) (size 15 to 20)
#    0.000    1.333    0.000    5.000    0.000    5.333 
#    0.000   15.000    0.000    0.000    0.000    0.000 
#    0.000    0.000    0.000    0.000    0.000    0.000 
#
# Total GULP energy -67177.002246 kJ/mol
# GULP energy per Si atom -5598.083520 kJ/mol
# Density = 2.790377 g / cm^3
# Si number density = 27.967427 Si / 1000 Ang^3
#
#
#
# Elastic Constant Matrix: (Units=GPa)
#
#
# Indices 1 2 3 4 5 6 
#
# 1 109.4375 64.3253 30.3313 0.0000 -38.8595 0.0000
# 2 64.3253 264.2345 34.7094 0.0000 -16.7060 0.0000
# 3 30.3313 34.7094 94.9236 0.0000 -23.7634 0.0000
# 4 0.0000 0.0000 0.0000 55.2871 0.0000 2.6079
# 5 -38.8595 -16.7060 -23.7634 0.0000 57.9441 0.0000
# 6 0.0000 0.0000 0.0000 2.6079 0.0000 77.9315
#
#
#
# Elastic Compliance Matrix: (Units=1/GPa)
#
#
# Indices 1 2 3 4 5 6 
#
# 1 0.013970 -0.002702 -0.001477 0.000000 0.007984 0.000000
# 2 -0.002702 0.004518 -0.001021 0.000000 -0.000928 0.000000
# 3 -0.001477 -0.001021 0.012324 0.000000 0.003769 0.000000
# 4 0.000000 0.000000 0.000000 0.018116 0.000000 -0.000606
# 5 0.007984 -0.000928 0.003769 0.000000 0.023891 0.000000
# 6 0.000000 0.000000 0.000000 -0.000606 0.000000 0.012852
#
#
# Mechanical properties :
#
#
# Convention : Reuss Voigt Hill
#
# Bulk Modulus (GPa) = 48.99237 80.81419 64.90328
# Shear Modulus (GPa) = 48.60288 60.84785 54.72536
#
# Velocity S-wave (km/s) = 4.17326 4.66947 4.42832
# Velocity P-wave (km/s) = 6.38570 7.61777 7.02878
#
# Compressibility (1/GPa) = 0.02041134
#
# Stress axis : x y z
#
# Youngs Moduli (GPa) = 71.58017 221.34989 81.14475
#
# Poissons Ratio (x) = 0.59811 0.11986
# Poissons Ratio (y) = 0.19342 0.08284
# Poissons Ratio (z) = 0.10574 0.22598
#
# Static dielectric constant tensor:
#      x y z
#    x 2.317240 0.000000 0.199960 
#    y 0.000000 2.268560 0.000000 
#    z 0.199960 0.000000 2.106420 
# 
# From -- ./inp_files/305.got.cif
#   From: 2010.05.17/outbox.cif.g08.bks.cpg/sg4_1_cif.got.tgz:305.got - 2010.06.03 18:43:04.
