data_PCOD9117904
_publ_section_title
;
Structure prediction by ZEFSAII (Michael W. Deem and Ramdas Pophale) SiO2 
 PCOD9117904
Probable space group: P 21
;
_chemical_formula_sum "Si O2"
_cell_formula_units_Z 14
_cell_length_a 21.074907
_cell_length_b 5.555259
_cell_length_c 14.999893
_cell_angle_alpha 90.000000
_cell_angle_beta 18.571552
_cell_angle_gamma 90.000000
_cell_volume 559.309450
_symmetry_space_group_name_H-M "P 21"
_symmetry_group_IT_number 4
_symmetry_cell_setting 'monoclinic'
loop_
_space_group_symop_operation_xyz
x,y,z
-x,1/2+y,-z
loop_
_atom_site_type_symbol
_atom_site_label
_atom_site_fract_x
_atom_site_fract_y
_atom_site_fract_z
Si Si1 0.590727 0.895400 0.421214
Si Si2 0.230952 0.072054 0.389296
Si Si3 0.019138 0.840033 0.919596
Si Si4 0.539090 0.165311 0.672804
Si Si5 0.126904 0.316923 0.192361
Si Si6 0.538661 0.337231 0.060210
Si Si7 0.115730 0.461617 0.403928
O O1 0.483191 0.645431 0.530957
O O2 0.555547 0.966635 0.572275
O O3 0.830661 0.850614 0.102708
O O4 0.319188 0.222553 0.351855
O O5 0.202838 0.245268 0.343297
O O6 0.022135 0.939504 0.677684
O O7 0.401300 0.899536 0.122194
O O8 0.249754 0.787694 0.586514
O O9 0.978352 0.600547 0.034663
O O10 0.462240 0.042322 0.865199
O O11 0.361740 0.339766 0.873914
O O12 0.048711 0.393639 0.394839
O O13 0.058827 0.041941 0.295063
O O14 0.703115 0.138734 0.859639
#
# Coordination Sequence:
#
# PCOD9117904 Si02
#       7
#     2   2   2   2   2   2   2
#     4  11  25  52  82 112 149 189 238 320 402 450
#     4  11  22  40  64  96 150 190 233 290 356 399
#     4  10  23  49  80 111 147 192 235 310 398 454
#     4  11  25  47  76 106 138 190 257 295 366 463
#     4  11  22  39  65 102 136 191 241 293 343 427
#     4  11  23  41  67  99 137 197 244 290 344 429
#     4  11  20  38  64  92 147 191 230 284 359 400
#
# _framework density 25.030867000000001
#
# number of rings (size 3 to 8) (size 9 to 14) (size 15 to 20)
#    0.000    1.143    4.286    2.571    0.000    3.429 
#    2.571    5.714    0.000    0.000    0.000    0.000 
#    0.000    0.000    0.000    0.000    0.000    0.000 
#
# Total GULP energy -78078.902670 kJ/mol
# GULP energy per Si atom -5577.064476 kJ/mol
# Density = 2.497390 g / cm^3
# Si number density = 25.030867 Si / 1000 Ang^3
#
#
#
# Elastic Constant Matrix: (Units=GPa)
#
#
# Indices 1 2 3 4 5 6 
#
# 1 79.8769 43.2431 57.6499 0.0000 -30.1254 0.0000
# 2 43.2431 96.7739 50.6888 0.0000 -16.8466 0.0000
# 3 57.6499 50.6888 165.0442 0.0000 -43.8816 0.0000
# 4 0.0000 0.0000 0.0000 -11.4112 0.0000 -26.5092
# 5 -30.1254 -16.8466 -43.8816 0.0000 61.9014 0.0000
# 6 0.0000 0.0000 0.0000 -26.5092 0.0000 47.2568
#
#
#
# Elastic Compliance Matrix: (Units=1/GPa)
#
#
# Indices 1 2 3 4 5 6 
#
# 1 0.020859 -0.006322 -0.003823 0.000000 0.005720 0.000000
# 2 -0.006322 0.014265 -0.002413 0.000000 -0.000906 0.000000
# 3 -0.003823 -0.002413 0.009200 0.000000 0.004005 0.000000
# 4 0.000000 0.000000 0.000000 -0.038049 0.000000 -0.021344
# 5 0.005720 -0.000906 0.004005 0.000000 0.021531 0.000000
# 6 0.000000 0.000000 0.000000 -0.021344 0.000000 0.009188
#
#
# Mechanical properties :
#
#
# Convention : Reuss Voigt Hill
#
# Bulk Modulus (GPa) = 52.06698 71.65093 61.85896
# Shear Modulus (GPa) = 72.97763 32.22363 52.60063
#
# Velocity S-wave (km/s) = 5.40540 3.59187 4.58911
# Velocity P-wave (km/s) = 7.73331 6.77416 7.26957
#
# Compressibility (1/GPa) = 0.01920603
#
# Stress axis : x y z
#
# Youngs Moduli (GPa) = 47.94132 70.10183 108.69030
#
# Poissons Ratio (x) = 0.44320 0.41556
# Poissons Ratio (y) = 0.30310 0.26232
# Poissons Ratio (z) = 0.18330 0.16919
#
# Static dielectric constant tensor:
#      x y z
#    x 1.955420 0.000000 -0.009800 
#    y 0.000000 2.201240 0.000000 
#    z -0.009800 0.000000 2.212200 
# 
# From -- ./inp_files/14429.got.cif
#   From: 2010.05.17/outbox.cif.g08.bks.cpg/sg4_8_cif.got.tgz:14429.got - 2010.06.03 18:43:04.
