data_PCOD9117648
_publ_section_title
;
Structure prediction by ZEFSAII (Michael W. Deem and Ramdas Pophale) SiO2 
 PCOD9117648
Probable space group: P 21
;
_chemical_formula_sum "Si O2"
_cell_formula_units_Z 16
_cell_length_a 8.383668
_cell_length_b 5.158554
_cell_length_c 18.427025
_cell_angle_alpha 90.000000
_cell_angle_beta 126.363239
_cell_angle_gamma 90.000000
_cell_volume 641.743021
_symmetry_space_group_name_H-M "P 21"
_symmetry_group_IT_number 4
_symmetry_cell_setting 'monoclinic'
loop_
_space_group_symop_operation_xyz
x,y,z
-x,1/2+y,-z
loop_
_atom_site_type_symbol
_atom_site_label
_atom_site_fract_x
_atom_site_fract_y
_atom_site_fract_z
Si Si1 0.897286 0.491610 0.779601
Si Si2 0.215931 0.971728 0.492340
Si Si3 0.976129 0.169524 0.681037
Si Si4 0.347323 0.306476 0.405220
Si Si5 0.524121 0.453909 0.769743
Si Si6 0.761134 0.264332 0.048447
Si Si7 0.272391 0.940093 0.670776
Si Si8 0.610858 0.754232 0.942728
O O1 0.042841 0.305309 0.772611
O O2 0.763220 0.620703 0.680719
O O3 0.735651 0.386748 0.791753
O O4 0.034007 0.688740 0.859615
O O5 0.046474 0.850271 0.395903
O O6 0.419580 0.808539 0.540231
O O7 0.175059 0.994726 0.565973
O O8 0.282779 0.232344 0.469204
O O9 0.754198 0.078383 0.639602
O O10 0.109394 0.930874 0.690705
O O11 0.397004 0.678036 0.695061
O O12 0.558046 0.609239 0.853915
O O13 0.403109 0.185854 0.732504
O O14 0.586692 0.254331 0.061362
O O15 0.765589 0.554215 0.019852
O O16 0.699257 0.044972 0.971770
#
# Coordination Sequence:
#
# PCOD9117648 Si02
#       8
#     2   2   2   2   2   2   2   2
#     4  11  26  44  71 103 137 189 233 287 353 428
#     4  11  24  42  67  96 140 185 239 290 353 412
#     4  11  27  43  70  99 139 188 242 293 352 421
#     4  11  23  43  66  97 136 184 234 291 349 415
#     4  12  27  47  71 104 146 181 233 293 353 415
#     4  10  23  43  73 100 139 179 228 276 349 425
#     4  12  29  44  71 102 143 187 236 298 348 414
#     4  10  23  44  69 105 138 179 221 288 347 412
#
# _framework density 24.932096000000001
#
# number of rings (size 3 to 8) (size 9 to 14) (size 15 to 20)
#    0.000    1.000    2.500    2.250   12.250    2.000 
#    0.000    0.000    0.000    0.000    0.000    0.000 
#    0.000    0.000    0.000    0.000    0.000    0.000 
#
# Total GULP energy -89470.888517 kJ/mol
# GULP energy per Si atom -5591.930532 kJ/mol
# Density = 2.487535 g / cm^3
# Si number density = 24.932096 Si / 1000 Ang^3
#
#
#
# Elastic Constant Matrix: (Units=GPa)
#
#
# Indices 1 2 3 4 5 6 
#
# 1 61.3954 7.4910 -6.5812 0.0000 1.9561 0.0000
# 2 7.4910 78.6547 -0.6565 0.0000 7.7805 0.0000
# 3 -6.5812 -0.6565 50.4353 0.0000 -5.1183 0.0000
# 4 0.0000 0.0000 0.0000 32.3899 0.0000 6.0170
# 5 1.9561 7.7805 -5.1183 0.0000 35.8997 0.0000
# 6 0.0000 0.0000 0.0000 6.0170 0.0000 26.3222
#
#
#
# Elastic Compliance Matrix: (Units=1/GPa)
#
#
# Indices 1 2 3 4 5 6 
#
# 1 0.016714 -0.001547 0.002133 0.000000 -0.000271 0.000000
# 2 -0.001547 0.013136 -0.000316 0.000000 -0.002808 0.000000
# 3 0.002133 -0.000316 0.020392 0.000000 0.002860 0.000000
# 4 0.000000 0.000000 0.000000 0.032243 0.000000 -0.007370
# 5 -0.000271 -0.002808 0.002860 0.000000 0.028886 0.000000
# 6 0.000000 0.000000 0.000000 -0.007370 0.000000 0.039675
#
#
# Mechanical properties :
#
#
# Convention : Reuss Voigt Hill
#
# Bulk Modulus (GPa) = 19.69178 21.22134 20.45656
# Shear Modulus (GPa) = 29.86255 31.60452 30.73353
#
# Velocity S-wave (km/s) = 3.46461 3.56423 3.51478
# Velocity P-wave (km/s) = 4.89081 5.04663 4.96933
#
# Compressibility (1/GPa) = 0.05078261
#
# Stress axis : x y z
#
# Youngs Moduli (GPa) = 59.83020 76.12522 49.03926
#
# Poissons Ratio (x) = 0.11778 -0.10462
# Poissons Ratio (y) = 0.09257 0.01549
# Poissons Ratio (z) = -0.12764 0.02404
#
# Static dielectric constant tensor:
#      x y z
#    x 1.967230 0.000000 -0.011540 
#    y 0.000000 2.031460 0.000000 
#    z -0.011540 0.000000 1.989060 
# 
# From -- ./inp_files/9022.got.cif
#   From: 2010.05.17/outbox.cif.g08.bks.cpg/sg4_5_cif.got.tgz:9022.got - 2010.06.03 18:43:04.
