data_PCOD9117856
_publ_section_title
;
Structure prediction by ZEFSAII (Michael W. Deem and Ramdas Pophale) SiO2 
 PCOD9117856
Probable space group: P 21
;
_chemical_formula_sum "Si O2"
_cell_formula_units_Z 16
_cell_length_a 16.063822
_cell_length_b 5.238657
_cell_length_c 7.869537
_cell_angle_alpha 90.000000
_cell_angle_beta 64.609438
_cell_angle_gamma 90.000000
_cell_volume 598.275156
_symmetry_space_group_name_H-M "P 21"
_symmetry_group_IT_number 4
_symmetry_cell_setting 'monoclinic'
loop_
_space_group_symop_operation_xyz
x,y,z
-x,1/2+y,-z
loop_
_atom_site_type_symbol
_atom_site_label
_atom_site_fract_x
_atom_site_fract_y
_atom_site_fract_z
Si Si1 0.450562 0.752780 0.502517
Si Si2 0.850509 0.668614 0.065783
Si Si3 0.034837 0.681921 0.756081
Si Si4 0.209134 0.339530 0.540552
Si Si5 0.412181 0.456239 0.229650
Si Si6 0.397407 0.654845 0.892074
Si Si7 0.802796 0.178012 0.902033
Si Si8 0.906315 0.489014 0.567780
O O1 0.534244 0.548574 0.463286
O O2 0.428844 0.719990 0.322626
O O3 0.382268 0.626588 0.702331
O O4 0.841424 0.387639 0.996974
O O5 0.794073 0.665011 0.288763
O O6 0.813593 0.897502 0.974640
O O7 0.961861 0.706828 0.971564
O O8 0.135451 0.553337 0.674818
O O9 0.979017 0.548754 0.649481
O O10 0.047872 0.954799 0.655641
O O11 0.314403 0.386087 0.397502
O O12 0.166946 0.204752 0.411104
O O13 0.505736 0.300410 0.182512
O O14 0.404797 0.444325 0.032479
O O15 0.301705 0.773162 0.035071
O O16 0.854050 0.237787 0.680859
#
# Coordination Sequence:
#
# PCOD9117856 Si02
#       8
#     2   2   2   2   2   2   2   2
#     4  10  23  47  73 105 148 197 251 315 379 449
#     4  11  29  49  79 113 154 201 265 318 404 473
#     4  11  24  44  75 100 150 197 251 310 404 464
#     4  12  28  46  73 116 154 198 264 340 381 480
#     4  11  26  46  73 119 150 206 266 321 390 471
#     4  11  25  45  80 108 160 208 260 316 396 462
#     4  11  27  49  76 110 155 208 257 319 392 477
#     4  11  24  44  73 105 145 199 250 321 380 472
#
# _framework density 26.743545999999998
#
# number of rings (size 3 to 8) (size 9 to 14) (size 15 to 20)
#    0.000    1.000    1.250    3.000   12.250    6.000 
#    6.750    0.000    0.000    0.000    0.000    0.000 
#    0.000    0.000    0.000    0.000    0.000    0.000 
#
# Total GULP energy -89234.546504 kJ/mol
# GULP energy per Si atom -5577.159156 kJ/mol
# Density = 2.668268 g / cm^3
# Si number density = 26.743546 Si / 1000 Ang^3
#
#
#
# Elastic Constant Matrix: (Units=GPa)
#
#
# Indices 1 2 3 4 5 6 
#
# 1 73.5639 12.1483 31.3959 0.0000 -36.6815 0.0000
# 2 12.1483 60.5505 -1.7016 0.0000 3.6888 0.0000
# 3 31.3959 -1.7016 174.6291 0.0000 -12.4153 0.0000
# 4 0.0000 0.0000 0.0000 31.0663 0.0000 1.7124
# 5 -36.6815 3.6888 -12.4153 0.0000 49.6009 0.0000
# 6 0.0000 0.0000 0.0000 1.7124 0.0000 29.6114
#
#
#
# Elastic Compliance Matrix: (Units=1/GPa)
#
#
# Indices 1 2 3 4 5 6 
#
# 1 0.025102 -0.006237 -0.003279 0.000000 0.018207 0.000000
# 2 -0.006237 0.018141 0.000890 0.000000 -0.005739 0.000000
# 3 -0.003279 0.000890 0.006259 0.000000 -0.000925 0.000000
# 4 0.000000 0.000000 0.000000 0.032292 0.000000 -0.001867
# 5 0.018207 -0.005739 -0.000925 0.000000 0.033821 0.000000
# 6 0.000000 0.000000 0.000000 -0.001867 0.000000 0.033879
#
#
# Mechanical properties :
#
#
# Convention : Reuss Voigt Hill
#
# Bulk Modulus (GPa) = 31.00918 43.60320 37.30619
# Shear Modulus (GPa) = 28.16965 39.84913 34.00939
#
# Velocity S-wave (km/s) = 3.24902 3.86430 3.56994
# Velocity P-wave (km/s) = 5.06902 6.02080 5.56529
#
# Compressibility (1/GPa) = 0.03224852
#
# Stress axis : x y z
#
# Youngs Moduli (GPa) = 39.83801 55.12307 159.77178
#
# Poissons Ratio (x) = 0.34383 0.52394
# Poissons Ratio (y) = 0.24849 -0.14222
# Poissons Ratio (z) = 0.13064 -0.04907
#
# Static dielectric constant tensor:
#      x y z
#    x 2.279510 0.000000 0.109800 
#    y 0.000000 2.211680 0.000000 
#    z 0.109800 0.000000 2.187310 
# 
# From -- ./inp_files/9491.got.cif
#   From: 2010.05.17/outbox.cif.g08.bks.cpg/sg4_5_cif.got.tgz:9491.got - 2010.06.03 18:43:04.
