data_PCOD9117910
_publ_section_title
;
Structure prediction by ZEFSAII (Michael W. Deem and Ramdas Pophale) SiO2 
 PCOD9117910
Probable space group: P 21
;
_chemical_formula_sum "Si O2"
_cell_formula_units_Z 10
_cell_length_a 8.660631
_cell_length_b 8.925172
_cell_length_c 9.200923
_cell_angle_alpha 90.000000
_cell_angle_beta 31.843370
_cell_angle_gamma 90.000000
_cell_volume 375.233380
_symmetry_space_group_name_H-M "P 21"
_symmetry_group_IT_number 4
_symmetry_cell_setting 'monoclinic'
loop_
_space_group_symop_operation_xyz
x,y,z
-x,1/2+y,-z
loop_
_atom_site_type_symbol
_atom_site_label
_atom_site_fract_x
_atom_site_fract_y
_atom_site_fract_z
Si Si1 0.011627 0.799040 0.004220
Si Si2 0.933603 0.631957 0.348829
Si Si3 0.634902 0.673144 0.056587
Si Si4 0.658599 0.923184 0.524232
Si Si5 0.443731 0.981904 0.129178
O O1 0.945365 0.660507 0.167048
O O2 0.876686 0.758407 0.958430
O O3 0.837754 0.930192 0.230799
O O4 0.350311 0.840619 0.735242
O O5 0.837388 0.799748 0.477208
O O6 0.687791 0.526107 0.610915
O O7 0.239372 0.557350 0.144437
O O8 0.428636 0.575799 0.327504
O O9 0.473774 0.805745 0.100620
O O10 0.746072 0.555520 0.847745
#
# Coordination Sequence:
#
# PCOD9117910 Si02
#       5
#     2   2   2   2   2
#     4  10  25  44  84 104 149 193 264 316 376 442
#     4  10  23  50  76 110 152 199 259 315 383 457
#     4  12  30  49  80 115 160 203 259 318 395 463
#     4  10  24  48  77 110 145 204 253 324 368 455
#     4  12  28  47  75 115 154 207 245 319 392 461
#
# _framework density 26.650082000000001
#
# number of rings (size 3 to 8) (size 9 to 14) (size 15 to 20)
#    1.200    0.000    2.000    1.200    5.600    9.600 
#    0.000    0.000    0.000    0.000    0.000    0.000 
#    0.000    0.000    0.000    0.000    0.000    0.000 
#
# Total GULP energy -56023.099323 kJ/mol
# GULP energy per Si atom -5602.309932 kJ/mol
# Density = 2.658943 g / cm^3
# Si number density = 26.650082 Si / 1000 Ang^3
#
#
#
# Elastic Constant Matrix: (Units=GPa)
#
#
# Indices 1 2 3 4 5 6 
#
# 1 95.1050 53.3123 24.4172 0.0000 -1.4976 0.0000
# 2 53.3123 178.5991 49.4339 0.0000 -0.1304 0.0000
# 3 24.4172 49.4339 118.3606 0.0000 -30.6300 0.0000
# 4 0.0000 0.0000 0.0000 45.6535 0.0000 13.9013
# 5 -1.4976 -0.1304 -30.6300 0.0000 42.1427 0.0000
# 6 0.0000 0.0000 0.0000 13.9013 0.0000 43.7973
#
#
#
# Elastic Compliance Matrix: (Units=1/GPa)
#
#
# Indices 1 2 3 4 5 6 
#
# 1 0.012781 -0.003446 -0.001333 0.000000 -0.000525 0.000000
# 2 -0.003446 0.007454 -0.002990 0.000000 -0.002273 0.000000
# 3 -0.001333 -0.002990 0.012265 0.000000 0.008858 0.000000
# 4 0.000000 0.000000 0.000000 0.024248 0.000000 -0.007696
# 5 -0.000525 -0.002273 0.008858 0.000000 0.030141 0.000000
# 6 0.000000 0.000000 0.000000 -0.007696 0.000000 0.025275
#
#
# Mechanical properties :
#
#
# Convention : Reuss Voigt Hill
#
# Bulk Modulus (GPa) = 58.96342 71.82126 65.39234
# Shear Modulus (GPa) = 37.49347 43.97880 40.73613
#
# Velocity S-wave (km/s) = 3.75491 4.06671 3.91392
# Velocity P-wave (km/s) = 6.40095 7.00422 6.70937
#
# Compressibility (1/GPa) = 0.01695967
#
# Stress axis : x y z
#
# Youngs Moduli (GPa) = 78.24336 134.15717 81.53296
#
# Poissons Ratio (x) = 0.46237 0.10869
# Poissons Ratio (y) = 0.26966 0.24381
# Poissons Ratio (z) = 0.10431 0.40118
#
# Static dielectric constant tensor:
#      x y z
#    x 2.116460 0.000000 0.003780 
#    y 0.000000 2.099740 0.000000 
#    z 0.003780 0.000000 2.003940 
# 
# From -- ./inp_files/5177.got.cif
#   From: 2010.05.17/outbox.cif.g08.bks.cpg/sg4_3_cif.got.tgz:5177.got - 2010.06.03 18:43:04.
