data_PCOD9117410
_publ_section_title
;
Structure prediction by ZEFSAII (Michael W. Deem and Ramdas Pophale) SiO2 
 PCOD9117410
Probable space group: P 21
;
_chemical_formula_sum "Si O2"
_cell_formula_units_Z 12
_cell_length_a 9.385177
_cell_length_b 4.930745
_cell_length_c 13.238551
_cell_angle_alpha 90.000000
_cell_angle_beta 47.998317
_cell_angle_gamma 90.000000
_cell_volume 455.257841
_symmetry_space_group_name_H-M "P 21"
_symmetry_group_IT_number 4
_symmetry_cell_setting 'monoclinic'
loop_
_space_group_symop_operation_xyz
x,y,z
-x,1/2+y,-z
loop_
_atom_site_type_symbol
_atom_site_label
_atom_site_fract_x
_atom_site_fract_y
_atom_site_fract_z
Si Si1 0.849262 0.381500 0.815771
Si Si2 0.715457 0.888908 0.975348
Si Si3 0.898889 0.046134 0.588084
Si Si4 0.504606 0.672325 0.260533
Si Si5 0.117773 0.043408 0.801536
Si Si6 0.599132 0.478410 0.493801
O O1 0.690249 0.187890 0.944206
O O2 0.899178 0.230689 0.688711
O O3 0.032975 0.332443 0.802686
O O4 0.765219 0.679279 0.862448
O O5 0.557939 0.800884 0.128472
O O6 0.924657 0.904522 0.932652
O O7 0.678708 0.983111 0.665976
O O8 0.988096 0.264334 0.466791
O O9 0.702092 0.550105 0.210153
O O10 0.433961 0.891909 0.376424
O O11 0.202572 0.916686 0.657301
O O12 0.447150 0.291310 0.504796
#
# Coordination Sequence:
#
# PCOD9117410 Si02
#       6
#     2   2   2   2   2   2
#     4  10  24  44  70  97 150 184 228 285 366 417
#     4  10  25  43  72 104 145 182 231 291 359 431
#     4  12  28  49  72 105 144 190 246 300 349 427
#     4  11  26  44  74 108 138 188 243 292 357 425
#     4   9  24  42  72  98 145 180 230 294 357 413
#     4  10  23  38  62  98 136 176 228 282 346 407
#
# _framework density 26.358688000000001
#
# number of rings (size 3 to 8) (size 9 to 14) (size 15 to 20)
#    1.000    0.667    0.000    2.000    9.333   10.667 
#    0.000    0.000    0.000    0.000    0.000    0.000 
#    0.000    0.000    0.000    0.000    0.000    0.000 
#
# Total GULP energy -67068.662382 kJ/mol
# GULP energy per Si atom -5589.055198 kJ/mol
# Density = 2.629869 g / cm^3
# Si number density = 26.358688 Si / 1000 Ang^3
#
#
#
# Elastic Constant Matrix: (Units=GPa)
#
#
# Indices 1 2 3 4 5 6 
#
# 1 110.9246 -1.8554 11.6243 0.0000 -22.5581 0.0000
# 2 -1.8554 76.8955 2.8846 0.0000 -9.5638 0.0000
# 3 11.6243 2.8846 119.9932 0.0000 -11.2384 0.0000
# 4 0.0000 0.0000 0.0000 20.7166 0.0000 4.7933
# 5 -22.5581 -9.5638 -11.2384 0.0000 49.8807 0.0000
# 6 0.0000 0.0000 0.0000 4.7933 0.0000 21.8555
#
#
#
# Elastic Compliance Matrix: (Units=1/GPa)
#
#
# Indices 1 2 3 4 5 6 
#
# 1 0.010016 0.000830 -0.000563 0.000000 0.004562 0.000000
# 2 0.000830 0.013392 -0.000129 0.000000 0.002914 0.000000
# 3 -0.000563 -0.000129 0.008546 0.000000 0.001646 0.000000
# 4 0.000000 0.000000 0.000000 0.050851 0.000000 -0.011152
# 5 0.004562 0.002914 0.001646 0.000000 0.023040 0.000000
# 6 0.000000 0.000000 0.000000 -0.011152 0.000000 0.048201
#
#
# Mechanical properties :
#
#
# Convention : Reuss Voigt Hill
#
# Bulk Modulus (GPa) = 31.02812 37.01335 34.02074
# Shear Modulus (GPa) = 30.39272 38.16788 34.28030
#
# Velocity S-wave (km/s) = 3.39933 3.80941 3.61020
# Velocity P-wave (km/s) = 5.21578 5.78113 5.50572
#
# Compressibility (1/GPa) = 0.03222883
#
# Stress axis : x y z
#
# Youngs Moduli (GPa) = 99.84287 74.67158 117.01916
#
# Poissons Ratio (x) = -0.06199 0.06588
# Poissons Ratio (y) = -0.08289 0.01515
# Poissons Ratio (z) = 0.05621 0.00967
#
# Static dielectric constant tensor:
#      x y z
#    x 2.144410 0.000000 0.000560 
#    y 0.000000 2.000300 0.000000 
#    z 0.000560 0.000000 2.033970 
# 
# From -- ./inp_files/8771.got.cif
#   From: 2010.05.17/outbox.cif.g08.bks.cpg/sg4_5_cif.got.tgz:8771.got - 2010.06.03 18:43:04.
