data_PCOD9117942
_publ_section_title
;
Structure prediction by ZEFSAII (Michael W. Deem and Ramdas Pophale) SiO2 
 PCOD9117942
Probable space group: P 21
;
_chemical_formula_sum "Si O2"
_cell_formula_units_Z 16
_cell_length_a 6.853723
_cell_length_b 8.133645
_cell_length_c 19.729380
_cell_angle_alpha 90.000000
_cell_angle_beta 41.173478
_cell_angle_gamma 90.000000
_cell_volume 724.062687
_symmetry_space_group_name_H-M "P 21"
_symmetry_group_IT_number 4
_symmetry_cell_setting 'monoclinic'
loop_
_space_group_symop_operation_xyz
x,y,z
-x,1/2+y,-z
loop_
_atom_site_type_symbol
_atom_site_label
_atom_site_fract_x
_atom_site_fract_y
_atom_site_fract_z
Si Si1 0.161501 0.780320 0.211188
Si Si2 0.425529 0.565878 0.498818
Si Si3 0.758996 0.245153 0.177529
Si Si4 0.129044 0.919036 0.714613
Si Si5 0.427418 0.121539 0.999845
Si Si6 0.258309 0.966520 0.321453
Si Si7 0.482107 0.296287 0.111951
Si Si8 0.532096 0.892240 0.384954
O O1 0.403019 0.757438 0.090108
O O2 0.289616 0.848785 0.248021
O O3 0.025277 0.597107 0.252632
O O4 0.873532 0.891487 0.270475
O O5 0.602813 0.431243 0.407592
O O6 0.491948 0.736746 0.444769
O O7 0.527102 0.546196 0.550341
O O8 0.076831 0.530611 0.590010
O O9 0.762258 0.376327 0.238015
O O10 0.693258 0.317216 0.120494
O O11 0.499171 0.112177 0.256220
O O12 0.079992 0.160835 0.092470
O O13 0.857931 0.793609 0.772369
O O14 0.489550 0.951157 0.945859
O O15 0.539098 0.141309 0.048132
O O16 0.324103 0.876934 0.374989
#
# Coordination Sequence:
#
# PCOD9117942 Si02
#       8
#     2   2   2   2   2   2   2   2
#     4   9  22  44  65  93 130 176 220 272 333 400
#     4  10  24  41  68  93 130 177 215 273 337 399
#     4  11  26  39  67 103 134 169 229 280 334 398
#     4   9  22  44  65  93 130 176 220 272 333 400
#     4  10  24  41  68  93 130 177 215 273 337 399
#     4  11  26  39  67 103 134 169 229 280 334 398
#     4  10  24  42  66  95 133 172 224 270 336 398
#     4  10  24  42  66  95 133 172 224 270 336 398
#
# _framework density 22.097532999999999
#
# number of rings (size 3 to 8) (size 9 to 14) (size 15 to 20)
#    0.000    2.000    0.000    0.000   10.500   10.000 
#    0.000    0.000    0.000    0.000    0.000    0.000 
#    0.000    0.000    0.000    0.000    0.000    0.000 
#
# Total GULP energy -89374.514680 kJ/mol
# GULP energy per Si atom -5585.907167 kJ/mol
# Density = 2.204724 g / cm^3
# Si number density = 22.097533 Si / 1000 Ang^3
#
#
#
# Elastic Constant Matrix: (Units=GPa)
#
#
# Indices 1 2 3 4 5 6 
#
# 1 96.3660 -10.1083 12.2087 0.0000 19.0463 0.0000
# 2 -10.1083 51.9983 9.0134 0.0000 9.5816 0.0000
# 3 12.2087 9.0134 111.3643 0.0000 -11.9069 0.0000
# 4 0.0000 0.0000 0.0000 194.7475 0.0000 114.5802
# 5 19.0463 9.5816 -11.9069 0.0000 32.6898 0.0000
# 6 0.0000 0.0000 0.0000 114.5802 0.0000 71.0038
#
#
#
# Elastic Compliance Matrix: (Units=1/GPa)
#
#
# Indices 1 2 3 4 5 6 
#
# 1 0.013314 0.005001 -0.002966 0.000000 -0.010303 0.000000
# 2 0.005001 0.022830 -0.003562 0.000000 -0.010903 0.000000
# 3 -0.002966 -0.003562 0.010290 0.000000 0.006520 0.000000
# 4 0.000000 0.000000 0.000000 0.101553 0.000000 -0.163878
# 5 -0.010303 -0.010903 0.006520 0.000000 0.042164 0.000000
# 6 0.000000 0.000000 0.000000 -0.163878 0.000000 0.278538
#
#
# Mechanical properties :
#
#
# Convention : Reuss Voigt Hill
#
# Bulk Modulus (GPa) = 23.05199 31.32847 27.19023
# Shear Modulus (GPa) = 10.28379 76.26253 43.27316
#
# Velocity S-wave (km/s) = 2.15961 5.88105 4.43005
# Velocity P-wave (km/s) = 4.08328 7.76684 6.20471
#
# Compressibility (1/GPa) = 0.04338020
#
# Stress axis : x y z
#
# Youngs Moduli (GPa) = 75.11001 43.80220 97.18106
#
# Poissons Ratio (x) = -0.21905 0.28823
# Poissons Ratio (y) = -0.37561 0.34613
# Poissons Ratio (z) = 0.22277 0.15601
#
# Static dielectric constant tensor:
#      x y z
#    x 1.710510 0.000000 0.213320 
#    y 0.000000 1.942680 0.000000 
#    z 0.213320 0.000000 1.289200 
# 
# From -- ./inp_files/3663.got.cif
#   From: 2010.05.17/outbox.cif.g08.bks.cpg/sg4_2_cif.got.tgz:3663.got - 2010.06.03 18:43:04.
