data_PCOD9117458
_publ_section_title
;
Structure prediction by ZEFSAII (Michael W. Deem and Ramdas Pophale) SiO2 
 PCOD9117458
Probable space group: P 21
;
_chemical_formula_sum "Si O2"
_cell_formula_units_Z 16
_cell_length_a 5.517179
_cell_length_b 11.520888
_cell_length_c 10.921437
_cell_angle_alpha 90.000000
_cell_angle_beta 67.926246
_cell_angle_gamma 90.000000
_cell_volume 643.313087
_symmetry_space_group_name_H-M "P 21"
_symmetry_group_IT_number 4
_symmetry_cell_setting 'monoclinic'
loop_
_space_group_symop_operation_xyz
x,y,z
-x,1/2+y,-z
loop_
_atom_site_type_symbol
_atom_site_label
_atom_site_fract_x
_atom_site_fract_y
_atom_site_fract_z
Si Si1 0.880286 0.090800 0.050092
Si Si2 0.525867 0.448150 0.753910
Si Si3 0.768865 0.208028 0.622336
Si Si4 0.495990 0.562647 0.517336
Si Si5 0.294315 0.834726 0.811852
Si Si6 0.574428 0.513280 0.013230
Si Si7 0.008213 0.494143 0.293529
Si Si8 0.238886 0.347640 0.459609
O O1 0.803404 0.211099 0.126235
O O2 0.772906 0.982859 0.152859
O O3 0.697145 0.078178 0.965054
O O4 0.190003 0.088936 0.977814
O O5 0.599802 0.317978 0.700150
O O6 0.602255 0.541991 0.634310
O O7 0.658750 0.474142 0.859961
O O8 0.670799 0.167504 0.506943
O O9 0.782707 0.094008 0.706197
O O10 0.068569 0.250063 0.554877
O O11 0.724431 0.548401 0.374444
O O12 0.312067 0.448976 0.539120
O O13 0.441882 0.904025 0.892835
O O14 0.501081 0.816504 0.663910
O O15 0.052660 0.915099 0.813738
O O16 0.050895 0.400892 0.392708
#
# Coordination Sequence:
#
# PCOD9117458 Si02
#       8
#     2   2   2   2   2   2   2   2
#     4  10  27  46  77 110 142 205 245 321 382 456
#     4  10  25  43  70 106 149 196 251 309 385 455
#     4  11  24  40  69 110 155 194 249 320 377 470
#     4  10  23  41  60 110 142 192 244 298 387 446
#     4  11  26  49  74 106 151 193 261 314 390 463
#     4  10  27  49  72 111 143 194 264 307 383 455
#     4  10  24  40  67 103 147 198 239 307 384 453
#     4  10  24  40  69 102 145 196 243 312 376 460
#
# _framework density 24.87125
#
# number of rings (size 3 to 8) (size 9 to 14) (size 15 to 20)
#    0.750    1.000    1.250    0.000   10.500    1.000 
#    4.500    0.000    0.000    0.000    0.000    0.000 
#    0.000    0.000    0.000    0.000    0.000    0.000 
#
# Total GULP energy -89320.375649 kJ/mol
# GULP energy per Si atom -5582.523478 kJ/mol
# Density = 2.481464 g / cm^3
# Si number density = 24.871250 Si / 1000 Ang^3
#
#
#
# Elastic Constant Matrix: (Units=GPa)
#
#
# Indices 1 2 3 4 5 6 
#
# 1 138.6275 51.6497 23.2819 0.0000 6.5130 0.0000
# 2 51.6497 130.4081 33.2728 0.0000 17.6777 0.0000
# 3 23.2819 33.2728 88.9758 0.0000 29.2259 0.0000
# 4 0.0000 0.0000 0.0000 25.1126 0.0000 -0.2451
# 5 6.5130 17.6777 29.2259 0.0000 41.9861 0.0000
# 6 0.0000 0.0000 0.0000 -0.2451 0.0000 47.2563
#
#
#
# Elastic Compliance Matrix: (Units=1/GPa)
#
#
# Indices 1 2 3 4 5 6 
#
# 1 0.008584 -0.003180 -0.001373 0.000000 0.000963 0.000000
# 2 -0.003180 0.009757 -0.002112 0.000000 -0.002145 0.000000
# 3 -0.001373 -0.002112 0.015591 0.000000 -0.009750 0.000000
# 4 0.000000 0.000000 0.000000 0.039823 0.000000 0.000207
# 5 0.000963 -0.002145 -0.009750 0.000000 0.031358 0.000000
# 6 0.000000 0.000000 0.000000 0.000207 0.000000 0.021162
#
#
# Mechanical properties :
#
#
# Convention : Reuss Voigt Hill
#
# Bulk Modulus (GPa) = 48.54141 63.82448 56.18295
# Shear Modulus (GPa) = 34.13605 39.52482 36.83043
#
# Velocity S-wave (km/s) = 3.70876 3.99077 3.85235
# Velocity P-wave (km/s) = 6.15624 6.85220 6.51352
#
# Compressibility (1/GPa) = 0.02060097
#
# Stress axis : x y z
#
# Youngs Moduli (GPa) = 116.49968 102.48736 64.13985
#
# Poissons Ratio (x) = 0.32590 0.08809
# Poissons Ratio (y) = 0.37045 0.13548
# Poissons Ratio (z) = 0.16000 0.21648
#
# Static dielectric constant tensor:
#      x y z
#    x 2.001410 0.000000 -0.024660 
#    y 0.000000 1.964590 0.000000 
#    z -0.024660 0.000000 2.061310 
# 
# From -- ./inp_files/10410.got.cif
#   From: 2010.05.17/outbox.cif.g08.bks.cpg/sg4_6_cif.got.tgz:10410.got - 2010.06.03 18:43:04.
