data_PCOD9117553
_publ_section_title
;
Structure prediction by ZEFSAII (Michael W. Deem and Ramdas Pophale) SiO2 
 PCOD9117553
Probable space group: P 21
;
_chemical_formula_sum "Si O2"
_cell_formula_units_Z 10
_cell_length_a 11.777844
_cell_length_b 7.246603
_cell_length_c 12.021204
_cell_angle_alpha 90.000000
_cell_angle_beta 156.069720
_cell_angle_gamma 90.000000
_cell_volume 416.171780
_symmetry_space_group_name_H-M "P 21"
_symmetry_group_IT_number 4
_symmetry_cell_setting 'monoclinic'
loop_
_space_group_symop_operation_xyz
x,y,z
-x,1/2+y,-z
loop_
_atom_site_type_symbol
_atom_site_label
_atom_site_fract_x
_atom_site_fract_y
_atom_site_fract_z
Si Si1 0.899743 0.251800 0.318452
Si Si2 0.694477 0.663911 0.120207
Si Si3 0.352748 0.675870 0.440027
Si Si4 0.921261 0.474824 0.939872
Si Si5 0.970132 0.936361 0.208764
O O1 0.813166 0.458544 0.206245
O O2 0.135114 0.249149 0.623458
O O3 0.625843 0.162980 0.130303
O O4 0.995456 0.118154 0.305120
O O5 0.747738 0.800720 0.065821
O O6 0.674729 0.625064 0.732755
O O7 0.247350 0.807631 0.444597
O O8 0.263288 0.792493 0.249833
O O9 0.143501 0.501090 0.237277
O O10 0.079463 0.489301 0.963223
#
# Coordination Sequence:
#
# PCOD9117553 Si02
#       5
#     2   2   2   2   2
#     4  12  24  44  71 101 139 180 228 281 340 413
#     4  12  24  44  71 101 139 180 228 281 340 413
#     4  10  23  42  68  95 136 173 232 277 332 405
#     4  10  23  42  68  95 136 173 232 277 332 405
#     4  10  26  44  74  98 146 176 234 274 360 390
#
# _framework density 24.02854
#
# number of rings (size 3 to 8) (size 9 to 14) (size 15 to 20)
#    1.200    0.000    4.000    1.200    0.000    9.600 
#    0.000    0.000    0.000    0.000    0.000    0.000 
#    0.000    0.000    0.000    0.000    0.000    0.000 
#
# Total GULP energy -55856.709173 kJ/mol
# GULP energy per Si atom -5585.670917 kJ/mol
# Density = 2.397385 g / cm^3
# Si number density = 24.028540 Si / 1000 Ang^3
#
#
#
# Elastic Constant Matrix: (Units=GPa)
#
#
# Indices 1 2 3 4 5 6 
#
# 1 85.3380 26.8546 22.5315 0.0000 5.1349 0.0000
# 2 26.8546 75.7896 11.8767 0.0000 -0.6131 0.0000
# 3 22.5315 11.8767 103.0105 0.0000 8.1571 0.0000
# 4 0.0000 0.0000 0.0000 28.9066 0.0000 -2.6915
# 5 5.1349 -0.6131 8.1571 0.0000 18.9056 0.0000
# 6 0.0000 0.0000 0.0000 -2.6915 0.0000 61.8539
#
#
#
# Elastic Compliance Matrix: (Units=1/GPa)
#
#
# Indices 1 2 3 4 5 6 
#
# 1 0.013950 -0.004608 -0.002286 0.000000 -0.002952 0.000000
# 2 -0.004608 0.014984 -0.000887 0.000000 0.002120 0.000000
# 3 -0.002286 -0.000887 0.010626 0.000000 -0.003993 0.000000
# 4 0.000000 0.000000 0.000000 0.034735 0.000000 0.001511
# 5 -0.002952 0.002120 -0.003993 0.000000 0.055488 0.000000
# 6 0.000000 0.000000 0.000000 0.001511 0.000000 0.016233
#
#
# Mechanical properties :
#
#
# Convention : Reuss Voigt Hill
#
# Bulk Modulus (GPa) = 41.67459 42.96263 42.31861
# Shear Modulus (GPa) = 29.48511 35.45824 32.47167
#
# Velocity S-wave (km/s) = 3.50678 3.84561 3.68010
# Velocity P-wave (km/s) = 5.81189 6.13490 5.97558
#
# Compressibility (1/GPa) = 0.02399544
#
# Stress axis : x y z
#
# Youngs Moduli (GPa) = 71.68715 66.73986 94.10630
#
# Poissons Ratio (x) = 0.30756 0.21514
# Poissons Ratio (y) = 0.33036 0.08352
# Poissons Ratio (z) = 0.16388 0.05923
#
# Static dielectric constant tensor:
#      x y z
#    x 1.902640 0.000000 0.003710 
#    y 0.000000 2.091540 0.000000 
#    z 0.003710 0.000000 1.859540 
# 
# From -- ./inp_files/11929.got.cif
#   From: 2010.05.17/outbox.cif.g08.bks.cpg/sg4_6_cif.got.tgz:11929.got - 2010.06.03 18:43:04.
