data_PCOD9117214
_publ_section_title
;
Structure prediction by ZEFSAII (Michael W. Deem and Ramdas Pophale) SiO2 
 PCOD9117214
Probable space group: P 21
;
_chemical_formula_sum "Si O2"
_cell_formula_units_Z 16
_cell_length_a 6.090942
_cell_length_b 23.274502
_cell_length_c 6.127219
_cell_angle_alpha 90.000000
_cell_angle_beta 131.689071
_cell_angle_gamma 90.000000
_cell_volume 648.652735
_symmetry_space_group_name_H-M "P 21"
_symmetry_group_IT_number 4
_symmetry_cell_setting 'monoclinic'
loop_
_space_group_symop_operation_xyz
x,y,z
-x,1/2+y,-z
loop_
_atom_site_type_symbol
_atom_site_label
_atom_site_fract_x
_atom_site_fract_y
_atom_site_fract_z
Si Si1 0.583184 0.492850 0.463981
Si Si2 0.914103 0.978971 0.534059
Si Si3 0.918950 0.774264 0.237449
Si Si4 0.865230 0.853839 0.579236
Si Si5 0.492440 0.701156 0.666760
Si Si6 0.741083 0.096435 0.235668
Si Si7 0.236218 0.876304 0.222535
Si Si8 0.630067 0.618050 0.410177
O O1 0.241346 0.484718 0.324064
O O2 0.752196 0.443104 0.708855
O O3 0.650825 0.559069 0.563616
O O4 0.744954 0.486395 0.328910
O O5 0.742369 0.029231 0.292126
O O6 0.838235 0.913335 0.425455
O O7 0.868496 0.795162 0.449872
O O8 0.185331 0.729977 0.405914
O O9 0.010419 0.834480 0.189926
O O10 0.660868 0.745174 0.932390
O O11 0.557905 0.853988 0.503796
O O12 0.152530 0.865104 0.915242
O O13 0.461493 0.641111 0.773711
O O14 0.631507 0.677898 0.535803
O O15 0.067630 0.115601 0.521426
O O16 0.655677 0.107821 0.927947
#
# Coordination Sequence:
#
# PCOD9117214 Si02
#       8
#     2   2   2   2   2   2   2   2
#     4  10  22  44  72 108 148 188 242 306 372 440
#     4  10  22  44  72 108 148 188 242 306 372 440
#     4  12  26  46  70 102 144 188 246 298 362 444
#     4  11  25  45  70 105 142 190 240 302 371 436
#     4  12  26  46  70 102 144 188 246 298 362 444
#     4  11  25  45  70 105 142 190 240 302 371 436
#     4  11  25  45  70 105 142 190 240 302 371 436
#     4  11  25  45  70 105 142 190 240 302 371 436
#
# _framework density 24.666512999999998
#
# number of rings (size 3 to 8) (size 9 to 14) (size 15 to 20)
#    0.000    1.000    2.500    3.000    0.000   14.000 
#    4.500    0.000    0.000    0.000    0.000    0.000 
#    0.000    0.000    0.000    0.000    0.000    0.000 
#
# Total GULP energy -89144.093862 kJ/mol
# GULP energy per Si atom -5571.505866 kJ/mol
# Density = 2.461037 g / cm^3
# Si number density = 24.666513 Si / 1000 Ang^3
#
#
#
# Elastic Constant Matrix: (Units=GPa)
#
#
# Indices 1 2 3 4 5 6 
#
# 1 102.2162 21.5395 12.1175 0.0000 -2.3284 0.0000
# 2 21.5395 115.4988 12.2705 0.0000 -19.2148 0.0000
# 3 12.1175 12.2705 74.9574 0.0000 12.6865 0.0000
# 4 0.0000 0.0000 0.0000 24.4607 0.0000 5.5766
# 5 -2.3284 -19.2148 12.6865 0.0000 17.3875 0.0000
# 6 0.0000 0.0000 0.0000 5.5766 0.0000 45.8539
#
#
#
# Elastic Compliance Matrix: (Units=1/GPa)
#
#
# Indices 1 2 3 4 5 6 
#
# 1 0.010326 -0.001657 -0.001508 0.000000 0.000652 0.000000
# 2 -0.001657 0.012207 -0.004536 0.000000 0.016578 0.000000
# 3 -0.001508 -0.004536 0.017353 0.000000 -0.017876 0.000000
# 4 0.000000 0.000000 0.000000 0.042048 0.000000 -0.005114
# 5 0.000652 0.016578 -0.017876 0.000000 0.088963 0.000000
# 6 0.000000 0.000000 0.000000 -0.005114 0.000000 0.022430
#
#
# Mechanical properties :
#
#
# Convention : Reuss Voigt Hill
#
# Bulk Modulus (GPa) = 40.84518 42.72528 41.78523
# Shear Modulus (GPa) = 23.05304 33.99008 28.52156
#
# Velocity S-wave (km/s) = 3.06042 3.71615 3.40411
# Velocity P-wave (km/s) = 5.39288 5.98095 5.69451
#
# Compressibility (1/GPa) = 0.02448269
#
# Stress axis : x y z
#
# Youngs Moduli (GPa) = 96.84273 81.92043 57.62726
#
# Poissons Ratio (x) = 0.13574 0.08693
# Poissons Ratio (y) = 0.16046 0.26141
# Poissons Ratio (z) = 0.14608 0.37161
#
# Static dielectric constant tensor:
#      x y z
#    x 2.169690 0.000000 -0.133210 
#    y 0.000000 1.909310 0.000000 
#    z -0.133210 0.000000 1.995230 
# 
# From -- ./inp_files/813.got.cif
#   From: 2010.05.17/outbox.cif.g08.bks.cpg/sg4_1_cif.got.tgz:813.got - 2010.06.03 18:43:04.
