data_PCOD9117721
_publ_section_title
;
Structure prediction by ZEFSAII (Michael W. Deem and Ramdas Pophale) SiO2 
 PCOD9117721
Probable space group: P 21
;
_chemical_formula_sum "Si O2"
_cell_formula_units_Z 16
_cell_length_a 13.015011
_cell_length_b 5.157833
_cell_length_c 17.791865
_cell_angle_alpha 90.000000
_cell_angle_beta 37.656695
_cell_angle_gamma 90.000000
_cell_volume 729.665686
_symmetry_space_group_name_H-M "P 21"
_symmetry_group_IT_number 4
_symmetry_cell_setting 'monoclinic'
loop_
_space_group_symop_operation_xyz
x,y,z
-x,1/2+y,-z
loop_
_atom_site_type_symbol
_atom_site_label
_atom_site_fract_x
_atom_site_fract_y
_atom_site_fract_z
Si Si1 0.667564 0.589700 0.403034
Si Si2 0.184044 0.623549 0.920531
Si Si3 0.928126 0.913065 0.163778
Si Si4 0.715835 0.887169 0.842188
Si Si5 0.626502 0.953936 0.539900
Si Si6 0.561552 0.379421 0.868046
Si Si7 0.414108 0.124677 0.804415
Si Si8 0.055249 0.694138 0.708655
O O1 0.759783 0.812761 0.301282
O O2 0.630266 0.652184 0.512669
O O3 0.498463 0.541546 0.455237
O O4 0.813218 0.376682 0.323497
O O5 0.113818 0.622973 0.876089
O O6 0.275509 0.346714 0.869190
O O7 0.313496 0.852420 0.867859
O O8 0.029874 0.683032 0.065014
O O9 0.029326 0.024166 0.176338
O O10 0.637397 0.669327 0.831093
O O11 0.908050 0.831227 0.749586
O O12 0.694126 0.177618 0.825671
O O13 0.602380 0.868849 0.983256
O O14 0.544054 0.058547 0.662576
O O15 0.818870 0.038759 0.418516
O O16 0.510263 0.251444 0.818990
#
# Coordination Sequence:
#
# PCOD9117721 Si02
#       8
#     2   2   2   2   2   2   2   2
#     4  11  23  42  65  94 145 186 242 280 337 425
#     4  12  26  41  65 100 146 180 227 281 355 433
#     4  11  26  39  62 103 138 187 225 293 348 424
#     4  10  23  44  71  99 132 170 226 287 363 423
#     4  11  24  41  64  98 134 192 229 284 330 417
#     4  10  23  45  70 100 133 168 221 301 359 424
#     4  12  26  44  70  99 137 186 231 287 363 419
#     4  11  25  42  69  95 133 189 239 283 343 429
#
# _framework density 21.927848000000001
#
# number of rings (size 3 to 8) (size 9 to 14) (size 15 to 20)
#    0.000    1.000    2.500    3.000   12.250    1.000 
#    0.000    1.250    0.000    0.000    0.000    0.000 
#    0.000    0.000    0.000    0.000    0.000    0.000 
#
# Total GULP energy -89311.723048 kJ/mol
# GULP energy per Si atom -5581.982691 kJ/mol
# Density = 2.187794 g / cm^3
# Si number density = 21.927848 Si / 1000 Ang^3
#
#
#
# Elastic Constant Matrix: (Units=GPa)
#
#
# Indices 1 2 3 4 5 6 
#
# 1 38.2429 -17.5438 21.7007 0.0000 0.2940 0.0000
# 2 -17.5438 51.4918 4.9874 0.0000 0.5556 0.0000
# 3 21.7007 4.9874 78.2077 0.0000 4.3221 0.0000
# 4 0.0000 0.0000 0.0000 32.8375 0.0000 3.1782
# 5 0.2940 0.5556 4.3221 0.0000 40.2186 0.0000
# 6 0.0000 0.0000 0.0000 3.1782 0.0000 18.2695
#
#
#
# Elastic Compliance Matrix: (Units=1/GPa)
#
#
# Indices 1 2 3 4 5 6 
#
# 1 0.039675 0.014670 -0.011988 0.000000 0.000796 0.000000
# 2 0.014670 0.024967 -0.005672 0.000000 0.000157 0.000000
# 3 -0.011988 -0.005672 0.016564 0.000000 -0.001614 0.000000
# 4 0.000000 0.000000 0.000000 0.030975 0.000000 -0.005388
# 5 0.000796 0.000157 -0.001614 0.000000 0.025030 0.000000
# 6 0.000000 0.000000 0.000000 -0.005388 0.000000 0.055674
#
#
# Mechanical properties :
#
#
# Convention : Reuss Voigt Hill
#
# Bulk Modulus (GPa) = 13.29317 20.69232 16.99274
# Shear Modulus (GPa) = 22.32762 28.85164 25.58963
#
# Velocity S-wave (km/s) = 3.19444 3.63127 3.41983
# Velocity P-wave (km/s) = 4.43636 5.19986 4.83321
#
# Compressibility (1/GPa) = 0.07522659
#
# Stress axis : x y z
#
# Youngs Moduli (GPa) = 25.20463 40.05357 60.37251
#
# Poissons Ratio (x) = -0.58760 0.72377
# Poissons Ratio (y) = -0.36976 0.34240
# Poissons Ratio (z) = 0.30216 0.22716
#
# Static dielectric constant tensor:
#      x y z
#    x 1.820020 0.000000 0.009510 
#    y 0.000000 1.975250 0.000000 
#    z 0.009510 0.000000 1.799360 
# 
# From -- ./inp_files/12734.got.cif
#   From: 2010.05.17/outbox.cif.g08.bks.cpg/sg4_7_cif.got.tgz:12734.got - 2010.06.03 18:43:04.
