data_PCOD9117177
_publ_section_title
;
Structure prediction by ZEFSAII (Michael W. Deem and Ramdas Pophale) SiO2 
 PCOD9117177
Probable space group: P 21
;
_chemical_formula_sum "Si O2"
_cell_formula_units_Z 16
_cell_length_a 8.184333
_cell_length_b 8.843627
_cell_length_c 13.966075
_cell_angle_alpha 90.000000
_cell_angle_beta 140.231066
_cell_angle_gamma 90.000000
_cell_volume 646.635738
_symmetry_space_group_name_H-M "P 21"
_symmetry_group_IT_number 4
_symmetry_cell_setting 'monoclinic'
loop_
_space_group_symop_operation_xyz
x,y,z
-x,1/2+y,-z
loop_
_atom_site_type_symbol
_atom_site_label
_atom_site_fract_x
_atom_site_fract_y
_atom_site_fract_z
Si Si1 0.542818 0.149130 0.051671
Si Si2 0.831322 0.788015 0.502833
Si Si3 0.825911 0.016973 0.349040
Si Si4 0.329364 0.492201 0.194243
Si Si5 0.289872 0.966812 0.797110
Si Si6 0.275893 0.740675 0.325724
Si Si7 0.011170 0.512399 0.868104
Si Si8 0.519794 0.187575 0.374328
O O1 0.621372 0.036508 0.172818
O O2 0.546938 0.319162 0.093314
O O3 0.774450 0.120778 0.081127
O O4 0.297817 0.088487 0.884907
O O5 0.544953 0.810670 0.408623
O O6 0.923061 0.615672 0.563269
O O7 0.023299 0.893156 0.649730
O O8 0.862502 0.851256 0.408590
O O9 0.705693 0.114396 0.380838
O O10 0.568641 0.533893 0.232372
O O11 0.232254 0.614243 0.225782
O O12 0.440280 0.353907 0.304276
O O13 0.105293 0.462770 0.016016
O O14 0.345648 0.685848 0.462552
O O15 0.054954 0.865210 0.224066
O O16 0.747839 0.601315 0.749976
#
# Coordination Sequence:
#
# PCOD9117177 Si02
#       8
#     2   2   2   2   2   2   2   2
#     4  10  23  45  68  97 138 181 232 287 346 416
#     4  11  23  43  65 102 132 179 226 285 350 402
#     4  11  24  41  68  96 137 177 228 288 340 412
#     4  11  24  46  71  97 143 183 237 289 345 420
#     4  10  22  44  69 101 133 185 231 293 345 408
#     4  12  26  44  71 103 140 184 230 288 354 419
#     4  11  25  46  68 102 138 186 231 289 356 413
#     4  12  23  45  66 104 139 179 241 281 352 416
#
# _framework density 24.743449999999999
#
# number of rings (size 3 to 8) (size 9 to 14) (size 15 to 20)
#    0.000    1.000    3.750    3.750    1.750    3.000 
#    6.750    0.000    0.000    0.000    0.000    0.000 
#    0.000    0.000    0.000    0.000    0.000    0.000 
#
# Total GULP energy -89603.976858 kJ/mol
# GULP energy per Si atom -5600.248554 kJ/mol
# Density = 2.468713 g / cm^3
# Si number density = 24.743450 Si / 1000 Ang^3
#
#
#
# Elastic Constant Matrix: (Units=GPa)
#
#
# Indices 1 2 3 4 5 6 
#
# 1 61.6438 11.1382 16.7715 0.0000 -6.2560 0.0000
# 2 11.1382 60.0248 14.4454 0.0000 -3.0348 0.0000
# 3 16.7715 14.4454 117.6087 0.0000 -19.2371 0.0000
# 4 0.0000 0.0000 0.0000 48.3355 0.0000 -7.9403
# 5 -6.2560 -3.0348 -19.2371 0.0000 37.6989 0.0000
# 6 0.0000 0.0000 0.0000 -7.9403 0.0000 39.0821
#
#
#
# Elastic Compliance Matrix: (Units=1/GPa)
#
#
# Indices 1 2 3 4 5 6 
#
# 1 0.017391 -0.002691 -0.001869 0.000000 0.001716 0.000000
# 2 -0.002691 0.017587 -0.001765 0.000000 0.000068 0.000000
# 3 -0.001869 -0.001765 0.009724 0.000000 0.004510 0.000000
# 4 0.000000 0.000000 0.000000 0.021403 0.000000 0.004348
# 5 0.001716 0.000068 0.004510 0.000000 0.029117 0.000000
# 6 0.000000 0.000000 0.000000 0.004348 0.000000 0.026471
#
#
# Mechanical properties :
#
#
# Convention : Reuss Voigt Hill
#
# Bulk Modulus (GPa) = 31.19879 35.99861 33.59870
# Shear Modulus (GPa) = 34.47639 38.15147 36.31393
#
# Velocity S-wave (km/s) = 3.73682 3.93094 3.83511
# Velocity P-wave (km/s) = 5.59059 5.93156 5.76359
#
# Compressibility (1/GPa) = 0.03205252
#
# Stress axis : x y z
#
# Youngs Moduli (GPa) = 57.50107 56.85907 102.84110
#
# Poissons Ratio (x) = 0.15298 0.19220
# Poissons Ratio (y) = 0.15471 0.18154
# Poissons Ratio (z) = 0.10746 0.10037
#
# Static dielectric constant tensor:
#      x y z
#    x 1.943180 0.000000 0.007930 
#    y 0.000000 2.008580 0.000000 
#    z 0.007930 0.000000 1.966730 
# 
# From -- ./inp_files/13698.got.cif
#   From: 2010.05.17/outbox.cif.g08.bks.cpg/sg4_7_cif.got.tgz:13698.got - 2010.06.03 18:43:04.
