data_PCOD9117999
_publ_section_title
;
Structure prediction by ZEFSAII (Michael W. Deem and Ramdas Pophale) SiO2 
 PCOD9117999
Probable space group: P 21
;
_chemical_formula_sum "Si O2"
_cell_formula_units_Z 14
_cell_length_a 6.636168
_cell_length_b 6.683600
_cell_length_c 16.564209
_cell_angle_alpha 90.000000
_cell_angle_beta 128.333494
_cell_angle_gamma 90.000000
_cell_volume 576.293630
_symmetry_space_group_name_H-M "P 21"
_symmetry_group_IT_number 4
_symmetry_cell_setting 'monoclinic'
loop_
_space_group_symop_operation_xyz
x,y,z
-x,1/2+y,-z
loop_
_atom_site_type_symbol
_atom_site_label
_atom_site_fract_x
_atom_site_fract_y
_atom_site_fract_z
Si Si1 0.683225 0.485420 0.426192
Si Si2 0.871929 0.166273 0.735777
Si Si3 0.815875 0.036265 0.155083
Si Si4 0.064938 0.282611 0.620830
Si Si5 0.375796 0.662744 0.730736
Si Si6 0.674352 0.249831 0.953082
Si Si7 0.165619 0.417552 0.116212
O O1 0.412906 0.599076 0.360959
O O2 0.298641 0.439700 0.684548
O O3 0.667875 0.314300 0.353814
O O4 0.799311 0.400033 0.537607
O O5 0.932561 0.394749 0.779198
O O6 0.932698 0.020570 0.825802
O O7 0.038632 0.157278 0.695795
O O8 0.577129 0.881548 0.102350
O O9 0.795429 0.175265 0.229640
O O10 0.755228 0.154970 0.059008
O O11 0.112633 0.141902 0.557374
O O12 0.664967 0.720956 0.827489
O O13 0.650574 0.078460 0.880896
O O14 0.928063 0.379452 0.998118
#
# Coordination Sequence:
#
# PCOD9117999 Si02
#       7
#     2   2   2   2   2   2   2
#     4  11  24  46  72 103 142 180 232 293 353 420
#     4  10  26  43  67 102 138 182 229 289 346 418
#     4  11  24  41  68  99 143 186 237 287 352 410
#     4  11  24  46  72 103 142 180 232 293 353 420
#     4  10  24  43  67 100 134 186 227 293 348 412
#     4  12  24  42  66 100 142 186 234 292 342 412
#     4  11  24  41  68  99 143 186 237 287 352 410
#
# _framework density 24.293168999999999
#
# number of rings (size 3 to 8) (size 9 to 14) (size 15 to 20)
#    0.000    1.143    1.429    3.429   12.000    1.143 
#    0.000    0.000    0.000    0.000    0.000    0.000 
#    0.000    0.000    0.000    0.000    0.000    0.000 
#
# Total GULP energy -78286.725320 kJ/mol
# GULP energy per Si atom -5591.908951 kJ/mol
# Density = 2.423788 g / cm^3
# Si number density = 24.293169 Si / 1000 Ang^3
#
#
#
# Elastic Constant Matrix: (Units=GPa)
#
#
# Indices 1 2 3 4 5 6 
#
# 1 73.2972 53.4166 25.0190 0.0000 -1.8593 0.0000
# 2 53.4166 91.9089 34.3351 0.0000 1.0348 0.0000
# 3 25.0190 34.3351 90.9386 0.0000 3.9163 0.0000
# 4 0.0000 0.0000 0.0000 41.8369 0.0000 -1.7813
# 5 -1.8593 1.0348 3.9163 0.0000 34.3337 0.0000
# 6 0.0000 0.0000 0.0000 -1.7813 0.0000 54.8133
#
#
#
# Elastic Compliance Matrix: (Units=1/GPa)
#
#
# Indices 1 2 3 4 5 6 
#
# 1 0.023974 -0.013342 -0.001639 0.000000 0.001887 0.000000
# 2 -0.013342 0.020093 -0.003878 0.000000 -0.000886 0.000000
# 3 -0.001639 -0.003878 0.012974 0.000000 -0.001452 0.000000
# 4 0.000000 0.000000 0.000000 0.023935 0.000000 0.000778
# 5 0.001887 -0.000886 -0.001452 0.000000 0.029420 0.000000
# 6 0.000000 0.000000 0.000000 0.000778 0.000000 0.018269
#
#
# Mechanical properties :
#
#
# Convention : Reuss Voigt Hill
#
# Bulk Modulus (GPa) = 51.75270 53.52069 52.63670
# Shear Modulus (GPa) = 28.93089 35.75505 32.34297
#
# Velocity S-wave (km/s) = 3.45469 3.84059 3.65274
# Velocity P-wave (km/s) = 6.10433 6.46110 6.28525
#
# Compressibility (1/GPa) = 0.01932266
#
# Stress axis : x y z
#
# Youngs Moduli (GPa) = 41.71196 49.76786 77.07697
#
# Poissons Ratio (x) = 0.66401 0.12636
# Poissons Ratio (y) = 0.55653 0.29888
# Poissons Ratio (z) = 0.06838 0.19298
#
# Static dielectric constant tensor:
#      x y z
#    x 1.921160 0.000000 0.005720 
#    y 0.000000 1.930650 0.000000 
#    z 0.005720 0.000000 1.892940 
# 
# From -- ./inp_files/15442.got.cif
#   From: 2010.05.17/outbox.cif.g08.bks.cpg/sg4_8_cif.got.tgz:15442.got - 2010.06.03 18:43:04.
