data_PCOD9117365
_publ_section_title
;
Structure prediction by ZEFSAII (Michael W. Deem and Ramdas Pophale) SiO2 
 PCOD9117365
Probable space group: P 21
;
_chemical_formula_sum "Si O2"
_cell_formula_units_Z 16
_cell_length_a 23.990456
_cell_length_b 5.634292
_cell_length_c 7.970228
_cell_angle_alpha 90.000000
_cell_angle_beta 42.064523
_cell_angle_gamma 90.000000
_cell_volume 721.775362
_symmetry_space_group_name_H-M "P 21"
_symmetry_group_IT_number 4
_symmetry_cell_setting 'monoclinic'
loop_
_space_group_symop_operation_xyz
x,y,z
-x,1/2+y,-z
loop_
_atom_site_type_symbol
_atom_site_label
_atom_site_fract_x
_atom_site_fract_y
_atom_site_fract_z
Si Si1 0.817931 0.855920 0.730264
Si Si2 0.704961 0.514847 0.156143
Si Si3 0.563989 0.239829 0.950409
Si Si4 0.626710 0.623064 0.636677
Si Si5 0.544137 0.360220 0.356147
Si Si6 0.725031 0.947140 0.612403
Si Si7 0.998887 0.730403 0.398599
Si Si8 0.818570 0.153314 0.079085
O O1 0.781243 0.983766 0.649552
O O2 0.912463 0.771067 0.495141
O O3 0.754996 0.638854 0.898004
O O4 0.815944 0.994728 0.913213
O O5 0.656860 0.698080 0.386409
O O6 0.633910 0.347244 0.242792
O O7 0.771331 0.389326 0.126894
O O8 0.467675 0.205257 0.121807
O O9 0.558005 0.403278 0.127971
O O10 0.609328 0.344093 0.685898
O O11 0.631769 0.046380 0.852519
O O12 0.697380 0.685155 0.612472
O O13 0.499549 0.601478 0.524077
O O14 0.773167 0.049146 0.342878
O O15 0.989940 0.477988 0.519539
O O16 0.084081 0.700892 0.105601
#
# Coordination Sequence:
#
# PCOD9117365 Si02
#       8
#     2   2   2   2   2   2   2   2
#     4  11  25  46  74 108 140 190 239 310 367 447
#     4  12  24  44  70  99 143 192 244 301 369 439
#     4  12  26  42  65  94 143 194 244 302 360 429
#     4  12  25  41  67  96 140 196 246 299 361 422
#     4  12  30  44  68 101 139 191 245 304 359 424
#     4  12  26  44  71 107 139 190 252 302 364 437
#     4  10  22  47  79 110 144 192 237 296 381 448
#     4  11  24  46  74 103 144 189 243 306 369 452
#
# _framework density 22.167560999999999
#
# number of rings (size 3 to 8) (size 9 to 14) (size 15 to 20)
#    0.000    0.500    6.250    1.500    8.750    0.000 
#    0.000    6.250    0.000    0.000    0.000    0.000 
#    0.000    0.000    0.000    0.000    0.000    0.000 
#
# Total GULP energy -89158.279300 kJ/mol
# GULP energy per Si atom -5572.392456 kJ/mol
# Density = 2.211711 g / cm^3
# Si number density = 22.167561 Si / 1000 Ang^3
#
#
#
# Elastic Constant Matrix: (Units=GPa)
#
#
# Indices 1 2 3 4 5 6 
#
# 1 108.1298 13.9319 55.3744 0.0000 1.1873 0.0000
# 2 13.9319 56.7625 31.9168 0.0000 -6.7621 0.0000
# 3 55.3744 31.9168 136.6780 0.0000 -18.2813 0.0000
# 4 0.0000 0.0000 0.0000 29.8401 0.0000 -4.2073
# 5 1.1873 -6.7621 -18.2813 0.0000 37.4265 0.0000
# 6 0.0000 0.0000 0.0000 -4.2073 0.0000 26.5230
#
#
#
# Elastic Compliance Matrix: (Units=1/GPa)
#
#
# Indices 1 2 3 4 5 6 
#
# 1 0.011972 -0.000393 -0.005156 0.000000 -0.002969 0.000000
# 2 -0.000393 0.020366 -0.004390 0.000000 0.001548 0.000000
# 3 -0.005156 -0.004390 0.011069 0.000000 0.004777 0.000000
# 4 0.000000 0.000000 0.000000 0.034279 0.000000 0.005437
# 5 -0.002969 0.001548 0.004777 0.000000 0.029426 0.000000
# 6 0.000000 0.000000 0.000000 0.005437 0.000000 0.038566
#
#
# Mechanical properties :
#
#
# Convention : Reuss Voigt Hill
#
# Bulk Modulus (GPa) = 42.49767 56.00182 49.24975
# Shear Modulus (GPa) = 28.83538 32.11441 30.47490
#
# Velocity S-wave (km/s) = 3.61056 3.81032 3.71179
# Velocity P-wave (km/s) = 6.04932 6.68400 6.37457
#
# Compressibility (1/GPa) = 0.02353070
#
# Stress axis : x y z
#
# Youngs Moduli (GPa) = 83.53089 49.10047 90.34031
#
# Poissons Ratio (x) = 0.01930 0.46576
# Poissons Ratio (y) = 0.03284 0.39656
# Poissons Ratio (z) = 0.43065 0.21553
#
# Static dielectric constant tensor:
#      x y z
#    x 1.821550 0.000000 0.032240 
#    y 0.000000 1.994250 0.000000 
#    z 0.032240 0.000000 1.838670 
# 
# From -- ./inp_files/8668.got.cif
#   From: 2010.05.17/outbox.cif.g08.bks.cpg/sg4_5_cif.got.tgz:8668.got - 2010.06.03 18:43:04.
