data_PCOD9117664
_publ_section_title
;
Structure prediction by ZEFSAII (Michael W. Deem and Ramdas Pophale) SiO2 
 PCOD9117664
Probable space group: P 21
;
_chemical_formula_sum "Si O2"
_cell_formula_units_Z 14
_cell_length_a 16.580849
_cell_length_b 6.717933
_cell_length_c 7.208961
_cell_angle_alpha 90.000000
_cell_angle_beta 65.582421
_cell_angle_gamma 90.000000
_cell_volume 731.176433
_symmetry_space_group_name_H-M "P 21"
_symmetry_group_IT_number 4
_symmetry_cell_setting 'monoclinic'
loop_
_space_group_symop_operation_xyz
x,y,z
-x,1/2+y,-z
loop_
_atom_site_type_symbol
_atom_site_label
_atom_site_fract_x
_atom_site_fract_y
_atom_site_fract_z
Si Si1 0.705989 0.551850 0.645426
Si Si2 0.121070 0.627949 0.760309
Si Si3 0.386054 0.770873 0.969154
Si Si4 0.904072 0.477694 0.503458
Si Si5 0.020546 0.803895 0.201809
Si Si6 0.583741 0.938863 0.757830
Si Si7 0.680162 0.205276 0.381063
O O1 0.810264 0.588760 0.571995
O O2 0.648007 0.749305 0.692350
O O3 0.691010 0.416197 0.476839
O O4 0.673147 0.417268 0.849021
O O5 0.225444 0.595405 0.685140
O O6 0.061969 0.432653 0.793533
O O7 0.106955 0.770573 0.596400
O O8 0.084284 0.745391 0.973659
O O9 0.482789 0.867621 0.853220
O O10 0.344108 0.732601 0.809109
O O11 0.397638 0.568956 0.076225
O O12 0.928622 0.430715 0.691090
O O13 0.980602 0.608052 0.336810
O O14 0.606810 0.079599 0.561742
#
# Coordination Sequence:
#
# PCOD9117664 Si02
#       7
#     2   2   2   2   2   2   2
#     4  10  23  44  62  91 125 160 204 256 303 365
#     4  11  23  42  60  95 125 156 213 255 302 361
#     4  11  23  42  65  93 125 160 202 253 307 364
#     4  11  23  40  65  91 124 162 206 251 311 361
#     4  12  22  40  66  89 124 168 200 257 304 360
#     4  11  23  41  64  93 125 159 203 253 303 370
#     4  10  25  41  64  90 124 163 204 255 302 367
#
# _framework density 19.147224999999999
#
# number of rings (size 3 to 8) (size 9 to 14) (size 15 to 20)
#    0.000    1.143    4.286    1.714    2.000    1.143 
#    5.143    0.000    0.000    0.000    0.000    0.000 
#    0.000    0.000    0.000    0.000    0.000    0.000 
#
# Total GULP energy -78276.674191 kJ/mol
# GULP energy per Si atom -5591.191014 kJ/mol
# Density = 1.910365 g / cm^3
# Si number density = 19.147225 Si / 1000 Ang^3
#
#
#
# Elastic Constant Matrix: (Units=GPa)
#
#
# Indices 1 2 3 4 5 6 
#
# 1 38.5895 -11.7987 18.2165 0.0000 -0.4667 0.0000
# 2 -11.7987 26.1624 2.0048 0.0000 9.9225 0.0000
# 3 18.2165 2.0048 92.1908 0.0000 20.9900 0.0000
# 4 0.0000 0.0000 0.0000 26.3130 0.0000 -13.1530
# 5 -0.4667 9.9225 20.9900 0.0000 37.2484 0.0000
# 6 0.0000 0.0000 0.0000 -13.1530 0.0000 28.8197
#
#
#
# Elastic Compliance Matrix: (Units=1/GPa)
#
#
# Indices 1 2 3 4 5 6 
#
# 1 0.034136 0.015855 -0.007142 0.000000 0.000229 0.000000
# 2 0.015855 0.050174 -0.001407 0.000000 -0.012374 0.000000
# 3 -0.007142 -0.001407 0.014023 0.000000 -0.007617 0.000000
# 4 0.000000 0.000000 0.000000 0.049236 0.000000 0.022471
# 5 0.000229 -0.012374 -0.007617 0.000000 0.034438 0.000000
# 6 0.000000 0.000000 0.000000 0.022471 0.000000 0.044954
#
#
# Mechanical properties :
#
#
# Convention : Reuss Voigt Hill
#
# Bulk Modulus (GPa) = 8.85381 19.30979 14.08180
# Shear Modulus (GPa) = 20.00024 28.37757 24.18890
#
# Velocity S-wave (km/s) = 3.23546 3.85395 3.55816
# Velocity P-wave (km/s) = 4.31181 5.46906 4.92455
#
# Compressibility (1/GPa) = 0.11294570
#
# Stress axis : x y z
#
# Youngs Moduli (GPa) = 29.29495 19.93062 71.31091
#
# Poissons Ratio (x) = -0.31600 0.50930
# Poissons Ratio (y) = -0.46447 0.10030
# Poissons Ratio (z) = 0.20922 0.02803
#
# Static dielectric constant tensor:
#      x y z
#    x 1.640940 0.000000 -0.009110 
#    y 0.000000 1.648960 0.000000 
#    z -0.009110 0.000000 1.633440 
# 
# From -- ./inp_files/3340.got.cif
#   From: 2010.05.17/outbox.cif.g08.bks.cpg/sg4_2_cif.got.tgz:3340.got - 2010.06.03 18:43:04.
