data_PCOD9117749
_publ_section_title
;
Structure prediction by ZEFSAII (Michael W. Deem and Ramdas Pophale) SiO2 
 PCOD9117749
Probable space group: P 21
;
_chemical_formula_sum "Si O2"
_cell_formula_units_Z 14
_cell_length_a 5.609761
_cell_length_b 9.255044
_cell_length_c 13.893667
_cell_angle_alpha 90.000000
_cell_angle_beta 130.063243
_cell_angle_gamma 90.000000
_cell_volume 552.066005
_symmetry_space_group_name_H-M "P 21"
_symmetry_group_IT_number 4
_symmetry_cell_setting 'monoclinic'
loop_
_space_group_symop_operation_xyz
x,y,z
-x,1/2+y,-z
loop_
_atom_site_type_symbol
_atom_site_label
_atom_site_fract_x
_atom_site_fract_y
_atom_site_fract_z
Si Si1 0.503259 0.010270 0.602487
Si Si2 0.544052 0.595311 0.138932
Si Si3 0.725000 0.892366 0.200290
Si Si4 0.365103 0.842024 0.369709
Si Si5 0.196158 0.098381 0.009539
Si Si6 0.500289 0.826692 0.765603
Si Si7 0.835910 0.066713 0.403662
O O1 0.629974 0.169342 0.614014
O O2 0.150607 0.050925 0.543206
O O3 0.444359 0.906559 0.496718
O O4 0.675908 0.927164 0.733023
O O5 0.652197 0.736083 0.225985
O O6 0.670465 0.443254 0.211010
O O7 0.670643 0.628807 0.064120
O O8 0.168712 0.583125 0.057396
O O9 0.043812 0.865218 0.225222
O O10 0.397011 0.952551 0.080672
O O11 0.874824 0.019928 0.303134
O O12 0.606235 0.941001 0.375707
O O13 0.315383 0.220939 0.115578
O O14 0.293863 0.726708 0.641262
#
# Coordination Sequence:
#
# PCOD9117749 Si02
#       7
#     2   2   2   2   2   2   2
#     4  11  24  44  70 114 151 203 254 307 391 465
#     4  12  26  48  73 109 145 191 258 315 378 451
#     4  10  25  43  72 102 144 198 244 316 383 445
#     4  11  24  44  73 107 160 202 250 321 371 477
#     4  11  27  49  73 105 149 191 256 317 377 449
#     4  11  25  45  75 108 147 203 251 316 393 453
#     4  10  23  45  68 105 154 192 253 306 383 464
#
# _framework density 25.359286999999998
#
# number of rings (size 3 to 8) (size 9 to 14) (size 15 to 20)
#    0.000    1.143    0.000    4.286    8.000    4.571 
#   10.286    0.000    0.000    0.000    0.000    0.000 
#    0.000    0.000    0.000    0.000    0.000    0.000 
#
# Total GULP energy -77970.404004 kJ/mol
# GULP energy per Si atom -5569.314572 kJ/mol
# Density = 2.530157 g / cm^3
# Si number density = 25.359287 Si / 1000 Ang^3
#
#
#
# Elastic Constant Matrix: (Units=GPa)
#
#
# Indices 1 2 3 4 5 6 
#
# 1 111.0839 33.8341 51.3875 0.0000 8.7293 0.0000
# 2 33.8341 166.2178 34.1796 0.0000 -15.7148 0.0000
# 3 51.3875 34.1796 66.2923 0.0000 -7.5353 0.0000
# 4 0.0000 0.0000 0.0000 41.8245 0.0000 -8.8503
# 5 8.7293 -15.7148 -7.5353 0.0000 37.2702 0.0000
# 6 0.0000 0.0000 0.0000 -8.8503 0.0000 13.8109
#
#
#
# Elastic Compliance Matrix: (Units=1/GPa)
#
#
# Indices 1 2 3 4 5 6 
#
# 1 0.015525 -0.001295 -0.012121 0.000000 -0.006633 0.000000
# 2 -0.001295 0.007016 -0.002296 0.000000 0.002797 0.000000
# 3 -0.012121 -0.002296 0.026485 0.000000 0.007226 0.000000
# 4 0.000000 0.000000 0.000000 0.027660 0.000000 0.017725
# 5 -0.006633 0.002797 0.007226 0.000000 0.031025 0.000000
# 6 0.000000 0.000000 0.000000 0.017725 0.000000 0.083765
#
#
# Mechanical properties :
#
#
# Convention : Reuss Voigt Hill
#
# Bulk Modulus (GPa) = 56.80596 64.71070 60.75833
# Shear Modulus (GPa) = 21.85627 33.52732 27.69179
#
# Velocity S-wave (km/s) = 2.93894 3.64000 3.30809
# Velocity P-wave (km/s) = 5.82800 6.57565 6.21308
#
# Compressibility (1/GPa) = 0.01760379
#
# Stress axis : x y z
#
# Youngs Moduli (GPa) = 64.41298 142.52421 37.75682
#
# Poissons Ratio (x) = 0.18454 0.45764
# Poissons Ratio (y) = 0.08340 0.08668
# Poissons Ratio (z) = 0.78073 0.32722
#
# Static dielectric constant tensor:
#      x y z
#    x 2.582500 0.000000 -0.000990 
#    y 0.000000 2.159290 0.000000 
#    z -0.000990 0.000000 2.134890 
# 
# From -- ./inp_files/2393.got.cif
#   From: 2010.05.17/outbox.cif.g08.bks.cpg/sg4_2_cif.got.tgz:2393.got - 2010.06.03 18:43:04.
