data_PCOD9117730
_publ_section_title
;
Structure prediction by ZEFSAII (Michael W. Deem and Ramdas Pophale) SiO2 
 PCOD9117730
Probable space group: P 21
;
_chemical_formula_sum "Si O2"
_cell_formula_units_Z 16
_cell_length_a 9.003193
_cell_length_b 13.333612
_cell_length_c 5.253621
_cell_angle_alpha 90.000000
_cell_angle_beta 72.916792
_cell_angle_gamma 90.000000
_cell_volume 602.845608
_symmetry_space_group_name_H-M "P 21"
_symmetry_group_IT_number 4
_symmetry_cell_setting 'monoclinic'
loop_
_space_group_symop_operation_xyz
x,y,z
-x,1/2+y,-z
loop_
_atom_site_type_symbol
_atom_site_label
_atom_site_fract_x
_atom_site_fract_y
_atom_site_fract_z
Si Si1 0.128911 0.670480 0.736905
Si Si2 0.646055 0.038680 0.086953
Si Si3 0.506036 0.889596 0.507268
Si Si4 0.942531 0.611855 0.337113
Si Si5 0.740885 0.776664 0.667406
Si Si6 0.959043 0.911292 0.855712
Si Si7 0.225625 0.857698 0.957687
Si Si8 0.445777 0.721922 0.165205
O O1 0.288165 0.613585 0.730719
O O2 0.172357 0.786479 0.750028
O O3 0.063640 0.637216 0.500765
O O4 0.010367 0.643408 0.027656
O O5 0.516372 0.967407 0.272902
O O6 0.591356 0.106687 0.879321
O O7 0.797274 0.971747 0.961809
O O8 0.674306 0.872598 0.548168
O O9 0.372295 0.918017 0.774461
O O10 0.479664 0.777003 0.412083
O O11 0.795581 0.681962 0.472649
O O12 0.927957 0.491382 0.343507
O O13 0.888793 0.813794 0.753184
O O14 0.598997 0.745554 0.920179
O O15 0.053542 0.902750 0.078365
O O16 0.299075 0.785409 0.128838
#
# Coordination Sequence:
#
# PCOD9117730 Si02
#       8
#     2   2   2   2   2   2   2   2
#     4  10  23  45  70 100 144 184 238 296 362 422
#     4  10  23  44  74 100 141 195 240 297 369 439
#     4  11  24  45  69 101 140 196 238 298 368 444
#     4  11  25  42  71 111 141 186 238 304 357 428
#     4  11  24  44  73 101 146 190 241 302 365 441
#     4  11  23  45  73 107 142 187 248 302 365 433
#     4  10  24  42  68 101 137 184 237 301 358 424
#     4  10  24  47  68  99 145 188 246 294 374 435
#
# _framework density 26.540790999999999
#
# number of rings (size 3 to 8) (size 9 to 14) (size 15 to 20)
#    0.000    1.500    2.500    0.750   10.500    0.000 
#    9.000    0.000    0.000    0.000    0.000    0.000 
#    0.000    0.000    0.000    0.000    0.000    0.000 
#
# Total GULP energy -89407.862464 kJ/mol
# GULP energy per Si atom -5587.991404 kJ/mol
# Density = 2.648038 g / cm^3
# Si number density = 26.540791 Si / 1000 Ang^3
#
#
#
# Elastic Constant Matrix: (Units=GPa)
#
#
# Indices 1 2 3 4 5 6 
#
# 1 125.3883 25.6639 27.8196 0.0000 10.5909 0.0000
# 2 25.6639 50.6170 1.0642 0.0000 -4.2542 0.0000
# 3 27.8196 1.0642 89.6296 0.0000 -4.9277 0.0000
# 4 0.0000 0.0000 0.0000 30.8474 0.0000 -5.4367
# 5 10.5909 -4.2542 -4.9277 0.0000 33.0819 0.0000
# 6 0.0000 0.0000 0.0000 -5.4367 0.0000 42.4119
#
#
#
# Elastic Compliance Matrix: (Units=1/GPa)
#
#
# Indices 1 2 3 4 5 6 
#
# 1 0.010221 -0.005488 -0.003353 0.000000 -0.004477 0.000000
# 2 -0.005488 0.022920 0.001704 0.000000 0.004958 0.000000
# 3 -0.003353 0.001704 0.012350 0.000000 0.003132 0.000000
# 4 0.000000 0.000000 0.000000 0.033167 0.000000 0.004252
# 5 -0.004477 0.004958 0.003132 0.000000 0.032765 0.000000
# 6 0.000000 0.000000 0.000000 0.004252 0.000000 0.024123
#
#
# Mechanical properties :
#
#
# Convention : Reuss Voigt Hill
#
# Bulk Modulus (GPa) = 32.03564 41.63670 36.83617
# Shear Modulus (GPa) = 31.20601 35.34073 33.27337
#
# Velocity S-wave (km/s) = 3.43268 3.65302 3.54456
# Velocity P-wave (km/s) = 5.27329 5.78918 5.53725
#
# Compressibility (1/GPa) = 0.03121524
#
# Stress axis : x y z
#
# Youngs Moduli (GPa) = 97.84150 43.63087 80.97284
#
# Poissons Ratio (x) = 0.23944 0.27153
# Poissons Ratio (y) = 0.53694 -0.13796
# Poissons Ratio (z) = 0.32809 -0.07434
#
# Static dielectric constant tensor:
#      x y z
#    x 2.172520 0.000000 -0.063790 
#    y 0.000000 2.280260 0.000000 
#    z -0.063790 0.000000 2.080990 
# 
# From -- ./inp_files/1514.got.cif
#   From: 2010.05.17/outbox.cif.g08.bks.cpg/sg4_1_cif.got.tgz:1514.got - 2010.06.03 18:43:04.
