data_PCOD9117989
_publ_section_title
;
Structure prediction by ZEFSAII (Michael W. Deem and Ramdas Pophale) SiO2 
 PCOD9117989
Probable space group: P 21
;
_chemical_formula_sum "Si O2"
_cell_formula_units_Z 14
_cell_length_a 8.165207
_cell_length_b 9.303301
_cell_length_c 8.658100
_cell_angle_alpha 90.000000
_cell_angle_beta 122.017835
_cell_angle_gamma 90.000000
_cell_volume 557.651467
_symmetry_space_group_name_H-M "P 21"
_symmetry_group_IT_number 4
_symmetry_cell_setting 'monoclinic'
loop_
_space_group_symop_operation_xyz
x,y,z
-x,1/2+y,-z
loop_
_atom_site_type_symbol
_atom_site_label
_atom_site_fract_x
_atom_site_fract_y
_atom_site_fract_z
Si Si1 0.911793 0.028510 0.325693
Si Si2 0.456289 0.661710 0.695026
Si Si3 0.911793 0.247310 0.086100
Si Si4 0.187032 0.003542 0.744768
Si Si5 0.543711 0.114110 0.738736
Si Si6 0.187032 0.272278 0.942264
Si Si7 0.500000 0.887910 0.465038
O O1 0.735730 0.107409 0.320851
O O2 0.012439 0.137910 0.256220
O O3 0.055404 0.976766 0.529504
O O4 0.823508 0.903569 0.178542
O O5 0.396488 0.780475 0.535920
O O6 0.565189 0.518317 0.680554
O O7 0.602721 0.732770 0.888324
O O8 0.823508 0.372252 0.144965
O O9 0.735729 0.168411 0.914878
O O10 0.055404 0.299054 0.025900
O O11 0.397279 0.043050 0.785603
O O12 0.110985 0.137910 0.805492
O O13 0.434810 0.257503 0.615364
O O14 0.603512 0.995345 0.639432
#
# Coordination Sequence:
#
# PCOD9117989 Si02
#       7
#     2   2   2   2   2   2   2
#     4  12  28  49  79 113 156 200 258 314 385 455
#     4  11  25  46  78 110 158 202 250 314 388 456
#     4  12  28  49  79 113 156 200 258 314 385 455
#     4  12  28  49  79 113 156 200 258 314 385 455
#     4  11  25  46  78 110 158 202 250 314 388 456
#     4  12  28  49  79 113 156 200 258 314 385 455
#     4  10  24  42  78 114 152 188 262 310 388 430
#
# _framework density 25.105288999999999
#
# number of rings (size 3 to 8) (size 9 to 14) (size 15 to 20)
#    0.000    0.571    0.000    6.000   12.000    2.286 
#    0.000    0.000    0.000    0.000    0.000    0.000 
#    0.000    0.000    0.000    0.000    0.000    0.000 
#
# Total GULP energy -78347.239217 kJ/mol
# GULP energy per Si atom -5596.231373 kJ/mol
# Density = 2.504815 g / cm^3
# Si number density = 25.105289 Si / 1000 Ang^3
#
#
#
# Elastic Constant Matrix: (Units=GPa)
#
#
# Indices 1 2 3 4 5 6 
#
# 1 83.6865 11.2602 40.0538 0.0000 3.2070 0.0000
# 2 11.2602 144.4215 33.7014 0.0000 -19.4348 0.0000
# 3 40.0538 33.7014 96.9144 0.0000 -14.6626 0.0000
# 4 0.0000 0.0000 0.0000 70.2754 0.0000 -35.0850
# 5 3.2070 -19.4348 -14.6626 0.0000 35.4405 0.0000
# 6 0.0000 0.0000 0.0000 -35.0850 0.0000 29.7630
#
#
#
# Elastic Compliance Matrix: (Units=1/GPa)
#
#
# Indices 1 2 3 4 5 6 
#
# 1 0.015496 -0.000163 -0.007012 0.000000 -0.004393 0.000000
# 2 -0.000163 0.007906 -0.002159 0.000000 0.003457 0.000000
# 3 -0.007012 -0.002159 0.014811 0.000000 0.005578 0.000000
# 4 0.000000 0.000000 0.000000 0.034582 0.000000 0.040765
# 5 -0.004393 0.003457 0.005578 0.000000 0.032818 0.000000
# 6 0.000000 0.000000 0.000000 0.040765 0.000000 0.081653
#
#
# Mechanical properties :
#
#
# Convention : Reuss Voigt Hill
#
# Bulk Modulus (GPa) = 51.16446 55.00593 53.08520
# Shear Modulus (GPa) = 23.53512 43.09624 33.31568
#
# Velocity S-wave (km/s) = 3.06511 4.14771 3.64681
# Velocity P-wave (km/s) = 5.74027 6.70042 6.23884
#
# Compressibility (1/GPa) = 0.01954482
#
# Stress axis : x y z
#
# Youngs Moduli (GPa) = 64.53369 126.48836 67.51661
#
# Poissons Ratio (x) = 0.02061 0.47344
# Poissons Ratio (y) = 0.01052 0.14576
# Poissons Ratio (z) = 0.45252 0.27307
#
# Static dielectric constant tensor:
#      x y z
#    x 1.965300 0.000000 -0.015110 
#    y 0.000000 2.031060 0.000000 
#    z -0.015110 0.000000 1.982750 
# 
# From -- ./inp_files/5851.got.cif
#   From: 2010.05.17/outbox.cif.g08.bks.cpg/sg4_3_cif.got.tgz:5851.got - 2010.06.03 18:43:04.
