data_PCOD9117440
_publ_section_title
;
Structure prediction by ZEFSAII (Michael W. Deem and Ramdas Pophale) SiO2 
 PCOD9117440
Probable space group: P 21
;
_chemical_formula_sum "Si O2"
_cell_formula_units_Z 16
_cell_length_a 5.060467
_cell_length_b 23.195301
_cell_length_c 5.575238
_cell_angle_alpha 90.000000
_cell_angle_beta 98.962002
_cell_angle_gamma 90.000000
_cell_volume 646.426971
_symmetry_space_group_name_H-M "P 21"
_symmetry_group_IT_number 4
_symmetry_cell_setting 'monoclinic'
loop_
_space_group_symop_operation_xyz
x,y,z
-x,1/2+y,-z
loop_
_atom_site_type_symbol
_atom_site_label
_atom_site_fract_x
_atom_site_fract_y
_atom_site_fract_z
Si Si1 0.716584 0.746640 0.121590
Si Si2 0.791845 0.192507 0.067841
Si Si3 0.595632 0.875782 0.246359
Si Si4 0.229044 0.151027 0.504545
Si Si5 0.708863 0.973027 0.966607
Si Si6 0.633997 0.544311 0.706892
Si Si7 0.906730 0.079516 0.845886
Si Si8 0.113144 0.932941 0.362126
O O1 0.677152 0.812390 0.185533
O O2 0.657156 0.705230 0.338464
O O3 0.481039 0.725440 0.908315
O O4 0.014776 0.731407 0.075262
O O5 0.997305 0.176726 0.305334
O O6 0.731856 0.131016 0.933180
O O7 0.334366 0.884242 0.367870
O O8 0.840019 0.906878 0.426456
O O9 0.549225 0.914133 0.995103
O O10 0.437029 0.106737 0.411250
O O11 0.073909 0.107774 0.659693
O O12 0.592781 0.013724 0.166004
O O13 0.748846 0.020388 0.767071
O O14 0.000322 0.948676 0.079506
O O15 0.752917 0.493667 0.549176
O O16 0.874828 0.562603 0.920754
#
# Coordination Sequence:
#
# PCOD9117440 Si02
#       8
#     2   2   2   2   2   2   2   2
#     4  11  23  43  64  95 126 179 220 261 322 390
#     4  10  24  40  61  91 131 163 214 271 323 376
#     4   9  17  34  64  88 120 171 215 259 321 376
#     4  10  23  40  64  97 129 177 210 269 325 396
#     4   8  17  32  63  90 122 163 205 265 324 374
#     4   9  17  37  58  94 129 159 208 270 327 384
#     4   9  19  36  57  93 123 161 211 257 326 387
#     4   8  16  32  59  90 114 165 205 258 328 365
#
# _framework density 24.751443999999999
#
# number of rings (size 3 to 8) (size 9 to 14) (size 15 to 20)
#    0.750    2.000    0.000    0.750    5.250    2.000 
#    9.000    0.000    2.750    6.000    0.000    0.000 
#    0.000    0.000    0.000    0.000    0.000    0.000 
#
# Total GULP energy -89188.192656 kJ/mol
# GULP energy per Si atom -5574.262041 kJ/mol
# Density = 2.469511 g / cm^3
# Si number density = 24.751444 Si / 1000 Ang^3
#
#
#
# Elastic Constant Matrix: (Units=GPa)
#
#
# Indices 1 2 3 4 5 6 
#
# 1 117.8115 26.2728 -3.7622 0.0000 4.6581 0.0000
# 2 26.2728 148.5718 23.2236 0.0000 -1.4609 0.0000
# 3 -3.7622 23.2236 21.1560 0.0000 1.4644 0.0000
# 4 0.0000 0.0000 0.0000 23.2658 0.0000 -0.1576
# 5 4.6581 -1.4609 1.4644 0.0000 24.9549 0.0000
# 6 0.0000 0.0000 0.0000 -0.1576 0.0000 37.3436
#
#
#
# Elastic Compliance Matrix: (Units=1/GPa)
#
#
# Indices 1 2 3 4 5 6 
#
# 1 0.009231 -0.002333 0.004349 0.000000 -0.002115 0.000000
# 2 -0.002333 0.008740 -0.010115 0.000000 0.001541 0.000000
# 3 0.004349 -0.010115 0.059484 0.000000 -0.004894 0.000000
# 4 0.000000 0.000000 0.000000 0.042983 0.000000 0.000181
# 5 -0.002115 0.001541 -0.004894 0.000000 0.040844 0.000000
# 6 0.000000 0.000000 0.000000 0.000181 0.000000 0.026779
#
#
# Mechanical properties :
#
#
# Convention : Reuss Voigt Hill
#
# Bulk Modulus (GPa) = 16.32503 42.11198 29.21850
# Shear Modulus (GPa) = 22.25412 33.23321 27.74367
#
# Velocity S-wave (km/s) = 3.00176 3.66823 3.35160
# Velocity P-wave (km/s) = 4.31555 5.91541 5.17765
#
# Compressibility (1/GPa) = 0.06125564
#
# Stress axis : x y z
#
# Youngs Moduli (GPa) = 108.33193 114.42200 16.81132
#
# Poissons Ratio (x) = 0.26694 -0.07311
# Poissons Ratio (y) = 0.25273 0.17005
# Poissons Ratio (z) = -0.47112 1.15740
#
# Static dielectric constant tensor:
#      x y z
#    x 1.979950 0.000000 -0.011260 
#    y 0.000000 1.956020 0.000000 
#    z -0.011260 0.000000 2.105090 
# 
# From -- ./inp_files/804.got.cif
#   From: 2010.05.17/outbox.cif.g08.bks.cpg/sg4_1_cif.got.tgz:804.got - 2010.06.03 18:43:04.
