data_PCOD9117364
_publ_section_title
;
Structure prediction by ZEFSAII (Michael W. Deem and Ramdas Pophale) SiO2 
 PCOD9117364
Probable space group: P 21
;
_chemical_formula_sum "Si O2"
_cell_formula_units_Z 14
_cell_length_a 5.212811
_cell_length_b 18.246559
_cell_length_c 5.177175
_cell_angle_alpha 90.000000
_cell_angle_beta 90.626881
_cell_angle_gamma 90.000000
_cell_volume 492.401997
_symmetry_space_group_name_H-M "P 21"
_symmetry_group_IT_number 4
_symmetry_cell_setting 'monoclinic'
loop_
_space_group_symop_operation_xyz
x,y,z
-x,1/2+y,-z
loop_
_atom_site_type_symbol
_atom_site_label
_atom_site_fract_x
_atom_site_fract_y
_atom_site_fract_z
Si Si1 0.587822 0.717800 0.471334
Si Si2 0.199059 0.929603 0.934091
Si Si3 0.410107 0.357789 0.746839
Si Si4 0.104472 0.473213 0.547681
Si Si5 0.911304 0.623364 0.087775
Si Si6 0.966186 0.782067 0.853245
Si Si7 0.397993 0.596818 0.825705
O O1 0.429313 0.783688 0.330679
O O2 0.735947 0.652571 0.321921
O O3 0.816574 0.765955 0.589765
O O4 0.430765 0.676784 0.691396
O O5 0.100328 0.976854 0.688624
O O6 0.173836 0.845370 0.829166
O O7 0.472074 0.922420 0.072534
O O8 0.030297 0.947892 0.186896
O O9 0.305246 0.406831 0.507974
O O10 0.214157 0.318531 0.934441
O O11 0.262425 0.545955 0.611996
O O12 0.990766 0.700674 0.960638
O O13 0.692047 0.581791 0.916155
O O14 0.197517 0.590028 0.062979
#
# Coordination Sequence:
#
# PCOD9117364 Si02
#       7
#     2   2   2   2   2   2   2
#     4  10  22  47  79 109 159 201 265 336 399 473
#     4  11  25  44  76 105 151 204 260 330 399 470
#     4  10  23  45  75 111 152 203 265 337 399 467
#     4  11  27  48  71 112 159 208 272 325 400 485
#     4  10  25  45  72 110 149 200 260 324 395 479
#     4   9  21  42  66 111 142 187 258 321 392 463
#     4  11  27  49  73 112 158 215 266 325 404 487
#
# _framework density 28.432054999999998
#
# number of rings (size 3 to 8) (size 9 to 14) (size 15 to 20)
#    0.000    1.714    1.429    0.000   12.000    2.286 
#    2.571    0.000    0.000    0.000    0.000    0.000 
#    0.000    0.000    0.000    0.000    0.000    0.000 
#
# Total GULP energy -78117.575250 kJ/mol
# GULP energy per Si atom -5579.826804 kJ/mol
# Density = 2.836734 g / cm^3
# Si number density = 28.432055 Si / 1000 Ang^3
#
#
#
# Elastic Constant Matrix: (Units=GPa)
#
#
# Indices 1 2 3 4 5 6 
#
# 1 130.7942 15.0757 44.5727 0.0000 -18.2198 0.0000
# 2 15.0757 57.2271 17.5944 0.0000 1.2207 0.0000
# 3 44.5727 17.5944 139.9231 0.0000 5.3885 0.0000
# 4 0.0000 0.0000 0.0000 37.3114 0.0000 0.3785
# 5 -18.2198 1.2207 5.3885 0.0000 40.4971 0.0000
# 6 0.0000 0.0000 0.0000 0.3785 0.0000 29.5558
#
#
#
# Elastic Compliance Matrix: (Units=1/GPa)
#
#
# Indices 1 2 3 4 5 6 
#
# 1 0.009523 -0.001686 -0.003004 0.000000 0.004735 0.000000
# 2 -0.001686 0.018478 -0.001745 0.000000 -0.001083 0.000000
# 3 -0.003004 -0.001745 0.008416 0.000000 -0.002419 0.000000
# 4 0.000000 0.000000 0.000000 0.026805 0.000000 -0.000343
# 5 0.004735 -0.001083 -0.002419 0.000000 0.027178 0.000000
# 6 0.000000 0.000000 0.000000 -0.000343 0.000000 0.033839
#
#
# Mechanical properties :
#
#
# Convention : Reuss Voigt Hill
#
# Bulk Modulus (GPa) = 42.46673 53.60334 48.03503
# Shear Modulus (GPa) = 34.49276 38.18629 36.33952
#
# Velocity S-wave (km/s) = 3.48683 3.66877 3.57896
# Velocity P-wave (km/s) = 5.58384 6.06964 5.83180
#
# Compressibility (1/GPa) = 0.02354785
#
# Stress axis : x y z
#
# Youngs Moduli (GPa) = 105.00590 54.11857 118.81807
#
# Poissons Ratio (x) = 0.09126 0.35693
# Poissons Ratio (y) = 0.17706 0.20729
# Poissons Ratio (z) = 0.31544 0.09442
#
# Static dielectric constant tensor:
#      x y z
#    x 2.338190 0.000000 0.130960 
#    y 0.000000 2.476000 0.000000 
#    z 0.130960 0.000000 2.301570 
# 
# From -- ./inp_files/525.got.cif
#   From: 2010.05.17/outbox.cif.g08.bks.cpg/sg4_1_cif.got.tgz:525.got - 2010.06.03 18:43:04.
