data_PCOD9117448
_publ_section_title
;
Structure prediction by ZEFSAII (Michael W. Deem and Ramdas Pophale) SiO2 
 PCOD9117448
Probable space group: P 21
;
_chemical_formula_sum "Si O2"
_cell_formula_units_Z 8
_cell_length_a 5.180782
_cell_length_b 7.412482
_cell_length_c 9.821419
_cell_angle_alpha 90.000000
_cell_angle_beta 132.424551
_cell_angle_gamma 90.000000
_cell_volume 278.411676
_symmetry_space_group_name_H-M "P 21"
_symmetry_group_IT_number 4
_symmetry_cell_setting 'monoclinic'
loop_
_space_group_symop_operation_xyz
x,y,z
-x,1/2+y,-z
loop_
_atom_site_type_symbol
_atom_site_label
_atom_site_fract_x
_atom_site_fract_y
_atom_site_fract_z
Si Si1 0.953967 0.963080 0.697772
Si Si2 0.891466 0.765421 0.416917
Si Si3 0.004602 0.332333 0.828437
Si Si4 0.321820 0.196466 0.197869
O O1 0.959696 0.814925 0.817133
O O2 0.757553 0.854276 0.507665
O O3 0.227318 0.079159 0.700203
O O4 0.814049 0.140960 0.727338
O O5 0.885878 0.897648 0.283644
O O6 0.298150 0.727147 0.601737
O O7 0.806650 0.492346 0.832332
O O8 0.307498 0.266187 0.038140
#
# Coordination Sequence:
#
# PCOD9117448 Si02
#       4
#     2   2   2   2
#     4  10  23  43  62  97 130 162 218 267 306 395
#     4  10  23  43  65  94 129 170 208 266 326 369
#     4  10  23  40  67  96 127 165 220 262 310 395
#     4  12  21  46  66  93 130 173 210 267 324 373
#
# _framework density 28.734427
#
# number of rings (size 3 to 8) (size 9 to 14) (size 15 to 20)
#    1.500    0.000    2.500    3.000    0.000    0.000 
#    9.000    0.000    0.000    0.000    0.000    0.000 
#    0.000    0.000    0.000    0.000    0.000    0.000 
#
# Total GULP energy -44568.943164 kJ/mol
# GULP energy per Si atom -5571.117895 kJ/mol
# Density = 2.866903 g / cm^3
# Si number density = 28.734427 Si / 1000 Ang^3
#
#
#
# Elastic Constant Matrix: (Units=GPa)
#
#
# Indices 1 2 3 4 5 6 
#
# 1 89.9075 45.9734 48.6006 0.0000 -8.9485 0.0000
# 2 45.9734 154.4945 35.8098 0.0000 -2.0611 0.0000
# 3 48.6006 35.8098 199.9059 0.0000 -43.5255 0.0000
# 4 0.0000 0.0000 0.0000 41.3642 0.0000 -6.5693
# 5 -8.9485 -2.0611 -43.5255 0.0000 36.9533 0.0000
# 6 0.0000 0.0000 0.0000 -6.5693 0.0000 29.2527
#
#
#
# Elastic Compliance Matrix: (Units=1/GPa)
#
#
# Indices 1 2 3 4 5 6 
#
# 1 0.014554 -0.003659 -0.002905 0.000000 -0.000101 0.000000
# 2 -0.003659 0.007728 -0.000799 0.000000 -0.001396 0.000000
# 3 -0.002905 -0.000799 0.007651 0.000000 0.008264 0.000000
# 4 0.000000 0.000000 0.000000 0.025070 0.000000 0.005630
# 5 -0.000101 -0.001396 0.008264 0.000000 0.036692 0.000000
# 6 0.000000 0.000000 0.000000 0.005630 0.000000 0.035449
#
#
# Mechanical properties :
#
#
# Convention : Reuss Voigt Hill
#
# Bulk Modulus (GPa) = 65.75615 78.34170 72.04893
# Shear Modulus (GPa) = 34.02806 42.44231 38.23519
#
# Velocity S-wave (km/s) = 3.44499 3.84742 3.65175
# Velocity P-wave (km/s) = 6.22557 6.86003 6.55049
#
# Compressibility (1/GPa) = 0.01520770
#
# Stress axis : x y z
#
# Youngs Moduli (GPa) = 68.71136 129.39961 130.70356
#
# Poissons Ratio (x) = 0.47345 0.37968
# Poissons Ratio (y) = 0.25140 0.10439
# Poissons Ratio (z) = 0.19960 0.10335
#
# Static dielectric constant tensor:
#      x y z
#    x 2.232030 0.000000 0.029150 
#    y 0.000000 2.258340 0.000000 
#    z 0.029150 0.000000 2.208790 
# 
# From -- ./inp_files/172.got.cif
#   From: 2010.05.17/outbox.cif.g08.bks.cpg/sg4_1_cif.got.tgz:172.got - 2010.06.03 18:43:04.
