data_PCOD9117488
_publ_section_title
;
Structure prediction by ZEFSAII (Michael W. Deem and Ramdas Pophale) SiO2 
 PCOD9117488
Probable space group: P 21
;
_chemical_formula_sum "Si O2"
_cell_formula_units_Z 16
_cell_length_a 14.205675
_cell_length_b 5.185478
_cell_length_c 9.544537
_cell_angle_alpha 90.000000
_cell_angle_beta 97.509533
_cell_angle_gamma 90.000000
_cell_volume 697.051046
_symmetry_space_group_name_H-M "P 21"
_symmetry_group_IT_number 4
_symmetry_cell_setting 'monoclinic'
loop_
_space_group_symop_operation_xyz
x,y,z
-x,1/2+y,-z
loop_
_atom_site_type_symbol
_atom_site_label
_atom_site_fract_x
_atom_site_fract_y
_atom_site_fract_z
Si Si1 0.411293 0.735570 0.768465
Si Si2 0.121853 0.243244 0.450460
Si Si3 0.037960 0.742744 0.341843
Si Si4 0.394770 0.313231 0.321464
Si Si5 0.636809 0.111401 0.946905
Si Si6 0.258590 0.116844 0.083595
Si Si7 0.671888 0.757505 0.381435
Si Si8 0.954009 0.603620 0.036934
O O1 0.509281 0.675041 0.708115
O O2 0.428559 0.710560 0.939119
O O3 0.336714 0.515054 0.712140
O O4 0.372457 0.010572 0.706604
O O5 0.115636 0.517378 0.372925
O O6 0.219807 0.204384 0.551322
O O7 0.033756 0.252258 0.541756
O O8 0.094645 0.008963 0.343686
O O9 0.971097 0.682110 0.199382
O O10 0.300769 0.168097 0.246262
O O11 0.384081 0.323440 0.484654
O O12 0.399609 0.567359 0.220299
O O13 0.717343 0.328012 0.955278
O O14 0.679503 0.829538 0.988221
O O15 0.149723 0.167983 0.038026
O O16 0.974839 0.300363 0.027063
#
# Coordination Sequence:
#
# PCOD9117488 Si02
#       8
#     2   2   2   2   2   2   2   2
#     4  12  27  44  71 106 139 183 236 290 360 407
#     4  10  23  44  66  96 126 183 217 280 335 413
#     4  10  23  41  68  92 134 168 230 269 340 404
#     4  10  28  44  75  96 148 179 238 286 354 428
#     4  10  25  43  73  97 139 184 233 286 344 423
#     4  10  25  44  69 102 133 184 230 281 351 415
#     4  12  27  44  72 101 143 180 236 292 355 422
#     4  12  26  42  68 102 140 175 222 290 341 414
#
# _framework density 22.953842000000002
#
# number of rings (size 3 to 8) (size 9 to 14) (size 15 to 20)
#    0.750    0.500    0.000    3.750   12.250    0.000 
#    0.000    0.000    0.000    0.000    0.000    0.000 
#    0.000    0.000    0.000    0.000    0.000    0.000 
#
# Total GULP energy -89347.996508 kJ/mol
# GULP energy per Si atom -5584.249782 kJ/mol
# Density = 2.290160 g / cm^3
# Si number density = 22.953842 Si / 1000 Ang^3
#
#
#
# Elastic Constant Matrix: (Units=GPa)
#
#
# Indices 1 2 3 4 5 6 
#
# 1 57.4275 20.8053 1.4190 0.0000 20.6745 0.0000
# 2 20.8053 103.1103 43.3327 0.0000 3.1750 0.0000
# 3 1.4190 43.3327 81.9445 0.0000 -3.7477 0.0000
# 4 0.0000 0.0000 0.0000 30.6458 0.0000 4.9705
# 5 20.6745 3.1750 -3.7477 0.0000 31.9389 0.0000
# 6 0.0000 0.0000 0.0000 4.9705 0.0000 26.3445
#
#
#
# Elastic Compliance Matrix: (Units=1/GPa)
#
#
# Indices 1 2 3 4 5 6 
#
# 1 0.024781 -0.005211 0.001625 0.000000 -0.015332 0.000000
# 2 -0.005211 0.013697 -0.007099 0.000000 0.001179 0.000000
# 3 0.001625 -0.007099 0.015999 0.000000 0.001531 0.000000
# 4 0.000000 0.000000 0.000000 0.033661 0.000000 -0.006351
# 5 -0.015332 0.001179 0.001531 0.000000 0.041297 0.000000
# 6 0.000000 0.000000 0.000000 -0.006351 0.000000 0.039157
#
#
# Mechanical properties :
#
#
# Convention : Reuss Voigt Hill
#
# Bulk Modulus (GPa) = 30.20459 41.51072 35.85765
# Shear Modulus (GPa) = 24.87604 29.58087 27.22845
#
# Velocity S-wave (km/s) = 3.29559 3.59376 3.44790
# Velocity P-wave (km/s) = 5.26010 5.94507 5.61304
#
# Compressibility (1/GPa) = 0.03310756
#
# Stress axis : x y z
#
# Youngs Moduli (GPa) = 40.35385 73.00932 62.50332
#
# Poissons Ratio (x) = 0.38046 -0.10159
# Poissons Ratio (y) = 0.21029 0.44370
# Poissons Ratio (z) = -0.06559 0.51828
#
# Static dielectric constant tensor:
#      x y z
#    x 1.812960 0.000000 -0.028660 
#    y 0.000000 1.850380 0.000000 
#    z -0.028660 0.000000 1.900300 
# 
# From -- ./inp_files/8870.got.cif
#   From: 2010.05.17/outbox.cif.g08.bks.cpg/sg4_5_cif.got.tgz:8870.got - 2010.06.03 18:43:04.
