data_PCOD9117481
_publ_section_title
;
Structure prediction by ZEFSAII (Michael W. Deem and Ramdas Pophale) SiO2 
 PCOD9117481
Probable space group: P 21
;
_chemical_formula_sum "Si O2"
_cell_formula_units_Z 16
_cell_length_a 20.359651
_cell_length_b 5.178677
_cell_length_c 9.401197
_cell_angle_alpha 90.000000
_cell_angle_beta 136.674236
_cell_angle_gamma 90.000000
_cell_volume 680.124705
_symmetry_space_group_name_H-M "P 21"
_symmetry_group_IT_number 4
_symmetry_cell_setting 'monoclinic'
loop_
_space_group_symop_operation_xyz
x,y,z
-x,1/2+y,-z
loop_
_atom_site_type_symbol
_atom_site_label
_atom_site_fract_x
_atom_site_fract_y
_atom_site_fract_z
Si Si1 0.026485 0.771800 0.448236
Si Si2 0.042245 0.274779 0.987980
Si Si3 0.446967 0.444216 0.278520
Si Si4 0.572546 0.787252 0.292308
Si Si5 0.644703 0.699588 0.121867
Si Si6 0.230492 0.704007 0.632844
Si Si7 0.769384 0.478212 0.659237
Si Si8 0.361024 0.688442 0.387491
O O1 0.138364 0.732627 0.587072
O O2 0.990625 0.530980 0.487026
O O3 0.978532 0.784639 0.214305
O O4 0.014974 0.541189 0.023220
O O5 0.151703 0.191544 0.188382
O O6 0.482005 0.676845 0.232574
O O7 0.367268 0.487596 0.271124
O O8 0.547896 0.366302 0.508328
O O9 0.402116 0.238240 0.103162
O O10 0.563325 0.765381 0.109839
O O11 0.666199 0.607123 0.465998
O O12 0.606746 0.055425 0.413852
O O13 0.690998 0.419498 0.204734
O O14 0.725236 0.918745 0.282121
O O15 0.203454 0.793585 0.429650
O O16 0.741928 0.311308 0.753879
#
# Coordination Sequence:
#
# PCOD9117481 Si02
#       8
#     2   2   2   2   2   2   2   2
#     4  12  27  50  75 110 155 194 237 312 394 445
#     4  12  27  47  84 112 142 197 256 310 363 469
#     4  11  25  40  68 100 140 191 239 290 361 424
#     4  10  23  41  67  94 143 181 232 295 352 419
#     4  11  26  42  73 102 137 191 244 287 351 439
#     4  11  24  48  71 103 144 186 234 305 361 428
#     4  10  24  44  74 104 134 186 246 297 361 426
#     4  11  22  44  64  99 145 186 232 306 359 424
#
# _framework density 23.525099999999998
#
# number of rings (size 3 to 8) (size 9 to 14) (size 15 to 20)
#    0.000    1.000    3.750    1.500    8.750    1.000 
#    4.500    0.000    0.000    0.000    0.000    0.000 
#    0.000    0.000    0.000    0.000    0.000    0.000 
#
# Total GULP energy -89496.192390 kJ/mol
# GULP energy per Si atom -5593.512024 kJ/mol
# Density = 2.347156 g / cm^3
# Si number density = 23.525100 Si / 1000 Ang^3
#
#
#
# Elastic Constant Matrix: (Units=GPa)
#
#
# Indices 1 2 3 4 5 6 
#
# 1 122.5798 19.4796 22.6528 0.0000 -17.8453 0.0000
# 2 19.4796 90.1702 16.4002 0.0000 -0.5303 0.0000
# 3 22.6528 16.4002 81.2594 0.0000 -19.0763 0.0000
# 4 0.0000 0.0000 0.0000 34.9427 0.0000 6.0111
# 5 -17.8453 -0.5303 -19.0763 0.0000 35.3369 0.0000
# 6 0.0000 0.0000 0.0000 6.0111 0.0000 48.4391
#
#
#
# Elastic Compliance Matrix: (Units=1/GPa)
#
#
# Indices 1 2 3 4 5 6 
#
# 1 0.009249 -0.001738 -0.001302 0.000000 0.003942 0.000000
# 2 -0.001738 0.011887 -0.002380 0.000000 -0.001984 0.000000
# 3 -0.001302 -0.002380 0.014872 0.000000 0.007335 0.000000
# 4 0.000000 0.000000 0.000000 0.029242 0.000000 -0.003629
# 5 0.003942 -0.001984 0.007335 0.000000 0.034220 0.000000
# 6 0.000000 0.000000 0.000000 -0.003629 0.000000 0.021095
#
#
# Mechanical properties :
#
#
# Convention : Reuss Voigt Hill
#
# Bulk Modulus (GPa) = 39.73610 45.67493 42.70552
# Shear Modulus (GPa) = 35.76699 39.44221 37.60460
#
# Velocity S-wave (km/s) = 3.90343 4.09907 4.00245
# Velocity P-wave (km/s) = 6.10273 6.46999 6.28904
#
# Compressibility (1/GPa) = 0.02516603
#
# Stress axis : x y z
#
# Youngs Moduli (GPa) = 108.12460 84.12641 67.24201
#
# Poissons Ratio (x) = 0.14621 0.08756
# Poissons Ratio (y) = 0.18792 0.16006
# Poissons Ratio (z) = 0.14080 0.20026
#
# Static dielectric constant tensor:
#      x y z
#    x 1.919380 0.000000 -0.035550 
#    y 0.000000 1.986400 0.000000 
#    z -0.035550 0.000000 1.915020 
# 
# From -- ./inp_files/8718.got.cif
#   From: 2010.05.17/outbox.cif.g08.bks.cpg/sg4_5_cif.got.tgz:8718.got - 2010.06.03 18:43:04.
