data_PCOD9117020
_publ_section_title
;
Structure prediction by ZEFSAII (Michael W. Deem and Ramdas Pophale) SiO2 
 PCOD9117020
Probable space group: P 21
;
_chemical_formula_sum "Si O2"
_cell_formula_units_Z 16
_cell_length_a 11.092977
_cell_length_b 9.263120
_cell_length_c 9.254055
_cell_angle_alpha 90.000000
_cell_angle_beta 132.254906
_cell_angle_gamma 90.000000
_cell_volume 703.822935
_symmetry_space_group_name_H-M "P 21"
_symmetry_group_IT_number 4
_symmetry_cell_setting 'monoclinic'
loop_
_space_group_symop_operation_xyz
x,y,z
-x,1/2+y,-z
loop_
_atom_site_type_symbol
_atom_site_label
_atom_site_fract_x
_atom_site_fract_y
_atom_site_fract_z
Si Si1 0.888995 0.194320 0.518566
Si Si2 0.910911 0.493408 0.101297
Si Si3 0.605073 0.116215 0.735040
Si Si4 0.007723 0.675297 0.918952
Si Si5 0.059945 0.485950 0.696454
Si Si6 0.605480 0.860170 0.927853
Si Si7 0.555533 0.376820 0.891062
Si Si8 0.450414 0.630964 0.635849
O O1 0.955711 0.355255 0.546914
O O2 0.901217 0.603485 0.958613
O O3 0.718894 0.206962 0.462747
O O4 0.001711 0.089722 0.706858
O O5 0.005791 0.346884 0.123487
O O6 0.740800 0.429873 0.020797
O O7 0.801405 0.143841 0.883400
O O8 0.548765 0.216939 0.821105
O O9 0.526054 0.141975 0.515635
O O10 0.561366 0.958326 0.755399
O O11 0.972701 0.580555 0.748437
O O12 0.128923 0.604263 0.642126
O O13 0.211493 0.402756 0.888262
O O14 0.580555 0.701598 0.848055
O O15 0.503453 0.884147 0.991928
O O16 0.443805 0.468723 0.690838
#
# Coordination Sequence:
#
# PCOD9117020 Si02
#       8
#     2   2   2   2   2   2   2   2
#     4  12  25  44  68 101 140 173 236 288 342 409
#     4  11  23  43  69  98 138 181 231 283 344 414
#     4  10  23  44  68  97 134 179 229 283 340 411
#     4  10  22  42  70  98 134 185 227 280 345 409
#     4  11  25  45  69 101 135 184 226 289 346 414
#     4  11  24  45  71  98 138 182 227 276 357 417
#     4  11  24  43  69  99 137 183 226 278 353 410
#     4  12  24  44  66 100 138 177 228 289 339 412
#
# _framework density 22.732993
#
# number of rings (size 3 to 8) (size 9 to 14) (size 15 to 20)
#    0.000    1.000    2.500    3.750    7.000    1.000 
#    2.250    0.000    0.000    0.000    0.000    0.000 
#    0.000    0.000    0.000    0.000    0.000    0.000 
#
# Total GULP energy -89447.764504 kJ/mol
# GULP energy per Si atom -5590.485281 kJ/mol
# Density = 2.268125 g / cm^3
# Si number density = 22.732993 Si / 1000 Ang^3
#
#
#
# Elastic Constant Matrix: (Units=GPa)
#
#
# Indices 1 2 3 4 5 6 
#
# 1 47.6542 5.3508 1.0379 0.0000 -16.0654 0.0000
# 2 5.3508 92.9560 3.2481 0.0000 2.7299 0.0000
# 3 1.0379 3.2481 74.1188 0.0000 -16.9421 0.0000
# 4 0.0000 0.0000 0.0000 42.0032 0.0000 -5.3741
# 5 -16.0654 2.7299 -16.9421 0.0000 23.5348 0.0000
# 6 0.0000 0.0000 0.0000 -5.3741 0.0000 29.8653
#
#
#
# Elastic Compliance Matrix: (Units=1/GPa)
#
#
# Indices 1 2 3 4 5 6 
#
# 1 0.029252 -0.002570 0.005189 0.000000 0.024002 0.000000
# 2 -0.002570 0.011072 -0.001369 0.000000 -0.004024 0.000000
# 3 0.005189 -0.001369 0.017147 0.000000 0.016045 0.000000
# 4 0.000000 0.000000 0.000000 0.024369 0.000000 0.004385
# 5 0.024002 -0.004024 0.016045 0.000000 0.070892 0.000000
# 6 0.000000 0.000000 0.000000 0.004385 0.000000 0.034273
#
#
# Mechanical properties :
#
#
# Convention : Reuss Voigt Hill
#
# Bulk Modulus (GPa) = 16.67481 26.00028 21.33755
# Shear Modulus (GPa) = 24.45073 32.75346 28.60210
#
# Velocity S-wave (km/s) = 3.28313 3.79989 3.55093
# Velocity P-wave (km/s) = 4.66079 5.54205 5.12041
#
# Compressibility (1/GPa) = 0.05997069
#
# Stress axis : x y z
#
# Youngs Moduli (GPa) = 34.18605 90.32009 58.32032
#
# Poissons Ratio (x) = 0.23212 -0.30265
# Poissons Ratio (y) = 0.08786 0.07984
# Poissons Ratio (z) = -0.17740 0.12365
#
# Static dielectric constant tensor:
#      x y z
#    x 1.852600 0.000000 0.031940 
#    y 0.000000 1.813430 0.000000 
#    z 0.031940 0.000000 1.845520 
# 
# From -- ./inp_files/7716.got.cif
#   From: 2010.05.17/outbox.cif.g08.bks.cpg/sg4_4_cif.got.tgz:7716.got - 2010.06.03 18:43:04.
