data_PCOD9117372
_publ_section_title
;
Structure prediction by ZEFSAII (Michael W. Deem and Ramdas Pophale) SiO2 
 PCOD9117372
Probable space group: P 21
;
_chemical_formula_sum "Si O2"
_cell_formula_units_Z 12
_cell_length_a 6.486002
_cell_length_b 18.015796
_cell_length_c 5.237457
_cell_angle_alpha 90.000000
_cell_angle_beta 133.804245
_cell_angle_gamma 90.000000
_cell_volume 441.685450
_symmetry_space_group_name_H-M "P 21"
_symmetry_group_IT_number 4
_symmetry_cell_setting 'monoclinic'
loop_
_space_group_symop_operation_xyz
x,y,z
-x,1/2+y,-z
loop_
_atom_site_type_symbol
_atom_site_label
_atom_site_fract_x
_atom_site_fract_y
_atom_site_fract_z
Si Si1 0.639703 0.589090 0.305755
Si Si2 0.971647 0.784828 0.256085
Si Si3 0.516707 0.207933 0.484813
Si Si4 0.198285 0.562940 0.516393
Si Si5 0.603038 0.364889 0.112197
Si Si6 0.393637 0.961958 0.376683
O O1 0.611070 0.674353 0.364404
O O2 0.729983 0.540514 0.628737
O O3 0.871491 0.574205 0.291307
O O4 0.351871 0.560131 0.925769
O O5 0.243198 0.771352 0.292179
O O6 0.189256 0.793220 0.683386
O O7 0.742447 0.731856 0.918393
O O8 0.732903 0.845130 0.148180
O O9 0.684106 0.137655 0.511532
O O10 0.289269 0.491721 0.430488
O O11 0.653578 0.412470 0.413916
O O12 0.681603 0.414804 0.936951
#
# Coordination Sequence:
#
# PCOD9117372 Si02
#       6
#     2   2   2   2   2   2
#     4  11  24  43  76 107 142 184 232 308 355 419
#     4  10  24  48  68 104 144 196 238 290 348 428
#     4  10  22  48  70 104 144 184 246 290 362 416
#     4  11  24  43  76 107 142 184 232 308 355 419
#     4  11  26  47  74 105 146 191 238 290 350 429
#     4  11  26  49  74 109 144 185 242 292 362 421
#
# _framework density 27.168657
#
# number of rings (size 3 to 8) (size 9 to 14) (size 15 to 20)
#    0.000    1.333    1.667    2.000    2.333    8.000 
#   30.000    0.000    0.000    0.000    0.000    0.000 
#    0.000    0.000    0.000    0.000    0.000    0.000 
#
# Total GULP energy -66876.652194 kJ/mol
# GULP energy per Si atom -5573.054350 kJ/mol
# Density = 2.710682 g / cm^3
# Si number density = 27.168657 Si / 1000 Ang^3
#
#
#
# Elastic Constant Matrix: (Units=GPa)
#
#
# Indices 1 2 3 4 5 6 
#
# 1 101.4941 29.3936 64.0851 0.0000 -11.1959 0.0000
# 2 29.3936 75.9236 27.1235 0.0000 -4.1173 0.0000
# 3 64.0851 27.1235 121.4629 0.0000 -0.9670 0.0000
# 4 0.0000 0.0000 0.0000 40.7909 0.0000 -5.3380
# 5 -11.1959 -4.1173 -0.9670 0.0000 69.1848 0.0000
# 6 0.0000 0.0000 0.0000 -5.3380 0.0000 53.8563
#
#
#
# Elastic Compliance Matrix: (Units=1/GPa)
#
#
# Indices 1 2 3 4 5 6 
#
# 1 0.015868 -0.003299 -0.007617 0.000000 0.002265 0.000000
# 2 -0.003299 0.015044 -0.001616 0.000000 0.000339 0.000000
# 3 -0.007617 -0.001616 0.012604 0.000000 -0.001153 0.000000
# 4 0.000000 0.000000 0.000000 0.024837 0.000000 0.002462
# 5 0.002265 0.000339 -0.001153 0.000000 0.014825 0.000000
# 6 0.000000 0.000000 0.000000 0.002462 0.000000 0.018812
#
#
# Mechanical properties :
#
#
# Convention : Reuss Voigt Hill
#
# Bulk Modulus (GPa) = 54.19893 60.00947 57.10420
# Shear Modulus (GPa) = 37.53625 44.65162 41.09394
#
# Velocity S-wave (km/s) = 3.72102 4.05841 3.89337
# Velocity P-wave (km/s) = 6.20111 6.64053 6.42457
#
# Compressibility (1/GPa) = 0.01845055
#
# Stress axis : x y z
#
# Youngs Moduli (GPa) = 63.02087 66.47128 79.34226
#
# Poissons Ratio (x) = 0.21929 0.60437
# Poissons Ratio (y) = 0.20791 0.12823
# Poissons Ratio (z) = 0.48005 0.10743
#
# Static dielectric constant tensor:
#      x y z
#    x 2.155220 0.000000 -0.021970 
#    y 0.000000 2.293290 0.000000 
#    z -0.021970 0.000000 2.083620 
# 
# From -- ./inp_files/583.got.cif
#   From: 2010.05.17/outbox.cif.g08.bks.cpg/sg4_1_cif.got.tgz:583.got - 2010.06.03 18:43:04.
