data_PCOD9117580
_publ_section_title
;
Structure prediction by ZEFSAII (Michael W. Deem and Ramdas Pophale) SiO2 
 PCOD9117580
Probable space group: P 21
;
_chemical_formula_sum "Si O2"
_cell_formula_units_Z 12
_cell_length_a 11.257603
_cell_length_b 7.083301
_cell_length_c 16.701624
_cell_angle_alpha 90.000000
_cell_angle_beta 23.078074
_cell_angle_gamma 90.000000
_cell_volume 522.047327
_symmetry_space_group_name_H-M "P 21"
_symmetry_group_IT_number 4
_symmetry_cell_setting 'monoclinic'
loop_
_space_group_symop_operation_xyz
x,y,z
-x,1/2+y,-z
loop_
_atom_site_type_symbol
_atom_site_label
_atom_site_fract_x
_atom_site_fract_y
_atom_site_fract_z
Si Si1 0.544440 0.866300 0.669348
Si Si2 0.640495 0.266430 0.048627
Si Si3 0.820481 0.878105 0.778847
Si Si4 0.216810 0.121878 0.743438
Si Si5 0.536573 0.484822 0.576976
Si Si6 0.207597 0.819733 0.218357
O O1 0.432632 0.888465 0.828801
O O2 0.507583 0.649945 0.660165
O O3 0.905825 0.903779 0.442835
O O4 0.351525 0.991252 0.728287
O O5 0.316826 0.241173 0.204119
O O6 0.824139 0.352070 0.858818
O O7 0.861561 0.103358 0.943706
O O8 0.806904 0.094787 0.757923
O O9 0.562551 0.867691 0.007908
O O10 0.164560 0.856260 0.590866
O O11 0.264668 0.338983 0.739440
O O12 0.397862 0.082202 0.549052
#
# Coordination Sequence:
#
# PCOD9117580 Si02
#       6
#     2   2   2   2   2   2
#     4  11  24  44  67  98 139 171 225 280 334 401
#     4  10  23  43  63  97 134 169 227 275 331 398
#     4   9  20  42  64  94 128 165 225 269 327 395
#     4  12  23  43  69 100 133 180 225 278 336 405
#     4  11  22  43  70  97 131 181 223 276 341 397
#     4   9  20  43  63  92 129 170 213 276 331 388
#
# _framework density 22.986422999999998
#
# number of rings (size 3 to 8) (size 9 to 14) (size 15 to 20)
#    1.000    0.667    5.000    0.000    4.667    0.000 
#   12.000    0.000    0.000    0.000    0.000    0.000 
#    0.000    0.000    0.000    0.000    0.000    0.000 
#
# Total GULP energy -66839.007034 kJ/mol
# GULP energy per Si atom -5569.917253 kJ/mol
# Density = 2.293410 g / cm^3
# Si number density = 22.986423 Si / 1000 Ang^3
#
#
#
# Elastic Constant Matrix: (Units=GPa)
#
#
# Indices 1 2 3 4 5 6 
#
# 1 60.4304 11.9141 46.5305 0.0000 -5.4894 0.0000
# 2 11.9141 61.3602 26.0593 0.0000 -13.2223 0.0000
# 3 46.5305 26.0593 88.0062 0.0000 -11.3800 0.0000
# 4 0.0000 0.0000 0.0000 23.3765 0.0000 -18.4288
# 5 -5.4894 -13.2223 -11.3800 0.0000 39.9529 0.0000
# 6 0.0000 0.0000 0.0000 -18.4288 0.0000 38.5250
#
#
#
# Elastic Compliance Matrix: (Units=1/GPa)
#
#
# Indices 1 2 3 4 5 6 
#
# 1 0.027962 0.000946 -0.015082 0.000000 -0.000141 0.000000
# 2 0.000946 0.019593 -0.005655 0.000000 0.005004 0.000000
# 3 -0.015082 -0.005655 0.021285 0.000000 0.002119 0.000000
# 4 0.000000 0.000000 0.000000 0.068677 0.000000 0.032852
# 5 -0.000141 0.005004 0.002119 0.000000 0.027270 0.000000
# 6 0.000000 0.000000 0.000000 0.032852 0.000000 0.041672
#
#
# Mechanical properties :
#
#
# Convention : Reuss Voigt Hill
#
# Bulk Modulus (GPa) = 34.17855 42.08942 38.13399
# Shear Modulus (GPa) = 19.54693 28.72375 24.13534
#
# Velocity S-wave (km/s) = 2.91927 3.53880 3.24386
# Velocity P-wave (km/s) = 5.12486 5.92012 5.53678
#
# Compressibility (1/GPa) = 0.02925811
#
# Stress axis : x y z
#
# Youngs Moduli (GPa) = 35.76316 51.03783 46.98034
#
# Poissons Ratio (x) = -0.04826 0.70856
# Poissons Ratio (y) = -0.03382 0.26566
# Poissons Ratio (z) = 0.53939 0.28860
#
# Static dielectric constant tensor:
#      x y z
#    x 1.863600 0.000000 -0.019700 
#    y 0.000000 1.905990 0.000000 
#    z -0.019700 0.000000 1.861120 
# 
# From -- ./inp_files/15143.got.cif
#   From: 2010.05.17/outbox.cif.g08.bks.cpg/sg4_8_cif.got.tgz:15143.got - 2010.06.03 18:43:04.
