data_PCOD9117857
_publ_section_title
;
Structure prediction by ZEFSAII (Michael W. Deem and Ramdas Pophale) SiO2 
 PCOD9117857
Probable space group: P 21
;
_chemical_formula_sum "Si O2"
_cell_formula_units_Z 14
_cell_length_a 6.749813
_cell_length_b 7.528767
_cell_length_c 13.158702
_cell_angle_alpha 90.000000
_cell_angle_beta 57.136200
_cell_angle_gamma 90.000000
_cell_volume 561.679720
_symmetry_space_group_name_H-M "P 21"
_symmetry_group_IT_number 4
_symmetry_cell_setting 'monoclinic'
loop_
_space_group_symop_operation_xyz
x,y,z
-x,1/2+y,-z
loop_
_atom_site_type_symbol
_atom_site_label
_atom_site_fract_x
_atom_site_fract_y
_atom_site_fract_z
Si Si1 0.200627 0.567220 0.268916
Si Si2 0.460238 0.919505 0.136797
Si Si3 0.850637 0.258708 0.509842
Si Si4 0.648265 0.635259 0.634530
Si Si5 0.363681 0.906838 0.937634
Si Si6 0.851161 0.288200 0.285706
Si Si7 0.053932 0.223743 0.007872
O O1 0.287656 0.747522 0.191059
O O2 0.224734 0.629255 0.378828
O O3 0.396319 0.419610 0.189536
O O4 0.960150 0.479680 0.291719
O O5 0.381251 0.056224 0.243976
O O6 0.426438 0.978493 0.030935
O O7 0.728476 0.854590 0.079315
O O8 0.711229 0.446350 0.558572
O O9 0.849508 0.186680 0.395016
O O10 0.131773 0.262982 0.449063
O O11 0.415108 0.745446 0.672968
O O12 0.196110 0.737849 0.979837
O O13 0.174428 0.040289 0.941685
O O14 0.000050 0.230196 0.144477
#
# Coordination Sequence:
#
# PCOD9117857 Si02
#       7
#     2   2   2   2   2   2   2
#     4  10  24  47  73 107 152 203 253 311 391 445
#     4  10  23  47  73 109 156 197 246 323 382 464
#     4  11  25  51  71 111 151 207 249 324 373 460
#     4  11  26  45  79 108 152 196 267 304 394 444
#     4  11  24  44  73 107 154 196 245 317 375 467
#     4  12  25  44  76 112 146 203 254 321 372 461
#     4  11  25  40  71 112 143 196 254 300 389 447
#
# _framework density 24.925236000000002
#
# number of rings (size 3 to 8) (size 9 to 14) (size 15 to 20)
#    0.000    1.143    2.857    1.714    4.000    4.571 
#    0.000    2.857    0.000    0.000    0.000    0.000 
#    0.000    0.000    0.000    0.000    0.000    0.000 
#
# Total GULP energy -78118.873868 kJ/mol
# GULP energy per Si atom -5579.919562 kJ/mol
# Density = 2.486851 g / cm^3
# Si number density = 24.925236 Si / 1000 Ang^3
#
#
#
# Elastic Constant Matrix: (Units=GPa)
#
#
# Indices 1 2 3 4 5 6 
#
# 1 113.9603 43.4108 46.2663 0.0000 -5.9489 0.0000
# 2 43.4108 96.5159 22.6793 0.0000 -19.4943 0.0000
# 3 46.2663 22.6793 149.0774 0.0000 7.3426 0.0000
# 4 0.0000 0.0000 0.0000 33.1968 0.0000 -7.0634
# 5 -5.9489 -19.4943 7.3426 0.0000 48.9834 0.0000
# 6 0.0000 0.0000 0.0000 -7.0634 0.0000 35.7197
#
#
#
# Elastic Compliance Matrix: (Units=1/GPa)
#
#
# Indices 1 2 3 4 5 6 
#
# 1 0.011712 -0.004567 -0.002942 0.000000 0.000046 0.000000
# 2 -0.004567 0.013639 -0.000904 0.000000 0.005009 0.000000
# 3 -0.002942 -0.000904 0.007852 0.000000 -0.001894 0.000000
# 4 0.000000 0.000000 0.000000 0.031446 0.000000 0.006218
# 5 0.000046 0.005009 -0.001894 0.000000 0.022698 0.000000
# 6 0.000000 0.000000 0.000000 0.006218 0.000000 0.029225
#
#
# Mechanical properties :
#
#
# Convention : Reuss Voigt Hill
#
# Bulk Modulus (GPa) = 61.06552 64.91848 62.99200
# Shear Modulus (GPa) = 36.00792 40.05981 38.03386
#
# Velocity S-wave (km/s) = 3.80496 4.01334 3.91054
# Velocity P-wave (km/s) = 6.62241 6.89766 6.76143
#
# Compressibility (1/GPa) = 0.01637585
#
# Stress axis : x y z
#
# Youngs Moduli (GPa) = 85.38576 73.31725 127.35779
#
# Poissons Ratio (x) = 0.33484 0.37471
# Poissons Ratio (y) = 0.38996 0.11517
# Poissons Ratio (z) = 0.25122 0.06630
#
# Static dielectric constant tensor:
#      x y z
#    x 1.991190 0.000000 0.005310 
#    y 0.000000 2.208290 0.000000 
#    z 0.005310 0.000000 2.043020 
# 
# From -- ./inp_files/13318.got.cif
#   From: 2010.05.17/outbox.cif.g08.bks.cpg/sg4_7_cif.got.tgz:13318.got - 2010.06.03 18:43:04.
