data_PCOD9117579
_publ_section_title
;
Structure prediction by ZEFSAII (Michael W. Deem and Ramdas Pophale) SiO2 
 PCOD9117579
Probable space group: P 21
;
_chemical_formula_sum "Si O2"
_cell_formula_units_Z 14
_cell_length_a 5.196860
_cell_length_b 8.094776
_cell_length_c 15.747176
_cell_angle_alpha 90.000000
_cell_angle_beta 122.984368
_cell_angle_gamma 90.000000
_cell_volume 555.669885
_symmetry_space_group_name_H-M "P 21"
_symmetry_group_IT_number 4
_symmetry_cell_setting 'monoclinic'
loop_
_space_group_symop_operation_xyz
x,y,z
-x,1/2+y,-z
loop_
_atom_site_type_symbol
_atom_site_label
_atom_site_fract_x
_atom_site_fract_y
_atom_site_fract_z
Si Si1 0.085694 0.686350 0.251025
Si Si2 0.721262 0.020684 0.214457
Si Si3 0.387364 0.167333 0.526350
Si Si4 0.249133 0.811848 0.555602
Si Si5 0.776347 0.143190 0.045445
Si Si6 0.182999 0.845991 0.102851
Si Si7 0.105861 0.317134 0.248321
O O1 0.420276 0.697699 0.353343
O O2 0.081960 0.704770 0.149042
O O3 0.981303 0.498505 0.251010
O O4 0.905794 0.848891 0.248994
O O5 0.406038 0.964553 0.199599
O O6 0.600400 0.078966 0.097886
O O7 0.943836 0.171649 0.274258
O O8 0.629412 0.183778 0.493521
O O9 0.090103 0.282744 0.471571
O O10 0.257362 0.984128 0.507770
O O11 0.529596 0.816187 0.672642
O O12 0.017405 0.265104 0.136802
O O13 0.658644 0.252923 0.947109
O O14 0.914638 0.973488 0.032765
#
# Coordination Sequence:
#
# PCOD9117579 Si02
#       7
#     2   2   2   2   2   2   2
#     4  10  23  43  63  97 132 171 227 278 337 410
#     4   9  23  40  65  92 126 174 217 271 343 389
#     4  11  26  42  71 103 141 182 237 283 358 407
#     4  11  25  44  71 101 140 187 229 295 346 417
#     4   9  22  38  61  93 131 162 227 265 341 394
#     4  11  21  41  67  94 131 178 215 281 337 414
#     4   9  22  46  60  96 133 168 228 279 338 407
#
# _framework density 25.194814000000001
#
# number of rings (size 3 to 8) (size 9 to 14) (size 15 to 20)
#    0.857    1.143    0.000    1.714    6.000    4.571 
#    7.714    0.000    0.000    0.000    0.000    0.000 
#    0.000    0.000    0.000    0.000    0.000    0.000 
#
# Total GULP energy -78072.973190 kJ/mol
# GULP energy per Si atom -5576.640942 kJ/mol
# Density = 2.513747 g / cm^3
# Si number density = 25.194814 Si / 1000 Ang^3
#
#
#
# Elastic Constant Matrix: (Units=GPa)
#
#
# Indices 1 2 3 4 5 6 
#
# 1 31.8558 13.9176 0.6889 0.0000 0.4799 0.0000
# 2 13.9176 146.8567 35.7145 0.0000 5.0465 0.0000
# 3 0.6889 35.7145 60.1392 0.0000 -5.5432 0.0000
# 4 0.0000 0.0000 0.0000 33.8213 0.0000 4.2107
# 5 0.4799 5.0465 -5.5432 0.0000 19.5427 0.0000
# 6 0.0000 0.0000 0.0000 4.2107 0.0000 25.9085
#
#
#
# Elastic Compliance Matrix: (Units=1/GPa)
#
#
# Indices 1 2 3 4 5 6 
#
# 1 0.032907 -0.003580 0.001807 0.000000 0.000629 0.000000
# 2 -0.003580 0.008587 -0.005396 0.000000 -0.003660 0.000000
# 3 0.001807 -0.005396 0.020471 0.000000 0.007155 0.000000
# 4 0.000000 0.000000 0.000000 0.030178 0.000000 -0.004905
# 5 0.000629 -0.003660 0.007155 0.000000 0.054129 0.000000
# 6 0.000000 0.000000 0.000000 -0.004905 0.000000 0.039394
#
#
# Mechanical properties :
#
#
# Convention : Reuss Voigt Hill
#
# Bulk Modulus (GPa) = 20.99613 37.72151 29.35882
# Shear Modulus (GPa) = 23.16118 28.42324 25.79221
#
# Velocity S-wave (km/s) = 3.03526 3.36242 3.20302
# Velocity P-wave (km/s) = 4.54261 5.48443 5.03559
#
# Compressibility (1/GPa) = 0.04762782
#
# Stress axis : x y z
#
# Youngs Moduli (GPa) = 30.38885 116.46159 48.84915
#
# Poissons Ratio (x) = 0.41688 -0.08826
# Poissons Ratio (y) = 0.10878 0.26357
# Poissons Ratio (z) = -0.05491 0.62838
#
# Static dielectric constant tensor:
#      x y z
#    x 1.997350 0.000000 -0.015360 
#    y 0.000000 1.999480 0.000000 
#    z -0.015360 0.000000 2.047200 
# 
# From -- ./inp_files/14723.got.cif
#   From: 2010.05.17/outbox.cif.g08.bks.cpg/sg4_8_cif.got.tgz:14723.got - 2010.06.03 18:43:04.
