data_PCOD9117855
_publ_section_title
;
Structure prediction by ZEFSAII (Michael W. Deem and Ramdas Pophale) SiO2 
 PCOD9117855
Probable space group: P 21
;
_chemical_formula_sum "Si O2"
_cell_formula_units_Z 16
_cell_length_a 11.278018
_cell_length_b 10.491511
_cell_length_c 6.637994
_cell_angle_alpha 90.000000
_cell_angle_beta 100.087572
_cell_angle_gamma 90.000000
_cell_volume 773.288536
_symmetry_space_group_name_H-M "P 21"
_symmetry_group_IT_number 4
_symmetry_cell_setting 'monoclinic'
loop_
_space_group_symop_operation_xyz
x,y,z
-x,1/2+y,-z
loop_
_atom_site_type_symbol
_atom_site_label
_atom_site_fract_x
_atom_site_fract_y
_atom_site_fract_z
Si Si1 0.791433 0.447610 0.171256
Si Si2 0.205897 0.293576 0.503969
Si Si3 0.861136 0.220064 0.919721
Si Si4 0.712527 0.973150 0.802654
Si Si5 0.951722 0.376332 0.599339
Si Si6 0.100813 0.113908 0.147170
Si Si7 0.611359 0.797816 0.090064
Si Si8 0.471161 0.025973 0.908195
O O1 0.884146 0.425532 0.379846
O O2 0.658143 0.479468 0.205879
O O3 0.790738 0.320816 0.034896
O O4 0.834185 0.558833 0.031352
O O5 0.240557 0.420829 0.392800
O O6 0.184747 0.181581 0.336483
O O7 0.313957 0.268473 0.688494
O O8 0.080225 0.318304 0.579582
O O9 0.798575 0.083693 0.905893
O O10 0.873460 0.271470 0.695953
O O11 0.995727 0.209119 0.048100
O O12 0.575548 0.025241 0.769986
O O13 0.704308 0.852824 0.952101
O O14 0.959882 0.493778 0.757003
O O15 0.544885 0.667711 0.009476
O O16 0.519952 0.917827 0.077461
#
# Coordination Sequence:
#
# PCOD9117855 Si02
#       8
#     2   2   2   2   2   2   2   2
#     4  11  23  45  69  99 143 180 236 291 350 425
#     4  12  24  43  71 105 134 187 225 293 355 423
#     4  11  24  42  66 103 142 180 232 292 352 421
#     4  10  25  44  66 100 138 182 233 285 344 416
#     4  11  26  41  70 104 136 186 228 290 363 426
#     4  11  25  40  70 101 141 177 231 294 358 416
#     4  10  24  46  71  97 142 182 243 286 352 420
#     4  10  23  47  71  97 138 192 228 295 348 409
#
# _framework density 20.690854000000002
#
# number of rings (size 3 to 8) (size 9 to 14) (size 15 to 20)
#    0.750    0.500    1.250    3.750    8.750    1.000 
#   11.250    0.000    0.000    0.000    0.000    0.000 
#    0.000    0.000    0.000    0.000    0.000    0.000 
#
# Total GULP energy -89350.988893 kJ/mol
# GULP energy per Si atom -5584.436806 kJ/mol
# Density = 2.064376 g / cm^3
# Si number density = 20.690854 Si / 1000 Ang^3
#
#
#
# Elastic Constant Matrix: (Units=GPa)
#
#
# Indices 1 2 3 4 5 6 
#
# 1 59.4087 33.6879 25.4805 0.0000 6.4194 0.0000
# 2 33.6879 118.1891 30.5143 0.0000 5.5322 0.0000
# 3 25.4805 30.5143 60.3305 0.0000 10.2001 0.0000
# 4 0.0000 0.0000 0.0000 30.9183 0.0000 1.6322
# 5 6.4194 5.5322 10.2001 0.0000 30.4082 0.0000
# 6 0.0000 0.0000 0.0000 1.6322 0.0000 40.6214
#
#
#
# Elastic Compliance Matrix: (Units=1/GPa)
#
#
# Indices 1 2 3 4 5 6 
#
# 1 0.022577 -0.004564 -0.006956 0.000000 -0.001603 0.000000
# 2 -0.004564 0.010655 -0.003495 0.000000 0.000197 0.000000
# 3 -0.006956 -0.003495 0.022183 0.000000 -0.005337 0.000000
# 4 0.000000 0.000000 0.000000 0.032412 0.000000 -0.001302
# 5 -0.001603 0.000197 -0.005337 0.000000 0.034978 0.000000
# 6 0.000000 0.000000 0.000000 -0.001302 0.000000 0.024670
#
#
# Mechanical properties :
#
#
# Convention : Reuss Voigt Hill
#
# Bulk Modulus (GPa) = 39.39294 46.36597 42.87946
# Shear Modulus (GPa) = 26.88631 30.27261 28.57946
#
# Velocity S-wave (km/s) = 3.60867 3.82919 3.72056
# Velocity P-wave (km/s) = 6.03684 6.48134 6.26304
#
# Compressibility (1/GPa) = 0.02538526
#
# Stress axis : x y z
#
# Youngs Moduli (GPa) = 44.29198 93.85193 45.07930
#
# Poissons Ratio (x) = 0.42838 0.31357
# Poissons Ratio (y) = 0.20217 0.15754
# Poissons Ratio (z) = 0.30810 0.32799
#
# Static dielectric constant tensor:
#      x y z
#    x 1.731690 0.000000 -0.018060 
#    y 0.000000 1.775270 0.000000 
#    z -0.018060 0.000000 1.720470 
# 
# From -- ./inp_files/2878.got.cif
#   From: 2010.05.17/outbox.cif.g08.bks.cpg/sg4_2_cif.got.tgz:2878.got - 2010.06.03 18:43:04.
