data_PCOD9117380
_publ_section_title
;
Structure prediction by ZEFSAII (Michael W. Deem and Ramdas Pophale) SiO2 
 PCOD9117380
Probable space group: P 21
;
_chemical_formula_sum "Si O2"
_cell_formula_units_Z 14
_cell_length_a 14.478809
_cell_length_b 5.615365
_cell_length_c 15.670706
_cell_angle_alpha 90.000000
_cell_angle_beta 150.627909
_cell_angle_gamma 90.000000
_cell_volume 624.913774
_symmetry_space_group_name_H-M "P 21"
_symmetry_group_IT_number 4
_symmetry_cell_setting 'monoclinic'
loop_
_space_group_symop_operation_xyz
x,y,z
-x,1/2+y,-z
loop_
_atom_site_type_symbol
_atom_site_label
_atom_site_fract_x
_atom_site_fract_y
_atom_site_fract_z
Si Si1 0.851420 0.377160 0.471312
Si Si2 0.778225 0.401967 0.035133
Si Si3 0.925414 0.378685 0.333234
Si Si4 0.754094 0.896315 0.782418
Si Si5 0.186330 0.174693 0.330907
Si Si6 0.470244 0.102899 0.686634
Si Si7 0.984420 0.249617 0.858538
O O1 0.839080 0.382512 0.358279
O O2 0.649532 0.426053 0.350965
O O3 0.971295 0.619353 0.590667
O O4 0.944870 0.119676 0.568909
O O5 0.778504 0.396233 0.137044
O O6 0.980110 0.290445 0.169488
O O7 0.823220 0.658903 0.031684
O O8 0.611745 0.262598 0.855718
O O9 0.728929 0.678404 0.696632
O O10 0.581555 0.968268 0.701289
O O11 0.821955 0.087081 0.767880
O O12 0.928921 0.872765 0.987672
O O13 0.324280 0.264008 0.514500
O O14 0.127746 0.903143 0.300350
#
# Coordination Sequence:
#
# PCOD9117380 Si02
#       7
#     2   2   2   2   2   2   2
#     4  10  23  46  77 106 140 186 238 295 367 433
#     4  11  24  42  69  97 136 184 233 293 357 430
#     4  10  22  48  76 102 143 190 231 294 370 440
#     4  11  23  38  63  93 132 179 239 283 346 414
#     4  11  24  43  63  93 139 183 231 290 356 422
#     4  12  25  42  66 107 135 179 242 297 354 423
#     4  11  21  43  64  90 137 193 228 290 360 422
#
# _framework density 22.403091
#
# number of rings (size 3 to 8) (size 9 to 14) (size 15 to 20)
#    0.000    1.143    4.286    1.714    2.000    1.143 
#    2.571    5.714    0.000    0.000    0.000    0.000 
#    0.000    0.000    0.000    0.000    0.000    0.000 
#
# Total GULP energy -78031.097400 kJ/mol
# GULP energy per Si atom -5573.649814 kJ/mol
# Density = 2.235210 g / cm^3
# Si number density = 22.403091 Si / 1000 Ang^3
#
#
#
# Elastic Constant Matrix: (Units=GPa)
#
#
# Indices 1 2 3 4 5 6 
#
# 1 87.6853 20.9816 45.9679 0.0000 -9.5875 0.0000
# 2 20.9816 62.7372 30.0457 0.0000 -2.8997 0.0000
# 3 45.9679 30.0457 148.9822 0.0000 -21.1033 0.0000
# 4 0.0000 0.0000 0.0000 6.6345 0.0000 -13.6220
# 5 -9.5875 -2.8997 -21.1033 0.0000 36.5131 0.0000
# 6 0.0000 0.0000 0.0000 -13.6220 0.0000 29.5588
#
#
#
# Elastic Compliance Matrix: (Units=1/GPa)
#
#
# Indices 1 2 3 4 5 6 
#
# 1 0.014135 -0.002955 -0.003565 0.000000 0.001417 0.000000
# 2 -0.002955 0.018278 -0.002918 0.000000 -0.001011 0.000000
# 3 -0.003565 -0.002918 0.008969 0.000000 0.004016 0.000000
# 4 0.000000 0.000000 0.000000 2.801792 0.000000 1.291189
# 5 0.001417 -0.001011 0.004016 0.000000 0.030000 0.000000
# 6 0.000000 0.000000 0.000000 1.291189 0.000000 0.628868
#
#
# Mechanical properties :
#
#
# Convention : Reuss Voigt Hill
#
# Bulk Modulus (GPa) = 44.42763 54.82169 49.62466
# Shear Modulus (GPa) = 1.41706 28.03525 14.72616
#
# Velocity S-wave (km/s) = 0.79618 3.54135 2.56662
# Velocity P-wave (km/s) = 4.55184 6.42225 5.56617
#
# Compressibility (1/GPa) = 0.02250852
#
# Stress axis : x y z
#
# Youngs Moduli (GPa) = 70.74591 54.70976 111.48941
#
# Poissons Ratio (x) = 0.16164 0.39744
# Poissons Ratio (y) = 0.20902 0.32530
# Poissons Ratio (z) = 0.25220 0.15963
#
# Static dielectric constant tensor:
#      x y z
#    x 1.845590 0.000000 -0.067500 
#    y 0.000000 2.452840 0.000000 
#    z -0.067500 0.000000 1.962700 
# 
# From -- ./inp_files/14102.got.cif
#   From: 2010.05.17/outbox.cif.g08.bks.cpg/sg4_8_cif.got.tgz:14102.got - 2010.06.03 18:43:04.
