data_PCOD9117287
_publ_section_title
;
Structure prediction by ZEFSAII (Michael W. Deem and Ramdas Pophale) SiO2 
 PCOD9117287
Probable space group: P 21
;
_chemical_formula_sum "Si O2"
_cell_formula_units_Z 14
_cell_length_a 8.004932
_cell_length_b 8.431248
_cell_length_c 11.177961
_cell_angle_alpha 90.000000
_cell_angle_beta 131.189938
_cell_angle_gamma 90.000000
_cell_volume 567.722687
_symmetry_space_group_name_H-M "P 21"
_symmetry_group_IT_number 4
_symmetry_cell_setting 'monoclinic'
loop_
_space_group_symop_operation_xyz
x,y,z
-x,1/2+y,-z
loop_
_atom_site_type_symbol
_atom_site_label
_atom_site_fract_x
_atom_site_fract_y
_atom_site_fract_z
Si Si1 0.824672 0.161240 0.869956
Si Si2 0.093527 0.850120 0.447669
Si Si3 0.242367 0.512049 0.405984
Si Si4 0.579720 0.875904 0.287282
Si Si5 0.465152 0.599990 0.945341
Si Si6 0.031690 0.464872 0.849816
Si Si7 0.772632 0.419185 0.232250
O O1 0.605356 0.243326 0.820636
O O2 0.970189 0.295034 0.873871
O O3 0.731450 0.047419 0.721203
O O4 0.978516 0.083376 0.043452
O O5 0.181087 0.678018 0.445899
O O6 0.227779 0.914472 0.624804
O O7 0.835320 0.838753 0.370741
O O8 0.098947 0.970318 0.337785
O O9 0.422662 0.425933 0.573917
O O10 0.025503 0.402289 0.311816
O O11 0.508405 0.024437 0.172701
O O12 0.282913 0.491753 0.926273
O O13 0.363857 0.771886 0.882357
O O14 0.684392 0.576533 0.126033
#
# Coordination Sequence:
#
# PCOD9117287 Si02
#       7
#     2   2   2   2   2   2   2
#     4  11  25  46  69 104 145 189 229 288 358 431
#     4   9  21  48  72 103 133 181 242 299 340 410
#     4  10  23  46  68 103 139 188 226 297 349 424
#     4  10  22  45  71 100 139 180 241 286 350 415
#     4  11  24  42  73 109 133 185 236 293 345 411
#     4  10  25  44  70 102 142 186 233 283 361 407
#     4  11  24  41  77 103 141 175 239 296 349 406
#
# _framework density 24.659925000000001
#
# number of rings (size 3 to 8) (size 9 to 14) (size 15 to 20)
#    0.000    1.714    1.429    0.857   12.000    0.000 
#   10.286    0.000    0.000    0.000    0.000    0.000 
#    0.000    0.000    0.000    0.000    0.000    0.000 
#
# Total GULP energy -78313.410906 kJ/mol
# GULP energy per Si atom -5593.815065 kJ/mol
# Density = 2.460380 g / cm^3
# Si number density = 24.659925 Si / 1000 Ang^3
#
#
#
# Elastic Constant Matrix: (Units=GPa)
#
#
# Indices 1 2 3 4 5 6 
#
# 1 62.7048 20.0567 33.0478 0.0000 -19.8051 0.0000
# 2 20.0567 71.9442 67.8627 0.0000 -6.9576 0.0000
# 3 33.0478 67.8627 168.6853 0.0000 -25.5523 0.0000
# 4 0.0000 0.0000 0.0000 48.3406 0.0000 -3.7795
# 5 -19.8051 -6.9576 -25.5523 0.0000 26.9755 0.0000
# 6 0.0000 0.0000 0.0000 -3.7795 0.0000 29.9321
#
#
#
# Elastic Compliance Matrix: (Units=1/GPa)
#
#
# Indices 1 2 3 4 5 6 
#
# 1 0.022241 -0.004477 -0.000301 0.000000 0.014889 0.000000
# 2 -0.004477 0.023543 -0.009542 0.000000 -0.006253 0.000000
# 3 -0.000301 -0.009542 0.010998 0.000000 0.007735 0.000000
# 4 0.000000 0.000000 0.000000 0.020893 0.000000 0.002638
# 5 0.014889 -0.006253 0.007735 0.000000 0.053717 0.000000
# 6 0.000000 0.000000 0.000000 0.002638 0.000000 0.033742
#
#
# Mechanical properties :
#
#
# Convention : Reuss Voigt Hill
#
# Bulk Modulus (GPa) = 35.53220 60.58539 48.05880
# Shear Modulus (GPa) = 24.61198 33.20745 28.90972
#
# Velocity S-wave (km/s) = 3.16263 3.67361 3.42765
# Velocity P-wave (km/s) = 5.27034 6.52806 5.93262
#
# Compressibility (1/GPa) = 0.02814349
#
# Stress axis : x y z
#
# Youngs Moduli (GPa) = 44.96204 42.47488 90.92932
#
# Poissons Ratio (x) = 0.19014 0.02736
# Poissons Ratio (y) = 0.20128 0.86762
# Poissons Ratio (z) = 0.01353 0.40528
#
# Static dielectric constant tensor:
#      x y z
#    x 1.977950 0.000000 -0.033300 
#    y 0.000000 1.961400 0.000000 
#    z -0.033300 0.000000 1.952790 
# 
# From -- ./inp_files/10999.got.cif
#   From: 2010.05.17/outbox.cif.g08.bks.cpg/sg4_6_cif.got.tgz:10999.got - 2010.06.03 18:43:04.
