data_PCOD9117654
_publ_section_title
;
Structure prediction by ZEFSAII (Michael W. Deem and Ramdas Pophale) SiO2 
 PCOD9117654
Probable space group: P 21
;
_chemical_formula_sum "Si O2"
_cell_formula_units_Z 14
_cell_length_a 6.955712
_cell_length_b 6.923433
_cell_length_c 12.044913
_cell_angle_alpha 90.000000
_cell_angle_beta 72.550502
_cell_angle_gamma 90.000000
_cell_volume 553.358729
_symmetry_space_group_name_H-M "P 21"
_symmetry_group_IT_number 4
_symmetry_cell_setting 'monoclinic'
loop_
_space_group_symop_operation_xyz
x,y,z
-x,1/2+y,-z
loop_
_atom_site_type_symbol
_atom_site_label
_atom_site_fract_x
_atom_site_fract_y
_atom_site_fract_z
Si Si1 0.398660 0.066640 0.330160
Si Si2 0.945773 0.784457 0.932540
Si Si3 0.395866 0.734080 0.512441
Si Si4 0.116789 0.715059 0.134874
Si Si5 0.036422 0.675328 0.684370
Si Si6 0.563930 0.759498 0.143234
Si Si7 0.773126 0.591042 0.309180
O O1 0.516755 0.235997 0.374626
O O2 0.189735 0.143140 0.317103
O O3 0.350151 0.891194 0.424336
O O4 0.542081 0.963882 0.212996
O O5 0.023369 0.646955 0.820652
O O6 0.933081 0.992618 0.880200
O O7 0.720515 0.749862 0.015452
O O8 0.080460 0.802260 0.019616
O O9 0.204371 0.592356 0.569807
O O10 0.596699 0.644619 0.422944
O O11 0.339243 0.730116 0.140296
O O12 0.948508 0.752521 0.258842
O O13 0.122031 0.897762 0.661732
O O14 0.652626 0.601660 0.212992
#
# Coordination Sequence:
#
# PCOD9117654 Si02
#       7
#     2   2   2   2   2   2   2
#     4  11  27  45  76 107 144 198 252 306 376 441
#     4  10  25  42  69 106 144 187 244 301 364 447
#     4  11  24  49  71 105 150 189 251 307 364 448
#     4  10  23  43  73  96 151 185 244 300 375 426
#     4  11  25  44  74 108 145 193 248 303 374 441
#     4  10  24  43  74 104 147 196 241 304 373 440
#     4   9  22  48  65 106 139 194 238 311 362 437
#
# _framework density 25.300044
#
# number of rings (size 3 to 8) (size 9 to 14) (size 15 to 20)
#    0.000    1.714    1.429    0.000    6.000   10.286 
#    0.000    0.000    0.000    0.000    0.000    0.000 
#    0.000    0.000    0.000    0.000    0.000    0.000 
#
# Total GULP energy -78038.578887 kJ/mol
# GULP energy per Si atom -5574.184206 kJ/mol
# Density = 2.524246 g / cm^3
# Si number density = 25.300044 Si / 1000 Ang^3
#
#
#
# Elastic Constant Matrix: (Units=GPa)
#
#
# Indices 1 2 3 4 5 6 
#
# 1 198.7094 34.6481 42.9891 0.0000 -0.6138 0.0000
# 2 34.6481 75.3918 24.5957 0.0000 2.9046 0.0000
# 3 42.9891 24.5957 90.5345 0.0000 -34.3458 0.0000
# 4 0.0000 0.0000 0.0000 25.6457 0.0000 -7.9419
# 5 -0.6138 2.9046 -34.3458 0.0000 48.7892 0.0000
# 6 0.0000 0.0000 0.0000 -7.9419 0.0000 0.0140
#
#
#
# Elastic Compliance Matrix: (Units=1/GPa)
#
#
# Indices 1 2 3 4 5 6 
#
# 1 0.006002 -0.001637 -0.003192 0.000000 -0.002074 0.000000
# 2 -0.001637 0.015945 -0.005351 0.000000 -0.004737 0.000000
# 3 -0.003192 -0.005351 0.019266 0.000000 0.013841 0.000000
# 4 0.000000 0.000000 0.000000 -0.000223 0.000000 -0.126634
# 5 -0.002074 -0.004737 0.013841 0.000000 0.030496 0.000000
# 6 0.000000 0.000000 0.000000 -0.126634 0.000000 -0.408922
#
#
# Mechanical properties :
#
#
# Convention : Reuss Voigt Hill
#
# Bulk Modulus (GPa) = 47.95861 63.23349 55.59605
# Shear Modulus (GPa) = -16.12257 32.38330 8.13036
#
# Velocity S-wave (km/s) = -2.52713 3.58155 1.79459
# Velocity P-wave (km/s) = 3.23758 6.49238 5.12996
#
# Compressibility (1/GPa) = 0.02085131
#
# Stress axis : x y z
#
# Youngs Moduli (GPa) = 166.60799 62.71650 51.90526
#
# Poissons Ratio (x) = 0.10267 0.16569
# Poissons Ratio (y) = 0.27275 0.27777
# Poissons Ratio (z) = 0.53184 0.33563
#
# Static dielectric constant tensor:
#      x y z
#    x 2.134830 0.000000 -0.390550 
#    y 0.000000 2.298370 0.000000 
#    z -0.390550 0.000000 2.869240 
# 
# From -- ./inp_files/10317.got.cif
#   From: 2010.05.17/outbox.cif.g08.bks.cpg/sg4_6_cif.got.tgz:10317.got - 2010.06.03 18:43:04.
