data_PCOD9117342
_publ_section_title
;
Structure prediction by ZEFSAII (Michael W. Deem and Ramdas Pophale) SiO2 
 PCOD9117342
Probable space group: P 21
;
_chemical_formula_sum "Si O2"
_cell_formula_units_Z 16
_cell_length_a 10.930134
_cell_length_b 14.069995
_cell_length_c 5.647346
_cell_angle_alpha 90.000000
_cell_angle_beta 129.819488
_cell_angle_gamma 90.000000
_cell_volume 667.055901
_symmetry_space_group_name_H-M "P 21"
_symmetry_group_IT_number 4
_symmetry_cell_setting 'monoclinic'
loop_
_space_group_symop_operation_xyz
x,y,z
-x,1/2+y,-z
loop_
_atom_site_type_symbol
_atom_site_label
_atom_site_fract_x
_atom_site_fract_y
_atom_site_fract_z
Si Si1 0.525917 0.724110 0.771121
Si Si2 0.486339 0.027491 0.967077
Si Si3 0.846829 0.751501 0.420730
Si Si4 0.803130 0.322224 0.739766
Si Si5 0.829422 0.429942 0.277143
Si Si6 0.019954 0.648399 0.229356
Si Si7 0.836199 0.964312 0.476224
Si Si8 0.698339 0.615382 0.615737
O O1 0.374584 0.788876 0.548935
O O2 0.569727 0.683608 0.570112
O O3 0.489574 0.634653 0.900458
O O4 0.692600 0.769416 0.060922
O O5 0.405098 0.029820 0.608225
O O6 0.341679 0.982639 0.935992
O O7 0.655091 0.976624 0.169024
O O8 0.990296 0.709343 0.436700
O O9 0.857353 0.853073 0.568803
O O10 0.787409 0.666740 0.511298
O O11 0.844482 0.383975 0.558475
O O12 0.917713 0.229532 0.870920
O O13 0.815217 0.368566 0.015167
O O14 0.004891 0.479216 0.486646
O O15 0.138234 0.559459 0.337282
O O16 0.845486 0.602906 0.971488
#
# Coordination Sequence:
#
# PCOD9117342 Si02
#       8
#     2   2   2   2   2   2   2   2
#     4  10  23  45  73 107 151 205 261 320 394 470
#     4  11  26  48  74 112 152 206 268 323 396 469
#     4  10  22  46  72 105 149 201 257 324 393 466
#     4  12  27  50  75 111 159 212 256 324 407 466
#     4  12  29  50  77 115 162 202 264 332 393 472
#     4  11  24  47  74 110 153 203 264 330 394 471
#     4  12  24  48  77 111 150 206 271 318 396 477
#     4  10  23  46  74 103 156 197 255 335 395 463
#
# _framework density 23.985997999999999
#
# number of rings (size 3 to 8) (size 9 to 14) (size 15 to 20)
#    0.000    1.000    2.500    3.750    8.750    0.000 
#    4.500    0.000    0.000    0.000    0.000    0.000 
#    0.000    0.000    0.000    0.000    0.000    0.000 
#
# Total GULP energy -89112.236103 kJ/mol
# GULP energy per Si atom -5569.514756 kJ/mol
# Density = 2.393140 g / cm^3
# Si number density = 23.985998 Si / 1000 Ang^3
#
#
#
# Elastic Constant Matrix: (Units=GPa)
#
#
# Indices 1 2 3 4 5 6 
#
# 1 76.3234 6.8501 30.3193 0.0000 15.0088 0.0000
# 2 6.8501 80.4492 15.3131 0.0000 8.8437 0.0000
# 3 30.3193 15.3131 58.0401 0.0000 15.2775 0.0000
# 4 0.0000 0.0000 0.0000 40.6240 0.0000 7.4532
# 5 15.0088 8.8437 15.2775 0.0000 49.3562 0.0000
# 6 0.0000 0.0000 0.0000 7.4532 0.0000 43.4231
#
#
#
# Elastic Compliance Matrix: (Units=1/GPa)
#
#
# Indices 1 2 3 4 5 6 
#
# 1 0.016850 0.000421 -0.008214 0.000000 -0.002657 0.000000
# 2 0.000421 0.013186 -0.003313 0.000000 -0.001465 0.000000
# 3 -0.008214 -0.003313 0.023495 0.000000 -0.004181 0.000000
# 4 0.000000 0.000000 0.000000 0.025416 0.000000 -0.004363
# 5 -0.002657 -0.001465 -0.004181 0.000000 0.022626 0.000000
# 6 0.000000 0.000000 0.000000 -0.004363 0.000000 0.023778
#
#
# Mechanical properties :
#
#
# Convention : Reuss Voigt Hill
#
# Bulk Modulus (GPa) = 31.92995 35.53084 33.73040
# Shear Modulus (GPa) = 31.64513 37.50267 34.57390
#
# Velocity S-wave (km/s) = 3.63618 3.95843 3.80072
# Velocity P-wave (km/s) = 5.56506 5.97809 5.77527
#
# Compressibility (1/GPa) = 0.03131856
#
# Stress axis : x y z
#
# Youngs Moduli (GPa) = 59.34817 75.83762 42.56248
#
# Poissons Ratio (x) = -0.03191 0.34960
# Poissons Ratio (y) = -0.02497 0.14101
# Poissons Ratio (z) = 0.48747 0.25126
#
# Static dielectric constant tensor:
#      x y z
#    x 1.871540 0.000000 -0.011410 
#    y 0.000000 2.130250 0.000000 
#    z -0.011410 0.000000 2.012400 
# 
# From -- ./inp_files/3200.got.cif
#   From: 2010.05.17/outbox.cif.g08.bks.cpg/sg4_2_cif.got.tgz:3200.got - 2010.06.03 18:43:04.
