data_PCOD9117255
_publ_section_title
;
Structure prediction by ZEFSAII (Michael W. Deem and Ramdas Pophale) SiO2 
 PCOD9117255
Probable space group: P 21
;
_chemical_formula_sum "Si O2"
_cell_formula_units_Z 14
_cell_length_a 8.052968
_cell_length_b 8.098498
_cell_length_c 16.109403
_cell_angle_alpha 90.000000
_cell_angle_beta 150.122295
_cell_angle_gamma 90.000000
_cell_volume 523.359799
_symmetry_space_group_name_H-M "P 21"
_symmetry_group_IT_number 4
_symmetry_cell_setting 'monoclinic'
loop_
_space_group_symop_operation_xyz
x,y,z
-x,1/2+y,-z
loop_
_atom_site_type_symbol
_atom_site_label
_atom_site_fract_x
_atom_site_fract_y
_atom_site_fract_z
Si Si1 0.332946 0.231820 0.018887
Si Si2 0.474637 0.681119 0.159012
Si Si3 0.591286 0.674438 0.555285
Si Si4 0.657368 0.254491 0.720862
Si Si5 0.133397 0.531624 0.668425
Si Si6 0.910632 0.008986 0.540288
Si Si7 0.860528 0.363677 0.120082
O O1 0.009116 0.345073 0.892772
O O2 0.187018 0.050976 0.929220
O O3 0.588865 0.174895 0.200428
O O4 0.543854 0.309155 0.036879
O O5 0.355895 0.647453 0.201153
O O6 0.749616 0.539701 0.260986
O O7 0.691880 0.852190 0.250331
O O8 0.167736 0.732144 0.967837
O O9 0.326633 0.706090 0.368311
O O10 0.378834 0.616087 0.541649
O O11 0.864755 0.557410 0.626202
O O12 0.811140 0.827488 0.683651
O O13 0.296496 0.341163 0.557573
O O14 0.007481 0.545068 0.520015
#
# Coordination Sequence:
#
# PCOD9117255 Si02
#       7
#     2   2   2   2   2   2   2
#     4  10  23  44  69  97 141 175 229 280 339 402
#     4  10  22  45  67  92 137 175 224 279 340 396
#     4  11  24  40  67 100 133 173 230 271 344 398
#     4  11  25  41  68  99 136 180 228 281 335 408
#     4   9  22  45  64  97 134 174 223 283 329 408
#     4  11  24  41  69  97 136 179 227 278 344 395
#     4  10  24  42  70 100 131 182 223 282 339 403
#
# _framework density 26.750240000000002
#
# number of rings (size 3 to 8) (size 9 to 14) (size 15 to 20)
#    0.000    1.714    1.429    0.857   14.000    0.000 
#    0.000    0.000    0.000    0.000    0.000    0.000 
#    0.000    0.000    0.000    0.000    0.000    0.000 
#
# Total GULP energy -78145.024162 kJ/mol
# GULP energy per Si atom -5581.787440 kJ/mol
# Density = 2.668936 g / cm^3
# Si number density = 26.750240 Si / 1000 Ang^3
#
#
#
# Elastic Constant Matrix: (Units=GPa)
#
#
# Indices 1 2 3 4 5 6 
#
# 1 63.7528 12.3950 3.3141 0.0000 -9.3919 0.0000
# 2 12.3950 88.2042 1.0658 0.0000 -3.6606 0.0000
# 3 3.3141 1.0658 127.3800 0.0000 -13.3202 0.0000
# 4 0.0000 0.0000 0.0000 33.9561 0.0000 5.4486
# 5 -9.3919 -3.6606 -13.3202 0.0000 41.4971 0.0000
# 6 0.0000 0.0000 0.0000 5.4486 0.0000 33.6582
#
#
#
# Elastic Compliance Matrix: (Units=1/GPa)
#
#
# Indices 1 2 3 4 5 6 
#
# 1 0.016638 -0.002190 -0.000042 0.000000 0.003559 0.000000
# 2 -0.002190 0.011667 0.000016 0.000000 0.000539 0.000000
# 3 -0.000042 0.000016 0.008123 0.000000 0.002599 0.000000
# 4 0.000000 0.000000 0.000000 0.030235 0.000000 -0.004895
# 5 0.003559 0.000539 0.002599 0.000000 0.025785 0.000000
# 6 0.000000 0.000000 0.000000 -0.004895 0.000000 0.030503
#
#
# Mechanical properties :
#
#
# Convention : Reuss Voigt Hill
#
# Bulk Modulus (GPa) = 31.25468 34.76520 33.00994
# Shear Modulus (GPa) = 36.21881 39.32644 37.77262
#
# Velocity S-wave (km/s) = 3.68361 3.83839 3.76180
# Velocity P-wave (km/s) = 5.45905 5.71566 5.58883
#
# Compressibility (1/GPa) = 0.03199521
#
# Stress axis : x y z
#
# Youngs Moduli (GPa) = 60.10399 85.71021 123.10257
#
# Poissons Ratio (x) = 0.18769 0.00522
# Poissons Ratio (y) = 0.13162 -0.00193
# Poissons Ratio (z) = 0.00255 -0.00134
#
# Static dielectric constant tensor:
#      x y z
#    x 2.103990 0.000000 0.036480 
#    y 0.000000 2.308570 0.000000 
#    z 0.036480 0.000000 2.080240 
# 
# From -- ./inp_files/5349.got.cif
#   From: 2010.05.17/outbox.cif.g08.bks.cpg/sg4_3_cif.got.tgz:5349.got - 2010.06.03 18:43:04.
