data_PCOD9117466
_publ_section_title
;
Structure prediction by ZEFSAII (Michael W. Deem and Ramdas Pophale) SiO2 
 PCOD9117466
Probable space group: P 21
;
_chemical_formula_sum "Si O2"
_cell_formula_units_Z 16
_cell_length_a 14.669066
_cell_length_b 7.485190
_cell_length_c 5.617284
_cell_angle_alpha 90.000000
_cell_angle_beta 77.076186
_cell_angle_gamma 90.000000
_cell_volume 601.157851
_symmetry_space_group_name_H-M "P 21"
_symmetry_group_IT_number 4
_symmetry_cell_setting 'monoclinic'
loop_
_space_group_symop_operation_xyz
x,y,z
-x,1/2+y,-z
loop_
_atom_site_type_symbol
_atom_site_label
_atom_site_fract_x
_atom_site_fract_y
_atom_site_fract_z
Si Si1 0.229114 0.881730 0.305101
Si Si2 0.674592 0.888246 0.612755
Si Si3 0.331973 0.047677 0.603665
Si Si4 0.481319 0.478657 0.646557
Si Si5 0.879777 0.035045 0.549192
Si Si6 0.856634 0.541412 0.026538
Si Si7 0.407359 0.721805 0.058995
Si Si8 0.052631 0.639252 0.993013
O O1 0.151612 0.738614 0.402170
O O2 0.309266 0.824526 0.068029
O O3 0.290928 0.871217 0.506711
O O4 0.168684 0.044168 0.238517
O O5 0.664249 0.675314 0.636122
O O6 0.617638 0.915558 0.398523
O O7 0.783422 0.931250 0.561407
O O8 0.625123 0.030832 0.812581
O O9 0.439530 0.018708 0.601289
O O10 0.242290 0.105732 0.804377
O O11 0.528146 0.339282 0.803752
O O12 0.461284 0.663269 0.792909
O O13 0.935747 0.039790 0.269521
O O14 0.921273 0.014641 0.792083
O O15 0.889949 0.330122 0.046700
O O16 0.940809 0.658078 0.073302
#
# Coordination Sequence:
#
# PCOD9117466 Si02
#       8
#     2   2   2   2   2   2   2   2
#     4   9  22  44  69  98 143 186 235 303 358 428
#     4  11  25  40  70  99 143 186 242 287 367 426
#     4  11  24  43  65 104 139 185 239 303 356 436
#     4  11  24  42  69  98 144 190 237 299 357 440
#     4  10  24  46  72 106 142 193 238 305 357 436
#     4  11  26  44  72 103 141 186 241 302 371 436
#     4  10  23  41  65 102 138 193 241 290 361 428
#     4  11  26  46  74 104 144 189 245 299 375 426
#
# _framework density 26.615307999999999
#
# number of rings (size 3 to 8) (size 9 to 14) (size 15 to 20)
#    0.000    1.500    1.250    1.500    8.750    7.000 
#    0.000    0.000    0.000    0.000    0.000    0.000 
#    0.000    0.000    0.000    0.000    0.000    0.000 
#
# Total GULP energy -89172.966822 kJ/mol
# GULP energy per Si atom -5573.310426 kJ/mol
# Density = 2.655473 g / cm^3
# Si number density = 26.615308 Si / 1000 Ang^3
#
#
#
# Elastic Constant Matrix: (Units=GPa)
#
#
# Indices 1 2 3 4 5 6 
#
# 1 156.8043 27.2959 59.9976 0.0000 9.2978 0.0000
# 2 27.2959 71.2117 22.2530 0.0000 4.5007 0.0000
# 3 59.9976 22.2530 85.7820 0.0000 -8.3935 0.0000
# 4 0.0000 0.0000 0.0000 28.5905 0.0000 7.2239
# 5 9.2978 4.5007 -8.3935 0.0000 42.1549 0.0000
# 6 0.0000 0.0000 0.0000 7.2239 0.0000 45.0881
#
#
#
# Elastic Compliance Matrix: (Units=1/GPa)
#
#
# Indices 1 2 3 4 5 6 
#
# 1 0.009265 -0.001336 -0.006445 0.000000 -0.003184 0.000000
# 2 -0.001336 0.015730 -0.003347 0.000000 -0.002051 0.000000
# 3 -0.006445 -0.003347 0.017549 0.000000 0.005273 0.000000
# 4 0.000000 0.000000 0.000000 0.036452 0.000000 -0.005840
# 5 -0.003184 -0.002051 0.005273 0.000000 0.025693 0.000000
# 6 0.000000 0.000000 0.000000 -0.005840 0.000000 0.023115
#
#
# Mechanical properties :
#
#
# Convention : Reuss Voigt Hill
#
# Bulk Modulus (GPa) = 49.28858 59.21012 54.24935
# Shear Modulus (GPa) = 31.88306 36.78346 34.33326
#
# Velocity S-wave (km/s) = 3.46486 3.72161 3.59553
# Velocity P-wave (km/s) = 5.87929 6.38452 6.13711
#
# Compressibility (1/GPa) = 0.02028868
#
# Stress axis : x y z
#
# Youngs Moduli (GPa) = 107.93594 63.57172 56.98217
#
# Poissons Ratio (x) = 0.08493 0.36725
# Poissons Ratio (y) = 0.14421 0.19071
# Poissons Ratio (z) = 0.69564 0.21277
#
# Static dielectric constant tensor:
#      x y z
#    x 2.131620 0.000000 -0.032060 
#    y 0.000000 2.248620 0.000000 
#    z -0.032060 0.000000 2.305030 
# 
# From -- ./inp_files/3548.got.cif
#   From: 2010.05.17/outbox.cif.g08.bks.cpg/sg4_2_cif.got.tgz:3548.got - 2010.06.03 18:43:04.
