data_PCOD9117550
_publ_section_title
;
Structure prediction by ZEFSAII (Michael W. Deem and Ramdas Pophale) SiO2 
 PCOD9117550
Probable space group: P 21
;
_chemical_formula_sum "Si O2"
_cell_formula_units_Z 14
_cell_length_a 14.080302
_cell_length_b 9.024447
_cell_length_c 5.122140
_cell_angle_alpha 90.000000
_cell_angle_beta 58.534048
_cell_angle_gamma 90.000000
_cell_volume 555.146806
_symmetry_space_group_name_H-M "P 21"
_symmetry_group_IT_number 4
_symmetry_cell_setting 'monoclinic'
loop_
_space_group_symop_operation_xyz
x,y,z
-x,1/2+y,-z
loop_
_atom_site_type_symbol
_atom_site_label
_atom_site_fract_x
_atom_site_fract_y
_atom_site_fract_z
Si Si1 0.786616 0.148520 0.852396
Si Si2 0.257145 0.471728 0.602433
Si Si3 0.804208 0.454008 0.564933
Si Si4 0.981567 0.825355 0.043817
Si Si5 0.513094 0.811220 0.737432
Si Si6 0.975095 0.568174 0.659646
Si Si7 0.574345 0.475932 0.632056
O O1 0.744289 0.039191 0.685531
O O2 0.764853 0.315183 0.795435
O O3 0.919610 0.119102 0.660177
O O4 0.737997 0.107227 0.200972
O O5 0.360322 0.364465 0.489389
O O6 0.141212 0.390267 0.832495
O O7 0.859566 0.578435 0.670360
O O8 0.703029 0.502068 0.528382
O O9 0.909028 0.389838 0.255866
O O10 0.977006 0.661949 0.924810
O O11 0.002536 0.896074 0.300409
O O12 0.512146 0.634084 0.721911
O O13 0.442958 0.895511 0.617108
O O14 0.476443 0.870071 0.072283
#
# Coordination Sequence:
#
# PCOD9117550 Si02
#       7
#     2   2   2   2   2   2   2
#     4  10  24  42  74 113 149 202 241 322 386 464
#     4  11  24  48  76 108 151 200 255 315 393 464
#     4  11  26  44  76 111 155 201 259 320 393 474
#     4  10  24  42  72 111 150 200 244 320 383 475
#     4  12  30  54  83 116 159 210 276 338 400 471
#     4  10  23  42  68 112 159 194 255 305 396 463
#     4  12  31  54  85 117 157 213 274 338 401 475
#
# _framework density 25.218551999999999
#
# number of rings (size 3 to 8) (size 9 to 14) (size 15 to 20)
#    0.000    1.143    1.429    1.714   16.000    2.286 
#    0.000    0.000    0.000    0.000    0.000    0.000 
#    0.000    0.000    0.000    0.000    0.000    0.000 
#
# Total GULP energy -78450.328070 kJ/mol
# GULP energy per Si atom -5603.594862 kJ/mol
# Density = 2.516115 g / cm^3
# Si number density = 25.218552 Si / 1000 Ang^3
#
#
#
# Elastic Constant Matrix: (Units=GPa)
#
#
# Indices 1 2 3 4 5 6 
#
# 1 126.6845 34.7428 8.8582 0.0000 -12.6431 0.0000
# 2 34.7428 98.5327 3.8471 0.0000 -6.1419 0.0000
# 3 8.8582 3.8471 57.6255 0.0000 -15.7561 0.0000
# 4 0.0000 0.0000 0.0000 37.8879 0.0000 3.0237
# 5 -12.6431 -6.1419 -15.7561 0.0000 35.5849 0.0000
# 6 0.0000 0.0000 0.0000 3.0237 0.0000 35.5396
#
#
#
# Elastic Compliance Matrix: (Units=1/GPa)
#
#
# Indices 1 2 3 4 5 6 
#
# 1 0.008997 -0.002999 -0.000512 0.000000 0.002452 0.000000
# 2 -0.002999 0.011262 -0.000058 0.000000 0.000853 0.000000
# 3 -0.000512 -0.000058 0.019778 0.000000 0.008565 0.000000
# 4 0.000000 0.000000 0.000000 0.026574 0.000000 -0.002261
# 5 0.002452 0.000853 0.008565 0.000000 0.032913 0.000000
# 6 0.000000 0.000000 0.000000 -0.002261 0.000000 0.028330
#
#
# Mechanical properties :
#
#
# Convention : Reuss Voigt Hill
#
# Bulk Modulus (GPa) = 30.39720 41.97099 36.18409
# Shear Modulus (GPa) = 34.25647 37.49548 35.87597
#
# Velocity S-wave (km/s) = 3.68962 3.86012 3.77583
# Velocity P-wave (km/s) = 5.49825 6.04536 5.77828
#
# Compressibility (1/GPa) = 0.03289777
#
# Stress axis : x y z
#
# Youngs Moduli (GPa) = 111.15147 88.79486 50.56140
#
# Poissons Ratio (x) = 0.26633 0.02590
# Poissons Ratio (y) = 0.33339 0.00291
# Poissons Ratio (z) = 0.05695 0.00512
#
# Static dielectric constant tensor:
#      x y z
#    x 2.005380 0.000000 0.000460 
#    y 0.000000 1.989780 0.000000 
#    z 0.000460 0.000000 1.972160 
# 
# From -- ./inp_files/3617.got.cif
#   From: 2010.05.17/outbox.cif.g08.bks.cpg/sg4_2_cif.got.tgz:3617.got - 2010.06.03 18:43:04.
