data_PCOD9117166
_publ_section_title
;
Structure prediction by ZEFSAII (Michael W. Deem and Ramdas Pophale) SiO2 
 PCOD9117166
Probable space group: P 21
;
_chemical_formula_sum "Si O2"
_cell_formula_units_Z 16
_cell_length_a 12.937370
_cell_length_b 10.720971
_cell_length_c 6.891173
_cell_angle_alpha 90.000000
_cell_angle_beta 48.695590
_cell_angle_gamma 90.000000
_cell_volume 718.020030
_symmetry_space_group_name_H-M "P 21"
_symmetry_group_IT_number 4
_symmetry_cell_setting 'monoclinic'
loop_
_space_group_symop_operation_xyz
x,y,z
-x,1/2+y,-z
loop_
_atom_site_type_symbol
_atom_site_label
_atom_site_fract_x
_atom_site_fract_y
_atom_site_fract_z
Si Si1 0.511592 0.732650 0.777180
Si Si2 0.946745 0.384697 0.171541
Si Si3 0.433543 0.992208 0.035714
Si Si4 0.127302 0.077346 0.449618
Si Si5 0.690248 0.075639 0.557360
Si Si6 0.243439 0.744214 0.861059
Si Si7 0.105988 0.697566 0.430139
Si Si8 0.197237 0.313768 0.585303
O O1 0.393791 0.754952 0.765546
O O2 0.661897 0.758695 0.500204
O O3 0.480341 0.846245 0.973313
O O4 0.522471 0.590549 0.847563
O O5 0.931294 0.522523 0.275330
O O6 0.811122 0.351138 0.214580
O O7 0.952657 0.304867 0.361688
O O8 0.074150 0.340664 0.884898
O O9 0.527330 0.053717 0.749509
O O10 0.268676 0.006278 0.220089
O O11 0.164414 0.219966 0.452205
O O12 0.005580 0.085898 0.443804
O O13 0.752342 0.121548 0.278617
O O14 0.748632 0.167202 0.648627
O O15 0.756775 0.947817 0.543742
O O16 0.141025 0.734296 0.168274
#
# Coordination Sequence:
#
# PCOD9117166 Si02
#       8
#     2   2   2   2   2   2   2   2
#     4  10  22  44  70  98 137 178 222 284 335 406
#     4  11  25  43  67  95 135 174 228 275 336 411
#     4  10  22  44  68 100 138 174 230 276 339 406
#     4  11  24  42  67  99 134 175 221 285 336 399
#     4  10  23  42  70  95 133 176 223 277 332 414
#     4  11  22  44  70  96 129 180 228 265 342 408
#     4  11  23  41  68  98 128 181 218 273 343 399
#     4  10  23  44  62 101 136 168 226 287 325 403
#
# _framework density 22.283501999999999
#
# number of rings (size 3 to 8) (size 9 to 14) (size 15 to 20)
#    0.000    1.500    2.500    1.500    5.250    2.000 
#    9.000    0.000    0.000    0.000    0.000    0.000 
#    0.000    0.000    0.000    0.000    0.000    0.000 
#
# Total GULP energy -89161.899270 kJ/mol
# GULP energy per Si atom -5572.618704 kJ/mol
# Density = 2.223278 g / cm^3
# Si number density = 22.283502 Si / 1000 Ang^3
#
#
#
# Elastic Constant Matrix: (Units=GPa)
#
#
# Indices 1 2 3 4 5 6 
#
# 1 127.7859 16.4738 22.0223 0.0000 -16.5526 0.0000
# 2 16.4738 76.5011 5.7531 0.0000 7.5401 0.0000
# 3 22.0223 5.7531 65.1613 0.0000 -6.3996 0.0000
# 4 0.0000 0.0000 0.0000 24.4116 0.0000 -4.9436
# 5 -16.5526 7.5401 -6.3996 0.0000 35.4215 0.0000
# 6 0.0000 0.0000 0.0000 -4.9436 0.0000 27.9109
#
#
#
# Elastic Compliance Matrix: (Units=1/GPa)
#
#
# Indices 1 2 3 4 5 6 
#
# 1 0.009085 -0.002192 -0.002458 0.000000 0.004268 0.000000
# 2 -0.002192 0.014023 -0.000907 0.000000 -0.004173 0.000000
# 3 -0.002458 -0.000907 0.016455 0.000000 0.002018 0.000000
# 4 0.000000 0.000000 0.000000 0.042488 0.000000 0.007525
# 5 0.004268 -0.004173 0.002018 0.000000 0.031479 0.000000
# 6 0.000000 0.000000 0.000000 0.007525 0.000000 0.037161
#
#
# Mechanical properties :
#
#
# Convention : Reuss Voigt Hill
#
# Bulk Modulus (GPa) = 35.14989 39.77186 37.46088
# Shear Modulus (GPa) = 29.19059 32.56208 30.87633
#
# Velocity S-wave (km/s) = 3.62327 3.82680 3.72642
# Velocity P-wave (km/s) = 5.77168 6.11659 5.94664
#
# Compressibility (1/GPa) = 0.02844959
#
# Stress axis : x y z
#
# Youngs Moduli (GPa) = 110.07692 71.30986 60.77048
#
# Poissons Ratio (x) = 0.15632 0.14935
# Poissons Ratio (y) = 0.24130 0.05513
# Poissons Ratio (z) = 0.27052 0.06469
#
# Static dielectric constant tensor:
#      x y z
#    x 1.856030 0.000000 -0.044060 
#    y 0.000000 1.873910 0.000000 
#    z -0.044060 0.000000 1.839080 
# 
# From -- ./inp_files/3036.got.cif
#   From: 2010.05.17/outbox.cif.g08.bks.cpg/sg4_2_cif.got.tgz:3036.got - 2010.06.03 18:43:04.
