data_PCOD9117068
_publ_section_title
;
Structure prediction by ZEFSAII (Michael W. Deem and Ramdas Pophale) SiO2 
 PCOD9117068
Probable space group: P 21
;
_chemical_formula_sum "Si O2"
_cell_formula_units_Z 16
_cell_length_a 6.895919
_cell_length_b 8.820982
_cell_length_c 16.045957
_cell_angle_alpha 90.000000
_cell_angle_beta 46.084793
_cell_angle_gamma 90.000000
_cell_volume 703.118542
_symmetry_space_group_name_H-M "P 21"
_symmetry_group_IT_number 4
_symmetry_cell_setting 'monoclinic'
loop_
_space_group_symop_operation_xyz
x,y,z
-x,1/2+y,-z
loop_
_atom_site_type_symbol
_atom_site_label
_atom_site_fract_x
_atom_site_fract_y
_atom_site_fract_z
Si Si1 0.513327 0.973910 0.015084
Si Si2 0.121839 0.440937 0.785566
Si Si3 0.399497 0.193342 0.915166
Si Si4 0.184266 0.856655 0.535597
Si Si5 0.487227 0.648891 0.573122
Si Si6 0.787057 0.148081 0.082136
Si Si7 0.449128 0.714056 0.305559
Si Si8 0.422625 0.357296 0.292781
O O1 0.648597 0.814489 0.996780
O O2 0.196751 0.941833 0.120710
O O3 0.627306 0.088381 0.050296
O O4 0.536133 0.049244 0.917985
O O5 0.244114 0.538732 0.674305
O O6 0.216615 0.525275 0.842184
O O7 0.268411 0.280106 0.744532
O O8 0.572740 0.251644 0.786188
O O9 0.101813 0.164407 0.968469
O O10 0.384448 0.753108 0.529562
O O11 0.228942 0.799550 0.427250
O O12 0.877117 0.833724 0.653213
O O13 0.271569 0.032001 0.517114
O O14 0.552102 0.755469 0.632107
O O15 0.648951 0.297963 0.161250
O O16 0.446192 0.533032 0.310185
#
# Coordination Sequence:
#
# PCOD9117068 Si02
#       8
#     2   2   2   2   2   2   2   2
#     4  11  24  44  67  99 133 181 229 270 346 407
#     4   9  21  43  64  96 134 179 222 277 338 391
#     4  11  27  42  69 102 136 181 226 281 342 402
#     4  11  23  45  68  97 138 177 228 276 340 401
#     4  10  22  43  66  97 132 178 223 281 334 393
#     4  10  23  43  69  95 140 175 220 290 333 396
#     4  11  24  44  65 101 139 176 225 285 333 400
#     4  11  24  42  70  99 132 179 227 274 340 402
#
# _framework density 22.755763999999999
#
# number of rings (size 3 to 8) (size 9 to 14) (size 15 to 20)
#    0.000    1.500    1.250    2.250    5.250    0.000 
#   13.500    0.000    0.000    0.000    0.000    0.000 
#    0.000    0.000    0.000    0.000    0.000    0.000 
#
# Total GULP energy -89502.131186 kJ/mol
# GULP energy per Si atom -5593.883199 kJ/mol
# Density = 2.270397 g / cm^3
# Si number density = 22.755764 Si / 1000 Ang^3
#
#
#
# Elastic Constant Matrix: (Units=GPa)
#
#
# Indices 1 2 3 4 5 6 
#
# 1 91.5255 32.6087 17.1643 0.0000 3.5161 0.0000
# 2 32.6087 113.6653 1.4343 0.0000 10.4122 0.0000
# 3 17.1643 1.4343 39.5155 0.0000 12.5631 0.0000
# 4 0.0000 0.0000 0.0000 32.6811 0.0000 7.3748
# 5 3.5161 10.4122 12.5631 0.0000 25.0264 0.0000
# 6 0.0000 0.0000 0.0000 7.3748 0.0000 38.4047
#
#
#
# Elastic Compliance Matrix: (Units=1/GPa)
#
#
# Indices 1 2 3 4 5 6 
#
# 1 0.013523 -0.004086 -0.006737 0.000000 0.003182 0.000000
# 2 -0.004086 0.010417 0.003084 0.000000 -0.005308 0.000000
# 3 -0.006737 0.003084 0.033589 0.000000 -0.017198 0.000000
# 4 0.000000 0.000000 0.000000 0.031985 0.000000 -0.006142
# 5 0.003182 -0.005308 -0.017198 0.000000 0.050353 0.000000
# 6 0.000000 0.000000 0.000000 -0.006142 0.000000 0.027218
#
#
# Mechanical properties :
#
#
# Convention : Reuss Voigt Hill
#
# Bulk Modulus (GPa) = 23.78057 38.56899 31.17478
# Shear Modulus (GPa) = 25.43506 32.12237 28.77871
#
# Velocity S-wave (km/s) = 3.34689 3.76122 3.56009
# Velocity P-wave (km/s) = 5.04070 5.98734 5.53430
#
# Compressibility (1/GPa) = 0.04205114
#
# Stress axis : x y z
#
# Youngs Moduli (GPa) = 73.94859 95.99405 29.77189
#
# Poissons Ratio (x) = 0.39223 0.20058
# Poissons Ratio (y) = 0.30215 -0.09183
# Poissons Ratio (z) = 0.49821 -0.29608
#
# Static dielectric constant tensor:
#      x y z
#    x 1.804260 0.000000 0.009430 
#    y 0.000000 1.873340 0.000000 
#    z 0.009430 0.000000 1.848890 
# 
# From -- ./inp_files/13292.got.cif
#   From: 2010.05.17/outbox.cif.g08.bks.cpg/sg4_7_cif.got.tgz:13292.got - 2010.06.03 18:43:04.
