data_PCOD9117709
_publ_section_title
;
Structure prediction by ZEFSAII (Michael W. Deem and Ramdas Pophale) SiO2 
 PCOD9117709
Probable space group: P 21
;
_chemical_formula_sum "Si O2"
_cell_formula_units_Z 16
_cell_length_a 12.011245
_cell_length_b 8.494173
_cell_length_c 17.806860
_cell_angle_alpha 90.000000
_cell_angle_beta 158.209189
_cell_angle_gamma 90.000000
_cell_volume 674.414000
_symmetry_space_group_name_H-M "P 21"
_symmetry_group_IT_number 4
_symmetry_cell_setting 'monoclinic'
loop_
_space_group_symop_operation_xyz
x,y,z
-x,1/2+y,-z
loop_
_atom_site_type_symbol
_atom_site_label
_atom_site_fract_x
_atom_site_fract_y
_atom_site_fract_z
Si Si1 0.545824 0.525910 0.998749
Si Si2 0.873687 0.840417 0.380333
Si Si3 0.454080 0.726986 0.680135
Si Si4 0.816691 0.723444 0.767442
Si Si5 0.605578 0.097161 0.936645
Si Si6 0.202466 0.242466 0.965707
Si Si7 0.432907 0.864504 0.400074
Si Si8 0.878435 0.915822 0.559186
O O1 0.720269 0.664077 0.064594
O O2 0.801787 0.419012 0.198715
O O3 0.343852 0.442183 0.809377
O O4 0.349608 0.588929 0.945316
O O5 0.894355 0.872690 0.481878
O O6 0.202336 0.848166 0.549546
O O7 0.724810 0.666412 0.282176
O O8 0.712091 0.778157 0.784207
O O9 0.255263 0.591546 0.518485
O O10 0.621287 0.656566 0.857246
O O11 0.657569 0.838355 0.609432
O O12 0.692989 0.543509 0.680350
O O13 0.164524 0.709178 0.963923
O O14 0.670277 0.919934 0.952102
O O15 0.852918 0.254271 0.764442
O O16 0.625264 0.821259 0.446856
#
# Coordination Sequence:
#
# PCOD9117709 Si02
#       8
#     2   2   2   2   2   2   2   2
#     4  12  24  47  78 103 142 189 242 300 368 427
#     4  12  26  45  74 105 144 187 237 304 363 425
#     4  11  24  45  68 100 147 187 231 295 360 423
#     4  10  24  45  67  99 143 183 242 288 355 430
#     4  11  25  42  71 108 138 183 242 295 357 437
#     4  11  24  44  71 103 143 191 234 298 366 424
#     4  10  23  44  69  99 140 190 233 291 356 428
#     4  11  24  48  70 107 141 184 247 297 355 432
#
# _framework density 23.724299999999999
#
# number of rings (size 3 to 8) (size 9 to 14) (size 15 to 20)
#    0.000    1.000    2.500    3.750    5.250    1.000 
#    2.250    0.000    0.000    0.000    0.000    0.000 
#    0.000    0.000    0.000    0.000    0.000    0.000 
#
# Total GULP energy -89476.679035 kJ/mol
# GULP energy per Si atom -5592.292440 kJ/mol
# Density = 2.367030 g / cm^3
# Si number density = 23.724300 Si / 1000 Ang^3
#
#
#
# Elastic Constant Matrix: (Units=GPa)
#
#
# Indices 1 2 3 4 5 6 
#
# 1 185.3376 15.3402 58.3199 0.0000 21.3170 0.0000
# 2 15.3402 34.1631 18.4937 0.0000 5.2118 0.0000
# 3 58.3199 18.4937 85.9560 0.0000 9.2223 0.0000
# 4 0.0000 0.0000 0.0000 28.7638 0.0000 -2.0787
# 5 21.3170 5.2118 9.2223 0.0000 46.6781 0.0000
# 6 0.0000 0.0000 0.0000 -2.0787 0.0000 30.7442
#
#
#
# Elastic Compliance Matrix: (Units=1/GPa)
#
#
# Indices 1 2 3 4 5 6 
#
# 1 0.007107 -0.000410 -0.004486 0.000000 -0.002314 0.000000
# 2 -0.000410 0.033406 -0.006670 0.000000 -0.002225 0.000000
# 3 -0.004486 -0.006670 0.016155 0.000000 -0.000399 0.000000
# 4 0.000000 0.000000 0.000000 0.034937 0.000000 0.002362
# 5 -0.002314 -0.002225 -0.000399 0.000000 0.022807 0.000000
# 6 0.000000 0.000000 0.000000 0.002362 0.000000 0.032686
#
#
# Mechanical properties :
#
#
# Convention : Reuss Voigt Hill
#
# Bulk Modulus (GPa) = 29.81883 54.41827 42.11855
# Shear Modulus (GPa) = 27.56205 35.45742 31.50973
#
# Velocity S-wave (km/s) = 3.41216 3.87015 3.64835
# Velocity P-wave (km/s) = 5.30283 6.55426 5.96147
#
# Compressibility (1/GPa) = 0.03353586
#
# Stress axis : x y z
#
# Youngs Moduli (GPa) = 140.70472 29.93487 61.89957
#
# Poissons Ratio (x) = 0.01228 0.27766
# Poissons Ratio (y) = 0.05770 0.41290
# Poissons Ratio (z) = 0.63114 0.19968
#
# Static dielectric constant tensor:
#      x y z
#    x 1.925060 0.000000 0.039190 
#    y 0.000000 1.956300 0.000000 
#    z 0.039190 0.000000 1.891730 
# 
# From -- ./inp_files/15184.got.cif
#   From: 2010.05.17/outbox.cif.g08.bks.cpg/sg4_8_cif.got.tgz:15184.got - 2010.06.03 18:43:04.
