data_PCOD9117303
_publ_section_title
;
Structure prediction by ZEFSAII (Michael W. Deem and Ramdas Pophale) SiO2 
 PCOD9117303
Probable space group: P 21
;
_chemical_formula_sum "Si O2"
_cell_formula_units_Z 14
_cell_length_a 9.257018
_cell_length_b 5.674700
_cell_length_c 14.762833
_cell_angle_alpha 90.000000
_cell_angle_beta 40.783589
_cell_angle_gamma 90.000000
_cell_volume 506.561751
_symmetry_space_group_name_H-M "P 21"
_symmetry_group_IT_number 4
_symmetry_cell_setting 'monoclinic'
loop_
_space_group_symop_operation_xyz
x,y,z
-x,1/2+y,-z
loop_
_atom_site_type_symbol
_atom_site_label
_atom_site_fract_x
_atom_site_fract_y
_atom_site_fract_z
Si Si1 0.532721 0.806870 0.838652
Si Si2 0.737040 0.608976 0.157442
Si Si3 0.278409 0.801003 0.430787
Si Si4 0.735983 0.491554 0.862388
Si Si5 0.016699 0.773590 0.851577
Si Si6 0.951377 0.146756 0.635216
Si Si7 0.628722 0.066733 0.438946
O O1 0.589203 0.545239 0.843467
O O2 0.380717 0.870616 0.826104
O O3 0.763256 0.942493 0.719204
O O4 0.404960 0.903330 0.986956
O O5 0.528978 0.773888 0.277863
O O6 0.879665 0.527249 0.175707
O O7 0.893661 0.701521 0.002853
O O8 0.110229 0.783723 0.426944
O O9 0.250433 0.599853 0.520440
O O10 0.195470 0.040153 0.516406
O O11 0.902132 0.294469 0.748513
O O12 0.847035 0.728710 0.849959
O O13 0.211751 0.605153 0.722824
O O14 0.486912 0.312874 0.508201
#
# Coordination Sequence:
#
# PCOD9117303 Si02
#       7
#     2   2   2   2   2   2   2
#     4  10  22  45  75 114 157 202 257 332 401 489
#     4  10  25  51  76 117 160 214 267 337 415 493
#     4  11  27  51  75 117 157 211 273 341 419 492
#     4  11  23  45  77 119 155 205 266 333 408 495
#     4  11  26  48  79 117 160 212 277 333 417 491
#     4  11  26  46  80 111 156 207 270 341 416 489
#     4  12  29  52  82 115 167 223 278 339 418 507
#
# _framework density 27.637301999999998
#
# number of rings (size 3 to 8) (size 9 to 14) (size 15 to 20)
#    0.000    1.143    2.857    0.857    8.000    2.286 
#    2.571    0.000    0.000    0.000    0.000    0.000 
#    0.000    0.000    0.000    0.000    0.000    0.000 
#
# Total GULP energy -78425.442476 kJ/mol
# GULP energy per Si atom -5601.817320 kJ/mol
# Density = 2.757440 g / cm^3
# Si number density = 27.637302 Si / 1000 Ang^3
#
#
#
# Elastic Constant Matrix: (Units=GPa)
#
#
# Indices 1 2 3 4 5 6 
#
# 1 127.2336 45.5238 38.0444 0.0000 5.0860 0.0000
# 2 45.5238 74.9836 58.1011 0.0000 -9.7176 0.0000
# 3 38.0444 58.1011 220.6616 0.0000 -6.9225 0.0000
# 4 0.0000 0.0000 0.0000 32.0531 0.0000 -0.1101
# 5 5.0860 -9.7176 -6.9225 0.0000 30.9013 0.0000
# 6 0.0000 0.0000 0.0000 -0.1101 0.0000 54.1933
#
#
#
# Elastic Compliance Matrix: (Units=1/GPa)
#
#
# Indices 1 2 3 4 5 6 
#
# 1 0.010473 -0.006743 -0.000152 0.000000 -0.003878 0.000000
# 2 -0.006743 0.021687 -0.004329 0.000000 0.006960 0.000000
# 3 -0.000152 -0.004329 0.005696 0.000000 -0.000060 0.000000
# 4 0.000000 0.000000 0.000000 0.031198 0.000000 0.000063
# 5 -0.003878 0.006960 -0.000060 0.000000 0.035175 0.000000
# 6 0.000000 0.000000 0.000000 0.000063 0.000000 0.018453
#
#
# Mechanical properties :
#
#
# Convention : Reuss Voigt Hill
#
# Bulk Modulus (GPa) = 64.90562 78.46859 71.68710
# Shear Modulus (GPa) = 33.27458 42.17682 37.72570
#
# Velocity S-wave (km/s) = 3.47360 3.91075 3.69864
# Velocity P-wave (km/s) = 6.29473 6.98898 6.65092
#
# Compressibility (1/GPa) = 0.01540699
#
# Stress axis : x y z
#
# Youngs Moduli (GPa) = 95.48695 46.11141 175.56161
#
# Poissons Ratio (x) = 0.31093 0.02665
# Poissons Ratio (y) = 0.64388 0.76005
# Poissons Ratio (z) = 0.01449 0.19963
#
# Static dielectric constant tensor:
#      x y z
#    x 2.155540 0.000000 -0.038960 
#    y 0.000000 2.160980 0.000000 
#    z -0.038960 0.000000 2.123370 
# 
# From -- ./inp_files/13504.got.cif
#   From: 2010.05.17/outbox.cif.g08.bks.cpg/sg4_7_cif.got.tgz:13504.got - 2010.06.03 18:43:04.
