data_PCOD9117769
_publ_section_title
;
Structure prediction by ZEFSAII (Michael W. Deem and Ramdas Pophale) SiO2 
 PCOD9117769
Probable space group: P 21
;
_chemical_formula_sum "Si O2"
_cell_formula_units_Z 12
_cell_length_a 15.373770
_cell_length_b 5.045665
_cell_length_c 9.265899
_cell_angle_alpha 90.000000
_cell_angle_beta 39.026989
_cell_angle_gamma 90.000000
_cell_volume 452.595950
_symmetry_space_group_name_H-M "P 21"
_symmetry_group_IT_number 4
_symmetry_cell_setting 'monoclinic'
loop_
_space_group_symop_operation_xyz
x,y,z
-x,1/2+y,-z
loop_
_atom_site_type_symbol
_atom_site_label
_atom_site_fract_x
_atom_site_fract_y
_atom_site_fract_z
Si Si1 0.549119 0.137630 0.014423
Si Si2 0.295450 0.225146 0.850513
Si Si3 0.428765 0.452861 0.405940
Si Si4 0.902634 0.562804 0.129714
Si Si5 0.963847 0.776857 0.632723
Si Si6 0.783993 0.258109 0.526137
O O1 0.483943 0.187056 0.254445
O O2 0.460799 0.335959 0.024091
O O3 0.699969 0.254955 0.785131
O O4 0.428019 0.102861 0.754567
O O5 0.204456 0.032419 0.864185
O O6 0.356396 0.422631 0.652779
O O7 0.186590 0.327638 0.107888
O O8 0.316210 0.590467 0.448255
O O9 0.818738 0.516886 0.386713
O O10 0.977068 0.844575 0.029172
O O11 0.969481 0.553739 0.502895
O O12 0.065425 0.656429 0.623987
#
# Coordination Sequence:
#
# PCOD9117769 Si02
#       6
#     2   2   2   2   2   2
#     4  10  23  45  72 108 149 198 256 305 379 459
#     4  12  27  49  78 118 161 199 268 319 390 462
#     4  11  26  48  77 117 154 210 251 327 382 465
#     4  12  26  46  76 113 151 202 255 314 384 459
#     4  12  31  50  77 114 157 205 259 323 387 461
#     4  11  25  48  78 110 154 204 255 316 390 462
#
# _framework density 26.513715000000001
#
# number of rings (size 3 to 8) (size 9 to 14) (size 15 to 20)
#    0.000    0.667    1.667    4.000    2.333   13.333 
#    0.000    0.000    0.000    0.000    0.000    0.000 
#    0.000    0.000    0.000    0.000    0.000    0.000 
#
# Total GULP energy -67197.559348 kJ/mol
# GULP energy per Si atom -5599.796612 kJ/mol
# Density = 2.645337 g / cm^3
# Si number density = 26.513715 Si / 1000 Ang^3
#
#
#
# Elastic Constant Matrix: (Units=GPa)
#
#
# Indices 1 2 3 4 5 6 
#
# 1 130.5697 23.5926 33.2327 0.0000 -15.7102 0.0000
# 2 23.5926 68.6511 35.4496 0.0000 7.0177 0.0000
# 3 33.2327 35.4496 219.5194 0.0000 -11.8530 0.0000
# 4 0.0000 0.0000 0.0000 47.1284 0.0000 4.0893
# 5 -15.7102 7.0177 -11.8530 0.0000 48.2571 0.0000
# 6 0.0000 0.0000 0.0000 4.0893 0.0000 33.7564
#
#
#
# Elastic Compliance Matrix: (Units=1/GPa)
#
#
# Indices 1 2 3 4 5 6 
#
# 1 0.008742 -0.002974 -0.000675 0.000000 0.003113 0.000000
# 2 -0.002974 0.017338 -0.002572 0.000000 -0.004121 0.000000
# 3 -0.000675 -0.002572 0.005150 0.000000 0.001419 0.000000
# 4 0.000000 0.000000 0.000000 0.021444 0.000000 -0.002598
# 5 0.003113 -0.004121 0.001419 0.000000 0.022684 0.000000
# 6 0.000000 0.000000 0.000000 -0.002598 0.000000 0.029939
#
#
# Mechanical properties :
#
#
# Convention : Reuss Voigt Hill
#
# Bulk Modulus (GPa) = 53.22722 67.03223 60.12973
# Shear Modulus (GPa) = 40.32210 47.59275 43.95743
#
# Velocity S-wave (km/s) = 3.90398 4.24137 4.07616
# Velocity P-wave (km/s) = 6.35927 7.02300 6.69936
#
# Compressibility (1/GPa) = 0.01878738
#
# Stress axis : x y z
#
# Youngs Moduli (GPa) = 114.38385 57.67702 194.18930
#
# Poissons Ratio (x) = 0.17153 0.13111
# Poissons Ratio (y) = 0.34018 0.49949
# Poissons Ratio (z) = 0.07723 0.14835
#
# Static dielectric constant tensor:
#      x y z
#    x 2.073470 0.000000 0.065790 
#    y 0.000000 2.055580 0.000000 
#    z 0.065790 0.000000 2.168460 
# 
# From -- ./inp_files/8977.got.cif
#   From: 2010.05.17/outbox.cif.g08.bks.cpg/sg4_5_cif.got.tgz:8977.got - 2010.06.03 18:43:04.
