data_PCOD9117266
_publ_section_title
;
Structure prediction by ZEFSAII (Michael W. Deem and Ramdas Pophale) SiO2 
 PCOD9117266
Probable space group: P 21
;
_chemical_formula_sum "Si O2"
_cell_formula_units_Z 14
_cell_length_a 14.684160
_cell_length_b 8.755134
_cell_length_c 5.527431
_cell_angle_alpha 90.000000
_cell_angle_beta 50.883395
_cell_angle_gamma 90.000000
_cell_volume 551.341408
_symmetry_space_group_name_H-M "P 21"
_symmetry_group_IT_number 4
_symmetry_cell_setting 'monoclinic'
loop_
_space_group_symop_operation_xyz
x,y,z
-x,1/2+y,-z
loop_
_atom_site_type_symbol
_atom_site_label
_atom_site_fract_x
_atom_site_fract_y
_atom_site_fract_z
Si Si1 0.215181 0.055510 0.778054
Si Si2 0.272722 0.271426 0.059769
Si Si3 0.582570 0.042763 0.114706
Si Si4 0.509131 0.091755 0.741138
Si Si5 0.120746 0.829326 0.309411
Si Si6 0.043975 0.116293 0.685134
Si Si7 0.314419 0.792347 0.322235
O O1 0.084841 0.084404 0.890017
O O2 0.287465 0.962887 0.456743
O O3 0.262947 0.214442 0.798490
O O4 0.208805 0.940561 0.015540
O O5 0.157813 0.207928 0.386410
O O6 0.297820 0.449134 0.050215
O O7 0.392952 0.193132 0.950841
O O8 0.509638 0.015526 0.478234
O O9 0.524976 0.991781 0.956612
O O10 0.603324 0.222844 0.029430
O O11 0.628161 0.195047 0.557384
O O12 0.187422 0.751395 0.420829
O O13 0.064512 0.718194 0.209200
O O14 0.032161 0.951836 0.576261
#
# Coordination Sequence:
#
# PCOD9117266 Si02
#       7
#     2   2   2   2   2   2   2
#     4  10  23  42  70 101 142 188 242 305 366 436
#     4  11  26  43  68 106 146 184 249 301 368 432
#     4  10  25  44  68 109 140 195 239 304 357 439
#     4  10  25  42  72 103 146 189 236 294 365 434
#     4  10  22  45  68  99 140 185 244 293 368 429
#     4  10  25  44  68 101 139 190 235 307 357 437
#     4   9  22  44  70  95 139 189 241 292 367 433
#
# _framework density 25.392614999999999
#
# number of rings (size 3 to 8) (size 9 to 14) (size 15 to 20)
#    0.857    1.143    0.000    0.857    8.000    6.857 
#    0.000    0.000    0.000    0.000    0.000    0.000 
#    0.000    0.000    0.000    0.000    0.000    0.000 
#
# Total GULP energy -78074.839539 kJ/mol
# GULP energy per Si atom -5576.774253 kJ/mol
# Density = 2.533482 g / cm^3
# Si number density = 25.392615 Si / 1000 Ang^3
#
#
#
# Elastic Constant Matrix: (Units=GPa)
#
#
# Indices 1 2 3 4 5 6 
#
# 1 111.8302 32.8023 17.0551 0.0000 29.9393 0.0000
# 2 32.8023 70.8423 16.2577 0.0000 17.4120 0.0000
# 3 17.0551 16.2577 56.8972 0.0000 24.1082 0.0000
# 4 0.0000 0.0000 0.0000 23.8037 0.0000 -2.3377
# 5 29.9393 17.4120 24.1082 0.0000 39.9144 0.0000
# 6 0.0000 0.0000 0.0000 -2.3377 0.0000 61.7318
#
#
#
# Elastic Compliance Matrix: (Units=1/GPa)
#
#
# Indices 1 2 3 4 5 6 
#
# 1 0.012045 -0.003834 0.000812 0.000000 -0.007853 0.000000
# 2 -0.003834 0.017228 -0.002429 0.000000 -0.003173 0.000000
# 3 0.000812 -0.002429 0.023970 0.000000 -0.014027 0.000000
# 4 0.000000 0.000000 0.000000 0.042167 0.000000 0.001597
# 5 -0.007853 -0.003173 -0.014027 0.000000 0.040801 0.000000
# 6 0.000000 0.000000 0.000000 0.001597 0.000000 0.016260
#
#
# Mechanical properties :
#
#
# Convention : Reuss Voigt Hill
#
# Bulk Modulus (GPa) = 23.61701 41.31108 32.46405
# Shear Modulus (GPa) = 28.17125 36.65359 32.41242
#
# Velocity S-wave (km/s) = 3.33442 3.80343 3.57662
# Velocity P-wave (km/s) = 4.91380 5.96593 5.46524
#
# Compressibility (1/GPa) = 0.04234236
#
# Stress axis : x y z
#
# Youngs Moduli (GPa) = 83.02063 58.04422 41.71914
#
# Poissons Ratio (x) = 0.22251 -0.03389
# Poissons Ratio (y) = 0.31826 0.10135
# Poissons Ratio (z) = -0.06745 0.14101
#
# Static dielectric constant tensor:
#      x y z
#    x 2.043520 0.000000 -0.011980 
#    y 0.000000 2.006290 0.000000 
#    z -0.011980 0.000000 2.048070 
# 
# From -- ./inp_files/3604.got.cif
#   From: 2010.05.17/outbox.cif.g08.bks.cpg/sg4_2_cif.got.tgz:3604.got - 2010.06.03 18:43:04.
