data_PCOD9117163
_publ_section_title
;
Structure prediction by ZEFSAII (Michael W. Deem and Ramdas Pophale) SiO2 
 PCOD9117163
Probable space group: P 21
;
_chemical_formula_sum "Si O2"
_cell_formula_units_Z 12
_cell_length_a 6.444934
_cell_length_b 8.860493
_cell_length_c 9.235615
_cell_angle_alpha 90.000000
_cell_angle_beta 97.425723
_cell_angle_gamma 90.000000
_cell_volume 522.979298
_symmetry_space_group_name_H-M "P 21"
_symmetry_group_IT_number 4
_symmetry_cell_setting 'monoclinic'
loop_
_space_group_symop_operation_xyz
x,y,z
-x,1/2+y,-z
loop_
_atom_site_type_symbol
_atom_site_label
_atom_site_fract_x
_atom_site_fract_y
_atom_site_fract_z
Si Si1 0.230209 0.417230 0.631061
Si Si2 0.053912 0.432161 0.918990
Si Si3 0.742839 0.371201 0.134750
Si Si4 0.311705 0.879002 0.296802
Si Si5 0.570424 0.136838 0.933936
Si Si6 0.077335 0.748040 0.554667
O O1 0.472662 0.456781 0.645085
O O2 0.109157 0.571542 0.583581
O O3 0.176003 0.362761 0.790643
O O4 0.159073 0.293217 0.508560
O O5 0.844976 0.483571 0.811017
O O6 0.937793 0.350675 0.041302
O O7 0.226728 0.536699 0.007157
O O8 0.631270 0.532678 0.107381
O O9 0.831686 0.334861 0.299121
O O10 0.564921 0.252332 0.068372
O O11 0.375614 0.738181 0.200004
O O12 0.201376 0.808923 0.425977
#
# Coordination Sequence:
#
# PCOD9117163 Si02
#       6
#     2   2   2   2   2   2
#     4  11  25  50  67 103 141 181 231 283 343 407
#     4  10  22  44  67  99 135 178 223 278 335 403
#     4  11  26  44  72 104 132 184 228 288 347 404
#     4  10  26  44  72  99 142 180 229 286 338 412
#     4  11  24  45  69 105 136 178 227 288 345 411
#     4  11  27  45  71 102 136 187 228 283 346 405
#
# _framework density 22.945457999999999
#
# number of rings (size 3 to 8) (size 9 to 14) (size 15 to 20)
#    0.000    1.333    1.667    2.000    7.000    6.667 
#    0.000    0.000    0.000    0.000    0.000    0.000 
#    0.000    0.000    0.000    0.000    0.000    0.000 
#
# Total GULP energy -66963.420744 kJ/mol
# GULP energy per Si atom -5580.285062 kJ/mol
# Density = 2.289323 g / cm^3
# Si number density = 22.945458 Si / 1000 Ang^3
#
#
#
# Elastic Constant Matrix: (Units=GPa)
#
#
# Indices 1 2 3 4 5 6 
#
# 1 57.0234 10.3592 8.6066 0.0000 5.4775 0.0000
# 2 10.3592 66.4164 12.5964 0.0000 11.8097 0.0000
# 3 8.6066 12.5964 108.8840 0.0000 -3.6773 0.0000
# 4 0.0000 0.0000 0.0000 39.7159 0.0000 12.5065
# 5 5.4775 11.8097 -3.6773 0.0000 30.6253 0.0000
# 6 0.0000 0.0000 0.0000 12.5065 0.0000 38.4256
#
#
#
# Elastic Compliance Matrix: (Units=1/GPa)
#
#
# Indices 1 2 3 4 5 6 
#
# 1 0.018374 -0.002157 -0.001291 0.000000 -0.002610 0.000000
# 2 -0.002157 0.016906 -0.002001 0.000000 -0.006374 0.000000
# 3 -0.001291 -0.002001 0.009590 0.000000 0.002154 0.000000
# 4 0.000000 0.000000 0.000000 0.028054 0.000000 -0.009131
# 5 -0.002610 -0.006374 0.002154 0.000000 0.035836 0.000000
# 6 0.000000 0.000000 0.000000 -0.009131 0.000000 0.028996
#
#
# Mechanical properties :
#
#
# Convention : Reuss Voigt Hill
#
# Bulk Modulus (GPa) = 29.43507 32.82756 31.13132
# Shear Modulus (GPa) = 31.25441 35.13748 33.19595
#
# Velocity S-wave (km/s) = 3.69469 3.91749 3.80772
# Velocity P-wave (km/s) = 5.57289 5.89916 5.73835
#
# Compressibility (1/GPa) = 0.03397308
#
# Stress axis : x y z
#
# Youngs Moduli (GPa) = 54.42466 59.15170 104.27200
#
# Poissons Ratio (x) = 0.12759 0.13461
# Poissons Ratio (y) = 0.11739 0.20860
# Poissons Ratio (z) = 0.07026 0.11833
#
# Static dielectric constant tensor:
#      x y z
#    x 1.915510 0.000000 0.009600 
#    y 0.000000 1.906950 0.000000 
#    z 0.009600 0.000000 1.842990 
# 
# From -- ./inp_files/4508.got.cif
#   From: 2010.05.17/outbox.cif.g08.bks.cpg/sg4_3_cif.got.tgz:4508.got - 2010.06.03 18:43:04.
