data_PCOD9117785
_publ_section_title
;
Structure prediction by ZEFSAII (Michael W. Deem and Ramdas Pophale) SiO2 
 PCOD9117785
Probable space group: P 21
;
_chemical_formula_sum "Si O2"
_cell_formula_units_Z 12
_cell_length_a 7.914577
_cell_length_b 10.925084
_cell_length_c 5.242248
_cell_angle_alpha 90.000000
_cell_angle_beta 87.263804
_cell_angle_gamma 90.000000
_cell_volume 452.766871
_symmetry_space_group_name_H-M "P 21"
_symmetry_group_IT_number 4
_symmetry_cell_setting 'monoclinic'
loop_
_space_group_symop_operation_xyz
x,y,z
-x,1/2+y,-z
loop_
_atom_site_type_symbol
_atom_site_label
_atom_site_fract_x
_atom_site_fract_y
_atom_site_fract_z
Si Si1 0.765840 0.882430 0.701837
Si Si2 0.429128 0.153073 0.138901
Si Si3 0.274170 0.038692 0.656283
Si Si4 0.083418 0.627428 0.108185
Si Si5 0.241554 0.583138 0.654728
Si Si6 0.885334 0.309650 0.582607
O O1 0.651258 0.787818 0.862944
O O2 0.937010 0.828637 0.567518
O O3 0.811270 0.996742 0.873132
O O4 0.691175 0.955800 0.458534
O O5 0.360555 0.107856 0.416217
O O6 0.630031 0.151954 0.167304
O O7 0.380950 0.065936 0.905855
O O8 0.239437 0.904715 0.539215
O O9 0.092949 0.094787 0.739481
O O10 0.085041 0.782080 0.120075
O O11 0.060998 0.599019 0.802822
O O12 0.204191 0.673590 0.417109
#
# Coordination Sequence:
#
# PCOD9117785 Si02
#       6
#     2   2   2   2   2   2
#     4  10  24  47  72 106 150 197 251 312 364 459
#     4  12  28  48  71 111 154 196 243 313 388 444
#     4  11  27  47  76 106 150 198 248 306 386 444
#     4  10  23  45  75 106 142 198 255 308 366 445
#     4  11  27  43  77 109 150 201 250 310 386 442
#     4  10  23  46  73 106 142 194 259 303 364 448
#
# _framework density 26.503703000000002
#
# number of rings (size 3 to 8) (size 9 to 14) (size 15 to 20)
#    0.000    1.333    1.667    1.000   16.333    1.333 
#    0.000    0.000    0.000    0.000    0.000    0.000 
#    0.000    0.000    0.000    0.000    0.000    0.000 
#
# Total GULP energy -66828.882344 kJ/mol
# GULP energy per Si atom -5569.073529 kJ/mol
# Density = 2.644338 g / cm^3
# Si number density = 26.503703 Si / 1000 Ang^3
#
#
#
# Elastic Constant Matrix: (Units=GPa)
#
#
# Indices 1 2 3 4 5 6 
#
# 1 54.6108 16.6916 -5.6247 0.0000 17.3581 0.0000
# 2 16.6916 101.1616 -2.6574 0.0000 0.3602 0.0000
# 3 -5.6247 -2.6574 87.0498 0.0000 -8.4796 0.0000
# 4 0.0000 0.0000 0.0000 45.3338 0.0000 -1.7165
# 5 17.3581 0.3602 -8.4796 0.0000 40.9099 0.0000
# 6 0.0000 0.0000 0.0000 -1.7165 0.0000 36.6461
#
#
#
# Elastic Compliance Matrix: (Units=1/GPa)
#
#
# Indices 1 2 3 4 5 6 
#
# 1 0.022466 -0.003662 0.000423 0.000000 -0.009412 0.000000
# 2 -0.003662 0.010490 0.000231 0.000000 0.001509 0.000000
# 3 0.000423 0.000231 0.011741 0.000000 0.002252 0.000000
# 4 0.000000 0.000000 0.000000 0.022098 0.000000 0.001035
# 5 -0.009412 0.001509 0.002252 0.000000 0.028891 0.000000
# 6 0.000000 0.000000 0.000000 0.001035 0.000000 0.027336
#
#
# Mechanical properties :
#
#
# Convention : Reuss Voigt Hill
#
# Bulk Modulus (GPa) = 25.85296 28.84902 27.35099
# Shear Modulus (GPa) = 35.22766 40.20547 37.71656
#
# Velocity S-wave (km/s) = 3.64972 3.89906 3.77645
# Velocity P-wave (km/s) = 5.24750 5.58380 5.41826
#
# Compressibility (1/GPa) = 0.03868029
#
# Stress axis : x y z
#
# Youngs Moduli (GPa) = 44.51157 95.32775 85.16851
#
# Poissons Ratio (x) = 0.34911 -0.03602
# Poissons Ratio (y) = 0.16301 -0.01964
# Poissons Ratio (z) = -0.01883 -0.02199
#
# Static dielectric constant tensor:
#      x y z
#    x 2.113250 0.000000 0.118170 
#    y 0.000000 2.152700 0.000000 
#    z 0.118170 0.000000 2.629120 
# 
# From -- ./inp_files/1309.got.cif
#   From: 2010.05.17/outbox.cif.g08.bks.cpg/sg4_1_cif.got.tgz:1309.got - 2010.06.03 18:43:04.
