data_PCOD9117877
_publ_section_title
;
Structure prediction by ZEFSAII (Michael W. Deem and Ramdas Pophale) SiO2 
 PCOD9117877
Probable space group: P 21
;
_chemical_formula_sum "Si O2"
_cell_formula_units_Z 14
_cell_length_a 5.908472
_cell_length_b 7.593008
_cell_length_c 13.043126
_cell_angle_alpha 90.000000
_cell_angle_beta 108.962212
_cell_angle_gamma 90.000000
_cell_volume 553.400203
_symmetry_space_group_name_H-M "P 21"
_symmetry_group_IT_number 4
_symmetry_cell_setting 'monoclinic'
loop_
_space_group_symop_operation_xyz
x,y,z
-x,1/2+y,-z
loop_
_atom_site_type_symbol
_atom_site_label
_atom_site_fract_x
_atom_site_fract_y
_atom_site_fract_z
Si Si1 0.995357 0.184740 0.859279
Si Si2 0.865213 0.676737 0.644513
Si Si3 0.300706 0.687651 0.854969
Si Si4 0.021525 0.891203 0.499381
Si Si5 0.569720 0.438993 0.734085
Si Si6 0.193134 0.137045 0.665139
Si Si7 0.285496 0.434631 0.044224
O O1 0.810738 0.343101 0.807622
O O2 0.131821 0.140816 0.774762
O O3 0.856515 0.015512 0.881456
O O4 0.164316 0.266756 0.971547
O O5 0.004936 0.536681 0.592880
O O6 0.637969 0.576254 0.655440
O O7 0.044729 0.716561 0.764088
O O8 0.831383 0.837109 0.560621
O O9 0.446599 0.549168 0.806237
O O10 0.454706 0.864481 0.887023
O O11 0.284501 0.593130 0.962247
O O12 0.036495 0.720270 0.428583
O O13 0.232955 0.958718 0.606438
O O14 0.401471 0.277356 0.677804
#
# Coordination Sequence:
#
# PCOD9117877 Si02
#       7
#     2   2   2   2   2   2   2
#     4  12  26  48  68 112 146 201 247 319 358 470
#     4  11  24  48  72 107 154 192 250 318 372 459
#     4  12  26  48  68 112 146 201 247 319 358 470
#     4  10  23  48  71 104 150 195 243 318 374 450
#     4  12  22  48  72 102 156 192 244 320 378 434
#     4  11  24  48  72 107 154 192 250 318 372 459
#     4  12  27  46  79 102 158 199 249 304 396 430
#
# _framework density 25.298148000000001
#
# number of rings (size 3 to 8) (size 9 to 14) (size 15 to 20)
#    0.000    0.571    5.714    1.714    4.000    0.000 
#   10.286    0.000    0.000    0.000    0.000    0.000 
#    0.000    0.000    0.000    0.000    0.000    0.000 
#
# Total GULP energy -78293.033780 kJ/mol
# GULP energy per Si atom -5592.359556 kJ/mol
# Density = 2.524057 g / cm^3
# Si number density = 25.298148 Si / 1000 Ang^3
#
#
#
# Elastic Constant Matrix: (Units=GPa)
#
#
# Indices 1 2 3 4 5 6 
#
# 1 87.2818 45.0369 48.3649 0.0000 -13.7716 0.0000
# 2 45.0369 83.2985 47.2650 0.0000 -16.2894 0.0000
# 3 48.3649 47.2650 96.6710 0.0000 -17.0878 0.0000
# 4 0.0000 0.0000 0.0000 47.9316 0.0000 -6.8204
# 5 -13.7716 -16.2894 -17.0878 0.0000 15.2063 0.0000
# 6 0.0000 0.0000 0.0000 -6.8204 0.0000 63.7173
#
#
#
# Elastic Compliance Matrix: (Units=1/GPa)
#
#
# Indices 1 2 3 4 5 6 
#
# 1 0.018193 -0.005948 -0.005500 0.000000 0.003924 0.000000
# 2 -0.005948 0.020119 -0.004996 0.000000 0.010551 0.000000
# 3 -0.005500 -0.004996 0.017111 0.000000 0.008895 0.000000
# 4 0.000000 0.000000 0.000000 0.021186 0.000000 0.002268
# 5 0.003924 0.010551 0.008895 0.000000 0.090614 0.000000
# 6 0.000000 0.000000 0.000000 0.002268 0.000000 0.015937
#
#
# Mechanical properties :
#
#
# Convention : Reuss Voigt Hill
#
# Bulk Modulus (GPa) = 44.37570 60.95386 52.66478
# Shear Modulus (GPa) = 22.36525 33.81002 28.08763
#
# Velocity S-wave (km/s) = 2.97655 3.65973 3.33568
# Velocity P-wave (km/s) = 5.42147 6.48110 5.97482
#
# Compressibility (1/GPa) = 0.02253485
#
# Stress axis : x y z
#
# Youngs Moduli (GPa) = 54.96484 49.70416 58.44148
#
# Poissons Ratio (x) = 0.29565 0.32145
# Poissons Ratio (y) = 0.32695 0.29196
# Poissons Ratio (z) = 0.30233 0.24831
#
# Static dielectric constant tensor:
#      x y z
#    x 1.995100 0.000000 0.047290 
#    y 0.000000 2.156490 0.000000 
#    z 0.047290 0.000000 1.993830 
# 
# From -- ./inp_files/3523.got.cif
#   From: 2010.05.17/outbox.cif.g08.bks.cpg/sg4_2_cif.got.tgz:3523.got - 2010.06.03 18:43:04.
