data_PCOD9117923
_publ_section_title
;
Structure prediction by ZEFSAII (Michael W. Deem and Ramdas Pophale) SiO2 
 PCOD9117923
Probable space group: P 21
;
_chemical_formula_sum "Si O2"
_cell_formula_units_Z 14
_cell_length_a 8.973554
_cell_length_b 13.530629
_cell_length_c 8.973261
_cell_angle_alpha 90.000000
_cell_angle_beta 29.981087
_cell_angle_gamma 90.000000
_cell_volume 544.445450
_symmetry_space_group_name_H-M "P 21"
_symmetry_group_IT_number 4
_symmetry_cell_setting 'monoclinic'
loop_
_space_group_symop_operation_xyz
x,y,z
-x,1/2+y,-z
loop_
_atom_site_type_symbol
_atom_site_label
_atom_site_fract_x
_atom_site_fract_y
_atom_site_fract_z
Si Si1 0.193136 0.271520 0.644602
Si Si2 0.793597 0.255634 0.721892
Si Si3 0.355115 0.934570 0.355097
Si Si4 0.355341 0.097664 0.806880
Si Si5 0.029589 0.434585 0.029560
Si Si6 0.278118 0.113512 0.206391
Si Si7 0.177507 0.684591 0.822515
O O1 0.543207 0.251209 0.361525
O O2 0.042390 0.298678 0.619111
O O3 0.108959 0.354473 0.836983
O O4 0.003921 0.174816 0.862068
O O5 0.637835 0.341426 0.761741
O O6 0.978154 0.177993 0.462033
O O7 0.537966 0.191148 0.021862
O O8 0.160333 0.900085 0.664325
O O9 0.238281 0.027705 0.362126
O O10 0.664327 0.969067 0.160310
O O11 0.638416 0.117975 0.456800
O O12 0.380878 0.070498 0.957585
O O13 0.162958 0.014711 0.891070
O O14 0.137868 0.194364 0.996109
#
# Coordination Sequence:
#
# PCOD9117923 Si02
#       7
#     2   2   2   2   2   2   2
#     4  11  25  45  70 103 143 191 235 300 367 435
#     4  12  28  47  77 106 153 197 243 304 384 438
#     4  12  29  48  69 118 146 192 254 312 363 456
#     4  11  25  45  70 103 143 191 235 300 367 435
#     4  12  27  44  77 100 154 186 246 312 367 422
#     4  12  28  47  77 106 153 197 243 304 384 438
#     4  10  24  38  74  98 138 168 254 280 346 434
#
# _framework density 25.714238000000002
#
# number of rings (size 3 to 8) (size 9 to 14) (size 15 to 20)
#    0.000    0.571    0.000    6.000   24.000    0.000 
#    0.000    8.571    0.000    0.000    0.000    0.000 
#    0.000    0.000    0.000    0.000    0.000    0.000 
#
# Total GULP energy -78127.516078 kJ/mol
# GULP energy per Si atom -5580.536863 kJ/mol
# Density = 2.565571 g / cm^3
# Si number density = 25.714238 Si / 1000 Ang^3
#
#
#
# Elastic Constant Matrix: (Units=GPa)
#
#
# Indices 1 2 3 4 5 6 
#
# 1 116.6948 21.4168 -2.2925 0.0000 26.3472 0.0000
# 2 21.4168 84.0046 -11.3600 0.0000 9.4566 0.0000
# 3 -2.2925 -11.3600 96.7966 0.0000 -20.6489 0.0000
# 4 0.0000 0.0000 0.0000 30.6135 0.0000 2.3034
# 5 26.3472 9.4566 -20.6489 0.0000 27.3363 0.0000
# 6 0.0000 0.0000 0.0000 2.3034 0.0000 38.5986
#
#
#
# Elastic Compliance Matrix: (Units=1/GPa)
#
#
# Indices 1 2 3 4 5 6 
#
# 1 0.011722 -0.001924 -0.002642 0.000000 -0.012627 0.000000
# 2 -0.001924 0.012736 0.001079 0.000000 -0.001737 0.000000
# 3 -0.002642 0.001079 0.012944 0.000000 0.011951 0.000000
# 4 0.000000 0.000000 0.000000 0.032813 0.000000 -0.001958
# 5 -0.012627 -0.001737 0.011951 0.000000 0.058380 0.000000
# 6 0.000000 0.000000 0.000000 -0.001958 0.000000 0.026025
#
#
# Mechanical properties :
#
#
# Convention : Reuss Voigt Hill
#
# Bulk Modulus (GPa) = 32.86537 34.78052 33.82294
# Shear Modulus (GPa) = 29.11437 38.62511 33.86974
#
# Velocity S-wave (km/s) = 3.36851 3.87989 3.63321
# Velocity P-wave (km/s) = 5.28563 5.79884 5.54817
#
# Compressibility (1/GPa) = 0.03042717
#
# Stress axis : x y z
#
# Youngs Moduli (GPa) = 85.31254 78.51745 77.25357
#
# Poissons Ratio (x) = 0.15108 0.20410
# Poissons Ratio (y) = 0.16415 -0.08333
# Poissons Ratio (z) = 0.22539 -0.08469
#
# Static dielectric constant tensor:
#      x y z
#    x 2.032670 0.000000 0.004360 
#    y 0.000000 2.494860 0.000000 
#    z 0.004360 0.000000 2.017560 
# 
# From -- ./inp_files/6521.got.cif
#   From: 2010.05.17/outbox.cif.g08.bks.cpg/sg4_4_cif.got.tgz:6521.got - 2010.06.03 18:43:04.
