data_PCOD9117670
_publ_section_title
;
Structure prediction by ZEFSAII (Michael W. Deem and Ramdas Pophale) SiO2 
 PCOD9117670
Probable space group: P 21
;
_chemical_formula_sum "Si O2"
_cell_formula_units_Z 16
_cell_length_a 22.746723
_cell_length_b 5.119564
_cell_length_c 12.087810
_cell_angle_alpha 90.000000
_cell_angle_beta 27.593688
_cell_angle_gamma 90.000000
_cell_volume 652.028373
_symmetry_space_group_name_H-M "P 21"
_symmetry_group_IT_number 4
_symmetry_cell_setting 'monoclinic'
loop_
_space_group_symop_operation_xyz
x,y,z
-x,1/2+y,-z
loop_
_atom_site_type_symbol
_atom_site_label
_atom_site_fract_x
_atom_site_fract_y
_atom_site_fract_z
Si Si1 0.204959 0.389930 0.466634
Si Si2 0.594065 0.782246 0.681777
Si Si3 0.124563 0.130671 0.198414
Si Si4 0.268017 0.118116 0.754957
Si Si5 0.998146 0.681060 0.926075
Si Si6 0.565565 0.783129 0.071033
Si Si7 0.480074 0.767110 0.456632
Si Si8 0.037409 0.126032 0.579834
O O1 0.287263 0.315302 0.435728
O O2 0.121517 0.636141 0.643515
O O3 0.101933 0.191865 0.587656
O O4 0.308402 0.393623 0.196303
O O5 0.642428 0.788060 0.474304
O O6 0.539396 0.494649 0.788689
O O7 0.486210 0.000333 0.881225
O O8 0.133024 0.154900 0.316098
O O9 0.018775 0.339448 0.338078
O O10 0.242609 0.195741 0.923997
O O11 0.072811 0.840994 0.257163
O O12 0.338710 0.840321 0.647023
O O13 0.130486 0.121513 0.927024
O O14 0.007638 0.459545 0.005286
O O15 0.565697 0.769494 0.203616
O O16 0.487874 0.510204 0.516890
#
# Coordination Sequence:
#
# PCOD9117670 Si02
#       8
#     2   2   2   2   2   2   2   2
#     4  12  26  46  76 103 150 183 247 298 361 443
#     4  11  26  46  73 102 142 193 240 303 357 431
#     4  10  23  44  64  97 144 181 233 274 372 415
#     4  11  25  47  76 104 148 190 239 311 357 443
#     4  12  29  46  73 115 149 193 241 299 380 444
#     4  11  27  49  70 106 141 193 248 295 370 419
#     4  11  26  48  73 104 142 193 247 300 359 422
#     4  10  24  42  63 101 138 188 223 292 346 441
#
# _framework density 24.538812
#
# number of rings (size 3 to 8) (size 9 to 14) (size 15 to 20)
#    0.000    1.000    2.500    2.250    7.000    7.000 
#    4.500    0.000    0.000    0.000    0.000    0.000 
#    0.000    0.000    0.000    0.000    0.000    0.000 
#
# Total GULP energy -89546.226414 kJ/mol
# GULP energy per Si atom -5596.639151 kJ/mol
# Density = 2.448296 g / cm^3
# Si number density = 24.538812 Si / 1000 Ang^3
#
#
#
# Elastic Constant Matrix: (Units=GPa)
#
#
# Indices 1 2 3 4 5 6 
#
# 1 105.9797 22.1334 7.7734 0.0000 12.2830 0.0000
# 2 22.1334 75.1397 2.4594 0.0000 14.0191 0.0000
# 3 7.7734 2.4594 126.6622 0.0000 32.1457 0.0000
# 4 0.0000 0.0000 0.0000 13.7945 0.0000 2.6978
# 5 12.2830 14.0191 32.1457 0.0000 46.2117 0.0000
# 6 0.0000 0.0000 0.0000 2.6978 0.0000 24.1841
#
#
#
# Elastic Compliance Matrix: (Units=1/GPa)
#
#
# Indices 1 2 3 4 5 6 
#
# 1 0.010212 -0.002663 -0.000111 0.000000 -0.001829 0.000000
# 2 -0.002663 0.014904 0.001022 0.000000 -0.004525 0.000000
# 3 -0.000111 0.001022 0.009658 0.000000 -0.006999 0.000000
# 4 0.000000 0.000000 0.000000 0.074109 0.000000 -0.008267
# 5 -0.001829 -0.004525 -0.006999 0.000000 0.028367 0.000000
# 6 0.000000 0.000000 0.000000 -0.008267 0.000000 0.042272
#
#
# Mechanical properties :
#
#
# Convention : Reuss Voigt Hill
#
# Bulk Modulus (GPa) = 31.97844 41.39044 36.68444
# Shear Modulus (GPa) = 25.84660 35.19910 30.52285
#
# Velocity S-wave (km/s) = 3.24897 3.79149 3.53067
# Velocity P-wave (km/s) = 5.20908 6.00593 5.62164
#
# Compressibility (1/GPa) = 0.03127107
#
# Stress axis : x y z
#
# Youngs Moduli (GPa) = 97.92300 67.09729 103.53789
#
# Poissons Ratio (x) = 0.17869 0.01146
# Poissons Ratio (y) = 0.26079 -0.10585
# Poissons Ratio (z) = 0.01084 -0.06860
#
# Static dielectric constant tensor:
#      x y z
#    x 1.946440 0.000000 -0.007560 
#    y 0.000000 1.877440 0.000000 
#    z -0.007560 0.000000 2.011390 
# 
# From -- ./inp_files/13087.got.cif
#   From: 2010.05.17/outbox.cif.g08.bks.cpg/sg4_7_cif.got.tgz:13087.got - 2010.06.03 18:43:04.
