data_PCOD9117031
_publ_section_title
;
Structure prediction by ZEFSAII (Michael W. Deem and Ramdas Pophale) SiO2 
 PCOD9117031
Probable space group: P 21
;
_chemical_formula_sum "Si O2"
_cell_formula_units_Z 14
_cell_length_a 7.005510
_cell_length_b 5.276004
_cell_length_c 16.271418
_cell_angle_alpha 90.000000
_cell_angle_beta 77.352589
_cell_angle_gamma 90.000000
_cell_volume 586.816840
_symmetry_space_group_name_H-M "P 21"
_symmetry_group_IT_number 4
_symmetry_cell_setting 'monoclinic'
loop_
_space_group_symop_operation_xyz
x,y,z
-x,1/2+y,-z
loop_
_atom_site_type_symbol
_atom_site_label
_atom_site_fract_x
_atom_site_fract_y
_atom_site_fract_z
Si Si1 0.861445 0.502810 0.616322
Si Si2 0.827501 0.305730 0.328363
Si Si3 0.819727 0.116362 0.739027
Si Si4 0.210402 0.764045 0.916772
Si Si5 0.372982 0.117154 0.521841
Si Si6 0.035477 0.771634 0.104782
Si Si7 0.485998 0.228568 0.240537
O O1 0.871406 0.211861 0.642179
O O2 0.783967 0.584423 0.536051
O O3 0.693158 0.582314 0.699197
O O4 0.072176 0.621582 0.615032
O O5 0.718731 0.537281 0.383117
O O6 0.667873 0.187213 0.284157
O O7 0.016477 0.400700 0.262159
O O8 0.863930 0.279155 0.815410
O O9 0.602072 0.012006 0.754319
O O10 0.422237 0.701090 0.858191
O O11 0.075288 0.534502 0.898443
O O12 0.194489 0.753937 0.016737
O O13 0.116693 0.034242 0.895256
O O14 0.530125 0.892197 0.489856
#
# Coordination Sequence:
#
# PCOD9117031 Si02
#       7
#     2   2   2   2   2   2   2
#     4  11  27  43  70 103 135 181 234 278 343 412
#     4  11  25  45  72  95 141 181 225 283 343 402
#     4  11  25  42  71 101 136 181 234 279 341 414
#     4  10  22  42  72  97 141 182 227 281 345 403
#     4  12  28  47  72 104 141 180 230 286 342 408
#     4  10  22  43  68 104 135 184 229 279 342 411
#     4  11  23  46  67 102 135 183 225 284 340 406
#
# _framework density 23.857531999999999
#
# number of rings (size 3 to 8) (size 9 to 14) (size 15 to 20)
#    0.000    1.143    2.857    1.714   10.000    2.286 
#    2.571    0.000    0.000    0.000    0.000    0.000 
#    0.000    0.000    0.000    0.000    0.000    0.000 
#
# Total GULP energy -78159.507476 kJ/mol
# GULP energy per Si atom -5582.821963 kJ/mol
# Density = 2.380323 g / cm^3
# Si number density = 23.857532 Si / 1000 Ang^3
#
#
#
# Elastic Constant Matrix: (Units=GPa)
#
#
# Indices 1 2 3 4 5 6 
#
# 1 89.9273 11.6432 9.1080 0.0000 0.9755 0.0000
# 2 11.6432 62.7541 -3.3088 0.0000 -0.1841 0.0000
# 3 9.1080 -3.3088 66.9090 0.0000 -4.7528 0.0000
# 4 0.0000 0.0000 0.0000 31.2748 0.0000 -1.2679
# 5 0.9755 -0.1841 -4.7528 0.0000 50.4817 0.0000
# 6 0.0000 0.0000 0.0000 -1.2679 0.0000 35.5061
#
#
#
# Elastic Compliance Matrix: (Units=1/GPa)
#
#
# Indices 1 2 3 4 5 6 
#
# 1 0.011588 -0.002242 -0.001716 0.000000 -0.000394 0.000000
# 2 -0.002242 0.016411 0.001132 0.000000 0.000210 0.000000
# 3 -0.001716 0.001132 0.015341 0.000000 0.001482 0.000000
# 4 0.000000 0.000000 0.000000 0.032021 0.000000 0.001143
# 5 -0.000394 0.000210 0.001482 0.000000 0.019957 0.000000
# 6 0.000000 0.000000 0.000000 0.001143 0.000000 0.028205
#
#
# Mechanical properties :
#
#
# Convention : Reuss Voigt Hill
#
# Bulk Modulus (GPa) = 26.53396 28.27503 27.40449
# Shear Modulus (GPa) = 35.27619 36.92906 36.10262
#
# Velocity S-wave (km/s) = 3.84945 3.93860 3.89428
# Velocity P-wave (km/s) = 5.55911 5.70621 5.63314
#
# Compressibility (1/GPa) = 0.03768755
#
# Stress axis : x y z
#
# Youngs Moduli (GPa) = 86.29285 60.93317 65.18691
#
# Poissons Ratio (x) = 0.13660 0.11188
# Poissons Ratio (y) = 0.19345 -0.07377
# Poissons Ratio (z) = 0.14810 -0.06895
#
# Static dielectric constant tensor:
#      x y z
#    x 1.869390 0.000000 -0.028760 
#    y 0.000000 2.120700 0.000000 
#    z -0.028760 0.000000 1.926850 
# 
# From -- ./inp_files/3843.got.cif
#   From: 2010.05.17/outbox.cif.g08.bks.cpg/sg4_2_cif.got.tgz:3843.got - 2010.06.03 18:43:04.
