data_PCOD9117260
_publ_section_title
;
Structure prediction by ZEFSAII (Michael W. Deem and Ramdas Pophale) SiO2 
 PCOD9117260
Probable space group: P 21
;
_chemical_formula_sum "Si O2"
_cell_formula_units_Z 16
_cell_length_a 9.984434
_cell_length_b 11.834070
_cell_length_c 7.287923
_cell_angle_alpha 90.000000
_cell_angle_beta 47.490483
_cell_angle_gamma 90.000000
_cell_volume 634.784233
_symmetry_space_group_name_H-M "P 21"
_symmetry_group_IT_number 4
_symmetry_cell_setting 'monoclinic'
loop_
_space_group_symop_operation_xyz
x,y,z
-x,1/2+y,-z
loop_
_atom_site_type_symbol
_atom_site_label
_atom_site_fract_x
_atom_site_fract_y
_atom_site_fract_z
Si Si1 0.919802 0.935390 0.300860
Si Si2 0.341375 0.641141 0.336072
Si Si3 0.138938 0.325340 0.283633
Si Si4 0.247409 0.082204 0.119860
Si Si5 0.684971 0.927889 0.198759
Si Si6 0.781204 0.159787 0.970549
Si Si7 0.865276 0.515791 0.395908
Si Si8 0.673486 0.338584 0.353769
O O1 0.872518 0.906398 0.135366
O O2 0.782289 0.037517 0.481743
O O3 0.246516 0.774694 0.894711
O O4 0.118219 0.986916 0.154770
O O5 0.553188 0.603829 0.144039
O O6 0.282226 0.667370 0.181056
O O7 0.309323 0.748972 0.494853
O O8 0.135181 0.337347 0.505496
O O9 0.983712 0.412955 0.370406
O O10 0.130585 0.198058 0.223495
O O11 0.309540 0.375051 0.010741
O O12 0.264749 0.055955 0.320457
O O13 0.538544 0.867353 0.459962
O O14 0.668091 0.061300 0.179768
O O15 0.986608 0.111089 0.788637
O O16 0.755099 0.458791 0.336579
#
# Coordination Sequence:
#
# PCOD9117260 Si02
#       8
#     2   2   2   2   2   2   2   2
#     4  11  24  47  68 106 153 188 248 312 379 454
#     4  12  23  47  79 105 148 194 258 308 379 456
#     4  10  22  45  68 102 143 196 242 306 376 442
#     4  11  23  45  79 105 145 210 241 310 387 439
#     4  11  23  46  70 107 150 187 252 316 366 454
#     4  11  25  50  73 108 155 201 254 322 377 458
#     4  10  24  47  73 108 157 195 254 314 378 457
#     4  12  26  47  76 113 149 201 261 316 382 452
#
# _framework density 25.205416
#
# number of rings (size 3 to 8) (size 9 to 14) (size 15 to 20)
#    0.000    1.000    6.250    1.500    1.750    0.000 
#    9.000    3.750    0.000    0.000    0.000    0.000 
#    0.000    0.000    0.000    0.000    0.000    0.000 
#
# Total GULP energy -89592.119834 kJ/mol
# GULP energy per Si atom -5599.507490 kJ/mol
# Density = 2.514805 g / cm^3
# Si number density = 25.205416 Si / 1000 Ang^3
#
#
#
# Elastic Constant Matrix: (Units=GPa)
#
#
# Indices 1 2 3 4 5 6 
#
# 1 78.0415 20.6022 42.3290 0.0000 10.9706 0.0000
# 2 20.6022 129.6608 45.6063 0.0000 4.5471 0.0000
# 3 42.3290 45.6063 113.9890 0.0000 3.6927 0.0000
# 4 0.0000 0.0000 0.0000 55.4286 0.0000 9.0874
# 5 10.9706 4.5471 3.6927 0.0000 46.4869 0.0000
# 6 0.0000 0.0000 0.0000 9.0874 0.0000 28.1511
#
#
#
# Elastic Compliance Matrix: (Units=1/GPa)
#
#
# Indices 1 2 3 4 5 6 
#
# 1 0.016597 -0.000452 -0.005872 0.000000 -0.003406 0.000000
# 2 -0.000452 0.009004 -0.003418 0.000000 -0.000502 0.000000
# 3 -0.005872 -0.003418 0.012297 0.000000 0.000743 0.000000
# 4 0.000000 0.000000 0.000000 0.019049 0.000000 -0.006149
# 5 -0.003406 -0.000502 0.000743 0.000000 0.022305 0.000000
# 6 0.000000 0.000000 0.000000 -0.006149 0.000000 0.037508
#
#
# Mechanical properties :
#
#
# Convention : Reuss Voigt Hill
#
# Bulk Modulus (GPa) = 54.30960 59.86290 57.08625
# Shear Modulus (GPa) = 35.11667 40.22359 37.67013
#
# Velocity S-wave (km/s) = 3.73663 3.99912 3.87010
# Velocity P-wave (km/s) = 6.34115 6.71755 6.53206
#
# Compressibility (1/GPa) = 0.01841295
#
# Stress axis : x y z
#
# Youngs Moduli (GPa) = 60.25299 111.05853 81.32220
#
# Poissons Ratio (x) = 0.05024 0.47750
# Poissons Ratio (y) = 0.02726 0.27798
# Poissons Ratio (z) = 0.35379 0.37963
#
# Static dielectric constant tensor:
#      x y z
#    x 2.003230 0.000000 -0.005770 
#    y 0.000000 1.966140 0.000000 
#    z -0.005770 0.000000 2.028700 
# 
# From -- ./inp_files/8430.got.cif
#   From: 2010.05.17/outbox.cif.g08.bks.cpg/sg4_5_cif.got.tgz:8430.got - 2010.06.03 18:43:04.
