data_PCOD9117653
_publ_section_title
;
Structure prediction by ZEFSAII (Michael W. Deem and Ramdas Pophale) SiO2 
 PCOD9117653
Probable space group: P 21
;
_chemical_formula_sum "Si O2"
_cell_formula_units_Z 16
_cell_length_a 9.482728
_cell_length_b 5.452053
_cell_length_c 12.458726
_cell_angle_alpha 90.000000
_cell_angle_beta 91.257312
_cell_angle_gamma 90.000000
_cell_volume 643.965234
_symmetry_space_group_name_H-M "P 21"
_symmetry_group_IT_number 4
_symmetry_cell_setting 'monoclinic'
loop_
_space_group_symop_operation_xyz
x,y,z
-x,1/2+y,-z
loop_
_atom_site_type_symbol
_atom_site_label
_atom_site_fract_x
_atom_site_fract_y
_atom_site_fract_z
Si Si1 0.175741 0.157790 0.616785
Si Si2 0.112401 0.360345 0.402074
Si Si3 0.408083 0.904932 0.498862
Si Si4 0.375883 0.791880 0.915160
Si Si5 0.011967 0.484764 0.746721
Si Si6 0.537222 0.791583 0.133388
Si Si7 0.934487 0.259370 0.042643
Si Si8 0.731032 0.227860 0.722412
O O1 0.190308 0.340643 0.515895
O O2 0.301306 0.966883 0.596209
O O3 0.145615 0.314995 0.722774
O O4 0.021066 0.039856 0.597591
O O5 0.041793 0.109907 0.362776
O O6 0.222433 0.458413 0.315845
O O7 0.504675 0.150486 0.487285
O O8 0.316352 0.865192 0.388442
O O9 0.403978 0.559838 0.840386
O O10 0.232131 0.751657 0.976550
O O11 0.368081 0.050722 0.855545
O O12 0.499864 0.810650 0.005602
O O13 0.872013 0.337912 0.778910
O O14 0.044897 0.696380 0.831438
O O15 0.399617 0.739795 0.200917
O O16 0.994516 0.525412 0.014220
#
# Coordination Sequence:
#
# PCOD9117653 Si02
#       8
#     2   2   2   2   2   2   2   2
#     4  11  22  44  69 103 146 182 242 306 346 444
#     4  11  21  41  73 103 137 183 242 305 357 420
#     4  12  28  46  68 102 150 199 236 297 369 428
#     4  10  23  45  68 103 136 181 233 285 366 402
#     4  11  26  42  78 105 136 198 240 299 378 416
#     4  10  23  43  73  95 137 186 231 289 337 438
#     4  12  28  49  73 107 151 180 239 311 360 426
#     4  11  25  44  70 104 137 187 253 290 355 446
#
# _framework density 24.846060000000001
#
# number of rings (size 3 to 8) (size 9 to 14) (size 15 to 20)
#    0.000    1.000    2.500    3.000    8.750    2.000 
#    2.250    0.000    0.000    0.000    0.000    0.000 
#    0.000    0.000    0.000    0.000    0.000    0.000 
#
# Total GULP energy -89476.449539 kJ/mol
# GULP energy per Si atom -5592.278096 kJ/mol
# Density = 2.478951 g / cm^3
# Si number density = 24.846060 Si / 1000 Ang^3
#
#
#
# Elastic Constant Matrix: (Units=GPa)
#
#
# Indices 1 2 3 4 5 6 
#
# 1 70.3979 48.3635 18.8480 0.0000 -4.5933 0.0000
# 2 48.3635 138.2462 16.0279 0.0000 -7.6358 0.0000
# 3 18.8480 16.0279 62.3383 0.0000 -11.5180 0.0000
# 4 0.0000 0.0000 0.0000 38.3824 0.0000 0.0448
# 5 -4.5933 -7.6358 -11.5180 0.0000 42.8738 0.0000
# 6 0.0000 0.0000 0.0000 0.0448 0.0000 42.9476
#
#
#
# Elastic Compliance Matrix: (Units=1/GPa)
#
#
# Indices 1 2 3 4 5 6 
#
# 1 0.019772 -0.006422 -0.004363 0.000000 -0.000198 0.000000
# 2 -0.006422 0.009572 -0.000349 0.000000 0.000923 0.000000
# 3 -0.004363 -0.000349 0.018259 0.000000 0.004376 0.000000
# 4 0.000000 0.000000 0.000000 0.026054 0.000000 -0.000027
# 5 -0.000198 0.000923 0.004376 0.000000 0.024643 0.000000
# 6 0.000000 0.000000 0.000000 -0.000027 0.000000 0.023284
#
#
# Mechanical properties :
#
#
# Convention : Reuss Voigt Hill
#
# Bulk Modulus (GPa) = 39.47230 48.60679 44.03955
# Shear Modulus (GPa) = 32.83059 37.35695 35.09377
#
# Velocity S-wave (km/s) = 3.63900 3.88175 3.76233
# Velocity P-wave (km/s) = 5.79462 6.30050 6.05285
#
# Compressibility (1/GPa) = 0.02533422
#
# Stress axis : x y z
#
# Youngs Moduli (GPa) = 50.57576 104.47622 54.76776
#
# Poissons Ratio (x) = 0.67096 0.23898
# Poissons Ratio (y) = 0.32480 0.01910
# Poissons Ratio (z) = 0.22069 0.03643
#
# Static dielectric constant tensor:
#      x y z
#    x 1.955740 0.000000 0.017530 
#    y 0.000000 2.025430 0.000000 
#    z 0.017530 0.000000 1.990640 
# 
# From -- ./inp_files/10732.got.cif
#   From: 2010.05.17/outbox.cif.g08.bks.cpg/sg4_6_cif.got.tgz:10732.got - 2010.06.03 18:43:04.
