data_PCOD9117554
_publ_section_title
;
Structure prediction by ZEFSAII (Michael W. Deem and Ramdas Pophale) SiO2 
 PCOD9117554
Probable space group: P 21
;
_chemical_formula_sum "Si O2"
_cell_formula_units_Z 16
_cell_length_a 9.625079
_cell_length_b 8.246114
_cell_length_c 16.625433
_cell_angle_alpha 90.000000
_cell_angle_beta 32.088935
_cell_angle_gamma 90.000000
_cell_volume 700.992321
_symmetry_space_group_name_H-M "P 21"
_symmetry_group_IT_number 4
_symmetry_cell_setting 'monoclinic'
loop_
_space_group_symop_operation_xyz
x,y,z
-x,1/2+y,-z
loop_
_atom_site_type_symbol
_atom_site_label
_atom_site_fract_x
_atom_site_fract_y
_atom_site_fract_z
Si Si1 0.178744 0.464110 0.957157
Si Si2 0.863358 0.952005 0.432681
Si Si3 0.659965 0.629230 0.743411
Si Si4 0.040137 0.603934 0.789796
Si Si5 0.646249 0.846902 0.907909
Si Si6 0.897195 0.201868 0.782903
Si Si7 0.618739 0.302396 0.269881
Si Si8 0.064858 0.293785 0.867397
O O1 0.904368 0.377066 0.110557
O O2 0.082142 0.651585 0.012693
O O3 0.449846 0.488830 0.871252
O O4 0.266448 0.368991 0.832679
O O5 0.569539 0.943882 0.606868
O O6 0.959994 0.768365 0.366002
O O7 0.890066 0.033439 0.331772
O O8 0.058423 0.045180 0.396371
O O9 0.662777 0.761724 0.812527
O O10 0.548837 0.712577 0.717420
O O11 0.302934 0.676401 0.699133
O O12 0.937753 0.467854 0.903072
O O13 0.825069 0.740544 0.879995
O O14 0.767638 0.025433 0.843421
O O15 0.347021 0.822807 0.080656
O O16 0.091189 0.215567 0.765444
#
# Coordination Sequence:
#
# PCOD9117554 Si02
#       8
#     2   2   2   2   2   2   2   2
#     4  12  22  40  71 101 138 171 235 284 347 400
#     4  10  27  46  66  98 142 184 229 283 350 424
#     4  11  24  48  65 102 140 177 238 288 348 414
#     4  10  23  42  68  98 138 176 231 283 342 414
#     4  11  22  40  71 101 133 179 232 295 333 410
#     4  11  22  40  66  97 137 179 235 278 351 401
#     4  12  25  46  70 101 139 186 228 287 355 416
#     4  11  21  40  63 106 129 180 224 296 332 405
#
# _framework density 22.824787000000001
#
# number of rings (size 3 to 8) (size 9 to 14) (size 15 to 20)
#    0.000    1.000    3.750    3.000    1.750    4.000 
#    6.750    2.500    0.000    0.000    0.000    0.000 
#    0.000    0.000    0.000    0.000    0.000    0.000 
#
# Total GULP energy -89088.709539 kJ/mol
# GULP energy per Si atom -5568.044346 kJ/mol
# Density = 2.277284 g / cm^3
# Si number density = 22.824787 Si / 1000 Ang^3
#
#
#
# Elastic Constant Matrix: (Units=GPa)
#
#
# Indices 1 2 3 4 5 6 
#
# 1 125.4241 52.5122 16.6141 0.0000 -21.0513 0.0000
# 2 52.5122 63.9883 5.2082 0.0000 -12.4701 0.0000
# 3 16.6141 5.2082 68.8943 0.0000 -12.5890 0.0000
# 4 0.0000 0.0000 0.0000 26.8390 0.0000 -6.1732
# 5 -21.0513 -12.4701 -12.5890 0.0000 20.9023 0.0000
# 6 0.0000 0.0000 0.0000 -6.1732 0.0000 39.6543
#
#
#
# Elastic Compliance Matrix: (Units=1/GPa)
#
#
# Indices 1 2 3 4 5 6 
#
# 1 0.013247 -0.009408 -0.001204 0.000000 0.007004 0.000000
# 2 -0.009408 0.024393 0.001520 0.000000 0.005993 0.000000
# 3 -0.001204 0.001520 0.016444 0.000000 0.009599 0.000000
# 4 0.000000 0.000000 0.000000 0.038643 0.000000 0.006016
# 5 0.007004 0.005993 0.009599 0.000000 0.064251 0.000000
# 6 0.000000 0.000000 0.000000 0.006016 0.000000 0.026154
#
#
# Mechanical properties :
#
#
# Convention : Reuss Voigt Hill
#
# Bulk Modulus (GPa) = 27.85502 45.21952 36.53727
# Shear Modulus (GPa) = 23.44297 29.74394 26.59345
#
# Velocity S-wave (km/s) = 3.20829 3.61382 3.41708
# Velocity P-wave (km/s) = 5.09456 6.10471 5.62237
#
# Compressibility (1/GPa) = 0.03590017
#
# Stress axis : x y z
#
# Youngs Moduli (GPa) = 75.48939 40.99542 60.81140
#
# Poissons Ratio (x) = 0.38570 0.07319
# Poissons Ratio (y) = 0.71023 -0.09242
# Poissons Ratio (z) = 0.09085 -0.06231
#
# Static dielectric constant tensor:
#      x y z
#    x 1.919780 0.000000 0.053040 
#    y 0.000000 1.919170 0.000000 
#    z 0.053040 0.000000 1.876430 
# 
# From -- ./inp_files/14937.got.cif
#   From: 2010.05.17/outbox.cif.g08.bks.cpg/sg4_8_cif.got.tgz:14937.got - 2010.06.03 18:43:04.
