data_PCOD9117476
_publ_section_title
;
Structure prediction by ZEFSAII (Michael W. Deem and Ramdas Pophale) SiO2 
 PCOD9117476
Probable space group: P 21
;
_chemical_formula_sum "Si O2"
_cell_formula_units_Z 16
_cell_length_a 10.609112
_cell_length_b 9.007002
_cell_length_c 11.143395
_cell_angle_alpha 90.000000
_cell_angle_beta 41.785983
_cell_angle_gamma 90.000000
_cell_volume 709.543898
_symmetry_space_group_name_H-M "P 21"
_symmetry_group_IT_number 4
_symmetry_cell_setting 'monoclinic'
loop_
_space_group_symop_operation_xyz
x,y,z
-x,1/2+y,-z
loop_
_atom_site_type_symbol
_atom_site_label
_atom_site_fract_x
_atom_site_fract_y
_atom_site_fract_z
Si Si1 0.338846 0.347270 0.546305
Si Si2 0.085143 0.838037 0.560941
Si Si3 0.389531 0.597685 0.318793
Si Si4 0.679244 0.602682 0.632066
Si Si5 0.214099 0.805288 0.745328
Si Si6 0.918698 0.982832 0.069952
Si Si7 0.362722 0.340037 0.152678
Si Si8 0.613073 0.868843 0.138375
O O1 0.344402 0.499384 0.466513
O O2 0.266784 0.218415 0.508799
O O3 0.557627 0.306158 0.417742
O O4 0.194444 0.377160 0.756327
O O5 0.213769 0.706663 0.415619
O O6 0.143469 0.832662 0.659900
O O7 0.863894 0.822094 0.698004
O O8 0.148342 0.995061 0.459381
O O9 0.417994 0.482697 0.191093
O O10 0.568137 0.704134 0.214977
O O11 0.585072 0.695348 0.806784
O O12 0.523808 0.484997 0.698691
O O13 0.125620 0.650077 0.857434
O O14 0.132559 0.931874 0.893372
O O15 0.815452 0.938510 0.018779
O O16 0.437144 0.357092 0.966058
#
# Coordination Sequence:
#
# PCOD9117476 Si02
#       8
#     2   2   2   2   2   2   2   2
#     4  11  24  44  68  96 138 177 228 278 338 405
#     4  11  22  41  64  93 132 174 220 276 340 397
#     4  10  23  41  66  93 128 178 223 274 337 405
#     4  10  23  41  66  93 128 178 223 274 337 405
#     4  12  27  43  68 103 139 179 228 280 344 411
#     4  12  27  43  68 103 139 179 228 280 344 411
#     4  11  22  40  64  96 130 167 226 278 340 403
#     4  11  22  41  64  93 132 174 220 276 340 397
#
# _framework density 22.549695
#
# number of rings (size 3 to 8) (size 9 to 14) (size 15 to 20)
#    0.000    1.000    3.750    3.000    3.500    0.000 
#    0.000    0.000    0.000    0.000    0.000    0.000 
#    0.000    0.000    0.000    0.000    0.000    0.000 
#
# Total GULP energy -89411.296878 kJ/mol
# GULP energy per Si atom -5588.206055 kJ/mol
# Density = 2.249837 g / cm^3
# Si number density = 22.549695 Si / 1000 Ang^3
#
#
#
# Elastic Constant Matrix: (Units=GPa)
#
#
# Indices 1 2 3 4 5 6 
#
# 1 24.0906 9.2854 -7.8797 0.0000 9.8192 0.0000
# 2 9.2854 137.6860 21.1369 0.0000 13.9661 0.0000
# 3 -7.8797 21.1369 65.5602 0.0000 12.2440 0.0000
# 4 0.0000 0.0000 0.0000 24.9622 0.0000 2.8106
# 5 9.8192 13.9661 12.2440 0.0000 36.6266 0.0000
# 6 0.0000 0.0000 0.0000 2.8106 0.0000 20.8816
#
#
#
# Elastic Compliance Matrix: (Units=1/GPa)
#
#
# Indices 1 2 3 4 5 6 
#
# 1 0.053016 -0.003535 0.010575 0.000000 -0.016400 0.000000
# 2 -0.003535 0.008051 -0.002799 0.000000 -0.001187 0.000000
# 3 0.010575 -0.002799 0.018939 0.000000 -0.008099 0.000000
# 4 0.000000 0.000000 0.000000 0.040677 0.000000 -0.005475
# 5 -0.016400 -0.001187 -0.008099 0.000000 0.034859 0.000000
# 6 0.000000 0.000000 0.000000 -0.005475 0.000000 0.048626
#
#
# Mechanical properties :
#
#
# Convention : Reuss Voigt Hill
#
# Bulk Modulus (GPa) = 11.30107 30.26911 20.78509
# Shear Modulus (GPa) = 22.20413 30.14704 26.17558
#
# Velocity S-wave (km/s) = 3.14136 3.66035 3.41074
# Velocity P-wave (km/s) = 4.26380 5.59613 4.97477
#
# Compressibility (1/GPa) = 0.08848723
#
# Stress axis : x y z
#
# Youngs Moduli (GPa) = 18.86225 124.20239 52.80080
#
# Poissons Ratio (x) = 0.43908 -0.55835
# Poissons Ratio (y) = 0.06668 0.14779
# Poissons Ratio (z) = -0.19946 0.34765
#
# Static dielectric constant tensor:
#      x y z
#    x 1.876960 0.000000 -0.019320 
#    y 0.000000 1.825040 0.000000 
#    z -0.019320 0.000000 1.884600 
# 
# From -- ./inp_files/7755.got.cif
#   From: 2010.05.17/outbox.cif.g08.bks.cpg/sg4_4_cif.got.tgz:7755.got - 2010.06.03 18:43:04.
