data_PCOD9117519
_publ_section_title
;
Structure prediction by ZEFSAII (Michael W. Deem and Ramdas Pophale) SiO2 
 PCOD9117519
Probable space group: P 21
;
_chemical_formula_sum "Si O2"
_cell_formula_units_Z 16
_cell_length_a 27.161808
_cell_length_b 5.018635
_cell_length_c 8.419459
_cell_angle_alpha 90.000000
_cell_angle_beta 34.523472
_cell_angle_gamma 90.000000
_cell_volume 650.452000
_symmetry_space_group_name_H-M "P 21"
_symmetry_group_IT_number 4
_symmetry_cell_setting 'monoclinic'
loop_
_space_group_symop_operation_xyz
x,y,z
-x,1/2+y,-z
loop_
_atom_site_type_symbol
_atom_site_label
_atom_site_fract_x
_atom_site_fract_y
_atom_site_fract_z
Si Si1 0.045388 0.214590 0.944788
Si Si2 0.627124 0.984402 0.605986
Si Si3 0.388161 0.919854 0.623868
Si Si4 0.774774 0.801572 0.026036
Si Si5 0.782897 0.982139 0.654842
Si Si6 0.470707 0.727848 0.868100
Si Si7 0.324346 0.960147 0.115530
Si Si8 0.048395 0.074005 0.310236
O O1 0.130988 0.359666 0.651748
O O2 0.049555 0.135520 0.119160
O O3 0.973264 0.444178 0.104369
O O4 0.728280 0.937541 0.301799
O O5 0.553619 0.765068 0.762841
O O6 0.603841 0.207280 0.536199
O O7 0.603753 0.069863 0.842658
O O8 0.305149 0.107482 0.808095
O O9 0.477471 0.080104 0.407519
O O10 0.361639 0.803410 0.862223
O O11 0.794249 0.983672 0.818984
O O12 0.859468 0.646836 0.855913
O O13 0.711735 0.751774 0.815277
O O14 0.756174 0.259334 0.641129
O O15 0.412823 0.981110 0.980315
O O16 0.979081 0.272932 0.577516
#
# Coordination Sequence:
#
# PCOD9117519 Si02
#       8
#     2   2   2   2   2   2   2   2
#     4  12  26  49  77 108 149 185 234 299 362 432
#     4  11  22  42  61  95 135 183 231 289 348 399
#     4  10  23  42  63  93 135 184 230 285 350 401
#     4  10  24  43  69  98 139 183 230 288 347 429
#     4  11  24  45  68 103 138 182 230 287 355 408
#     4  11  25  38  66  93 135 185 237 288 343 408
#     4  11  26  41  67  99 136 183 234 288 340 417
#     4  12  28  48  79 113 143 191 238 292 365 440
#
# _framework density 24.598278000000001
#
# number of rings (size 3 to 8) (size 9 to 14) (size 15 to 20)
#    0.000    1.000    2.500    3.000    7.000    2.000 
#    0.000    0.000    0.000    0.000    0.000    0.000 
#    0.000    0.000    0.000    0.000    0.000    0.000 
#
# Total GULP energy -89330.853379 kJ/mol
# GULP energy per Si atom -5583.178336 kJ/mol
# Density = 2.454229 g / cm^3
# Si number density = 24.598278 Si / 1000 Ang^3
#
#
#
# Elastic Constant Matrix: (Units=GPa)
#
#
# Indices 1 2 3 4 5 6 
#
# 1 53.5998 -8.2370 14.0848 0.0000 -6.8894 0.0000
# 2 -8.2370 52.5171 -22.3012 0.0000 1.5706 0.0000
# 3 14.0848 -22.3012 93.0885 0.0000 0.2392 0.0000
# 4 0.0000 0.0000 0.0000 36.2537 0.0000 -4.2149
# 5 -6.8894 1.5706 0.2392 0.0000 30.9687 0.0000
# 6 0.0000 0.0000 0.0000 -4.2149 0.0000 24.5631
#
#
#
# Elastic Compliance Matrix: (Units=1/GPa)
#
#
# Indices 1 2 3 4 5 6 
#
# 1 0.020206 0.001930 -0.002606 0.000000 0.004417 0.000000
# 2 0.001930 0.021421 0.004841 0.000000 -0.000694 0.000000
# 3 -0.002606 0.004841 0.012299 0.000000 -0.000920 0.000000
# 4 0.000000 0.000000 0.000000 0.028145 0.000000 0.004830
# 5 0.004417 -0.000694 -0.000920 0.000000 0.033316 0.000000
# 6 0.000000 0.000000 0.000000 0.004830 0.000000 0.041540
#
#
# Mechanical properties :
#
#
# Convention : Reuss Voigt Hill
#
# Bulk Modulus (GPa) = 16.06235 18.47763 17.26999
# Shear Modulus (GPa) = 29.52503 32.73434 31.12968
#
# Velocity S-wave (km/s) = 3.46828 3.65191 3.56128
# Velocity P-wave (km/s) = 4.75212 5.03091 4.89350
#
# Compressibility (1/GPa) = 0.06225738
#
# Stress axis : x y z
#
# Youngs Moduli (GPa) = 49.49015 46.68346 81.30716
#
# Poissons Ratio (x) = -0.09012 0.21190
# Poissons Ratio (y) = -0.09554 -0.39365
# Poissons Ratio (z) = 0.12898 -0.22602
#
# Static dielectric constant tensor:
#      x y z
#    x 2.034630 0.000000 0.052090 
#    y 0.000000 2.060500 0.000000 
#    z 0.052090 0.000000 1.991980 
# 
# From -- ./inp_files/8917.got.cif
#   From: 2010.05.17/outbox.cif.g08.bks.cpg/sg4_5_cif.got.tgz:8917.got - 2010.06.03 18:43:04.
