data_PCOD9117187
_publ_section_title
;
Structure prediction by ZEFSAII (Michael W. Deem and Ramdas Pophale) SiO2 
 PCOD9117187
Probable space group: P 21
;
_chemical_formula_sum "Si O2"
_cell_formula_units_Z 10
_cell_length_a 9.354854
_cell_length_b 6.999480
_cell_length_c 10.907375
_cell_angle_alpha 90.000000
_cell_angle_beta 141.561275
_cell_angle_gamma 90.000000
_cell_volume 444.005203
_symmetry_space_group_name_H-M "P 21"
_symmetry_group_IT_number 4
_symmetry_cell_setting 'monoclinic'
loop_
_space_group_symop_operation_xyz
x,y,z
-x,1/2+y,-z
loop_
_atom_site_type_symbol
_atom_site_label
_atom_site_fract_x
_atom_site_fract_y
_atom_site_fract_z
Si Si1 0.534538 0.982540 0.196251
Si Si2 0.928827 0.092578 0.629618
Si Si3 0.604983 0.555174 0.167885
Si Si4 0.855276 0.914551 0.061720
Si Si5 0.969447 0.345549 0.088792
O O1 0.620253 0.763415 0.238979
O O2 0.706993 0.097189 0.397036
O O3 0.276564 0.954664 0.073792
O O4 0.514704 0.067726 0.046626
O O5 0.136105 0.994526 0.690822
O O6 0.032543 0.288748 0.754816
O O7 0.875878 0.964168 0.713162
O O8 0.421715 0.427513 0.117486
O O9 0.934164 0.134489 0.118216
O O10 0.936622 0.837977 0.984894
#
# Coordination Sequence:
#
# PCOD9117187 Si02
#       5
#     2   2   2   2   2
#     4  10  23  44  66 102 134 179 232 281 345 407
#     4  11  23  45  69 102 137 184 237 276 342 420
#     4  10  22  44  69  98 139 177 225 296 339 400
#     4  11  21  45  73  97 142 182 224 288 344 404
#     4  10  23  44  69  99 140 184 226 285 350 403
#
# _framework density 22.522261
#
# number of rings (size 3 to 8) (size 9 to 14) (size 15 to 20)
#    0.000    1.600    4.000    0.000    0.000    4.800 
#    7.200    2.000    0.000    0.000    0.000    0.000 
#    0.000    0.000    0.000    0.000    0.000    0.000 
#
# Total GULP energy -55915.265772 kJ/mol
# GULP energy per Si atom -5591.526577 kJ/mol
# Density = 2.247100 g / cm^3
# Si number density = 22.522261 Si / 1000 Ang^3
#
#
#
# Elastic Constant Matrix: (Units=GPa)
#
#
# Indices 1 2 3 4 5 6 
#
# 1 137.7421 29.1521 41.6239 0.0000 -10.8524 0.0000
# 2 29.1521 93.7286 49.4311 0.0000 11.3476 0.0000
# 3 41.6239 49.4311 132.0506 0.0000 5.4995 0.0000
# 4 0.0000 0.0000 0.0000 28.1404 0.0000 -6.2100
# 5 -10.8524 11.3476 5.4995 0.0000 6.2858 0.0000
# 6 0.0000 0.0000 0.0000 -6.2100 0.0000 38.5710
#
#
#
# Elastic Compliance Matrix: (Units=1/GPa)
#
#
# Indices 1 2 3 4 5 6 
#
# 1 0.012384 -0.006676 -0.002903 0.000000 0.035973 0.000000
# 2 -0.006676 0.019998 -0.003526 0.000000 -0.044543 0.000000
# 3 -0.002903 -0.003526 0.010120 0.000000 -0.007500 0.000000
# 4 0.000000 0.000000 0.000000 0.036845 0.000000 0.005932
# 5 0.035973 -0.044543 -0.007500 0.000000 0.308168 0.000000
# 6 0.000000 0.000000 0.000000 0.005932 0.000000 0.026881
#
#
# Mechanical properties :
#
#
# Convention : Reuss Voigt Hill
#
# Bulk Modulus (GPa) = 61.38046 67.10396 64.24221
# Shear Modulus (GPa) = 11.20977 30.82039 21.01508
#
# Velocity S-wave (km/s) = 2.23338 3.70326 3.05795
# Velocity P-wave (km/s) = 5.82778 6.93864 6.40733
#
# Compressibility (1/GPa) = 0.01629183
#
# Stress axis : x y z
#
# Youngs Moduli (GPa) = 80.74693 50.00459 98.81171
#
# Poissons Ratio (x) = 0.33384 0.28682
# Poissons Ratio (y) = 0.53909 0.34846
# Poissons Ratio (z) = 0.23439 0.17634
#
# Static dielectric constant tensor:
#      x y z
#    x 1.838890 0.000000 0.012460 
#    y 0.000000 1.914470 0.000000 
#    z 0.012460 0.000000 1.769520 
# 
# From -- ./inp_files/4476.got.cif
#   From: 2010.05.17/outbox.cif.g08.bks.cpg/sg4_3_cif.got.tgz:4476.got - 2010.06.03 18:43:04.
