data_PCOD9117150
_publ_section_title
;
Structure prediction by ZEFSAII (Michael W. Deem and Ramdas Pophale) SiO2 
 PCOD9117150
Probable space group: P 21
;
_chemical_formula_sum "Si O2"
_cell_formula_units_Z 14
_cell_length_a 7.357643
_cell_length_b 12.316047
_cell_length_c 8.391934
_cell_angle_alpha 90.000000
_cell_angle_beta 53.205515
_cell_angle_gamma 90.000000
_cell_volume 608.962041
_symmetry_space_group_name_H-M "P 21"
_symmetry_group_IT_number 4
_symmetry_cell_setting 'monoclinic'
loop_
_space_group_symop_operation_xyz
x,y,z
-x,1/2+y,-z
loop_
_atom_site_type_symbol
_atom_site_label
_atom_site_fract_x
_atom_site_fract_y
_atom_site_fract_z
Si Si1 0.343129 0.812260 0.506012
Si Si2 0.158729 0.582139 0.125985
Si Si3 0.397989 0.023234 0.283658
Si Si4 0.997082 0.361254 0.084864
Si Si5 0.951559 0.146182 0.485404
Si Si6 0.255986 0.176879 0.836479
Si Si7 0.123625 0.995500 0.137647
O O1 0.248962 0.819281 0.733836
O O2 0.123146 0.766233 0.524554
O O3 0.532567 0.721615 0.372643
O O4 0.418587 0.931409 0.407093
O O5 0.204291 0.611593 0.284386
O O6 0.055353 0.461444 0.168409
O O7 0.965361 0.659842 0.156886
O O8 0.372611 0.577765 0.896572
O O9 0.295565 0.958485 0.183873
O O10 0.205973 0.115309 0.411870
O O11 0.994978 0.405867 0.906320
O O12 0.188420 0.270912 0.995961
O O13 0.945898 0.071630 0.328325
O O14 0.263255 0.068050 0.936973
#
# Coordination Sequence:
#
# PCOD9117150 Si02
#       7
#     2   2   2   2   2   2   2
#     4  12  23  43  71  96 138 173 226 269 337 387
#     4  11  23  43  70  92 138 171 222 270 339 385
#     4  10  22  44  66  97 131 179 213 282 323 397
#     4  11  21  44  62  98 134 171 217 277 325 407
#     4  10  23  42  67 101 127 181 221 275 323 401
#     4  11  24  42  66  99 132 176 216 282 323 403
#     4   9  22  44  64  93 136 167 221 267 332 384
#
# _framework density 22.989941000000002
#
# number of rings (size 3 to 8) (size 9 to 14) (size 15 to 20)
#    0.857    0.571    4.286    0.857    2.000    1.143 
#    7.714    0.000    3.143    0.000    0.000    0.000 
#    0.000    0.000    0.000    0.000    0.000    0.000 
#
# Total GULP energy -78086.697450 kJ/mol
# GULP energy per Si atom -5577.621246 kJ/mol
# Density = 2.293762 g / cm^3
# Si number density = 22.989941 Si / 1000 Ang^3
#
#
#
# Elastic Constant Matrix: (Units=GPa)
#
#
# Indices 1 2 3 4 5 6 
#
# 1 37.1448 4.9315 10.3333 0.0000 -9.0578 0.0000
# 2 4.9315 66.4911 14.7785 0.0000 -13.8348 0.0000
# 3 10.3333 14.7785 110.0679 0.0000 -16.3620 0.0000
# 4 0.0000 0.0000 0.0000 34.6340 0.0000 -10.9161
# 5 -9.0578 -13.8348 -16.3620 0.0000 40.7014 0.0000
# 6 0.0000 0.0000 0.0000 -10.9161 0.0000 15.4020
#
#
#
# Elastic Compliance Matrix: (Units=1/GPa)
#
#
# Indices 1 2 3 4 5 6 
#
# 1 0.028843 -0.000595 -0.001812 0.000000 0.005488 0.000000
# 2 -0.000595 0.016414 -0.001423 0.000000 0.004875 0.000000
# 3 -0.001812 -0.001423 0.009907 0.000000 0.003095 0.000000
# 4 0.000000 0.000000 0.000000 0.037178 0.000000 0.026350
# 5 0.005488 0.004875 0.003095 0.000000 0.028692 0.000000
# 6 0.000000 0.000000 0.000000 0.026350 0.000000 0.083602
#
#
# Mechanical properties :
#
#
# Convention : Reuss Voigt Hill
#
# Bulk Modulus (GPa) = 21.05088 30.42116 25.73602
# Shear Modulus (GPa) = 21.91721 30.39153 26.15437
#
# Velocity S-wave (km/s) = 3.09097 3.63981 3.37656
# Velocity P-wave (km/s) = 4.68137 5.56106 5.14007
#
# Compressibility (1/GPa) = 0.04750394
#
# Stress axis : x y z
#
# Youngs Moduli (GPa) = 34.67042 60.92210 100.94198
#
# Poissons Ratio (x) = 0.03622 0.18292
# Poissons Ratio (y) = 0.02061 0.14368
# Poissons Ratio (z) = 0.06283 0.08672
#
# Static dielectric constant tensor:
#      x y z
#    x 1.884990 0.000000 -0.013890 
#    y 0.000000 1.857460 0.000000 
#    z -0.013890 0.000000 1.892580 
# 
# From -- ./inp_files/6349.got.cif
#   From: 2010.05.17/outbox.cif.g08.bks.cpg/sg4_4_cif.got.tgz:6349.got - 2010.06.03 18:43:04.
