data_PCOD9117003
_publ_section_title
;
Structure prediction by ZEFSAII (Michael W. Deem and Ramdas Pophale) SiO2 
 PCOD9117003
Probable space group: P 21
;
_chemical_formula_sum "Si O2"
_cell_formula_units_Z 16
_cell_length_a 10.549920
_cell_length_b 9.858173
_cell_length_c 13.614786
_cell_angle_alpha 90.000000
_cell_angle_beta 148.745098
_cell_angle_gamma 90.000000
_cell_volume 734.674943
_symmetry_space_group_name_H-M "P 21"
_symmetry_group_IT_number 4
_symmetry_cell_setting 'monoclinic'
loop_
_space_group_symop_operation_xyz
x,y,z
-x,1/2+y,-z
loop_
_atom_site_type_symbol
_atom_site_label
_atom_site_fract_x
_atom_site_fract_y
_atom_site_fract_z
Si Si1 0.189731 0.048860 0.909897
Si Si2 0.621559 0.666372 0.592168
Si Si3 0.733100 0.757128 0.881760
Si Si4 0.765746 0.336117 0.331851
Si Si5 0.776307 0.373254 0.709336
Si Si6 0.047169 0.309053 0.707385
Si Si7 0.911475 0.245695 0.213718
Si Si8 0.544774 0.020170 0.982472
O O1 0.041752 0.155660 0.743828
O O2 0.110167 0.894570 0.847902
O O3 0.194287 0.112980 0.020373
O O4 0.451741 0.054924 0.029453
O O5 0.690662 0.746104 0.738159
O O6 0.620494 0.508776 0.624734
O O7 0.382120 0.736336 0.388251
O O8 0.832801 0.687359 0.652027
O O9 0.477827 0.791866 0.768255
O O10 0.963634 0.854663 0.062117
O O11 0.858342 0.261054 0.294668
O O12 0.982631 0.328584 0.552839
O O13 0.685923 0.483037 0.237358
O O14 0.850186 0.383811 0.644012
O O15 0.300892 0.381871 0.902187
O O16 0.704817 0.139131 0.043516
#
# Coordination Sequence:
#
# PCOD9117003 Si02
#       8
#     2   2   2   2   2   2   2   2
#     4  10  22  42  69  99 133 175 217 284 324 402
#     4  12  27  46  67  99 138 177 223 283 327 405
#     4  11  23  45  73  92 131 184 227 261 352 396
#     4  11  22  43  74 100 127 182 221 273 343 399
#     4  11  26  46  69  97 136 180 226 278 331 399
#     4  11  22  44  69  96 137 179 221 268 341 402
#     4  11  24  41  67 102 137 163 227 284 329 388
#     4  11  20  45  66  99 139 170 220 277 337 391
#
# _framework density 21.778338999999999
#
# number of rings (size 3 to 8) (size 9 to 14) (size 15 to 20)
#    0.000    1.000    6.250    0.750    5.250    2.000 
#    4.500    0.000    0.000    0.000    0.000    0.000 
#    0.000    0.000    0.000    0.000    0.000    0.000 
#
# Total GULP energy -89231.876649 kJ/mol
# GULP energy per Si atom -5576.992291 kJ/mol
# Density = 2.172877 g / cm^3
# Si number density = 21.778339 Si / 1000 Ang^3
#
#
#
# Elastic Constant Matrix: (Units=GPa)
#
#
# Indices 1 2 3 4 5 6 
#
# 1 79.2840 5.5201 16.0009 0.0000 6.8339 0.0000
# 2 5.5201 86.1321 15.0472 0.0000 9.5137 0.0000
# 3 16.0009 15.0472 63.7610 0.0000 -9.7596 0.0000
# 4 0.0000 0.0000 0.0000 18.0753 0.0000 11.8482
# 5 6.8339 9.5137 -9.7596 0.0000 31.6507 0.0000
# 6 0.0000 0.0000 0.0000 11.8482 0.0000 28.0728
#
#
#
# Elastic Compliance Matrix: (Units=1/GPa)
#
#
# Indices 1 2 3 4 5 6 
#
# 1 0.013819 0.000336 -0.004218 0.000000 -0.004385 0.000000
# 2 0.000336 0.012837 -0.003899 0.000000 -0.005133 0.000000
# 3 -0.004218 -0.003899 0.018872 0.000000 0.007902 0.000000
# 4 0.000000 0.000000 0.000000 0.076483 0.000000 -0.032280
# 5 -0.004385 -0.005133 0.007902 0.000000 0.036521 0.000000
# 6 0.000000 0.000000 0.000000 -0.032280 0.000000 0.049245
#
#
# Mechanical properties :
#
#
# Convention : Reuss Voigt Hill
#
# Bulk Modulus (GPa) = 33.37391 33.59038 33.48214
# Shear Modulus (GPa) = 21.42892 28.40037 24.91464
#
# Velocity S-wave (km/s) = 3.14021 3.61510 3.38599
# Velocity P-wave (km/s) = 5.33906 5.73433 5.54022
#
# Compressibility (1/GPa) = 0.02996353
#
# Stress axis : x y z
#
# Youngs Moduli (GPa) = 72.36500 77.90114 52.98873
#
# Poissons Ratio (x) = -0.02615 0.22352
# Poissons Ratio (y) = -0.02429 0.20662
# Poissons Ratio (z) = 0.30526 0.30377
#
# Static dielectric constant tensor:
#      x y z
#    x 1.813500 0.000000 0.030090 
#    y 0.000000 1.864750 0.000000 
#    z 0.030090 0.000000 1.798350 
# 
# From -- ./inp_files/13975.got.cif
#   From: 2010.05.17/outbox.cif.g08.bks.cpg/sg4_7_cif.got.tgz:13975.got - 2010.06.03 18:43:04.
