data_PCOD9117202
_publ_section_title
;
Structure prediction by ZEFSAII (Michael W. Deem and Ramdas Pophale) SiO2 
 PCOD9117202
Probable space group: P 21
;
_chemical_formula_sum "Si O2"
_cell_formula_units_Z 16
_cell_length_a 22.764731
_cell_length_b 5.005607
_cell_length_c 13.890725
_cell_angle_alpha 90.000000
_cell_angle_beta 156.273080
_cell_angle_gamma 90.000000
_cell_volume 636.910427
_symmetry_space_group_name_H-M "P 21"
_symmetry_group_IT_number 4
_symmetry_cell_setting 'monoclinic'
loop_
_space_group_symop_operation_xyz
x,y,z
-x,1/2+y,-z
loop_
_atom_site_type_symbol
_atom_site_label
_atom_site_fract_x
_atom_site_fract_y
_atom_site_fract_z
Si Si1 0.356799 0.107580 0.988066
Si Si2 0.482693 0.260409 0.632715
Si Si3 0.675151 0.119551 0.745439
Si Si4 0.114878 0.120720 0.927931
Si Si5 0.933738 0.753622 0.355717
Si Si6 0.398469 0.144300 0.844166
Si Si7 0.058109 0.544485 0.139001
Si Si8 0.664278 0.406918 0.447441
O O1 0.236446 0.239465 0.874089
O O2 0.305808 0.085452 0.801148
O O3 0.505074 0.273561 0.202246
O O4 0.406534 0.837697 0.115515
O O5 0.568085 0.107423 0.676722
O O6 0.421158 0.529619 0.490471
O O7 0.351622 0.097629 0.484350
O O8 0.783727 0.177038 0.633502
O O9 0.803591 0.902699 0.939809
O O10 0.042514 0.134556 0.714417
O O11 0.000808 0.066560 0.841228
O O12 0.242773 0.900326 0.125862
O O13 0.010947 0.551576 0.545788
O O14 0.317891 0.073268 0.624487
O O15 0.537899 0.943382 0.062514
O O16 0.040497 0.244807 0.074226
#
# Coordination Sequence:
#
# PCOD9117202 Si02
#       8
#     2   2   2   2   2   2   2   2
#     4  11  26  48  78 110 150 193 256 319 378 457
#     4  12  26  45  78 114 153 193 259 321 386 449
#     4  12  27  45  78 115 150 207 250 322 383 455
#     4  12  27  53  75 108 161 200 261 308 385 470
#     4  12  29  51  79 113 150 200 247 318 397 455
#     4  10  22  44  71 107 142 190 244 309 374 437
#     4  12  30  50  75 110 157 212 254 309 382 458
#     4  11  27  48  76 113 151 203 257 320 379 451
#
# _framework density 25.121272000000001
#
# number of rings (size 3 to 8) (size 9 to 14) (size 15 to 20)
#    0.000    0.500    2.500    3.750   12.250    0.000 
#    4.500    0.000    0.000    0.000    0.000    0.000 
#    0.000    0.000    0.000    0.000    0.000    0.000 
#
# Total GULP energy -89769.310828 kJ/mol
# GULP energy per Si atom -5610.581927 kJ/mol
# Density = 2.506409 g / cm^3
# Si number density = 25.121272 Si / 1000 Ang^3
#
#
#
# Elastic Constant Matrix: (Units=GPa)
#
#
# Indices 1 2 3 4 5 6 
#
# 1 160.5584 -3.9950 14.0596 0.0000 -17.4223 0.0000
# 2 -3.9950 42.2660 -5.7101 0.0000 -5.7819 0.0000
# 3 14.0596 -5.7101 45.7680 0.0000 3.5187 0.0000
# 4 0.0000 0.0000 0.0000 44.2194 0.0000 0.9419
# 5 -17.4223 -5.7819 3.5187 0.0000 51.6389 0.0000
# 6 0.0000 0.0000 0.0000 0.9419 0.0000 41.7848
#
#
#
# Elastic Compliance Matrix: (Units=1/GPa)
#
#
# Indices 1 2 3 4 5 6 
#
# 1 0.006705 0.000681 -0.002166 0.000000 0.002486 0.000000
# 2 0.000681 0.024461 0.002628 0.000000 0.002790 0.000000
# 3 -0.002166 0.002628 0.022997 0.000000 -0.002003 0.000000
# 4 0.000000 0.000000 0.000000 0.022625 0.000000 -0.000510
# 5 0.002486 0.002790 -0.002003 0.000000 0.020653 0.000000
# 6 0.000000 0.000000 0.000000 -0.000510 0.000000 0.023944
#
#
# Mechanical properties :
#
#
# Convention : Reuss Voigt Hill
#
# Bulk Modulus (GPa) = 17.71515 28.58905 23.15210
# Shear Modulus (GPa) = 36.25474 43.81114 40.03294
#
# Velocity S-wave (km/s) = 3.80305 4.18064 3.99631
# Velocity P-wave (km/s) = 5.13337 5.89141 5.52541
#
# Compressibility (1/GPa) = 0.05644885
#
# Stress axis : x y z
#
# Youngs Moduli (GPa) = 149.15118 40.88190 43.48479
#
# Poissons Ratio (x) = -0.02785 0.09418
# Poissons Ratio (y) = -0.10160 -0.11428
# Poissons Ratio (z) = 0.32302 -0.10744
#
# Static dielectric constant tensor:
#      x y z
#    x 1.968980 0.000000 -0.054920 
#    y 0.000000 1.976260 0.000000 
#    z -0.054920 0.000000 2.019110 
# 
# From -- ./inp_files/12994.got.cif
#   From: 2010.05.17/outbox.cif.g08.bks.cpg/sg4_7_cif.got.tgz:12994.got - 2010.06.03 18:43:04.
