data_PCOD9117551
_publ_section_title
;
Structure prediction by ZEFSAII (Michael W. Deem and Ramdas Pophale) SiO2 
 PCOD9117551
Probable space group: P 21
;
_chemical_formula_sum "Si O2"
_cell_formula_units_Z 14
_cell_length_a 16.887175
_cell_length_b 5.922913
_cell_length_c 7.437229
_cell_angle_alpha 90.000000
_cell_angle_beta 49.728467
_cell_angle_gamma 90.000000
_cell_volume 567.573517
_symmetry_space_group_name_H-M "P 21"
_symmetry_group_IT_number 4
_symmetry_cell_setting 'monoclinic'
loop_
_space_group_symop_operation_xyz
x,y,z
-x,1/2+y,-z
loop_
_atom_site_type_symbol
_atom_site_label
_atom_site_fract_x
_atom_site_fract_y
_atom_site_fract_z
Si Si1 0.113957 0.791130 0.623083
Si Si2 0.442346 0.234239 0.779687
Si Si3 0.752042 0.638547 0.436604
Si Si4 0.515384 0.734640 0.704482
Si Si5 0.092840 0.360428 0.515107
Si Si6 0.793455 0.758042 0.986344
Si Si7 0.923499 0.134102 0.924146
O O1 0.116558 0.623529 0.454148
O O2 0.225164 0.902946 0.498547
O O3 0.082259 0.674127 0.856591
O O4 0.020271 0.966659 0.738538
O O5 0.470109 0.483184 0.821850
O O6 0.490091 0.235818 0.506713
O O7 0.473256 0.987493 0.818006
O O8 0.319051 0.233123 0.933698
O O9 0.635229 0.720435 0.591562
O O10 0.826546 0.797994 0.443550
O O11 0.795152 0.619241 0.169367
O O12 0.126392 0.223106 0.292167
O O13 0.974587 0.346144 0.752203
O O14 0.819027 0.012961 0.016678
#
# Coordination Sequence:
#
# PCOD9117551 Si02
#       7
#     2   2   2   2   2   2   2
#     4  11  21  41  65  94 134 178 235 281 342 425
#     4   9  20  39  63 103 131 171 233 288 340 436
#     4  10  23  42  68  94 129 180 222 286 355 417
#     4   9  19  39  69  94 134 176 224 286 360 412
#     4  11  25  42  61  98 135 170 237 287 334 428
#     4  11  24  42  65  98 132 181 226 286 355 413
#     4  11  22  39  63  91 131 182 221 276 346 409
#
# _framework density 24.666409999999999
#
# number of rings (size 3 to 8) (size 9 to 14) (size 15 to 20)
#    0.000    1.714    2.857    0.857    4.000    3.429 
#    7.714    1.429    0.000    0.000    0.000    0.000 
#    0.000    0.000    0.000    0.000    0.000    0.000 
#
# Total GULP energy -78086.131728 kJ/mol
# GULP energy per Si atom -5577.580838 kJ/mol
# Density = 2.461027 g / cm^3
# Si number density = 24.666410 Si / 1000 Ang^3
#
#
#
# Elastic Constant Matrix: (Units=GPa)
#
#
# Indices 1 2 3 4 5 6 
#
# 1 118.0173 58.8249 33.4333 0.0000 -19.1939 0.0000
# 2 58.8249 146.0576 26.0729 0.0000 -20.4623 0.0000
# 3 33.4333 26.0729 41.2679 0.0000 1.6757 0.0000
# 4 0.0000 0.0000 0.0000 19.8609 0.0000 -1.8335
# 5 -19.1939 -20.4623 1.6757 0.0000 22.4387 0.0000
# 6 0.0000 0.0000 0.0000 -1.8335 0.0000 50.0457
#
#
#
# Elastic Compliance Matrix: (Units=1/GPa)
#
#
# Indices 1 2 3 4 5 6 
#
# 1 0.014472 -0.002383 -0.010666 0.000000 0.011003 0.000000
# 2 -0.002383 0.009577 -0.004405 0.000000 0.007024 0.000000
# 3 -0.010666 -0.004405 0.036299 0.000000 -0.015851 0.000000
# 4 0.000000 0.000000 0.000000 0.050521 0.000000 0.001851
# 5 0.011003 0.007024 -0.015851 0.000000 0.061566 0.000000
# 6 0.000000 0.000000 0.000000 0.001851 0.000000 0.020050
#
#
# Mechanical properties :
#
#
# Convention : Reuss Voigt Hill
#
# Bulk Modulus (GPa) = 39.30737 60.22280 49.76508
# Shear Modulus (GPa) = 21.19784 30.93651 26.06717
#
# Velocity S-wave (km/s) = 2.93470 3.54530 3.25435
# Velocity P-wave (km/s) = 5.23961 6.42081 5.86005
#
# Compressibility (1/GPa) = 0.02544052
#
# Stress axis : x y z
#
# Youngs Moduli (GPa) = 69.09803 104.41878 27.54864
#
# Poissons Ratio (x) = 0.24886 0.29383
# Poissons Ratio (y) = 0.16468 0.12135
# Poissons Ratio (z) = 0.73698 0.45996
#
# Static dielectric constant tensor:
#      x y z
#    x 1.899740 0.000000 0.028230 
#    y 0.000000 2.232670 0.000000 
#    z 0.028230 0.000000 1.921740 
# 
# From -- ./inp_files/9039.got.cif
#   From: 2010.05.17/outbox.cif.g08.bks.cpg/sg4_5_cif.got.tgz:9039.got - 2010.06.03 18:43:04.
