data_PCOD9117244
_publ_section_title
;
Structure prediction by ZEFSAII (Michael W. Deem and Ramdas Pophale) SiO2 
 PCOD9117244
Probable space group: P 21
;
_chemical_formula_sum "Si O2"
_cell_formula_units_Z 16
_cell_length_a 9.875289
_cell_length_b 5.973272
_cell_length_c 22.922919
_cell_angle_alpha 90.000000
_cell_angle_beta 150.804491
_cell_angle_gamma 90.000000
_cell_volume 659.577782
_symmetry_space_group_name_H-M "P 21"
_symmetry_group_IT_number 4
_symmetry_cell_setting 'monoclinic'
loop_
_space_group_symop_operation_xyz
x,y,z
-x,1/2+y,-z
loop_
_atom_site_type_symbol
_atom_site_label
_atom_site_fract_x
_atom_site_fract_y
_atom_site_fract_z
Si Si1 0.445085 0.931100 0.690690
Si Si2 0.750504 0.045802 0.127719
Si Si3 0.886122 0.287259 0.330035
Si Si4 0.375801 0.044511 0.078779
Si Si5 0.190617 0.747644 0.099647
Si Si6 0.526004 0.692081 0.411582
Si Si7 0.197451 0.043150 0.212429
Si Si8 0.956310 0.547736 0.248906
O O1 0.200468 0.820258 0.635292
O O2 0.674709 0.783816 0.744824
O O3 0.619670 0.050133 0.806753
O O4 0.357092 0.085520 0.604427
O O5 0.434644 0.054475 0.032116
O O6 0.877618 0.031249 0.111191
O O7 0.859361 0.299416 0.187537
O O8 0.836127 0.795082 0.185478
O O9 0.662944 0.117331 0.217742
O O10 0.205499 0.213398 0.447237
O O11 0.886333 0.512000 0.290898
O O12 0.270103 0.810803 0.064527
O O13 0.129854 0.200058 0.009203
O O14 0.255129 0.939661 0.170936
O O15 0.279933 0.565936 0.353030
O O16 0.372596 0.913630 0.328339
#
# Coordination Sequence:
#
# PCOD9117244 Si02
#       8
#     2   2   2   2   2   2   2   2
#     4  11  22  43  66  96 135 177 231 283 346 418
#     4  10  22  45  72  99 141 179 235 288 340 423
#     4  11  24  41  68 103 134 181 231 285 346 421
#     4  11  24  44  67 102 132 178 235 287 349 416
#     4  11  24  44  68  95 133 183 225 298 351 406
#     4  10  24  41  68  97 140 182 224 286 349 413
#     4  10  22  45  65  98 135 179 226 281 352 411
#     4  10  22  45  66 102 140 185 227 284 347 416
#
# _framework density 24.257943999999998
#
# number of rings (size 3 to 8) (size 9 to 14) (size 15 to 20)
#    0.000    1.500    2.500    1.500    1.750    5.000 
#    6.750    0.000    0.000    0.000    0.000    0.000 
#    0.000    0.000    0.000    0.000    0.000    0.000 
#
# Total GULP energy -89166.203707 kJ/mol
# GULP energy per Si atom -5572.887732 kJ/mol
# Density = 2.420273 g / cm^3
# Si number density = 24.257944 Si / 1000 Ang^3
#
#
#
# Elastic Constant Matrix: (Units=GPa)
#
#
# Indices 1 2 3 4 5 6 
#
# 1 124.5306 25.9246 30.7123 0.0000 44.1547 0.0000
# 2 25.9246 86.9862 36.6713 0.0000 6.3451 0.0000
# 3 30.7123 36.6713 83.9278 0.0000 10.1931 0.0000
# 4 0.0000 0.0000 0.0000 9.7984 0.0000 18.9773
# 5 44.1547 6.3451 10.1931 0.0000 35.3129 0.0000
# 6 0.0000 0.0000 0.0000 18.9773 0.0000 22.4062
#
#
#
# Elastic Compliance Matrix: (Units=1/GPa)
#
#
# Indices 1 2 3 4 5 6 
#
# 1 0.015662 -0.002268 -0.002499 0.000000 -0.018455 0.000000
# 2 -0.002268 0.014441 -0.005709 0.000000 0.001889 0.000000
# 3 -0.002499 -0.005709 0.015358 0.000000 -0.000283 0.000000
# 4 0.000000 0.000000 0.000000 -0.159369 0.000000 0.134981
# 5 -0.018455 0.001889 -0.000283 0.000000 0.051136 0.000000
# 6 0.000000 0.000000 0.000000 0.134981 0.000000 -0.069693
#
#
# Mechanical properties :
#
#
# Convention : Reuss Voigt Hill
#
# Bulk Modulus (GPa) = 40.80162 53.56234 47.18198
# Shear Modulus (GPa) = -48.38284 26.97924 -10.70180
#
# Velocity S-wave (km/s) = -4.47084 3.33856 -2.10268
# Velocity P-wave (km/s) = 3.12967 6.08190 3.68746
#
# Compressibility (1/GPa) = 0.02450883
#
# Stress axis : x y z
#
# Youngs Moduli (GPa) = 63.84815 69.24642 65.11079
#
# Poissons Ratio (x) = 0.15706 0.16271
# Poissons Ratio (y) = 0.14482 0.37174
# Poissons Ratio (z) = 0.15955 0.39535
#
# Static dielectric constant tensor:
#      x y z
#    x 2.022220 0.000000 -0.037750 
#    y 0.000000 2.066020 0.000000 
#    z -0.037750 0.000000 1.962460 
# 
# From -- ./inp_files/16533.got.cif
#   From: 2010.05.17/outbox.cif.g08.bks.cpg/sg4_9_cif.got.tgz:16533.got - 2010.06.03 18:43:04.
