data_PCOD9117222
_publ_section_title
;
Structure prediction by ZEFSAII (Michael W. Deem and Ramdas Pophale) SiO2 
 PCOD9117222
Probable space group: P 21
;
_chemical_formula_sum "Si O2"
_cell_formula_units_Z 14
_cell_length_a 5.051460
_cell_length_b 5.222671
_cell_length_c 23.425094
_cell_angle_alpha 90.000000
_cell_angle_beta 126.101014
_cell_angle_gamma 90.000000
_cell_volume 499.334126
_symmetry_space_group_name_H-M "P 21"
_symmetry_group_IT_number 4
_symmetry_cell_setting 'monoclinic'
loop_
_space_group_symop_operation_xyz
x,y,z
-x,1/2+y,-z
loop_
_atom_site_type_symbol
_atom_site_label
_atom_site_fract_x
_atom_site_fract_y
_atom_site_fract_z
Si Si1 0.016602 0.044250 0.039558
Si Si2 0.499792 0.896068 0.847921
Si Si3 0.433245 0.874814 0.413248
Si Si4 0.008264 0.591526 0.439864
Si Si5 0.114057 0.227624 0.878854
Si Si6 0.283736 0.930588 0.703801
Si Si7 0.301937 0.940484 0.269892
O O1 0.339890 0.123923 0.117077
O O2 0.784564 0.921577 0.058387
O O3 0.366730 0.017839 0.889006
O O4 0.066931 0.812616 0.001468
O O5 0.218748 0.912594 0.763310
O O6 0.797535 0.070489 0.861672
O O7 0.166564 0.834132 0.427967
O O8 0.260705 0.953121 0.332734
O O9 0.650387 0.626368 0.421475
O O10 0.730423 0.032287 0.478245
O O11 0.978433 0.404940 0.380772
O O12 0.004554 0.382945 0.808837
O O13 0.539046 0.704351 0.728327
O O14 0.448651 0.205638 0.711724
#
# Coordination Sequence:
#
# PCOD9117222 Si02
#       7
#     2   2   2   2   2   2   2
#     4  12  26  54  78 120 158 208 262 330 402 486
#     4  11  25  51  78 114 155 204 259 321 388 473
#     4  11  23  41  65 102 145 197 250 315 379 451
#     4  11  23  41  65 102 145 197 250 315 379 451
#     4  11  25  51  78 114 155 204 259 321 388 473
#     4  10  22  44  73 108 148 196 253 311 381 456
#     4  10  22  44  73 108 148 196 253 311 381 456
#
# _framework density 28.037337999999998
#
# number of rings (size 3 to 8) (size 9 to 14) (size 15 to 20)
#    0.000    1.143    2.857    2.571    0.000    3.429 
#    5.143    8.571    0.000    0.000    0.000    0.000 
#    0.000    0.000    0.000    0.000    0.000    0.000 
#
# Total GULP energy -78465.712368 kJ/mol
# GULP energy per Si atom -5604.693741 kJ/mol
# Density = 2.797352 g / cm^3
# Si number density = 28.037338 Si / 1000 Ang^3
#
#
#
# Elastic Constant Matrix: (Units=GPa)
#
#
# Indices 1 2 3 4 5 6 
#
# 1 123.0938 53.6706 32.8883 0.0000 -13.2086 0.0000
# 2 53.6706 139.4726 46.8263 0.0000 -9.1034 0.0000
# 3 32.8883 46.8263 170.5170 0.0000 -43.1789 0.0000
# 4 0.0000 0.0000 0.0000 62.5519 0.0000 -0.9934
# 5 -13.2086 -9.1034 -43.1789 0.0000 48.7107 0.0000
# 6 0.0000 0.0000 0.0000 -0.9934 0.0000 35.2881
#
#
#
# Elastic Compliance Matrix: (Units=1/GPa)
#
#
# Indices 1 2 3 4 5 6 
#
# 1 0.009990 -0.003556 -0.000558 0.000000 0.001550 0.000000
# 2 -0.003556 0.009176 -0.002120 0.000000 -0.001128 0.000000
# 3 -0.000558 -0.002120 0.008273 0.000000 0.006786 0.000000
# 4 0.000000 0.000000 0.000000 0.015994 0.000000 0.000450
# 5 0.001550 -0.001128 0.006786 0.000000 0.026754 0.000000
# 6 0.000000 0.000000 0.000000 0.000450 0.000000 0.028351
#
#
# Mechanical properties :
#
#
# Convention : Reuss Voigt Hill
#
# Bulk Modulus (GPa) = 66.79318 77.76153 72.27735
# Shear Modulus (GPa) = 43.10572 49.29003 46.19787
#
# Velocity S-wave (km/s) = 3.92527 4.19742 4.06362
# Velocity P-wave (km/s) = 6.66471 7.16144 6.91754
#
# Compressibility (1/GPa) = 0.01497159
#
# Stress axis : x y z
#
# Youngs Moduli (GPa) = 100.10470 108.97778 120.88208
#
# Poissons Ratio (x) = 0.38749 0.06743
# Poissons Ratio (y) = 0.35594 0.25625
# Poissons Ratio (z) = 0.05584 0.23102
#
# Static dielectric constant tensor:
#      x y z
#    x 2.138070 0.000000 0.008960 
#    y 0.000000 2.211500 0.000000 
#    z 0.008960 0.000000 2.317080 
# 
# From -- ./inp_files/3875.got.cif
#   From: 2010.05.17/outbox.cif.g08.bks.cpg/sg4_2_cif.got.tgz:3875.got - 2010.06.03 18:43:04.
