data_PCOD9117108
_publ_section_title
;
Structure prediction by ZEFSAII (Michael W. Deem and Ramdas Pophale) SiO2 
 PCOD9117108
Probable space group: P 21
;
_chemical_formula_sum "Si O2"
_cell_formula_units_Z 16
_cell_length_a 10.875960
_cell_length_b 11.343845
_cell_length_c 5.080170
_cell_angle_alpha 90.000000
_cell_angle_beta 96.092136
_cell_angle_gamma 90.000000
_cell_volume 623.227358
_symmetry_space_group_name_H-M "P 21"
_symmetry_group_IT_number 4
_symmetry_cell_setting 'monoclinic'
loop_
_space_group_symop_operation_xyz
x,y,z
-x,1/2+y,-z
loop_
_atom_site_type_symbol
_atom_site_label
_atom_site_fract_x
_atom_site_fract_y
_atom_site_fract_z
Si Si1 0.233337 0.373750 0.357419
Si Si2 0.647022 0.575770 0.376443
Si Si3 0.037193 0.572404 0.211244
Si Si4 0.114656 0.128899 0.345764
Si Si5 0.225577 0.754296 0.456148
Si Si6 0.302977 0.877815 0.984203
Si Si7 0.558113 0.753708 0.972039
Si Si8 0.588063 0.057469 0.398227
O O1 0.140716 0.470814 0.203344
O O2 0.138565 0.268219 0.414613
O O3 0.337550 0.317153 0.184504
O O4 0.310387 0.452354 0.593510
O O5 0.742969 0.591246 0.630253
O O6 0.704642 0.502310 0.154883
O O7 0.523907 0.513304 0.448605
O O8 0.616478 0.703236 0.251618
O O9 0.104945 0.688383 0.336890
O O10 0.945733 0.551736 0.434842
O O11 0.963555 0.603880 0.931494
O O12 0.232851 0.791221 0.761046
O O13 0.335862 0.660513 0.438743
O O14 0.250540 0.857440 0.258808
O O15 0.447291 0.842439 0.012480
O O16 0.485348 0.636785 0.836277
#
# Coordination Sequence:
#
# PCOD9117108 Si02
#       8
#     2   2   2   2   2   2   2   2
#     4  11  25  50  80 106 152 205 244 317 390 428
#     4  12  25  40  69 105 152 182 245 306 380 448
#     4  11  28  52  76 104 145 202 267 300 356 442
#     4  12  28  49  73 110 149 199 257 316 353 447
#     4  10  23  46  70 104 141 191 249 309 360 451
#     4  11  24  40  70 106 150 185 227 304 389 439
#     4  11  23  42  70 113 149 186 243 303 379 470
#     4  10  22  43  70 112 146 184 242 307 387 461
#
# _framework density 25.672813000000001
#
# number of rings (size 3 to 8) (size 9 to 14) (size 15 to 20)
#    0.000    1.000    3.750    1.500    1.750    6.000 
#    2.250    0.000    0.000    0.000    0.000    0.000 
#    0.000    0.000    0.000    0.000    0.000    0.000 
#
# Total GULP energy -89447.792651 kJ/mol
# GULP energy per Si atom -5590.487041 kJ/mol
# Density = 2.561438 g / cm^3
# Si number density = 25.672813 Si / 1000 Ang^3
#
#
#
# Elastic Constant Matrix: (Units=GPa)
#
#
# Indices 1 2 3 4 5 6 
#
# 1 102.8375 28.2099 60.1327 0.0000 29.4548 0.0000
# 2 28.2099 120.7782 31.7124 0.0000 20.2957 0.0000
# 3 60.1327 31.7124 108.9789 0.0000 35.0528 0.0000
# 4 0.0000 0.0000 0.0000 36.5256 0.0000 5.6922
# 5 29.4548 20.2957 35.0528 0.0000 46.3855 0.0000
# 6 0.0000 0.0000 0.0000 5.6922 0.0000 44.3184
#
#
#
# Elastic Compliance Matrix: (Units=1/GPa)
#
#
# Indices 1 2 3 4 5 6 
#
# 1 0.015109 -0.001085 -0.006722 0.000000 -0.004040 0.000000
# 2 -0.001085 0.009282 -0.001344 0.000000 -0.002356 0.000000
# 3 -0.006722 -0.001344 0.015476 0.000000 -0.006838 0.000000
# 4 0.000000 0.000000 0.000000 0.027937 0.000000 -0.003588
# 5 -0.004040 -0.002356 -0.006838 0.000000 0.030322 0.000000
# 6 0.000000 0.000000 0.000000 -0.003588 0.000000 0.023025
#
#
# Mechanical properties :
#
#
# Convention : Reuss Voigt Hill
#
# Bulk Modulus (GPa) = 46.37264 63.63385 55.00325
# Shear Modulus (GPa) = 34.09644 39.61520 36.85582
#
# Velocity S-wave (km/s) = 3.64828 3.93247 3.79304
# Velocity P-wave (km/s) = 5.98739 6.74235 6.37605
#
# Compressibility (1/GPa) = 0.02156444
#
# Stress axis : x y z
#
# Youngs Moduli (GPa) = 66.18377 107.73481 64.61700
#
# Poissons Ratio (x) = 0.11692 0.43435
# Poissons Ratio (y) = 0.07183 0.08687
# Poissons Ratio (z) = 0.44488 0.14483
#
# Static dielectric constant tensor:
#      x y z
#    x 2.030120 0.000000 0.026650 
#    y 0.000000 2.072730 0.000000 
#    z 0.026650 0.000000 1.997680 
# 
# From -- ./inp_files/2890.got.cif
#   From: 2010.05.17/outbox.cif.g08.bks.cpg/sg4_2_cif.got.tgz:2890.got - 2010.06.03 18:43:04.
