data_PCOD9117919
_publ_section_title
;
Structure prediction by ZEFSAII (Michael W. Deem and Ramdas Pophale) SiO2 
 PCOD9117919
Probable space group: P 21
;
_chemical_formula_sum "Si O2"
_cell_formula_units_Z 14
_cell_length_a 14.413407
_cell_length_b 8.489130
_cell_length_c 4.960924
_cell_angle_alpha 90.000000
_cell_angle_beta 77.617764
_cell_angle_gamma 90.000000
_cell_volume 592.885531
_symmetry_space_group_name_H-M "P 21"
_symmetry_group_IT_number 4
_symmetry_cell_setting 'monoclinic'
loop_
_space_group_symop_operation_xyz
x,y,z
-x,1/2+y,-z
loop_
_atom_site_type_symbol
_atom_site_label
_atom_site_fract_x
_atom_site_fract_y
_atom_site_fract_z
Si Si1 0.567603 0.415390 0.547384
Si Si2 0.589283 0.229237 0.020284
Si Si3 0.754272 0.055752 0.646618
Si Si4 0.595050 0.721018 0.178746
Si Si5 0.209248 0.353131 0.894952
Si Si6 0.079184 0.728825 0.664496
Si Si7 0.015057 0.368968 0.798079
O O1 0.610743 0.379312 0.812337
O O2 0.585758 0.577815 0.391625
O O3 0.455754 0.375399 0.657314
O O4 0.602818 0.279174 0.317574
O O5 0.656412 0.096425 0.855702
O O6 0.479355 0.192104 0.019102
O O7 0.813657 0.205557 0.507011
O O8 0.748632 0.942462 0.393187
O O9 0.814258 0.972029 0.846786
O O10 0.704822 0.747309 0.048630
O O11 0.110143 0.283664 0.853761
O O12 0.043493 0.551680 0.753782
O O13 0.016466 0.800937 0.466355
O O14 0.066844 0.834659 0.935181
#
# Coordination Sequence:
#
# PCOD9117919 Si02
#       7
#     2   2   2   2   2   2   2
#     4  10  24  38  61  89 131 167 214 265 316 379
#     4  10  24  38  64  90 129 161 225 249 319 374
#     4  11  23  44  69  96 126 183 216 262 320 418
#     4  10  25  40  64  91 134 168 214 268 319 378
#     4  11  24  40  72  94 133 170 226 255 338 386
#     4  11  23  45  71  98 137 169 227 275 341 394
#     4  11  23  45  69 104 130 178 218 282 335 409
#
# _framework density 23.613325
#
# number of rings (size 3 to 8) (size 9 to 14) (size 15 to 20)
#    0.857    0.571    0.000    6.000    8.000    0.000 
#    7.714    0.000    0.000    0.000    0.000    0.000 
#    0.000    0.000    0.000    0.000    0.000    0.000 
#
# Total GULP energy -78240.345355 kJ/mol
# GULP energy per Si atom -5588.596097 kJ/mol
# Density = 2.355958 g / cm^3
# Si number density = 23.613325 Si / 1000 Ang^3
#
#
#
# Elastic Constant Matrix: (Units=GPa)
#
#
# Indices 1 2 3 4 5 6 
#
# 1 47.3616 -1.2629 7.9767 0.0000 4.0929 0.0000
# 2 -1.2629 34.5095 9.0844 0.0000 -0.0873 0.0000
# 3 7.9767 9.0844 123.9350 0.0000 2.5178 0.0000
# 4 0.0000 0.0000 0.0000 40.6453 0.0000 -3.2297
# 5 4.0929 -0.0873 2.5178 0.0000 29.6870 0.0000
# 6 0.0000 0.0000 0.0000 -3.2297 0.0000 22.7767
#
#
#
# Elastic Compliance Matrix: (Units=1/GPa)
#
#
# Indices 1 2 3 4 5 6 
#
# 1 0.021631 0.001158 -0.001419 0.000000 -0.002858 0.000000
# 2 0.001158 0.029612 -0.002247 0.000000 0.000118 0.000000
# 3 -0.001419 -0.002247 0.008335 0.000000 -0.000518 0.000000
# 4 0.000000 0.000000 0.000000 0.024883 0.000000 0.003528
# 5 -0.002858 0.000118 -0.000518 0.000000 0.034123 0.000000
# 6 0.000000 0.000000 0.000000 0.003528 0.000000 0.044405
#
#
# Mechanical properties :
#
#
# Convention : Reuss Voigt Hill
#
# Bulk Modulus (GPa) = 18.32806 26.37804 22.35305
# Shear Modulus (GPa) = 26.85376 31.28902 29.07139
#
# Velocity S-wave (km/s) = 3.37594 3.64408 3.51257
# Velocity P-wave (km/s) = 4.79318 5.37595 5.09291
#
# Compressibility (1/GPa) = 0.05456115
#
# Stress axis : x y z
#
# Youngs Moduli (GPa) = 46.22985 33.77026 119.97123
#
# Poissons Ratio (x) = -0.03910 0.17024
# Poissons Ratio (y) = -0.05353 0.26963
# Poissons Ratio (z) = 0.06560 0.07590
#
# Static dielectric constant tensor:
#      x y z
#    x 1.919110 0.000000 -0.033550 
#    y 0.000000 1.934060 0.000000 
#    z -0.033550 0.000000 1.874630 
# 
# From -- ./inp_files/3393.got.cif
#   From: 2010.05.17/outbox.cif.g08.bks.cpg/sg4_2_cif.got.tgz:3393.got - 2010.06.03 18:43:04.
