data_PCOD9117212
_publ_section_title
;
Structure prediction by ZEFSAII (Michael W. Deem and Ramdas Pophale) SiO2 
 PCOD9117212
Probable space group: P 21
;
_chemical_formula_sum "Si O2"
_cell_formula_units_Z 14
_cell_length_a 15.233441
_cell_length_b 7.879260
_cell_length_c 10.654976
_cell_angle_alpha 90.000000
_cell_angle_beta 154.656760
_cell_angle_gamma 90.000000
_cell_volume 547.419562
_symmetry_space_group_name_H-M "P 21"
_symmetry_group_IT_number 4
_symmetry_cell_setting 'monoclinic'
loop_
_space_group_symop_operation_xyz
x,y,z
-x,1/2+y,-z
loop_
_atom_site_type_symbol
_atom_site_label
_atom_site_fract_x
_atom_site_fract_y
_atom_site_fract_z
Si Si1 0.331135 0.439850 0.361911
Si Si2 0.290462 0.191843 0.091249
Si Si3 0.037234 0.177536 0.516109
Si Si4 0.059900 0.154518 0.124993
Si Si5 0.045300 0.432253 0.308892
Si Si6 0.747385 0.476181 0.415242
Si Si7 0.353701 0.627618 0.816362
O O1 0.334977 0.371625 0.219789
O O2 0.537349 0.545205 0.661820
O O3 0.252469 0.257093 0.314419
O O4 0.156078 0.568399 0.190032
O O5 0.221292 0.206998 0.855181
O O6 0.082125 0.103785 0.877391
O O7 0.992830 0.340178 0.371944
O O8 0.096970 0.029470 0.494558
O O9 0.830209 0.140973 0.322520
O O10 0.989531 0.294886 0.135127
O O11 0.155555 0.996827 0.324870
O O12 0.284595 0.477306 0.633789
O O13 0.653559 0.295260 0.273350
O O14 0.563228 0.604943 0.156990
#
# Coordination Sequence:
#
# PCOD9117212 Si02
#       7
#     2   2   2   2   2   2   2
#     4  12  27  48  71 106 144 204 247 292 365 432
#     4  11  25  46  73 103 148 191 246 297 361 455
#     4  10  23  43  72 103 141 182 235 311 368 432
#     4  11  25  46  71 100 143 189 246 302 350 441
#     4  10  22  44  72 105 139 179 236 309 372 423
#     4  11  24  41  70 107 136 186 234 302 376 422
#     4  11  22  40  65 106 145 175 230 289 384 433
#
# _framework density 25.574532000000001
#
# number of rings (size 3 to 8) (size 9 to 14) (size 15 to 20)
#    0.000    1.143    0.000    6.857    6.000    2.286 
#    7.714    0.000    0.000    0.000    0.000    0.000 
#    0.000    0.000    0.000    0.000    0.000    0.000 
#
# Total GULP energy -78143.155345 kJ/mol
# GULP energy per Si atom -5581.653953 kJ/mol
# Density = 2.551632 g / cm^3
# Si number density = 25.574532 Si / 1000 Ang^3
#
#
#
# Elastic Constant Matrix: (Units=GPa)
#
#
# Indices 1 2 3 4 5 6 
#
# 1 44.3578 2.1086 3.7997 0.0000 -4.2058 0.0000
# 2 2.1086 78.6793 -2.8124 0.0000 1.5977 0.0000
# 3 3.7997 -2.8124 81.6835 0.0000 -2.3468 0.0000
# 4 0.0000 0.0000 0.0000 38.4987 0.0000 -1.1773
# 5 -4.2058 1.5977 -2.3468 0.0000 22.7921 0.0000
# 6 0.0000 0.0000 0.0000 -1.1773 0.0000 39.5688
#
#
#
# Elastic Compliance Matrix: (Units=1/GPa)
#
#
# Indices 1 2 3 4 5 6 
#
# 1 0.023062 -0.000738 -0.000977 0.000000 0.004207 0.000000
# 2 -0.000738 0.012766 0.000446 0.000000 -0.000985 0.000000
# 3 -0.000977 0.000446 0.012334 0.000000 0.001058 0.000000
# 4 0.000000 0.000000 0.000000 0.025999 0.000000 0.000774
# 5 0.004207 -0.000985 0.001058 0.000000 0.044829 0.000000
# 6 0.000000 0.000000 0.000000 0.000774 0.000000 0.025295
#
#
# Mechanical properties :
#
#
# Convention : Reuss Voigt Hill
#
# Bulk Modulus (GPa) = 21.91998 23.43468 22.67733
# Shear Modulus (GPa) = 30.85827 33.61356 32.23591
#
# Velocity S-wave (km/s) = 3.47739 3.62931 3.55416
# Velocity P-wave (km/s) = 4.97117 5.17163 5.07239
#
# Compressibility (1/GPa) = 0.04562048
#
# Stress axis : x y z
#
# Youngs Moduli (GPa) = 43.36202 78.33585 81.07937
#
# Poissons Ratio (x) = 0.05784 0.07924
# Poissons Ratio (y) = 0.03202 -0.03613
# Poissons Ratio (z) = 0.04238 -0.03490
#
# Static dielectric constant tensor:
#      x y z
#    x 2.170520 0.000000 -0.065280 
#    y 0.000000 2.112570 0.000000 
#    z -0.065280 0.000000 2.021700 
# 
# From -- ./inp_files/12933.got.cif
#   From: 2010.05.17/outbox.cif.g08.bks.cpg/sg4_7_cif.got.tgz:12933.got - 2010.06.03 18:43:04.
