data_PCOD9117240
_publ_section_title
;
Structure prediction by ZEFSAII (Michael W. Deem and Ramdas Pophale) SiO2 
 PCOD9117240
Probable space group: P 21
;
_chemical_formula_sum "Si O2"
_cell_formula_units_Z 14
_cell_length_a 11.278603
_cell_length_b 4.896806
_cell_length_c 15.222283
_cell_angle_alpha 90.000000
_cell_angle_beta 43.117069
_cell_angle_gamma 90.000000
_cell_volume 574.620307
_symmetry_space_group_name_H-M "P 21"
_symmetry_group_IT_number 4
_symmetry_cell_setting 'monoclinic'
loop_
_space_group_symop_operation_xyz
x,y,z
-x,1/2+y,-z
loop_
_atom_site_type_symbol
_atom_site_label
_atom_site_fract_x
_atom_site_fract_y
_atom_site_fract_z
Si Si1 0.871648 0.545150 0.648680
Si Si2 0.028136 0.991289 0.095615
Si Si3 0.099000 0.658813 0.218033
Si Si4 0.807527 0.480270 0.169385
Si Si5 0.387354 0.292292 0.078425
Si Si6 0.181642 0.918078 0.522301
Si Si7 0.493775 0.667867 0.564246
O O1 0.846911 0.262317 0.713910
O O2 0.717559 0.718862 0.776592
O O3 0.849785 0.547949 0.556770
O O4 0.067574 0.641658 0.568420
O O5 0.865420 0.790070 0.158813
O O6 0.078411 0.910240 0.165522
O O7 0.966069 0.298037 0.119267
O O8 0.179561 0.942600 0.942620
O O9 0.241828 0.456074 0.103284
O O10 0.915559 0.527109 0.338326
O O11 0.643180 0.340963 0.303834
O O12 0.538073 0.517566 0.003956
O O13 0.377577 0.992723 0.442520
O O14 0.424685 0.423387 0.536917
#
# Coordination Sequence:
#
# PCOD9117240 Si02
#       7
#     2   2   2   2   2   2   2
#     4  11  24  44  71 106 139 193 234 290 362 415
#     4  10  23  41  73  93 136 172 234 284 338 419
#     4  11  23  42  71  99 132 189 229 284 355 420
#     4  10  22  45  63 104 131 177 225 287 346 401
#     4  11  24  44  65  98 137 176 229 286 344 425
#     4  11  25  43  70 104 147 181 243 292 348 434
#     4  12  27  45  71 104 142 186 232 289 357 414
#
# _framework density 24.363914999999999
#
# number of rings (size 3 to 8) (size 9 to 14) (size 15 to 20)
#    0.000    1.143    2.857    2.571    8.000    1.143 
#    0.000    0.000    0.000    0.000    0.000    0.000 
#    0.000    0.000    0.000    0.000    0.000    0.000 
#
# Total GULP energy -78093.401397 kJ/mol
# GULP energy per Si atom -5578.100100 kJ/mol
# Density = 2.430846 g / cm^3
# Si number density = 24.363915 Si / 1000 Ang^3
#
#
#
# Elastic Constant Matrix: (Units=GPa)
#
#
# Indices 1 2 3 4 5 6 
#
# 1 74.5849 -3.7474 24.9899 0.0000 3.4301 0.0000
# 2 -3.7474 92.7393 19.4154 0.0000 -1.6847 0.0000
# 3 24.9899 19.4154 119.1875 0.0000 -0.3726 0.0000
# 4 0.0000 0.0000 0.0000 43.6167 0.0000 -1.6885
# 5 3.4301 -1.6847 -0.3726 0.0000 36.6030 0.0000
# 6 0.0000 0.0000 0.0000 -1.6885 0.0000 27.5808
#
#
#
# Elastic Compliance Matrix: (Units=1/GPa)
#
#
# Indices 1 2 3 4 5 6 
#
# 1 0.014630 0.001252 -0.003276 0.000000 -0.001347 0.000000
# 2 0.001252 0.011280 -0.002099 0.000000 0.000380 0.000000
# 3 -0.003276 -0.002099 0.009420 0.000000 0.000306 0.000000
# 4 0.000000 0.000000 0.000000 0.022981 0.000000 0.001407
# 5 -0.001347 0.000380 0.000306 0.000000 0.027467 0.000000
# 6 0.000000 0.000000 0.000000 0.001407 0.000000 0.036343
#
#
# Mechanical properties :
#
#
# Convention : Reuss Voigt Hill
#
# Bulk Modulus (GPa) = 36.92021 40.86971 38.89496
# Shear Modulus (GPa) = 35.86960 37.95038 36.90999
#
# Velocity S-wave (km/s) = 3.84114 3.95099 3.89645
# Velocity P-wave (km/s) = 5.90416 6.13391 6.02013
#
# Compressibility (1/GPa) = 0.02708543
#
# Stress axis : x y z
#
# Youngs Moduli (GPa) = 68.35308 88.65368 106.15928
#
# Poissons Ratio (x) = -0.11104 0.34774
# Poissons Ratio (y) = -0.08561 0.22282
# Poissons Ratio (z) = 0.22390 0.18607
#
# Static dielectric constant tensor:
#      x y z
#    x 1.990700 0.000000 -0.051160 
#    y 0.000000 1.991580 0.000000 
#    z -0.051160 0.000000 1.949430 
# 
# From -- ./inp_files/13819.got.cif
#   From: 2010.05.17/outbox.cif.g08.bks.cpg/sg4_7_cif.got.tgz:13819.got - 2010.06.03 18:43:04.
