data_PCOD9117830
_publ_section_title
;
Structure prediction by ZEFSAII (Michael W. Deem and Ramdas Pophale) SiO2 
 PCOD9117830
Probable space group: P 21
;
_chemical_formula_sum "Si O2"
_cell_formula_units_Z 12
_cell_length_a 16.023272
_cell_length_b 5.131201
_cell_length_c 10.716251
_cell_angle_alpha 90.000000
_cell_angle_beta 30.201632
_cell_angle_gamma 90.000000
_cell_volume 443.220225
_symmetry_space_group_name_H-M "P 21"
_symmetry_group_IT_number 4
_symmetry_cell_setting 'monoclinic'
loop_
_space_group_symop_operation_xyz
x,y,z
-x,1/2+y,-z
loop_
_atom_site_type_symbol
_atom_site_label
_atom_site_fract_x
_atom_site_fract_y
_atom_site_fract_z
Si Si1 0.279427 0.161750 0.427397
Si Si2 0.637238 0.358440 0.915990
Si Si3 0.908292 0.151169 0.915561
Si Si4 0.355677 0.079516 0.834933
Si Si5 0.102941 0.474684 0.328168
Si Si6 0.299034 0.351831 0.655354
O O1 0.438787 0.326279 0.175042
O O2 0.294241 0.123332 0.558073
O O3 0.091955 0.271769 0.667071
O O4 0.292424 0.929376 0.310656
O O5 0.722707 0.089701 0.849498
O O6 0.684587 0.567192 0.964138
O O7 0.897592 0.932558 0.819761
O O8 0.764530 0.354073 0.065863
O O9 0.867541 0.014640 0.100162
O O10 0.550947 0.019903 0.589921
O O11 0.354902 0.279835 0.722005
O O12 0.010506 0.234979 0.509251
#
# Coordination Sequence:
#
# PCOD9117830 Si02
#       6
#     2   2   2   2   2   2
#     4  11  26  46  67 111 151 200 250 322 398 451
#     4  10  25  46  71 107 153 200 254 324 384 464
#     4  11  25  43  71 106 150 200 253 317 382 476
#     4  10  23  46  73  99 139 201 254 312 380 473
#     4  11  25  47  78 112 149 202 265 319 383 464
#     4  11  24  46  72 105 146 193 256 314 397 456
#
# _framework density 27.074577999999999
#
# number of rings (size 3 to 8) (size 9 to 14) (size 15 to 20)
#    0.000    1.333    3.333    0.000    9.333    1.333 
#    0.000    0.000    0.000    0.000    0.000    0.000 
#    0.000    0.000    0.000    0.000    0.000    0.000 
#
# Total GULP energy -66976.584436 kJ/mol
# GULP energy per Si atom -5581.382036 kJ/mol
# Density = 2.701296 g / cm^3
# Si number density = 27.074578 Si / 1000 Ang^3
#
#
#
# Elastic Constant Matrix: (Units=GPa)
#
#
# Indices 1 2 3 4 5 6 
#
# 1 94.0691 17.6155 58.2321 0.0000 5.2287 0.0000
# 2 17.6155 56.6150 30.2950 0.0000 21.7293 0.0000
# 3 58.2321 30.2950 202.0294 0.0000 -1.6176 0.0000
# 4 0.0000 0.0000 0.0000 30.2188 0.0000 -0.4961
# 5 5.2287 21.7293 -1.6176 0.0000 47.1274 0.0000
# 6 0.0000 0.0000 0.0000 -0.4961 0.0000 28.3782
#
#
#
# Elastic Compliance Matrix: (Units=1/GPa)
#
#
# Indices 1 2 3 4 5 6 
#
# 1 0.013215 -0.001968 -0.003520 0.000000 -0.000680 0.000000
# 2 -0.001968 0.024202 -0.003150 0.000000 -0.011049 0.000000
# 3 -0.003520 -0.003150 0.006453 0.000000 0.002065 0.000000
# 4 0.000000 0.000000 0.000000 0.033102 0.000000 0.000579
# 5 -0.000680 -0.011049 0.002065 0.000000 0.026460 0.000000
# 6 0.000000 0.000000 0.000000 0.000579 0.000000 0.035248
#
#
# Mechanical properties :
#
#
# Convention : Reuss Voigt Hill
#
# Bulk Modulus (GPa) = 37.60096 62.77763 50.18929
# Shear Modulus (GPa) = 30.33604 37.58294 33.95949
#
# Velocity S-wave (km/s) = 3.35096 3.72980 3.54544
# Velocity P-wave (km/s) = 5.37494 6.46419 5.94457
#
# Compressibility (1/GPa) = 0.02659507
#
# Stress axis : x y z
#
# Youngs Moduli (GPa) = 75.66893 41.31926 154.96220
#
# Poissons Ratio (x) = 0.08130 0.54540
# Poissons Ratio (y) = 0.14889 0.48820
# Poissons Ratio (z) = 0.26632 0.13017
#
# Static dielectric constant tensor:
#      x y z
#    x 2.202560 0.000000 -0.021730 
#    y 0.000000 2.263490 0.000000 
#    z -0.021730 0.000000 2.226540 
# 
# From -- ./inp_files/8768.got.cif
#   From: 2010.05.17/outbox.cif.g08.bks.cpg/sg4_5_cif.got.tgz:8768.got - 2010.06.03 18:43:04.
