data_PCOD9117978
_publ_section_title
;
Structure prediction by ZEFSAII (Michael W. Deem and Ramdas Pophale) SiO2 
 PCOD9117978
Probable space group: P 21
;
_chemical_formula_sum "Si O2"
_cell_formula_units_Z 14
_cell_length_a 10.280174
_cell_length_b 11.630585
_cell_length_c 5.669885
_cell_angle_alpha 90.000000
_cell_angle_beta 73.918237
_cell_angle_gamma 90.000000
_cell_volume 651.387953
_symmetry_space_group_name_H-M "P 21"
_symmetry_group_IT_number 4
_symmetry_cell_setting 'monoclinic'
loop_
_space_group_symop_operation_xyz
x,y,z
-x,1/2+y,-z
loop_
_atom_site_type_symbol
_atom_site_label
_atom_site_fract_x
_atom_site_fract_y
_atom_site_fract_z
Si Si1 0.785385 0.746430 0.445826
Si Si2 0.345716 0.438262 0.716829
Si Si3 0.874009 0.513724 0.227797
Si Si4 0.726893 0.326749 0.997610
Si Si5 0.426214 0.382448 0.179296
Si Si6 0.884913 0.124096 0.177966
Si Si7 0.937475 0.316324 0.517281
O O1 0.704324 0.805413 0.272318
O O2 0.799425 0.610689 0.418251
O O3 0.700599 0.796815 0.709076
O O4 0.935878 0.799719 0.375708
O O5 0.432307 0.449452 0.430041
O O6 0.217229 0.519282 0.738328
O O7 0.404390 0.454388 0.949495
O O8 0.770883 0.434952 0.134213
O O9 0.962553 0.423258 0.333086
O O10 0.977339 0.580530 0.007005
O O11 0.566808 0.315964 0.077976
O O12 0.803290 0.215355 0.059614
O O13 0.795430 0.344516 0.710721
O O14 0.921421 0.196009 0.391277
#
# Coordination Sequence:
#
# PCOD9117978 Si02
#       7
#     2   2   2   2   2   2   2
#     4  10  24  42  72 102 140 190 231 293 353 425
#     4  10  25  46  72 100 144 190 239 279 363 421
#     4  11  25  42  70 106 140 182 240 297 354 423
#     4  11  26  45  68 104 141 184 239 294 355 426
#     4  10  26  46  71 103 147 189 236 288 354 429
#     4  11  25  43  73 104 141 185 238 297 361 420
#     4  11  25  42  72 103 141 180 239 298 358 420
#
# _framework density 21.492569
#
# number of rings (size 3 to 8) (size 9 to 14) (size 15 to 20)
#    0.857    0.571    1.429    1.714   14.000    1.143 
#    2.571    0.000    0.000    0.000    0.000    0.000 
#    0.000    0.000    0.000    0.000    0.000    0.000 
#
# Total GULP energy -78093.250989 kJ/mol
# GULP energy per Si atom -5578.089356 kJ/mol
# Density = 2.144365 g / cm^3
# Si number density = 21.492569 Si / 1000 Ang^3
#
#
#
# Elastic Constant Matrix: (Units=GPa)
#
#
# Indices 1 2 3 4 5 6 
#
# 1 30.3390 9.7916 15.4177 0.0000 -16.6343 0.0000
# 2 9.7916 78.3182 13.8634 0.0000 3.1994 0.0000
# 3 15.4177 13.8634 96.9981 0.0000 5.5080 0.0000
# 4 0.0000 0.0000 0.0000 12.7614 0.0000 -4.1322
# 5 -16.6343 3.1994 5.5080 0.0000 26.7666 0.0000
# 6 0.0000 0.0000 0.0000 -4.1322 0.0000 11.5714
#
#
#
# Elastic Compliance Matrix: (Units=1/GPa)
#
#
# Indices 1 2 3 4 5 6 
#
# 1 0.065831 -0.007943 -0.011844 0.000000 0.044298 0.000000
# 2 -0.007943 0.014096 -0.000381 0.000000 -0.006543 0.000000
# 3 -0.011844 -0.000381 0.012811 0.000000 -0.009951 0.000000
# 4 0.000000 0.000000 0.000000 0.088607 0.000000 0.031642
# 5 0.044298 -0.006543 -0.009951 0.000000 0.067719 0.000000
# 6 0.000000 0.000000 0.000000 0.031642 0.000000 0.097720
#
#
# Mechanical properties :
#
#
# Convention : Reuss Voigt Hill
#
# Bulk Modulus (GPa) = 19.08295 31.53342 25.30819
# Shear Modulus (GPa) = 12.35827 21.32538 16.84183
#
# Velocity S-wave (km/s) = 2.40052 3.15337 2.80234
# Velocity P-wave (km/s) = 4.07204 5.28791 4.71929
#
# Compressibility (1/GPa) = 0.05240279
#
# Stress axis : x y z
#
# Youngs Moduli (GPa) = 15.19048 70.94113 78.05493
#
# Poissons Ratio (x) = 0.56352 0.92447
# Poissons Ratio (y) = 0.12067 0.02970
# Poissons Ratio (z) = 0.17991 0.02700
#
# Static dielectric constant tensor:
#      x y z
#    x 1.743540 0.000000 0.038320 
#    y 0.000000 1.755990 0.000000 
#    z 0.038320 0.000000 1.862350 
# 
# From -- ./inp_files/2785.got.cif
#   From: 2010.05.17/outbox.cif.g08.bks.cpg/sg4_2_cif.got.tgz:2785.got - 2010.06.03 18:43:04.
