data_PCOD9117176
_publ_section_title
;
Structure prediction by ZEFSAII (Michael W. Deem and Ramdas Pophale) SiO2 
 PCOD9117176
Probable space group: P 21
;
_chemical_formula_sum "Si O2"
_cell_formula_units_Z 16
_cell_length_a 11.794530
_cell_length_b 13.491451
_cell_length_c 5.328147
_cell_angle_alpha 90.000000
_cell_angle_beta 47.820629
_cell_angle_gamma 90.000000
_cell_volume 628.291086
_symmetry_space_group_name_H-M "P 21"
_symmetry_group_IT_number 4
_symmetry_cell_setting 'monoclinic'
loop_
_space_group_symop_operation_xyz
x,y,z
-x,1/2+y,-z
loop_
_atom_site_type_symbol
_atom_site_label
_atom_site_fract_x
_atom_site_fract_y
_atom_site_fract_z
Si Si1 0.595331 0.042720 0.983156
Si Si2 0.107129 0.858857 0.415788
Si Si3 0.200340 0.756653 0.757004
Si Si4 0.531153 0.826543 0.324772
Si Si5 0.055357 0.522040 0.572165
Si Si6 0.384580 0.969116 0.904347
Si Si7 0.667740 0.645806 0.360377
Si Si8 0.963341 0.599598 0.209711
O O1 0.772783 0.060371 0.690317
O O2 0.507206 0.037897 0.853410
O O3 0.501790 0.126968 0.270431
O O4 0.575562 0.928757 0.116392
O O5 0.102527 0.788534 0.658395
O O6 0.163935 0.816153 0.066547
O O7 0.956789 0.918119 0.559882
O O8 0.244275 0.935672 0.286292
O O9 0.379064 0.774486 0.436586
O O10 0.127641 0.652192 0.929953
O O11 0.653711 0.741145 0.201674
O O12 0.474391 0.873650 0.672699
O O13 0.959381 0.588288 0.516643
O O14 0.990282 0.515709 0.951612
O O15 0.314476 0.037663 0.793334
O O16 0.809203 0.654335 0.343727
#
# Coordination Sequence:
#
# PCOD9117176 Si02
#       8
#     2   2   2   2   2   2   2   2
#     4  11  25  44  72 100 141 182 237 293 349 419
#     4  11  22  45  69  97 138 185 225 287 356 421
#     4  11  24  43  69  99 143 178 234 287 355 415
#     4  10  24  42  68 104 135 185 232 290 353 415
#     4  12  27  44  73 101 141 184 236 285 357 421
#     4  10  22  44  69 100 135 187 226 292 355 412
#     4  11  25  45  70 100 142 184 237 293 349 424
#     4  12  27  47  70 105 141 189 235 291 354 419
#
# _framework density 25.465903999999998
#
# number of rings (size 3 to 8) (size 9 to 14) (size 15 to 20)
#    0.000    1.000    2.500    3.000    8.750    3.000 
#    0.000    0.000    0.000    0.000    0.000    0.000 
#    0.000    0.000    0.000    0.000    0.000    0.000 
#
# Total GULP energy -89280.733964 kJ/mol
# GULP energy per Si atom -5580.045873 kJ/mol
# Density = 2.540794 g / cm^3
# Si number density = 25.465904 Si / 1000 Ang^3
#
#
#
# Elastic Constant Matrix: (Units=GPa)
#
#
# Indices 1 2 3 4 5 6 
#
# 1 104.7192 6.8971 26.4585 0.0000 -7.2197 0.0000
# 2 6.8971 63.9571 -3.1883 0.0000 3.6741 0.0000
# 3 26.4585 -3.1883 74.3901 0.0000 0.2323 0.0000
# 4 0.0000 0.0000 0.0000 32.9125 0.0000 -0.9588
# 5 -7.2197 3.6741 0.2323 0.0000 33.2634 0.0000
# 6 0.0000 0.0000 0.0000 -0.9588 0.0000 34.4405
#
#
#
# Elastic Compliance Matrix: (Units=1/GPa)
#
#
# Indices 1 2 3 4 5 6 
#
# 1 0.010814 -0.001507 -0.003919 0.000000 0.002541 0.000000
# 2 -0.001507 0.015980 0.001228 0.000000 -0.002101 0.000000
# 3 -0.003919 0.001228 0.014892 0.000000 -0.001090 0.000000
# 4 0.000000 0.000000 0.000000 0.030408 0.000000 0.000847
# 5 0.002541 -0.002101 -0.001090 0.000000 0.030854 0.000000
# 6 0.000000 0.000000 0.000000 0.000847 0.000000 0.029059
#
#
# Mechanical properties :
#
#
# Convention : Reuss Voigt Hill
#
# Bulk Modulus (GPa) = 30.03990 33.71123 31.87557
# Shear Modulus (GPa) = 33.00295 34.31656 33.65976
#
# Velocity S-wave (km/s) = 3.60386 3.67488 3.63954
# Velocity P-wave (km/s) = 5.39804 5.59221 5.49598
#
# Compressibility (1/GPa) = 0.03328905
#
# Stress axis : x y z
#
# Youngs Moduli (GPa) = 92.47318 62.57846 67.14800
#
# Poissons Ratio (x) = 0.09434 0.26314
# Poissons Ratio (y) = 0.13940 -0.08243
# Poissons Ratio (z) = 0.36238 -0.07682
#
# Static dielectric constant tensor:
#      x y z
#    x 2.020600 0.000000 0.044590 
#    y 0.000000 2.131660 0.000000 
#    z 0.044590 0.000000 2.043160 
# 
# From -- ./inp_files/1618.got.cif
#   From: 2010.05.17/outbox.cif.g08.bks.cpg/sg4_1_cif.got.tgz:1618.got - 2010.06.03 18:43:04.
