data_PCOD9117503
_publ_section_title
;
Structure prediction by ZEFSAII (Michael W. Deem and Ramdas Pophale) SiO2 
 PCOD9117503
Probable space group: P 21
;
_chemical_formula_sum "Si O2"
_cell_formula_units_Z 14
_cell_length_a 9.339767
_cell_length_b 13.030807
_cell_length_c 10.820586
_cell_angle_alpha 90.000000
_cell_angle_beta 152.688820
_cell_angle_gamma 90.000000
_cell_volume 604.231356
_symmetry_space_group_name_H-M "P 21"
_symmetry_group_IT_number 4
_symmetry_cell_setting 'monoclinic'
loop_
_space_group_symop_operation_xyz
x,y,z
-x,1/2+y,-z
loop_
_atom_site_type_symbol
_atom_site_label
_atom_site_fract_x
_atom_site_fract_y
_atom_site_fract_z
Si Si1 0.038883 0.278830 0.825792
Si Si2 0.968489 0.457757 0.402148
Si Si3 0.852505 0.626417 0.621142
Si Si4 0.381583 0.871388 0.090783
Si Si5 0.612186 0.403084 0.358246
Si Si6 0.193472 0.184947 0.678449
Si Si7 0.812980 0.212381 0.891687
O O1 0.112298 0.221885 0.754364
O O2 0.702794 0.327788 0.538714
O O3 0.021194 0.205035 0.929805
O O4 0.283898 0.369619 0.047374
O O5 0.853776 0.388759 0.428932
O O6 0.776055 0.562866 0.272180
O O7 0.343659 0.455697 0.688204
O O8 0.864521 0.408818 0.195879
O O9 0.709210 0.514528 0.483102
O O10 0.991342 0.670083 0.596829
O O11 0.543295 0.689850 0.414934
O O12 0.075378 0.639833 0.909652
O O13 0.551537 0.768140 0.169628
O O14 0.198242 0.830120 0.069120
#
# Coordination Sequence:
#
# PCOD9117503 Si02
#       7
#     2   2   2   2   2   2   2
#     4  12  24  42  66  98 136 165 220 275 339 375
#     4  11  22  39  67 101 123 170 226 269 328 382
#     4  10  23  44  69  92 130 175 230 254 336 401
#     4  11  22  42  65  92 137 170 218 267 325 399
#     4  11  22  41  69  97 126 175 219 276 321 404
#     4  10  23  41  71  96 127 173 218 286 316 388
#     4  11  24  43  65  96 133 180 207 273 333 403
#
# _framework density 23.169934000000001
#
# number of rings (size 3 to 8) (size 9 to 14) (size 15 to 20)
#    0.000    1.143    2.857    3.429    0.000    8.000 
#    7.714    0.000    0.000    0.000    0.000    0.000 
#    0.000    0.000    0.000    0.000    0.000    0.000 
#
# Total GULP energy -77962.575494 kJ/mol
# GULP energy per Si atom -5568.755392 kJ/mol
# Density = 2.311720 g / cm^3
# Si number density = 23.169934 Si / 1000 Ang^3
#
#
#
# Elastic Constant Matrix: (Units=GPa)
#
#
# Indices 1 2 3 4 5 6 
#
# 1 96.3253 12.6141 17.5783 0.0000 -28.4828 0.0000
# 2 12.6141 42.2597 13.5277 0.0000 -11.5185 0.0000
# 3 17.5783 13.5277 89.7873 0.0000 -12.6048 0.0000
# 4 0.0000 0.0000 0.0000 23.3322 0.0000 -11.3896
# 5 -28.4828 -11.5185 -12.6048 0.0000 27.8223 0.0000
# 6 0.0000 0.0000 0.0000 -11.3896 0.0000 10.6649
#
#
#
# Elastic Compliance Matrix: (Units=1/GPa)
#
#
# Indices 1 2 3 4 5 6 
#
# 1 0.014947 -0.000147 -0.000816 0.000000 0.014871 0.000000
# 2 -0.000147 0.027272 -0.002687 0.000000 0.009923 0.000000
# 3 -0.000816 -0.002687 0.012205 0.000000 0.003581 0.000000
# 4 0.000000 0.000000 0.000000 0.089537 0.000000 0.095622
# 5 0.014871 0.009923 0.003581 0.000000 0.056897 0.000000
# 6 0.000000 0.000000 0.000000 0.095622 0.000000 0.195886
#
#
# Mechanical properties :
#
#
# Convention : Reuss Voigt Hill
#
# Bulk Modulus (GPa) = 21.22107 35.09027 28.15567
# Shear Modulus (GPa) = 11.91179 24.67401 18.29290
#
# Velocity S-wave (km/s) = 2.26985 3.26684 2.81287
# Velocity P-wave (km/s) = 4.00604 5.42285 4.76737
#
# Compressibility (1/GPa) = 0.04712297
#
# Stress axis : x y z
#
# Youngs Moduli (GPa) = 66.90288 36.66782 81.93460
#
# Poissons Ratio (x) = 0.00538 0.06690
# Poissons Ratio (y) = 0.00982 0.22017
# Poissons Ratio (z) = 0.05462 0.09853
#
# Static dielectric constant tensor:
#      x y z
#    x 1.891890 0.000000 0.008380 
#    y 0.000000 1.926630 0.000000 
#    z 0.008380 0.000000 1.838340 
# 
# From -- ./inp_files/3152.got.cif
#   From: 2010.05.17/outbox.cif.g08.bks.cpg/sg4_2_cif.got.tgz:3152.got - 2010.06.03 18:43:04.
