data_PCOD9117346
_publ_section_title
;
Structure prediction by ZEFSAII (Michael W. Deem and Ramdas Pophale) SiO2 
 PCOD9117346
Probable space group: P 21
;
_chemical_formula_sum "Si O2"
_cell_formula_units_Z 16
_cell_length_a 14.154014
_cell_length_b 5.310797
_cell_length_c 8.768746
_cell_angle_alpha 90.000000
_cell_angle_beta 109.726613
_cell_angle_gamma 90.000000
_cell_volume 620.456401
_symmetry_space_group_name_H-M "P 21"
_symmetry_group_IT_number 4
_symmetry_cell_setting 'monoclinic'
loop_
_space_group_symop_operation_xyz
x,y,z
-x,1/2+y,-z
loop_
_atom_site_type_symbol
_atom_site_label
_atom_site_fract_x
_atom_site_fract_y
_atom_site_fract_z
Si Si1 0.436237 0.341980 0.937857
Si Si2 0.372507 0.859335 0.392956
Si Si3 0.092109 0.795944 0.982297
Si Si4 0.731516 0.646239 0.926934
Si Si5 0.124134 0.092788 0.517309
Si Si6 0.607288 0.859805 0.434524
Si Si7 0.885926 0.076827 0.329370
Si Si8 0.864675 0.921826 0.782068
O O1 0.397725 0.396175 0.747685
O O2 0.490526 0.596779 0.025591
O O3 0.345375 0.259553 0.996394
O O4 0.325987 0.936106 0.205845
O O5 0.492055 0.852009 0.430372
O O6 0.350115 0.088475 0.496232
O O7 0.343053 0.599051 0.456463
O O8 0.115279 0.611132 0.853045
O O9 0.973893 0.842760 0.909034
O O10 0.121426 0.720042 0.173147
O O11 0.163691 0.021731 0.970359
O O12 0.770045 0.856729 0.833054
O O13 0.158106 0.305647 0.655195
O O14 0.143772 0.255563 0.373471
O O15 0.002877 0.063140 0.443804
O O16 0.157727 0.815947 0.597243
#
# Coordination Sequence:
#
# PCOD9117346 Si02
#       8
#     2   2   2   2   2   2   2   2
#     4  12  27  49  81 114 154 196 250 314 392 458
#     4  10  23  44  75 106 148 194 249 299 376 456
#     4  11  25  45  70 105 150 198 259 318 376 437
#     4  12  28  46  73 111 150 202 255 311 377 456
#     4   9  20  39  65  94 128 184 245 295 369 432
#     4  10  22  46  75 109 147 196 236 308 380 453
#     4   9  20  39  66  93 133 183 237 305 365 429
#     4  11  25  44  73 102 148 203 257 318 373 441
#
# _framework density 25.787468000000001
#
# number of rings (size 3 to 8) (size 9 to 14) (size 15 to 20)
#    0.000    1.500    2.500    0.750   10.500    1.000 
#    2.250    0.000    0.000    0.000    0.000    0.000 
#    0.000    0.000    0.000    0.000    0.000    0.000 
#
# Total GULP energy -89423.393775 kJ/mol
# GULP energy per Si atom -5588.962111 kJ/mol
# Density = 2.572877 g / cm^3
# Si number density = 25.787468 Si / 1000 Ang^3
#
#
#
# Elastic Constant Matrix: (Units=GPa)
#
#
# Indices 1 2 3 4 5 6 
#
# 1 85.5977 42.2435 27.1816 0.0000 -1.2595 0.0000
# 2 42.2435 136.5798 57.6221 0.0000 -1.6647 0.0000
# 3 27.1816 57.6221 120.2213 0.0000 -14.1439 0.0000
# 4 0.0000 0.0000 0.0000 51.3963 0.0000 -3.4071
# 5 -1.2595 -1.6647 -14.1439 0.0000 27.0374 0.0000
# 6 0.0000 0.0000 0.0000 -3.4071 0.0000 35.5275
#
#
#
# Elastic Compliance Matrix: (Units=1/GPa)
#
#
# Indices 1 2 3 4 5 6 
#
# 1 0.013965 -0.003730 -0.001407 0.000000 -0.000315 0.000000
# 2 -0.003730 0.010261 -0.004285 0.000000 -0.001783 0.000000
# 3 -0.001407 -0.004285 0.011350 0.000000 0.005608 0.000000
# 4 0.000000 0.000000 0.000000 0.019581 0.000000 0.001878
# 5 -0.000315 -0.001783 0.005608 0.000000 0.039795 0.000000
# 6 0.000000 0.000000 0.000000 0.001878 0.000000 0.028327
#
#
# Mechanical properties :
#
#
# Convention : Reuss Voigt Hill
#
# Bulk Modulus (GPa) = 59.76084 66.27700 63.01892
# Shear Modulus (GPa) = 33.85238 37.14902 35.50070
#
# Velocity S-wave (km/s) = 3.62711 3.79962 3.71437
# Velocity P-wave (km/s) = 6.38482 6.70869 6.54876
#
# Compressibility (1/GPa) = 0.01673337
#
# Stress axis : x y z
#
# Youngs Moduli (GPa) = 71.60585 97.45375 88.10922
#
# Poissons Ratio (x) = 0.36347 0.12396
# Poissons Ratio (y) = 0.26707 0.37753
# Poissons Ratio (z) = 0.10075 0.41757
#
# Static dielectric constant tensor:
#      x y z
#    x 2.016730 0.000000 -0.002860 
#    y 0.000000 2.114240 0.000000 
#    z -0.002860 0.000000 2.059480 
# 
# From -- ./inp_files/9051.got.cif
#   From: 2010.05.17/outbox.cif.g08.bks.cpg/sg4_5_cif.got.tgz:9051.got - 2010.06.03 18:43:04.
