data_PCOD9117060
_publ_section_title
;
Structure prediction by ZEFSAII (Michael W. Deem and Ramdas Pophale) SiO2 
 PCOD9117060
Probable space group: P 21
;
_chemical_formula_sum "Si O2"
_cell_formula_units_Z 16
_cell_length_a 27.141199
_cell_length_b 5.702841
_cell_length_c 15.665568
_cell_angle_alpha 90.000000
_cell_angle_beta 163.380433
_cell_angle_gamma 90.000000
_cell_volume 693.515544
_symmetry_space_group_name_H-M "P 21"
_symmetry_group_IT_number 4
_symmetry_cell_setting 'monoclinic'
loop_
_space_group_symop_operation_xyz
x,y,z
-x,1/2+y,-z
loop_
_atom_site_type_symbol
_atom_site_label
_atom_site_fract_x
_atom_site_fract_y
_atom_site_fract_z
Si Si1 0.581987 0.360410 0.981612
Si Si2 0.700953 0.875287 0.790573
Si Si3 0.670379 0.353501 0.312107
Si Si4 0.575055 0.865564 0.930954
Si Si5 0.993211 0.068680 0.191270
Si Si6 0.543199 0.377236 0.460938
Si Si7 0.964781 0.970255 0.819354
Si Si8 0.799456 0.832059 0.718308
O O1 0.663884 0.612738 0.095216
O O2 0.400070 0.361894 0.630413
O O3 0.670716 0.114808 0.103938
O O4 0.546389 0.342790 0.024468
O O5 0.631622 0.125867 0.634825
O O6 0.630272 0.875967 0.769063
O O7 0.631787 0.630800 0.633361
O O8 0.906443 0.908586 0.117650
O O9 0.572995 0.373551 0.239883
O O10 0.810166 0.542037 0.512651
O O11 0.803983 0.139880 0.537600
O O12 0.501383 0.867745 0.713099
O O13 0.987667 0.345061 0.189924
O O14 0.878076 0.015946 0.915558
O O15 0.901520 0.842564 0.799779
O O16 0.139829 0.092618 0.139057
#
# Coordination Sequence:
#
# PCOD9117060 Si02
#       8
#     2   2   2   2   2   2   2   2
#     4  12  27  41  66  92 134 183 229 271 318 400
#     4  10  23  40  67  98 132 172 220 279 344 394
#     4  11  27  42  59  96 139 182 227 262 329 406
#     4  12  24  41  65  93 129 178 222 276 328 386
#     4  11  24  39  64  93 134 175 212 277 342 397
#     4  10  22  43  65  99 134 167 223 286 334 398
#     4  11  23  38  57  91 134 178 217 272 331 400
#     4  11  22  36  57  90 126 171 222 265 328 385
#
# _framework density 23.07086
#
# number of rings (size 3 to 8) (size 9 to 14) (size 15 to 20)
#    0.000    1.000    2.500    3.750   10.500    0.000 
#    0.000    0.000    0.000    1.500    0.000    0.000 
#    0.000    0.000    0.000    0.000    0.000    0.000 
#
# Total GULP energy -89176.472030 kJ/mol
# GULP energy per Si atom -5573.529502 kJ/mol
# Density = 2.301835 g / cm^3
# Si number density = 23.070860 Si / 1000 Ang^3
#
#
#
# Elastic Constant Matrix: (Units=GPa)
#
#
# Indices 1 2 3 4 5 6 
#
# 1 109.5041 35.1266 20.4761 0.0000 -11.0312 0.0000
# 2 35.1266 142.3648 2.4789 0.0000 -3.8565 0.0000
# 3 20.4761 2.4789 53.7105 0.0000 -13.8525 0.0000
# 4 0.0000 0.0000 0.0000 0.2087 0.0000 2.8046
# 5 -11.0312 -3.8565 -13.8525 0.0000 27.5373 0.0000
# 6 0.0000 0.0000 0.0000 2.8046 0.0000 34.1196
#
#
#
# Elastic Compliance Matrix: (Units=1/GPa)
#
#
# Indices 1 2 3 4 5 6 
#
# 1 0.010817 -0.002548 -0.003425 0.000000 0.002253 0.000000
# 2 -0.002548 0.007652 0.000726 0.000000 0.000416 0.000000
# 3 -0.003425 0.000726 0.022479 0.000000 0.010038 0.000000
# 4 0.000000 0.000000 0.000000-45.749642 0.000000 3.760610
# 5 0.002253 0.000416 0.010038 0.000000 0.042325 0.000000
# 6 0.000000 0.000000 0.000000 3.760610 0.000000 -0.279813
#
#
# Mechanical properties :
#
#
# Convention : Reuss Voigt Hill
#
# Bulk Modulus (GPa) = 32.83797 46.86029 39.84913
# Shear Modulus (GPa) = -0.10887 28.87297 14.38205
#
# Velocity S-wave (km/s) = -0.21747 3.54148 2.49948
# Velocity P-wave (km/s) = 3.76847 6.08920 5.06358
#
# Compressibility (1/GPa) = 0.03045255
#
# Stress axis : x y z
#
# Youngs Moduli (GPa) = 92.44759 130.69193 44.48524
#
# Poissons Ratio (x) = 0.33304 0.15236
# Poissons Ratio (y) = 0.23558 -0.03228
# Poissons Ratio (z) = 0.31663 -0.09482
#
# Static dielectric constant tensor:
#      x y z
#    x 1.862140 0.000000 0.052100 
#    y 0.000000 2.233910 0.000000 
#    z 0.052100 0.000000 1.943620 
# 
# From -- ./inp_files/14598.got.cif
#   From: 2010.05.17/outbox.cif.g08.bks.cpg/sg4_8_cif.got.tgz:14598.got - 2010.06.03 18:43:04.
