data_PCOD9117801
_publ_section_title
;
Structure prediction by ZEFSAII (Michael W. Deem and Ramdas Pophale) SiO2 
 PCOD9117801
Probable space group: P 21
;
_chemical_formula_sum "Si O2"
_cell_formula_units_Z 14
_cell_length_a 5.013958
_cell_length_b 11.776649
_cell_length_c 8.827958
_cell_angle_alpha 90.000000
_cell_angle_beta 97.816981
_cell_angle_gamma 90.000000
_cell_volume 516.426078
_symmetry_space_group_name_H-M "P 21"
_symmetry_group_IT_number 4
_symmetry_cell_setting 'monoclinic'
loop_
_space_group_symop_operation_xyz
x,y,z
-x,1/2+y,-z
loop_
_atom_site_type_symbol
_atom_site_label
_atom_site_fract_x
_atom_site_fract_y
_atom_site_fract_z
Si Si1 0.617914 0.141020 0.383240
Si Si2 0.727837 0.767448 0.853947
Si Si3 0.120550 0.989825 0.405559
Si Si4 0.377330 0.684811 0.272674
Si Si5 0.336072 0.064022 0.985656
Si Si6 0.332684 0.390433 0.832446
Si Si7 0.988349 0.464930 0.265110
O O1 0.550502 0.225907 0.242431
O O2 0.922650 0.099410 0.397821
O O3 0.558053 0.193034 0.544326
O O4 0.409827 0.033077 0.371508
O O5 0.830353 0.854398 0.737476
O O6 0.840725 0.644657 0.919617
O O7 0.729865 0.829949 0.013607
O O8 0.152786 0.956805 0.583973
O O9 0.926953 0.902994 0.297424
O O10 0.565476 0.625640 0.159934
O O11 0.425761 0.814660 0.220675
O O12 0.138352 0.588488 0.260178
O O13 0.186075 0.958466 0.900710
O O14 0.578114 0.013378 0.100381
#
# Coordination Sequence:
#
# PCOD9117801 Si02
#       7
#     2   2   2   2   2   2   2
#     4  11  24  48  72 110 141 195 239 304 355 449
#     4  11  25  41  73 104 146 184 248 297 376 426
#     4  11  25  48  75 103 150 187 247 295 367 435
#     4  10  23  46  68 101 147 189 248 293 373 438
#     4  11  23  44  67 109 138 194 240 309 362 444
#     4  11  24  45  73 107 147 192 240 314 370 438
#     4  11  24  44  70 102 143 195 242 302 365 446
#
# _framework density 27.109399
#
# number of rings (size 3 to 8) (size 9 to 14) (size 15 to 20)
#    0.000    1.143    4.286    0.857    4.000    1.143 
#    2.571    2.857    0.000    0.000    0.000    0.000 
#    0.000    0.000    0.000    0.000    0.000    0.000 
#
# Total GULP energy -78123.131852 kJ/mol
# GULP energy per Si atom -5580.223704 kJ/mol
# Density = 2.704770 g / cm^3
# Si number density = 27.109399 Si / 1000 Ang^3
#
#
#
# Elastic Constant Matrix: (Units=GPa)
#
#
# Indices 1 2 3 4 5 6 
#
# 1 79.0992 14.9015 11.5138 0.0000 -0.6109 0.0000
# 2 14.9015 82.2626 18.9328 0.0000 -2.4010 0.0000
# 3 11.5138 18.9328 151.7861 0.0000 -8.1393 0.0000
# 4 0.0000 0.0000 0.0000 63.5781 0.0000 -1.1297
# 5 -0.6109 -2.4010 -8.1393 0.0000 34.9810 0.0000
# 6 0.0000 0.0000 0.0000 -1.1297 0.0000 25.0500
#
#
#
# Elastic Compliance Matrix: (Units=1/GPa)
#
#
# Indices 1 2 3 4 5 6 
#
# 1 0.013166 -0.002220 -0.000727 0.000000 -0.000092 0.000000
# 2 -0.002220 0.012899 -0.001413 0.000000 0.000518 0.000000
# 3 -0.000727 -0.001413 0.006900 0.000000 0.001496 0.000000
# 4 0.000000 0.000000 0.000000 0.015741 0.000000 0.000710
# 5 -0.000092 0.000518 0.001496 0.000000 0.028969 0.000000
# 6 0.000000 0.000000 0.000000 0.000710 0.000000 0.039952
#
#
# Mechanical properties :
#
#
# Convention : Reuss Voigt Hill
#
# Bulk Modulus (GPa) = 41.24610 44.87159 43.05884
# Shear Modulus (GPa) = 37.19476 42.57513 39.88495
#
# Velocity S-wave (km/s) = 3.70810 3.96724 3.83986
# Velocity P-wave (km/s) = 5.79492 6.12971 5.96466
#
# Compressibility (1/GPa) = 0.02424472
#
# Stress axis : x y z
#
# Youngs Moduli (GPa) = 75.95493 77.52748 144.93263
#
# Poissons Ratio (x) = 0.17214 0.10532
# Poissons Ratio (y) = 0.16865 0.20475
# Poissons Ratio (z) = 0.05519 0.10952
#
# Static dielectric constant tensor:
#      x y z
#    x 2.133470 0.000000 0.024760 
#    y 0.000000 2.217270 0.000000 
#    z 0.024760 0.000000 2.081620 
# 
# From -- ./inp_files/1136.got.cif
#   From: 2010.05.17/outbox.cif.g08.bks.cpg/sg4_1_cif.got.tgz:1136.got - 2010.06.03 18:43:04.
