data_PCOD9117387
_publ_section_title
;
Structure prediction by ZEFSAII (Michael W. Deem and Ramdas Pophale) SiO2 
 PCOD9117387
Probable space group: P 21
;
_chemical_formula_sum "Si O2"
_cell_formula_units_Z 14
_cell_length_a 10.684661
_cell_length_b 9.061624
_cell_length_c 10.714142
_cell_angle_alpha 90.000000
_cell_angle_beta 142.603553
_cell_angle_gamma 90.000000
_cell_volume 630.008587
_symmetry_space_group_name_H-M "P 21"
_symmetry_group_IT_number 4
_symmetry_cell_setting 'monoclinic'
loop_
_space_group_symop_operation_xyz
x,y,z
-x,1/2+y,-z
loop_
_atom_site_type_symbol
_atom_site_label
_atom_site_fract_x
_atom_site_fract_y
_atom_site_fract_z
Si Si1 0.680397 0.764010 0.419549
Si Si2 0.113453 0.724524 0.890101
Si Si3 0.461918 0.937207 0.057286
Si Si4 0.274283 0.175691 0.083312
Si Si5 0.813434 0.220830 0.760483
Si Si6 0.542507 0.479701 0.562446
Si Si7 0.576055 0.983554 0.865276
O O1 0.554687 0.862627 0.417826
O O2 0.571710 0.606186 0.313448
O O3 0.900205 0.743755 0.653286
O O4 0.661411 0.858776 0.277502
O O5 0.276895 0.831001 0.952768
O O6 0.117873 0.755023 0.041870
O O7 0.204140 0.562413 0.944203
O O8 0.486305 0.949694 0.930101
O O9 0.401570 0.089959 0.076653
O O10 0.372581 0.336988 0.169198
O O11 0.315180 0.090738 0.244852
O O12 0.028976 0.181100 0.864056
O O13 0.700587 0.367681 0.617773
O O14 0.651846 0.082741 0.632930
#
# Coordination Sequence:
#
# PCOD9117387 Si02
#       7
#     2   2   2   2   2   2   2
#     4  10  23  46  69 100 139 181 226 286 349 407
#     4  11  24  44  70  97 141 181 230 281 351 406
#     4  10  22  49  68  98 140 181 228 297 335 409
#     4  11  25  42  69 105 134 179 234 280 352 416
#     4  12  27  44  71 100 141 184 226 292 344 418
#     4  11  27  43  67  99 145 180 228 286 351 408
#     4  11  24  42  74  99 138 180 234 288 348 406
#
# _framework density 22.221919
#
# number of rings (size 3 to 8) (size 9 to 14) (size 15 to 20)
#    0.000    1.143    4.286    2.571    6.000    2.286 
#    0.000    4.286    0.000    0.000    0.000    0.000 
#    0.000    0.000    0.000    0.000    0.000    0.000 
#
# Total GULP energy -78254.283002 kJ/mol
# GULP energy per Si atom -5589.591643 kJ/mol
# Density = 2.217134 g / cm^3
# Si number density = 22.221919 Si / 1000 Ang^3
#
#
#
# Elastic Constant Matrix: (Units=GPa)
#
#
# Indices 1 2 3 4 5 6 
#
# 1 45.0562 24.3233 27.9162 0.0000 -3.8979 0.0000
# 2 24.3233 160.9427 71.3426 0.0000 5.6837 0.0000
# 3 27.9162 71.3426 175.8476 0.0000 15.9038 0.0000
# 4 0.0000 0.0000 0.0000 33.4880 0.0000 -3.9988
# 5 -3.8979 5.6837 15.9038 0.0000 17.6490 0.0000
# 6 0.0000 0.0000 0.0000 -3.9988 0.0000 28.0175
#
#
#
# Elastic Compliance Matrix: (Units=1/GPa)
#
#
# Indices 1 2 3 4 5 6 
#
# 1 0.027130 -0.002610 -0.004209 0.000000 0.010625 0.000000
# 2 -0.002610 0.007829 -0.002702 0.000000 -0.000663 0.000000
# 3 -0.004209 -0.002702 0.008118 0.000000 -0.007375 0.000000
# 4 0.000000 0.000000 0.000000 0.030379 0.000000 0.004336
# 5 0.010625 -0.000663 -0.007375 0.000000 0.065866 0.000000
# 6 0.000000 0.000000 0.000000 0.004336 0.000000 0.036311
#
#
# Mechanical properties :
#
#
# Convention : Reuss Voigt Hill
#
# Bulk Modulus (GPa) = 41.60455 69.89008 55.74732
# Shear Modulus (GPa) = 24.66852 33.04852 28.85852
#
# Velocity S-wave (km/s) = 3.33543 3.86061 3.60759
# Velocity P-wave (km/s) = 5.79624 7.16880 6.51874
#
# Compressibility (1/GPa) = 0.02403583
#
# Stress axis : x y z
#
# Youngs Moduli (GPa) = 36.85898 127.73119 123.18010
#
# Poissons Ratio (x) = 0.33333 0.51849
# Poissons Ratio (y) = 0.09619 0.33284
# Poissons Ratio (z) = 0.15515 0.34514
#
# Static dielectric constant tensor:
#      x y z
#    x 1.849400 0.000000 -0.034840 
#    y 0.000000 1.866180 0.000000 
#    z -0.034840 0.000000 1.845170 
# 
# From -- ./inp_files/11924.got.cif
#   From: 2010.05.17/outbox.cif.g08.bks.cpg/sg4_6_cif.got.tgz:11924.got - 2010.06.03 18:43:04.
