data_PCOD9117720
_publ_section_title
;
Structure prediction by ZEFSAII (Michael W. Deem and Ramdas Pophale) SiO2 
 PCOD9117720
Probable space group: P 21
;
_chemical_formula_sum "Si O2"
_cell_formula_units_Z 16
_cell_length_a 13.390333
_cell_length_b 10.310900
_cell_length_c 5.252076
_cell_angle_alpha 90.000000
_cell_angle_beta 73.070704
_cell_angle_gamma 90.000000
_cell_volume 693.711282
_symmetry_space_group_name_H-M "P 21"
_symmetry_group_IT_number 4
_symmetry_cell_setting 'monoclinic'
loop_
_space_group_symop_operation_xyz
x,y,z
-x,1/2+y,-z
loop_
_atom_site_type_symbol
_atom_site_label
_atom_site_fract_x
_atom_site_fract_y
_atom_site_fract_z
Si Si1 0.136283 0.059440 0.848875
Si Si2 0.473342 0.118066 0.255228
Si Si3 0.221864 0.801488 0.964851
Si Si4 0.554756 0.355766 0.446240
Si Si5 0.249469 0.150275 0.261301
Si Si6 0.895363 0.045124 0.003011
Si Si7 0.347348 0.664766 0.247748
Si Si8 0.202049 0.440294 0.447987
O O1 0.191965 0.071652 0.532686
O O2 0.143802 0.915442 0.961114
O O3 0.195787 0.139086 0.025585
O O4 0.014854 0.089564 0.909257
O O5 0.473658 0.266792 0.353223
O O6 0.369214 0.102139 0.165341
O O7 0.470540 0.002688 0.464420
O O8 0.583773 0.106276 0.031920
O O9 0.332964 0.848245 0.773794
O O10 0.175101 0.670824 0.886153
O O11 0.251970 0.756610 0.226543
O O12 0.574717 0.263281 0.673947
O O13 0.241625 0.297792 0.358192
O O14 0.870400 0.946031 0.249236
O O15 0.860257 0.989492 0.756102
O O16 0.297608 0.540591 0.418045
#
# Coordination Sequence:
#
# PCOD9117720 Si02
#       8
#     2   2   2   2   2   2   2   2
#     4  12  27  47  72 105 142 186 234 295 357 422
#     4  11  27  40  72 101 141 191 234 294 355 426
#     4  10  23  44  71  96 142 177 242 290 351 423
#     4  11  23  46  66 101 138 186 241 286 359 421
#     4  12  28  46  69 107 147 180 235 298 352 417
#     4  11  25  47  74 104 134 192 230 292 356 426
#     4  10  24  43  70  98 137 189 233 288 356 421
#     4  11  25  47  72 104 143 179 237 291 352 424
#
# _framework density 23.064350999999998
#
# number of rings (size 3 to 8) (size 9 to 14) (size 15 to 20)
#    0.000    1.000    2.500    2.250    8.750    1.000 
#    0.000    0.000    0.000    0.000    0.000    0.000 
#    0.000    0.000    0.000    0.000    0.000    0.000 
#
# Total GULP energy -89408.538993 kJ/mol
# GULP energy per Si atom -5588.033687 kJ/mol
# Density = 2.301186 g / cm^3
# Si number density = 23.064351 Si / 1000 Ang^3
#
#
#
# Elastic Constant Matrix: (Units=GPa)
#
#
# Indices 1 2 3 4 5 6 
#
# 1 102.9831 18.3574 19.6977 0.0000 11.1770 0.0000
# 2 18.3574 64.5683 -7.5295 0.0000 0.6014 0.0000
# 3 19.6977 -7.5295 52.1051 0.0000 10.0629 0.0000
# 4 0.0000 0.0000 0.0000 32.4424 0.0000 -3.9497
# 5 11.1770 0.6014 10.0629 0.0000 10.2032 0.0000
# 6 0.0000 0.0000 0.0000 -3.9497 0.0000 34.3190
#
#
#
# Elastic Compliance Matrix: (Units=1/GPa)
#
#
# Indices 1 2 3 4 5 6 
#
# 1 0.012049 -0.003706 -0.003191 0.000000 -0.009832 0.000000
# 2 -0.003706 0.017021 0.004040 0.000000 -0.000928 0.000000
# 3 -0.003191 0.004040 0.025142 0.000000 -0.021538 0.000000
# 4 0.000000 0.000000 0.000000 0.031262 0.000000 0.003598
# 5 -0.009832 -0.000928 -0.021538 0.000000 0.130076 0.000000
# 6 0.000000 0.000000 0.000000 0.003598 0.000000 0.029552
#
#
# Mechanical properties :
#
#
# Convention : Reuss Voigt Hill
#
# Bulk Modulus (GPa) = 20.62034 31.18976 25.90505
# Shear Modulus (GPa) = 18.72786 28.00166 23.36476
#
# Velocity S-wave (km/s) = 2.85262 3.48813 3.18626
# Velocity P-wave (km/s) = 4.45081 5.45665 4.97919
#
# Compressibility (1/GPa) = 0.04849580
#
# Stress axis : x y z
#
# Youngs Moduli (GPa) = 82.99760 58.75129 39.77434
#
# Poissons Ratio (x) = 0.21774 0.12694
# Poissons Ratio (y) = 0.30760 -0.16068
# Poissons Ratio (z) = 0.26488 -0.23734
#
# Static dielectric constant tensor:
#      x y z
#    x 1.828760 0.000000 0.032660 
#    y 0.000000 1.851570 0.000000 
#    z 0.032660 0.000000 1.910330 
# 
# From -- ./inp_files/2616.got.cif
#   From: 2010.05.17/outbox.cif.g08.bks.cpg/sg4_2_cif.got.tgz:2616.got - 2010.06.03 18:43:04.
