data_PCOD9117283
_publ_section_title
;
Structure prediction by ZEFSAII (Michael W. Deem and Ramdas Pophale) SiO2 
 PCOD9117283
Probable space group: P 21
;
_chemical_formula_sum "Si O2"
_cell_formula_units_Z 14
_cell_length_a 14.124322
_cell_length_b 5.205633
_cell_length_c 8.483931
_cell_angle_alpha 90.000000
_cell_angle_beta 125.483843
_cell_angle_gamma 90.000000
_cell_volume 507.939102
_symmetry_space_group_name_H-M "P 21"
_symmetry_group_IT_number 4
_symmetry_cell_setting 'monoclinic'
loop_
_space_group_symop_operation_xyz
x,y,z
-x,1/2+y,-z
loop_
_atom_site_type_symbol
_atom_site_label
_atom_site_fract_x
_atom_site_fract_y
_atom_site_fract_z
Si Si1 0.876173 0.365980 0.789497
Si Si2 0.767193 0.417758 0.156560
Si Si3 0.461527 0.225667 0.058082
Si Si4 0.586216 0.909977 0.419499
Si Si5 0.983523 0.858805 0.738147
Si Si6 0.203796 0.521461 0.558918
Si Si7 0.336960 0.692080 0.239012
O O1 0.876846 0.101159 0.679709
O O2 0.743121 0.371122 0.724816
O O3 0.919256 0.583977 0.716300
O O4 0.956244 0.362850 0.018813
O O5 0.896419 0.457447 0.225476
O O6 0.759300 0.272713 0.315469
O O7 0.673521 0.647401 0.050841
O O8 0.721067 0.204556 0.985227
O O9 0.530557 0.170910 0.288020
O O10 0.509654 0.001485 0.986637
O O11 0.471441 0.753484 0.340005
O O12 0.687374 0.856338 0.391714
O O13 0.655530 0.939957 0.648617
O O14 0.904551 0.877236 0.482291
#
# Coordination Sequence:
#
# PCOD9117283 Si02
#       7
#     2   2   2   2   2   2   2
#     4   9  23  45  71 100 146 190 239 288 366 417
#     4  11  24  46  73 110 148 188 250 295 366 441
#     4  11  25  47  72 108 141 188 239 306 356 430
#     4  10  22  45  70 105 144 189 240 301 367 428
#     4  10  24  44  73 105 141 195 235 300 354 429
#     4   9  22  44  70 106 141 192 233 304 350 431
#     4  10  24  43  73 108 143 198 240 306 365 440
#
# _framework density 27.562358
#
# number of rings (size 3 to 8) (size 9 to 14) (size 15 to 20)
#    0.857    1.143    1.429    0.000    4.000    5.714 
#    0.000    4.286    0.000    0.000    0.000    0.000 
#    0.000    0.000    0.000    0.000    0.000    0.000 
#
# Total GULP energy -78019.012189 kJ/mol
# GULP energy per Si atom -5572.786585 kJ/mol
# Density = 2.749962 g / cm^3
# Si number density = 27.562358 Si / 1000 Ang^3
#
#
#
# Elastic Constant Matrix: (Units=GPa)
#
#
# Indices 1 2 3 4 5 6 
#
# 1 186.2345 62.6517 49.3685 0.0000 33.9079 0.0000
# 2 62.6517 115.2722 25.9766 0.0000 -3.1249 0.0000
# 3 49.3685 25.9766 101.3822 0.0000 16.5790 0.0000
# 4 0.0000 0.0000 0.0000 30.2975 0.0000 -6.2514
# 5 33.9079 -3.1249 16.5790 0.0000 53.3836 0.0000
# 6 0.0000 0.0000 0.0000 -6.2514 0.0000 27.8948
#
#
#
# Elastic Compliance Matrix: (Units=1/GPa)
#
#
# Indices 1 2 3 4 5 6 
#
# 1 0.008187 -0.004093 -0.002158 0.000000 -0.004769 0.000000
# 2 -0.004093 0.011344 -0.001525 0.000000 0.003737 0.000000
# 3 -0.002158 -0.001525 0.011689 0.000000 -0.002349 0.000000
# 4 0.000000 0.000000 0.000000 0.034606 0.000000 0.007756
# 5 -0.004769 0.003737 -0.002349 0.000000 0.022710 0.000000
# 6 0.000000 0.000000 0.000000 0.007756 0.000000 0.037587
#
#
# Mechanical properties :
#
#
# Convention : Reuss Voigt Hill
#
# Bulk Modulus (GPa) = 63.81846 75.43136 69.62491
# Shear Modulus (GPa) = 34.03717 39.97466 37.00592
#
# Velocity S-wave (km/s) = 3.51795 3.81246 3.66816
# Velocity P-wave (km/s) = 6.30125 6.84154 6.57695
#
# Compressibility (1/GPa) = 0.01566945
#
# Stress axis : x y z
#
# Youngs Moduli (GPa) = 122.14747 88.14876 85.54784
#
# Poissons Ratio (x) = 0.36076 0.18462
# Poissons Ratio (y) = 0.49990 0.13046
# Poissons Ratio (z) = 0.26360 0.13442
#
# Static dielectric constant tensor:
#      x y z
#    x 2.090940 0.000000 -0.077460 
#    y 0.000000 2.240930 0.000000 
#    z -0.077460 0.000000 2.302030 
# 
# From -- ./inp_files/7180.got.cif
#   From: 2010.05.17/outbox.cif.g08.bks.cpg/sg4_4_cif.got.tgz:7180.got - 2010.06.03 18:43:04.
