data_PCOD9117104
_publ_section_title
;
Structure prediction by ZEFSAII (Michael W. Deem and Ramdas Pophale) SiO2 
 PCOD9117104
Probable space group: P 21
;
_chemical_formula_sum "Si O2"
_cell_formula_units_Z 14
_cell_length_a 5.171352
_cell_length_b 11.020403
_cell_length_c 14.598598
_cell_angle_alpha 90.000000
_cell_angle_beta 43.511212
_cell_angle_gamma 90.000000
_cell_volume 572.815113
_symmetry_space_group_name_H-M "P 21"
_symmetry_group_IT_number 4
_symmetry_cell_setting 'monoclinic'
loop_
_space_group_symop_operation_xyz
x,y,z
-x,1/2+y,-z
loop_
_atom_site_type_symbol
_atom_site_label
_atom_site_fract_x
_atom_site_fract_y
_atom_site_fract_z
Si Si1 0.006231 0.905170 0.129180
Si Si2 0.424681 0.266298 0.276648
Si Si3 0.782916 0.638225 0.180564
Si Si4 0.427740 0.769846 0.553466
Si Si5 0.413581 0.031229 0.593654
Si Si6 0.436522 0.474171 0.149004
Si Si7 0.526487 0.051352 0.106890
O O1 0.123530 0.999237 0.178104
O O2 0.850365 0.775330 0.194714
O O3 0.738486 0.955661 0.117972
O O4 0.411860 0.899113 0.975399
O O5 0.596204 0.244334 0.331639
O O6 0.586055 0.390308 0.194108
O O7 0.971418 0.277063 0.396715
O O8 0.491000 0.164862 0.183514
O O9 0.489226 0.585616 0.331391
O O10 0.599724 0.607669 0.128806
O O11 0.204762 0.587810 0.048325
O O12 0.605955 0.907608 0.506217
O O13 0.609449 0.648035 0.465347
O O14 0.000927 0.983473 0.725364
#
# Coordination Sequence:
#
# PCOD9117104 Si02
#       7
#     2   2   2   2   2   2   2
#     4  11  24  39  66 108 137 183 221 289 362 432
#     4  11  23  46  69  99 138 186 232 287 357 418
#     4  11  23  42  70 102 138 184 231 289 360 432
#     4  11  27  44  75  97 140 192 243 292 350 421
#     4  11  25  47  70 102 141 188 245 295 354 420
#     4  10  22  43  69  98 141 180 232 287 354 425
#     4  11  24  41  67 104 145 175 228 289 359 430
#
# _framework density 24.440697
#
# number of rings (size 3 to 8) (size 9 to 14) (size 15 to 20)
#    0.000    1.143    4.286    0.857    4.000    2.286 
#    0.000    0.000    0.000    0.000    0.000    0.000 
#    0.000    0.000    0.000    0.000    0.000    0.000 
#
# Total GULP energy -77989.527033 kJ/mol
# GULP energy per Si atom -5570.680502 kJ/mol
# Density = 2.438507 g / cm^3
# Si number density = 24.440697 Si / 1000 Ang^3
#
#
#
# Elastic Constant Matrix: (Units=GPa)
#
#
# Indices 1 2 3 4 5 6 
#
# 1 75.8228 12.9500 -4.9137 0.0000 10.0170 0.0000
# 2 12.9500 141.4172 34.7087 0.0000 12.3726 0.0000
# 3 -4.9137 34.7087 42.6040 0.0000 15.5613 0.0000
# 4 0.0000 0.0000 0.0000 32.3783 0.0000 9.9065
# 5 10.0170 12.3726 15.5613 0.0000 24.2042 0.0000
# 6 0.0000 0.0000 0.0000 9.9065 0.0000 29.1343
#
#
#
# Elastic Compliance Matrix: (Units=1/GPa)
#
#
# Indices 1 2 3 4 5 6 
#
# 1 0.015355 -0.002327 0.007258 0.000000 -0.009832 0.000000
# 2 -0.002327 0.009192 -0.008354 0.000000 0.001636 0.000000
# 3 0.007258 -0.008354 0.040060 0.000000 -0.024488 0.000000
# 4 0.000000 0.000000 0.000000 0.034471 0.000000 -0.011721
# 5 -0.009832 0.001636 -0.024488 0.000000 0.060292 0.000000
# 6 0.000000 0.000000 0.000000 -0.011721 0.000000 0.038309
#
#
# Mechanical properties :
#
#
# Convention : Reuss Voigt Hill
#
# Bulk Modulus (GPa) = 17.31312 38.37044 27.84178
# Shear Modulus (GPa) = 22.34347 31.61663 26.98005
#
# Velocity S-wave (km/s) = 3.02684 3.60058 3.32610
# Velocity P-wave (km/s) = 4.39486 5.74622 5.11536
#
# Compressibility (1/GPa) = 0.05775966
#
# Stress axis : x y z
#
# Youngs Moduli (GPa) = 65.12396 108.79387 24.96285
#
# Poissons Ratio (x) = 0.25320 -0.18118
# Poissons Ratio (y) = 0.15157 0.20854
# Poissons Ratio (z) = -0.47267 0.90888
#
# Static dielectric constant tensor:
#      x y z
#    x 2.036130 0.000000 0.021140 
#    y 0.000000 2.113060 0.000000 
#    z 0.021140 0.000000 2.028180 
# 
# From -- ./inp_files/2384.got.cif
#   From: 2010.05.17/outbox.cif.g08.bks.cpg/sg4_2_cif.got.tgz:2384.got - 2010.06.03 18:43:04.
