data_PCOD9117613
_publ_section_title
;
Structure prediction by ZEFSAII (Michael W. Deem and Ramdas Pophale) SiO2 
 PCOD9117613
Probable space group: P 21
;
_chemical_formula_sum "Si O2"
_cell_formula_units_Z 14
_cell_length_a 9.929621
_cell_length_b 5.163295
_cell_length_c 18.265607
_cell_angle_alpha 90.000000
_cell_angle_beta 37.778018
_cell_angle_gamma 90.000000
_cell_volume 573.684939
_symmetry_space_group_name_H-M "P 21"
_symmetry_group_IT_number 4
_symmetry_cell_setting 'monoclinic'
loop_
_space_group_symop_operation_xyz
x,y,z
-x,1/2+y,-z
loop_
_atom_site_type_symbol
_atom_site_label
_atom_site_fract_x
_atom_site_fract_y
_atom_site_fract_z
Si Si1 0.888247 0.690780 0.584588
Si Si2 0.529934 0.697659 0.148611
Si Si3 0.596713 0.834616 0.493157
Si Si4 0.546795 0.390912 0.283792
Si Si5 0.090225 0.951235 0.277266
Si Si6 0.020321 0.426287 0.036470
Si Si7 0.381588 0.907104 0.024120
O O1 0.628827 0.690065 0.675739
O O2 0.925377 0.683757 0.656540
O O3 0.007188 0.444317 0.497383
O O4 0.524533 0.623440 0.235467
O O5 0.294411 0.795453 0.224315
O O6 0.596933 0.448275 0.071321
O O7 0.733622 0.883264 0.041876
O O8 0.483262 0.559422 0.527325
O O9 0.533578 0.937855 0.600345
O O10 0.858592 0.809155 0.376907
O O11 0.807845 0.337130 0.173962
O O12 0.162581 0.992581 0.162026
O O13 0.991512 0.722904 0.025876
O O14 0.554936 0.118563 0.980629
#
# Coordination Sequence:
#
# PCOD9117613 Si02
#       7
#     2   2   2   2   2   2   2
#     4  12  25  42  74 112 142 185 248 304 352 418
#     4  10  23  48  76 114 130 195 240 314 354 420
#     4  12  32  50  70 106 150 204 234 288 370 440
#     4  11  25  48  76 108 150 186 245 304 358 434
#     4  11  25  48  76 108 150 186 245 304 358 434
#     4  10  23  43  68 106 144 179 231 295 370 421
#     4  10  23  43  68 106 144 179 231 295 370 421
#
# _framework density 24.403635999999999
#
# number of rings (size 3 to 8) (size 9 to 14) (size 15 to 20)
#    0.000    1.143    1.429    2.571    4.000   10.286 
#   10.286    0.000    0.000    0.000    0.000    0.000 
#    0.000    0.000    0.000    0.000    0.000    0.000 
#
# Total GULP energy -78258.176161 kJ/mol
# GULP energy per Si atom -5589.869726 kJ/mol
# Density = 2.434809 g / cm^3
# Si number density = 24.403636 Si / 1000 Ang^3
#
#
#
# Elastic Constant Matrix: (Units=GPa)
#
#
# Indices 1 2 3 4 5 6 
#
# 1 62.9610 27.3944 28.6720 0.0000 -40.8258 0.0000
# 2 27.3944 94.6679 10.1862 0.0000 -19.5143 0.0000
# 3 28.6720 10.1862 157.7538 0.0000 -30.8599 0.0000
# 4 0.0000 0.0000 0.0000 29.6611 0.0000 -2.2239
# 5 -40.8258 -19.5143 -30.8599 0.0000 42.1128 0.0000
# 6 0.0000 0.0000 0.0000 -2.2239 0.0000 25.8011
#
#
#
# Elastic Compliance Matrix: (Units=1/GPa)
#
#
# Indices 1 2 3 4 5 6 
#
# 1 0.044368 -0.004379 0.000275 0.000000 0.041185 0.000000
# 2 -0.004379 0.012128 0.000329 0.000000 0.001616 0.000000
# 3 0.000275 0.000329 0.007412 0.000000 0.005851 0.000000
# 4 0.000000 0.000000 0.000000 0.033933 0.000000 0.002925
# 5 0.041185 0.001616 0.005851 0.000000 0.068709 0.000000
# 6 0.000000 0.000000 0.000000 0.002925 0.000000 0.039010
#
#
# Mechanical properties :
#
#
# Convention : Reuss Voigt Hill
#
# Bulk Modulus (GPa) = 17.74332 49.76531 33.75432
# Shear Modulus (GPa) = 21.56130 36.12367 28.84249
#
# Velocity S-wave (km/s) = 2.97565 3.85159 3.44160
# Velocity P-wave (km/s) = 4.36950 6.34165 5.44559
#
# Compressibility (1/GPa) = 0.05635922
#
# Stress axis : x y z
#
# Youngs Moduli (GPa) = 22.53855 82.45324 134.91117
#
# Poissons Ratio (x) = 0.36107 -0.03715
# Poissons Ratio (y) = 0.09870 -0.04437
# Poissons Ratio (z) = -0.00621 -0.02711
#
# Static dielectric constant tensor:
#      x y z
#    x 1.996220 0.000000 0.001940 
#    y 0.000000 1.963470 0.000000 
#    z 0.001940 0.000000 1.967890 
# 
# From -- ./inp_files/7245.got.cif
#   From: 2010.05.17/outbox.cif.g08.bks.cpg/sg4_4_cif.got.tgz:7245.got - 2010.06.03 18:43:04.
