data_PCOD9117995
_publ_section_title
;
Structure prediction by ZEFSAII (Michael W. Deem and Ramdas Pophale) SiO2 
 PCOD9117995
Probable space group: P 21
;
_chemical_formula_sum "Si O2"
_cell_formula_units_Z 8
_cell_length_a 5.378081
_cell_length_b 8.926321
_cell_length_c 6.852458
_cell_angle_alpha 90.000000
_cell_angle_beta 113.458060
_cell_angle_gamma 90.000000
_cell_volume 301.774192
_symmetry_space_group_name_H-M "P 21"
_symmetry_group_IT_number 4
_symmetry_cell_setting 'monoclinic'
loop_
_space_group_symop_operation_xyz
x,y,z
-x,1/2+y,-z
loop_
_atom_site_type_symbol
_atom_site_label
_atom_site_fract_x
_atom_site_fract_y
_atom_site_fract_z
Si Si1 0.282440 0.878440 0.749389
Si Si2 0.652369 0.636264 0.920960
Si Si3 0.937943 0.763201 0.330077
Si Si4 0.501242 0.091990 0.553415
O O1 0.353195 0.711854 0.843687
O O2 0.030369 0.884538 0.519962
O O3 0.517508 0.934344 0.671802
O O4 0.285552 0.990511 0.930934
O O5 0.662597 0.586780 0.700439
O O6 0.836354 0.768597 0.074395
O O7 0.211065 0.666477 0.393327
O O8 0.680002 0.689751 0.355808
#
# Coordination Sequence:
#
# PCOD9117995 Si02
#       4
#     2   2   2   2
#     4  10  24  44  70 104 136 176 228 276 336 408
#     4  10  24  44  72  98 138 182 220 282 342 390
#     4  10  24  43  65  98 135 176 226 272 327 402
#     4  10  24  43  65  98 135 176 226 272 327 402
#
# _framework density 26.509889000000001
#
# number of rings (size 3 to 8) (size 9 to 14) (size 15 to 20)
#    0.000    2.000    0.000    0.000    0.000   36.000 
#    0.000    0.000    0.000    0.000    0.000    0.000 
#    0.000    0.000    0.000    0.000    0.000    0.000 
#
# Total GULP energy -44610.285567 kJ/mol
# GULP energy per Si atom -5576.285696 kJ/mol
# Density = 2.644955 g / cm^3
# Si number density = 26.509889 Si / 1000 Ang^3
#
#
#
# Elastic Constant Matrix: (Units=GPa)
#
#
# Indices 1 2 3 4 5 6 
#
# 1 101.2932 18.8484 24.4772 0.0000 1.1632 0.0000
# 2 18.8484 56.9868 25.2627 0.0000 -0.5185 0.0000
# 3 24.4772 25.2627 237.1045 0.0000 -21.6823 0.0000
# 4 0.0000 0.0000 0.0000 72.4063 0.0000 -6.3588
# 5 1.1632 -0.5185 -21.6823 0.0000 34.4682 0.0000
# 6 0.0000 0.0000 0.0000 -6.3588 0.0000 35.2524
#
#
#
# Elastic Compliance Matrix: (Units=1/GPa)
#
#
# Indices 1 2 3 4 5 6 
#
# 1 0.010677 -0.003163 -0.000852 0.000000 -0.000944 0.000000
# 2 -0.003163 0.019388 -0.001807 0.000000 -0.000738 0.000000
# 3 -0.000852 -0.001807 0.004773 0.000000 0.003004 0.000000
# 4 0.000000 0.000000 0.000000 0.014033 0.000000 0.002531
# 5 -0.000944 -0.000738 0.003004 0.000000 0.030923 0.000000
# 6 0.000000 0.000000 0.000000 0.002531 0.000000 0.028823
#
#
# Mechanical properties :
#
#
# Convention : Reuss Voigt Hill
#
# Bulk Modulus (GPa) = 43.11028 59.17345 51.14186
# Shear Modulus (GPa) = 39.06505 50.21180 44.63842
#
# Velocity S-wave (km/s) = 3.84292 4.35682 4.10791
# Velocity P-wave (km/s) = 5.99900 6.90499 6.46788
#
# Compressibility (1/GPa) = 0.02319632
#
# Stress axis : x y z
#
# Youngs Moduli (GPa) = 93.65533 51.57776 209.52698
#
# Poissons Ratio (x) = 0.16312 0.17843
# Poissons Ratio (y) = 0.29620 0.37857
# Poissons Ratio (z) = 0.07976 0.09319
#
# Static dielectric constant tensor:
#      x y z
#    x 2.022720 0.000000 0.043580 
#    y 0.000000 2.318780 0.000000 
#    z 0.043580 0.000000 2.130120 
# 
# From -- ./inp_files/4579.got.cif
#   From: 2010.05.17/outbox.cif.g08.bks.cpg/sg4_3_cif.got.tgz:4579.got - 2010.06.03 18:43:04.
