data_PCOD9117873
_publ_section_title
;
Structure prediction by ZEFSAII (Michael W. Deem and Ramdas Pophale) SiO2 
 PCOD9117873
Probable space group: P 21
;
_chemical_formula_sum "Si O2"
_cell_formula_units_Z 16
_cell_length_a 16.691202
_cell_length_b 7.128270
_cell_length_c 5.430583
_cell_angle_alpha 90.000000
_cell_angle_beta 71.729523
_cell_angle_gamma 90.000000
_cell_volume 613.554345
_symmetry_space_group_name_H-M "P 21"
_symmetry_group_IT_number 4
_symmetry_cell_setting 'monoclinic'
loop_
_space_group_symop_operation_xyz
x,y,z
-x,1/2+y,-z
loop_
_atom_site_type_symbol
_atom_site_label
_atom_site_fract_x
_atom_site_fract_y
_atom_site_fract_z
Si Si1 0.920297 0.712540 0.751845
Si Si2 0.947659 0.918909 0.225482
Si Si3 0.738999 0.857695 0.988478
Si Si4 0.609772 0.582158 0.990948
Si Si5 0.521891 0.661682 0.600801
Si Si6 0.237554 0.807503 0.066929
Si Si7 0.201465 0.724074 0.586835
Si Si8 0.367885 0.501803 0.514974
O O1 0.936693 0.766308 0.452146
O O2 0.820742 0.733593 0.885606
O O3 0.968766 0.527082 0.777201
O O4 0.953215 0.853794 0.937454
O O5 0.866584 0.058098 0.326325
O O6 0.668420 0.766697 0.884164
O O7 0.757485 0.077673 0.936429
O O8 0.696871 0.855918 0.296616
O O9 0.555804 0.539425 0.797775
O O10 0.675855 0.418362 0.983522
O O11 0.560908 0.630411 0.290792
O O12 0.422667 0.625686 0.658858
O O13 0.555285 0.867615 0.647028
O O14 0.183519 0.843813 0.362351
O O15 0.200672 0.844428 0.834507
O O16 0.299222 0.646018 0.469006
#
# Coordination Sequence:
#
# PCOD9117873 Si02
#       8
#     2   2   2   2   2   2   2   2
#     4  12  26  47  76 108 149 187 250 300 373 451
#     4  12  25  48  75 108 146 190 243 303 374 447
#     4  10  23  48  71 101 139 196 225 293 367 424
#     4  11  26  43  66 107 141 183 246 292 352 425
#     4  11  26  43  66 104 141 184 242 300 346 420
#     4  11  22  41  75  95 139 183 236 286 350 428
#     4  11  22  43  72  97 135 193 227 283 369 425
#     4  10  24  45  71  98 142 188 237 293 357 424
#
# _framework density 26.077560999999999
#
# number of rings (size 3 to 8) (size 9 to 14) (size 15 to 20)
#    0.000    1.000    3.750    2.250    5.250    6.000 
#    0.000    0.000    0.000    0.000    0.000    0.000 
#    0.000    0.000    0.000    0.000    0.000    0.000 
#
# Total GULP energy -89353.838706 kJ/mol
# GULP energy per Si atom -5584.614919 kJ/mol
# Density = 2.601821 g / cm^3
# Si number density = 26.077561 Si / 1000 Ang^3
#
#
#
# Elastic Constant Matrix: (Units=GPa)
#
#
# Indices 1 2 3 4 5 6 
#
# 1 132.0667 18.1735 16.2053 0.0000 2.8197 0.0000
# 2 18.1735 56.1926 7.4728 0.0000 -13.4732 0.0000
# 3 16.2053 7.4728 87.7908 0.0000 17.1808 0.0000
# 4 0.0000 0.0000 0.0000 26.9339 0.0000 4.7968
# 5 2.8197 -13.4732 17.1808 0.0000 36.8221 0.0000
# 6 0.0000 0.0000 0.0000 4.7968 0.0000 50.4815
#
#
#
# Elastic Compliance Matrix: (Units=1/GPa)
#
#
# Indices 1 2 3 4 5 6 
#
# 1 0.008103 -0.002757 -0.001037 0.000000 -0.001146 0.000000
# 2 -0.002757 0.021393 -0.003175 0.000000 0.009520 0.000000
# 3 -0.001037 -0.003175 0.013276 0.000000 -0.007277 0.000000
# 4 0.000000 0.000000 0.000000 0.037767 0.000000 -0.003589
# 5 -0.001146 0.009520 -0.007277 0.000000 0.034124 0.000000
# 6 0.000000 0.000000 0.000000 -0.003589 0.000000 0.020150
#
#
# Mechanical properties :
#
#
# Convention : Reuss Voigt Hill
#
# Bulk Modulus (GPa) = 34.68193 39.97261 37.32727
# Shear Modulus (GPa) = 31.57296 38.46073 35.01685
#
# Velocity S-wave (km/s) = 3.48333 3.84456 3.66839
# Velocity P-wave (km/s) = 5.43199 5.92192 5.68224
#
# Compressibility (1/GPa) = 0.02883346
#
# Stress axis : x y z
#
# Youngs Moduli (GPa) = 123.41006 46.74518 75.32116
#
# Poissons Ratio (x) = 0.12890 0.07809
# Poissons Ratio (y) = 0.34030 0.23915
# Poissons Ratio (z) = 0.12795 0.14842
#
# Static dielectric constant tensor:
#      x y z
#    x 2.028600 0.000000 0.012750 
#    y 0.000000 2.129340 0.000000 
#    z 0.012750 0.000000 2.143370 
# 
# From -- ./inp_files/3698.got.cif
#   From: 2010.05.17/outbox.cif.g08.bks.cpg/sg4_2_cif.got.tgz:3698.got - 2010.06.03 18:43:04.
