data_PCOD9117168
_publ_section_title
;
Structure prediction by ZEFSAII (Michael W. Deem and Ramdas Pophale) SiO2 
 PCOD9117168
Probable space group: P 21
;
_chemical_formula_sum "Si O2"
_cell_formula_units_Z 16
_cell_length_a 13.017548
_cell_length_b 10.511134
_cell_length_c 5.480653
_cell_angle_alpha 90.000000
_cell_angle_beta 59.942185
_cell_angle_gamma 90.000000
_cell_volume 649.065299
_symmetry_space_group_name_H-M "P 21"
_symmetry_group_IT_number 4
_symmetry_cell_setting 'monoclinic'
loop_
_space_group_symop_operation_xyz
x,y,z
-x,1/2+y,-z
loop_
_atom_site_type_symbol
_atom_site_label
_atom_site_fract_x
_atom_site_fract_y
_atom_site_fract_z
Si Si1 0.151262 0.867160 0.452518
Si Si2 0.978751 0.960458 0.331759
Si Si3 0.240460 0.616221 0.272427
Si Si4 0.317707 0.373147 0.917580
Si Si5 0.788961 0.509869 0.213565
Si Si6 0.801804 0.774707 0.434300
Si Si7 0.392659 0.973604 0.950312
Si Si8 0.480290 0.733921 0.100904
O O1 0.162696 0.737202 0.290194
O O2 0.266274 0.941517 0.218484
O O3 0.023694 0.927892 0.551240
O O4 0.178696 0.874617 0.704123
O O5 0.935070 0.828402 0.269610
O O6 0.857286 0.037816 0.463875
O O7 0.094411 0.029488 0.092401
O O8 0.298288 0.522146 0.004378
O O9 0.347924 0.679641 0.294804
O O10 0.253528 0.306851 0.231994
O O11 0.450679 0.317220 0.779824
O O12 0.266118 0.336949 0.716818
O O13 0.796969 0.626573 0.388077
O O14 0.656930 0.506783 0.259153
O O15 0.449783 0.099515 0.000211
O O16 0.467268 0.843177 0.904282
#
# Coordination Sequence:
#
# PCOD9117168 Si02
#       8
#     2   2   2   2   2   2   2   2
#     4  10  24  45  68 100 151 194 253 320 383 463
#     4  10  26  41  68 105 142 200 247 316 379 458
#     4  10  24  45  70 108 148 196 258 317 387 462
#     4  11  24  48  71 111 145 202 249 322 375 466
#     4  11  24  43  71 102 149 199 253 318 394 458
#     4  11  26  44  76 104 149 193 265 300 392 459
#     4  10  22  44  68 109 137 199 245 319 383 463
#     4  11  20  46  74 101 155 189 256 312 389 457
#
# _framework density 24.650832000000001
#
# number of rings (size 3 to 8) (size 9 to 14) (size 15 to 20)
#    0.000    1.500    2.500    0.750    8.750    0.000 
#   15.750    0.000    0.000    0.000    0.000    0.000 
#    0.000    0.000    0.000    0.000    0.000    0.000 
#
# Total GULP energy -89076.497547 kJ/mol
# GULP energy per Si atom -5567.281097 kJ/mol
# Density = 2.459473 g / cm^3
# Si number density = 24.650832 Si / 1000 Ang^3
#
#
#
# Elastic Constant Matrix: (Units=GPa)
#
#
# Indices 1 2 3 4 5 6 
#
# 1 126.7399 49.2565 22.1806 0.0000 1.6470 0.0000
# 2 49.2565 156.2624 23.1400 0.0000 -0.3911 0.0000
# 3 22.1806 23.1400 46.2399 0.0000 0.0565 0.0000
# 4 0.0000 0.0000 0.0000 24.6503 0.0000 -15.7373
# 5 1.6470 -0.3911 0.0565 0.0000 28.9164 0.0000
# 6 0.0000 0.0000 0.0000 -15.7373 0.0000 15.8496
#
#
#
# Elastic Compliance Matrix: (Units=1/GPa)
#
#
# Indices 1 2 3 4 5 6 
#
# 1 0.009440 -0.002491 -0.003281 0.000000 -0.000565 0.000000
# 2 -0.002491 0.007569 -0.002593 0.000000 0.000249 0.000000
# 3 -0.003281 -0.002593 0.024498 0.000000 0.000104 0.000000
# 4 0.000000 0.000000 0.000000 0.110809 0.000000 0.110024
# 5 -0.000565 0.000249 0.000104 0.000000 0.034618 0.000000
# 6 0.000000 0.000000 0.000000 0.110024 0.000000 0.172338
#
#
# Mechanical properties :
#
#
# Convention : Reuss Voigt Hill
#
# Bulk Modulus (GPa) = 40.36090 57.59959 48.98025
# Shear Modulus (GPa) = 13.01198 29.52761 21.26979
#
# Velocity S-wave (km/s) = 2.29999 3.46473 2.94061
# Velocity P-wave (km/s) = 4.84375 6.27875 5.60734
#
# Compressibility (1/GPa) = 0.02477645
#
# Stress axis : x y z
#
# Youngs Moduli (GPa) = 105.93367 132.11081 40.82003
#
# Poissons Ratio (x) = 0.32911 0.13392
# Poissons Ratio (y) = 0.26390 0.10586
# Poissons Ratio (z) = 0.34755 0.34260
#
# Static dielectric constant tensor:
#      x y z
#    x 2.021970 0.000000 0.132690 
#    y 0.000000 2.125970 0.000000 
#    z 0.132690 0.000000 2.307590 
# 
# From -- ./inp_files/2729.got.cif
#   From: 2010.05.17/outbox.cif.g08.bks.cpg/sg4_2_cif.got.tgz:2729.got - 2010.06.03 18:43:04.
