data_PCOD9117598
_publ_section_title
;
Structure prediction by ZEFSAII (Michael W. Deem and Ramdas Pophale) SiO2 
 PCOD9117598
Probable space group: P 21
;
_chemical_formula_sum "Si O2"
_cell_formula_units_Z 16
_cell_length_a 22.744367
_cell_length_b 5.623453
_cell_length_c 7.675368
_cell_angle_alpha 90.000000
_cell_angle_beta 136.319093
_cell_angle_gamma 90.000000
_cell_volume 677.998563
_symmetry_space_group_name_H-M "P 21"
_symmetry_group_IT_number 4
_symmetry_cell_setting 'monoclinic'
loop_
_space_group_symop_operation_xyz
x,y,z
-x,1/2+y,-z
loop_
_atom_site_type_symbol
_atom_site_label
_atom_site_fract_x
_atom_site_fract_y
_atom_site_fract_z
Si Si1 0.775063 0.617130 0.998195
Si Si2 0.282910 0.717567 0.268627
Si Si3 0.707589 0.988487 0.092593
Si Si4 0.116568 0.506548 0.974195
Si Si5 0.066892 0.990301 0.450963
Si Si6 0.889779 0.998069 0.638147
Si Si7 0.482186 0.522132 0.180484
Si Si8 0.547160 0.021606 0.285732
O O1 0.825465 0.810473 0.993797
O O2 0.854161 0.469594 0.248034
O O3 0.724286 0.725056 0.052449
O O4 0.705385 0.498149 0.723283
O O5 0.351769 0.564584 0.515059
O O6 0.287262 0.639326 0.075221
O O7 0.187223 0.711017 0.136346
O O8 0.788813 0.035516 0.387924
O O9 0.617432 0.026019 0.986779
O O10 0.028744 0.524767 0.680939
O O11 0.090713 0.467798 0.117279
O O12 0.084437 0.245469 0.393779
O O13 0.068735 0.740536 0.348544
O O14 0.517455 0.265195 0.316928
O O15 0.523157 0.773598 0.325095
O O16 0.493120 0.516073 0.993339
#
# Coordination Sequence:
#
# PCOD9117598 Si02
#       8
#     2   2   2   2   2   2   2   2
#     4  10  25  42  65  99 136 183 224 283 334 405
#     4  11  24  43  64  98 134 178 218 280 329 415
#     4  10  23  43  66  95 135 174 221 267 340 397
#     4  11  26  40  70  97 133 183 233 276 342 399
#     4  11  25  44  68  96 141 175 232 282 339 398
#     4  11  24  45  66 102 134 180 224 290 330 406
#     4  10  23  44  69  99 125 175 209 278 327 407
#     4  10  24  43  68  98 134 160 223 268 339 393
#
# _framework density 23.598870000000002
#
# number of rings (size 3 to 8) (size 9 to 14) (size 15 to 20)
#    0.000    1.500    1.250    1.500   10.500    1.000 
#    2.250    0.000    0.000    0.000    0.000    0.000 
#    0.000    0.000    0.000    0.000    0.000    0.000 
#
# Total GULP energy -89217.532820 kJ/mol
# GULP energy per Si atom -5576.095801 kJ/mol
# Density = 2.354516 g / cm^3
# Si number density = 23.598870 Si / 1000 Ang^3
#
#
#
# Elastic Constant Matrix: (Units=GPa)
#
#
# Indices 1 2 3 4 5 6 
#
# 1 49.8717 39.9018 8.3394 0.0000 15.9114 0.0000
# 2 39.9018 139.2301 42.3593 0.0000 22.4188 0.0000
# 3 8.3394 42.3593 58.6734 0.0000 19.8220 0.0000
# 4 0.0000 0.0000 0.0000 32.7941 0.0000 7.1267
# 5 15.9114 22.4188 19.8220 0.0000 49.0144 0.0000
# 6 0.0000 0.0000 0.0000 7.1267 0.0000 12.0821
#
#
#
# Elastic Compliance Matrix: (Units=1/GPa)
#
#
# Indices 1 2 3 4 5 6 
#
# 1 0.028213 -0.008265 0.004371 0.000000 -0.007146 0.000000
# 2 -0.008265 0.011759 -0.007417 0.000000 0.000304 0.000000
# 3 0.004371 -0.007417 0.024451 0.000000 -0.007915 0.000000
# 4 0.000000 0.000000 0.000000 0.034977 0.000000 -0.020631
# 5 -0.007146 0.000304 -0.007915 0.000000 0.025784 0.000000
# 6 0.000000 0.000000 0.000000 -0.020631 0.000000 0.094937
#
#
# Mechanical properties :
#
#
# Convention : Reuss Voigt Hill
#
# Bulk Modulus (GPa) = 23.92311 47.66403 35.79357
# Shear Modulus (GPa) = 19.47990 29.25642 24.36816
#
# Velocity S-wave (km/s) = 2.87620 3.52481 3.21689
# Velocity P-wave (km/s) = 4.60320 6.06689 5.38501
#
# Compressibility (1/GPa) = 0.04180059
#
# Stress axis : x y z
#
# Youngs Moduli (GPa) = 35.44466 85.04468 40.89822
#
# Poissons Ratio (x) = 0.70286 -0.17876
# Poissons Ratio (y) = 0.29294 0.30335
# Poissons Ratio (z) = -0.15493 0.63079
#
# Static dielectric constant tensor:
#      x y z
#    x 1.860740 0.000000 0.010630 
#    y 0.000000 2.154300 0.000000 
#    z 0.010630 0.000000 1.922790 
# 
# From -- ./inp_files/9882.got.cif
#   From: 2010.05.17/outbox.cif.g08.bks.cpg/sg4_5_cif.got.tgz:9882.got - 2010.06.03 18:43:04.
