data_PCOD9117098
_publ_section_title
;
Structure prediction by ZEFSAII (Michael W. Deem and Ramdas Pophale) SiO2 
 PCOD9117098
Probable space group: P 21
;
_chemical_formula_sum "Si O2"
_cell_formula_units_Z 12
_cell_length_a 18.712528
_cell_length_b 4.811332
_cell_length_c 12.420023
_cell_angle_alpha 90.000000
_cell_angle_beta 24.591247
_cell_angle_gamma 90.000000
_cell_volume 465.330607
_symmetry_space_group_name_H-M "P 21"
_symmetry_group_IT_number 4
_symmetry_cell_setting 'monoclinic'
loop_
_space_group_symop_operation_xyz
x,y,z
-x,1/2+y,-z
loop_
_atom_site_type_symbol
_atom_site_label
_atom_site_fract_x
_atom_site_fract_y
_atom_site_fract_z
Si Si1 0.976489 0.839310 0.668097
Si Si2 0.231706 0.774787 0.703415
Si Si3 0.892884 0.781782 0.018382
Si Si4 0.757475 0.787874 0.671961
Si Si5 0.454885 0.054420 0.225535
Si Si6 0.770893 0.381174 0.843624
O O1 0.939083 0.919198 0.842319
O O2 0.818099 0.634500 0.851293
O O3 0.884382 0.115088 0.719108
O O4 0.113285 0.544992 0.505190
O O5 0.384638 0.882074 0.420630
O O6 0.067032 0.780933 0.849607
O O7 0.245307 0.467944 0.729411
O O8 0.184129 0.974780 0.868209
O O9 0.696543 0.680730 0.640075
O O10 0.827729 0.506713 0.642401
O O11 0.583476 0.879268 0.971825
O O12 0.577199 0.298176 0.098774
#
# Coordination Sequence:
#
# PCOD9117098 Si02
#       6
#     2   2   2   2   2   2
#     4  10  23  46  66 108 141 196 236 301 376 457
#     4  10  23  41  73 106 146 189 254 308 367 435
#     4  10  22  43  69 106 145 198 241 310 366 452
#     4  10  23  40  70 108 145 184 233 314 382 426
#     4  12  22  44  72 112 144 191 250 313 376 437
#     4  10  25  40  70 102 147 190 240 304 371 445
#
# _framework density 25.788115000000001
#
# number of rings (size 3 to 8) (size 9 to 14) (size 15 to 20)
#    1.000    0.667    3.333    0.000    4.667    2.667 
#    0.000    0.000    3.667    0.000    0.000    0.000 
#    0.000    0.000    0.000    0.000    0.000    0.000 
#
# Total GULP energy -67002.285848 kJ/mol
# GULP energy per Si atom -5583.523821 kJ/mol
# Density = 2.572942 g / cm^3
# Si number density = 25.788115 Si / 1000 Ang^3
#
#
#
# Elastic Constant Matrix: (Units=GPa)
#
#
# Indices 1 2 3 4 5 6 
#
# 1 96.8289 45.2104 39.6452 0.0000 -5.5389 0.0000
# 2 45.2104 179.3452 57.9180 0.0000 -26.9998 0.0000
# 3 39.6452 57.9180 92.7594 0.0000 -1.8790 0.0000
# 4 0.0000 0.0000 0.0000 46.9492 0.0000 -0.3479
# 5 -5.5389 -26.9998 -1.8790 0.0000 46.7722 0.0000
# 6 0.0000 0.0000 0.0000 -0.3479 0.0000 40.7440
#
#
#
# Elastic Compliance Matrix: (Units=1/GPa)
#
#
# Indices 1 2 3 4 5 6 
#
# 1 0.012998 -0.001799 -0.004426 0.000000 0.000323 0.000000
# 2 -0.001799 0.008006 -0.004144 0.000000 0.004242 0.000000
# 3 -0.004426 -0.004144 0.015213 0.000000 -0.002305 0.000000
# 4 0.000000 0.000000 0.000000 0.021301 0.000000 0.000182
# 5 0.000323 0.004242 -0.002305 0.000000 0.023775 0.000000
# 6 0.000000 0.000000 0.000000 0.000182 0.000000 0.024545
#
#
# Mechanical properties :
#
#
# Convention : Reuss Voigt Hill
#
# Bulk Modulus (GPa) = 64.60009 72.72007 68.66008
# Shear Modulus (GPa) = 37.95493 41.97041 39.96267
#
# Velocity S-wave (km/s) = 3.84057 4.03862 3.94084
# Velocity P-wave (km/s) = 6.69114 7.07160 6.88400
#
# Compressibility (1/GPa) = 0.01547986
#
# Stress axis : x y z
#
# Youngs Moduli (GPa) = 76.93603 124.90154 65.73300
#
# Poissons Ratio (x) = 0.22466 0.29091
# Poissons Ratio (y) = 0.13839 0.27242
# Poissons Ratio (z) = 0.34049 0.51764
#
# Static dielectric constant tensor:
#      x y z
#    x 2.058410 0.000000 0.019190 
#    y 0.000000 2.116690 0.000000 
#    z 0.019190 0.000000 1.998720 
# 
# From -- ./inp_files/14353.got.cif
#   From: 2010.05.17/outbox.cif.g08.bks.cpg/sg4_8_cif.got.tgz:14353.got - 2010.06.03 18:43:04.
