data_PCOD9117493
_publ_section_title
;
Structure prediction by ZEFSAII (Michael W. Deem and Ramdas Pophale) SiO2 
 PCOD9117493
Probable space group: P 21
;
_chemical_formula_sum "Si O2"
_cell_formula_units_Z 16
_cell_length_a 16.208182
_cell_length_b 8.038954
_cell_length_c 5.412898
_cell_angle_alpha 90.000000
_cell_angle_beta 55.397798
_cell_angle_gamma 90.000000
_cell_volume 580.529064
_symmetry_space_group_name_H-M "P 21"
_symmetry_group_IT_number 4
_symmetry_cell_setting 'monoclinic'
loop_
_space_group_symop_operation_xyz
x,y,z
-x,1/2+y,-z
loop_
_atom_site_type_symbol
_atom_site_label
_atom_site_fract_x
_atom_site_fract_y
_atom_site_fract_z
Si Si1 0.699785 0.568430 0.212851
Si Si2 0.158779 0.129563 0.665629
Si Si3 0.186171 0.364675 0.235104
Si Si4 0.952540 0.070805 0.257869
Si Si5 0.841568 0.371339 0.697396
Si Si6 0.807759 0.128262 0.132338
Si Si7 0.495255 0.274952 0.331080
Si Si8 0.588834 0.144054 0.658556
O O1 0.752256 0.516375 0.378422
O O2 0.594444 0.648901 0.441513
O O3 0.771718 0.727711 0.024280
O O4 0.727003 0.434238 0.956171
O O5 0.215197 0.287698 0.450358
O O6 0.115659 0.040272 0.491050
O O7 0.063499 0.125878 0.006605
O O8 0.073288 0.428508 0.497099
O O9 0.232258 0.532191 0.045102
O O10 0.886382 0.232662 0.440285
O O11 0.895074 0.018720 0.105195
O O12 0.863483 0.288751 0.925434
O O13 0.709262 0.143789 0.461927
O O14 0.452568 0.459072 0.340228
O O15 0.559245 0.265076 0.477897
O O16 0.545028 0.205098 0.994864
#
# Coordination Sequence:
#
# PCOD9117493 Si02
#       8
#     2   2   2   2   2   2   2   2
#     4  11  25  44  69  99 141 187 234 297 366 437
#     4  11  24  41  68 103 141 187 239 295 358 431
#     4  10  23  41  69  94 140 183 239 286 362 427
#     4  11  24  41  68 103 141 187 239 295 358 431
#     4  10  25  41  67 100 144 183 241 288 364 427
#     4  11  25  44  69  99 141 187 234 297 366 437
#     4  12  30  50  81 114 151 198 256 318 390 460
#     4  12  30  50  81 114 151 198 256 318 390 460
#
# _framework density 27.561066
#
# number of rings (size 3 to 8) (size 9 to 14) (size 15 to 20)
#    0.000    1.000    1.250    3.000   10.500    6.000 
#    0.000    0.000    0.000    0.000    0.000    0.000 
#    0.000    0.000    0.000    0.000    0.000    0.000 
#
# Total GULP energy -89197.359938 kJ/mol
# GULP energy per Si atom -5574.834996 kJ/mol
# Density = 2.749834 g / cm^3
# Si number density = 27.561066 Si / 1000 Ang^3
#
#
#
# Elastic Constant Matrix: (Units=GPa)
#
#
# Indices 1 2 3 4 5 6 
#
# 1 102.6355 -2.3763 48.2591 0.0000 -8.5965 0.0000
# 2 -2.3763 94.5090 27.0508 0.0000 -3.8480 0.0000
# 3 48.2591 27.0508 196.5193 0.0000 -12.4481 0.0000
# 4 0.0000 0.0000 0.0000 70.9224 0.0000 9.4694
# 5 -8.5965 -3.8480 -12.4481 0.0000 42.5971 0.0000
# 6 0.0000 0.0000 0.0000 9.4694 0.0000 34.9553
#
#
#
# Elastic Compliance Matrix: (Units=1/GPa)
#
#
# Indices 1 2 3 4 5 6 
#
# 1 0.011224 0.001151 -0.002817 0.000000 0.001546 0.000000
# 2 0.001151 0.011146 -0.001771 0.000000 0.000722 0.000000
# 3 -0.002817 -0.001771 0.006091 0.000000 0.001051 0.000000
# 4 0.000000 0.000000 0.000000 0.014629 0.000000 -0.003963
# 5 0.001546 0.000722 0.001051 0.000000 0.024160 0.000000
# 6 0.000000 0.000000 0.000000 -0.003963 0.000000 0.029682
#
#
# Mechanical properties :
#
#
# Convention : Reuss Voigt Hill
#
# Bulk Modulus (GPa) = 46.32336 59.94788 53.13562
# Shear Modulus (GPa) = 45.04469 51.07697 48.06083
#
# Velocity S-wave (km/s) = 4.04711 4.30959 4.18041
# Velocity P-wave (km/s) = 6.21955 6.82360 6.52856
#
# Compressibility (1/GPa) = 0.02158738
#
# Stress axis : x y z
#
# Youngs Moduli (GPa) = 89.09631 89.71566 164.18482
#
# Poissons Ratio (x) = -0.10330 0.46247
# Poissons Ratio (y) = -0.10258 0.29082
# Poissons Ratio (z) = 0.25097 0.15892
#
# Static dielectric constant tensor:
#      x y z
#    x 2.149130 0.000000 0.083720 
#    y 0.000000 2.305550 0.000000 
#    z 0.083720 0.000000 2.118660 
# 
# From -- ./inp_files/4100.got.cif
#   From: 2010.05.17/outbox.cif.g08.bks.cpg/sg4_3_cif.got.tgz:4100.got - 2010.06.03 18:43:04.
