data_PCOD9117845
_publ_section_title
;
Structure prediction by ZEFSAII (Michael W. Deem and Ramdas Pophale) SiO2 
 PCOD9117845
Probable space group: P 21
;
_chemical_formula_sum "Si O2"
_cell_formula_units_Z 16
_cell_length_a 11.123804
_cell_length_b 9.212918
_cell_length_c 10.669817
_cell_angle_alpha 90.000000
_cell_angle_beta 138.997597
_cell_angle_gamma 90.000000
_cell_volume 717.416521
_symmetry_space_group_name_H-M "P 21"
_symmetry_group_IT_number 4
_symmetry_cell_setting 'monoclinic'
loop_
_space_group_symop_operation_xyz
x,y,z
-x,1/2+y,-z
loop_
_atom_site_type_symbol
_atom_site_label
_atom_site_fract_x
_atom_site_fract_y
_atom_site_fract_z
Si Si1 0.507136 0.401270 0.495184
Si Si2 0.978720 0.298210 0.225864
Si Si3 0.102977 0.463823 0.089194
Si Si4 0.110154 0.758272 0.241330
Si Si5 0.666117 0.206635 0.151710
Si Si6 0.643644 0.661639 0.487520
Si Si7 0.043037 0.574235 0.435846
Si Si8 0.355007 0.034298 0.777392
O O1 0.311372 0.406449 0.270370
O O2 0.682932 0.316659 0.580194
O O3 0.574026 0.566988 0.550288
O O4 0.452953 0.317963 0.579548
O O5 0.976305 0.393183 0.098547
O O6 0.139927 0.183156 0.336127
O O7 0.047469 0.410806 0.386621
O O8 0.789084 0.234220 0.124032
O O9 0.105812 0.634050 0.128041
O O10 0.018031 0.393214 0.898510
O O11 0.048309 0.680901 0.320335
O O12 0.790699 0.114321 0.343885
O O13 0.629663 0.363750 0.183342
O O14 0.485278 0.121857 0.972871
O O15 0.594379 0.575670 0.324191
O O16 0.852868 0.583973 0.360555
#
# Coordination Sequence:
#
# PCOD9117845 Si02
#       8
#     2   2   2   2   2   2   2   2
#     4  11  24  44  67 101 141 184 230 291 353 420
#     4   9  22  43  69  96 139 186 227 289 349 412
#     4  10  24  42  64 102 134 182 235 283 352 415
#     4  11  24  43  69  98 140 184 235 288 351 420
#     4  11  24  45  72 104 142 186 239 287 351 419
#     4  11  23  46  71 102 142 183 238 290 356 416
#     4  10  23  47  68 101 141 187 236 291 351 418
#     4  11  26  44  70 108 137 190 238 291 355 416
#
# _framework density 22.302244999999999
#
# number of rings (size 3 to 8) (size 9 to 14) (size 15 to 20)
#    0.000    1.500    2.500    0.750    7.000    2.000 
#    2.250    0.000    0.000    0.000    0.000    0.000 
#    0.000    0.000    0.000    0.000    0.000    0.000 
#
# Total GULP energy -89424.960430 kJ/mol
# GULP energy per Si atom -5589.060027 kJ/mol
# Density = 2.225148 g / cm^3
# Si number density = 22.302245 Si / 1000 Ang^3
#
#
#
# Elastic Constant Matrix: (Units=GPa)
#
#
# Indices 1 2 3 4 5 6 
#
# 1 48.8037 14.4968 3.8009 0.0000 8.8709 0.0000
# 2 14.4968 82.3665 41.2298 0.0000 5.2536 0.0000
# 3 3.8009 41.2298 42.4998 0.0000 6.9493 0.0000
# 4 0.0000 0.0000 0.0000 37.9002 0.0000 9.5433
# 5 8.8709 5.2536 6.9493 0.0000 13.2995 0.0000
# 6 0.0000 0.0000 0.0000 9.5433 0.0000 37.0099
#
#
#
# Elastic Compliance Matrix: (Units=1/GPa)
#
#
# Indices 1 2 3 4 5 6 
#
# 1 0.025279 -0.007082 0.007555 0.000000 -0.018012 0.000000
# 2 -0.007082 0.025688 -0.025586 0.000000 0.007946 0.000000
# 3 0.007555 -0.025586 0.051224 0.000000 -0.021698 0.000000
# 4 0.000000 0.000000 0.000000 0.028217 0.000000 -0.007276
# 5 -0.018012 0.007946 -0.021698 0.000000 0.095403 0.000000
# 6 0.000000 0.000000 0.000000 -0.007276 0.000000 0.028896
#
#
# Mechanical properties :
#
#
# Convention : Reuss Voigt Hill
#
# Bulk Modulus (GPa) = 19.24424 32.52501 25.88463
# Shear Modulus (GPa) = 15.51559 25.25141 20.38350
#
# Velocity S-wave (km/s) = 2.64047 3.36852 3.02647
# Velocity P-wave (km/s) = 4.23600 5.45387 4.88305
#
# Compressibility (1/GPa) = 0.05196360
#
# Stress axis : x y z
#
# Youngs Moduli (GPa) = 39.55784 38.92838 19.52229
#
# Poissons Ratio (x) = 0.27569 -0.14749
# Poissons Ratio (y) = 0.28015 0.49951
# Poissons Ratio (z) = -0.29885 0.99604
#
# Static dielectric constant tensor:
#      x y z
#    x 1.837560 0.000000 -0.023680 
#    y 0.000000 1.837120 0.000000 
#    z -0.023680 0.000000 1.800370 
# 
# From -- ./inp_files/12041.got.cif
#   From: 2010.05.17/outbox.cif.g08.bks.cpg/sg4_7_cif.got.tgz:12041.got - 2010.06.03 18:43:04.
