data_PCOD9117891
_publ_section_title
;
Structure prediction by ZEFSAII (Michael W. Deem and Ramdas Pophale) SiO2 
 PCOD9117891
Probable space group: P 21
;
_chemical_formula_sum "Si O2"
_cell_formula_units_Z 14
_cell_length_a 8.323552
_cell_length_b 11.832453
_cell_length_c 9.116407
_cell_angle_alpha 90.000000
_cell_angle_beta 136.015968
_cell_angle_gamma 90.000000
_cell_volume 623.523884
_symmetry_space_group_name_H-M "P 21"
_symmetry_group_IT_number 4
_symmetry_cell_setting 'monoclinic'
loop_
_space_group_symop_operation_xyz
x,y,z
-x,1/2+y,-z
loop_
_atom_site_type_symbol
_atom_site_label
_atom_site_fract_x
_atom_site_fract_y
_atom_site_fract_z
Si Si1 0.007118 0.193460 0.961982
Si Si2 0.114956 0.337611 0.779740
Si Si3 0.570408 0.999319 0.201861
Si Si4 0.810726 0.554754 0.639441
Si Si5 0.301609 0.502098 0.375594
Si Si6 0.128814 0.867162 0.918985
Si Si7 0.892111 0.205749 0.366339
O O1 0.170611 0.259986 0.955998
O O2 0.134985 0.127405 0.178136
O O3 0.851127 0.109805 0.764801
O O4 0.824415 0.278503 0.921309
O O5 0.319051 0.400175 0.825540
O O6 0.962270 0.441596 0.739398
O O7 0.967496 0.262782 0.567576
O O8 0.656853 0.988058 0.424853
O O9 0.673807 0.120260 0.222943
O O10 0.297859 0.974156 0.025691
O O11 0.546282 0.517493 0.459277
O O12 0.897565 0.629376 0.559553
O O13 0.136566 0.399399 0.224117
O O14 0.147003 0.804287 0.776714
#
# Coordination Sequence:
#
# PCOD9117891 Si02
#       7
#     2   2   2   2   2   2   2
#     4  11  24  44  71 101 138 187 238 287 359 419
#     4  11  22  46  72 101 140 189 232 297 357 410
#     4  11  24  44  72 105 141 183 242 289 349 430
#     4  10  26  45  68 106 140 183 245 285 351 435
#     4  12  23  44  69  98 145 181 235 290 346 432
#     4  11  26  46  69 104 144 189 233 292 357 425
#     4  10  23  49  69 103 144 188 233 294 361 413
#
# _framework density 22.453029000000001
#
# number of rings (size 3 to 8) (size 9 to 14) (size 15 to 20)
#    0.000    1.143    2.857    2.571    2.000    4.571 
#   12.857    0.000    0.000    0.000    0.000    0.000 
#    0.000    0.000    0.000    0.000    0.000    0.000 
#
# Total GULP energy -78274.849687 kJ/mol
# GULP energy per Si atom -5591.060692 kJ/mol
# Density = 2.240192 g / cm^3
# Si number density = 22.453029 Si / 1000 Ang^3
#
#
#
# Elastic Constant Matrix: (Units=GPa)
#
#
# Indices 1 2 3 4 5 6 
#
# 1 82.8823 57.8330 46.6683 0.0000 5.8378 0.0000
# 2 57.8330 106.1252 40.4718 0.0000 -3.2239 0.0000
# 3 46.6683 40.4718 65.2355 0.0000 -1.9467 0.0000
# 4 0.0000 0.0000 0.0000 30.7400 0.0000 -9.2316
# 5 5.8378 -3.2239 -1.9467 0.0000 48.0836 0.0000
# 6 0.0000 0.0000 0.0000 -9.2316 0.0000 43.0909
#
#
#
# Elastic Compliance Matrix: (Units=1/GPa)
#
#
# Indices 1 2 3 4 5 6 
#
# 1 0.026396 -0.009518 -0.013109 0.000000 -0.004374 0.000000
# 2 -0.009518 0.015788 -0.002923 0.000000 0.002096 0.000000
# 3 -0.013109 -0.002923 0.026594 0.000000 0.002472 0.000000
# 4 0.000000 0.000000 0.000000 0.034768 0.000000 0.007449
# 5 -0.004374 0.002096 0.002472 0.000000 0.021569 0.000000
# 6 0.000000 0.000000 0.000000 0.007449 0.000000 0.024802
#
#
# Mechanical properties :
#
#
# Convention : Reuss Voigt Hill
#
# Bulk Modulus (GPa) = 56.56725 60.46547 58.51636
# Shear Modulus (GPa) = 24.16506 31.66755 27.91630
#
# Velocity S-wave (km/s) = 3.28418 3.75959 3.52990
# Velocity P-wave (km/s) = 6.29519 6.77010 6.53696
#
# Compressibility (1/GPa) = 0.01767807
#
# Stress axis : x y z
#
# Youngs Moduli (GPa) = 37.88457 63.33805 37.60237
#
# Poissons Ratio (x) = 0.60287 0.49292
# Poissons Ratio (y) = 0.36060 0.10992
# Poissons Ratio (z) = 0.49661 0.18515
#
# Static dielectric constant tensor:
#      x y z
#    x 1.844070 0.000000 0.002260 
#    y 0.000000 1.870220 0.000000 
#    z 0.002260 0.000000 1.777930 
# 
# From -- ./inp_files/1119.got.cif
#   From: 2010.05.17/outbox.cif.g08.bks.cpg/sg4_1_cif.got.tgz:1119.got - 2010.06.03 18:43:04.
