data_PCOD9117687
_publ_section_title
;
Structure prediction by ZEFSAII (Michael W. Deem and Ramdas Pophale) SiO2 
 PCOD9117687
Probable space group: P 21
;
_chemical_formula_sum "Si O2"
_cell_formula_units_Z 16
_cell_length_a 11.497514
_cell_length_b 8.681034
_cell_length_c 7.068141
_cell_angle_alpha 90.000000
_cell_angle_beta 58.027177
_cell_angle_gamma 90.000000
_cell_volume 598.452584
_symmetry_space_group_name_H-M "P 21"
_symmetry_group_IT_number 4
_symmetry_cell_setting 'monoclinic'
loop_
_space_group_symop_operation_xyz
x,y,z
-x,1/2+y,-z
loop_
_atom_site_type_symbol
_atom_site_label
_atom_site_fract_x
_atom_site_fract_y
_atom_site_fract_z
Si Si1 0.287532 0.177990 0.421395
Si Si2 0.764094 0.937444 0.946624
Si Si3 0.937021 0.902437 0.485661
Si Si4 0.539294 0.386039 0.315970
Si Si5 0.494169 0.240137 0.769759
Si Si6 0.763100 0.334700 0.616891
Si Si7 0.911097 0.787682 0.131603
Si Si8 0.789691 0.213550 0.167765
O O1 0.159246 0.249790 0.416101
O O2 0.421803 0.282496 0.318294
O O3 0.217452 0.186270 0.690985
O O4 0.303763 0.005265 0.345724
O O5 0.636322 0.824580 0.027008
O O6 0.884943 0.842013 0.944986
O O7 0.722210 0.057604 0.147210
O O8 0.844620 0.011564 0.698630
O O9 0.920505 0.929143 0.275182
O O10 0.091604 0.868010 0.409386
O O11 0.520603 0.335855 0.552322
O O12 0.521897 0.563559 0.279493
O O13 0.697400 0.341693 0.143462
O O14 0.626310 0.242396 0.793986
O O15 0.793076 0.258682 0.384869
O O16 0.054505 0.706340 0.033480
#
# Coordination Sequence:
#
# PCOD9117687 Si02
#       8
#     2   2   2   2   2   2   2   2
#     4  10  23  44  67  98 142 179 229 292 340 418
#     4  12  23  47  70 104 137 185 238 282 354 421
#     4  10  25  44  69 104 137 180 229 287 344 417
#     4  11  22  42  65 104 134 183 237 282 355 415
#     4  11  23  39  69  99 138 182 232 292 345 419
#     4  11  22  43  70 104 138 184 235 285 356 416
#     4  10  24  42  71 100 136 182 222 294 340 414
#     4  11  24  41  73 103 140 185 230 294 348 420
#
# _framework density 26.735616
#
# number of rings (size 3 to 8) (size 9 to 14) (size 15 to 20)
#    0.750    0.500    2.500    4.500    0.000    2.000 
#    4.500    0.000    0.000    0.000    0.000    0.000 
#    0.000    0.000    0.000    0.000    0.000    0.000 
#
# Total GULP energy -89397.562175 kJ/mol
# GULP energy per Si atom -5587.347636 kJ/mol
# Density = 2.667476 g / cm^3
# Si number density = 26.735616 Si / 1000 Ang^3
#
#
#
# Elastic Constant Matrix: (Units=GPa)
#
#
# Indices 1 2 3 4 5 6 
#
# 1 192.9899 39.2645 46.0089 0.0000 -14.6398 0.0000
# 2 39.2645 77.8983 -9.3354 0.0000 -18.3435 0.0000
# 3 46.0089 -9.3354 87.3696 0.0000 -5.8096 0.0000
# 4 0.0000 0.0000 0.0000 16.5306 0.0000 -4.5205
# 5 -14.6398 -18.3435 -5.8096 0.0000 51.3375 0.0000
# 6 0.0000 0.0000 0.0000 -4.5205 0.0000 38.1093
#
#
#
# Elastic Compliance Matrix: (Units=1/GPa)
#
#
# Indices 1 2 3 4 5 6 
#
# 1 0.006975 -0.003982 -0.004092 0.000000 0.000103 0.000000
# 2 -0.003982 0.016591 0.004220 0.000000 0.005270 0.000000
# 3 -0.004092 0.004220 0.014181 0.000000 0.001946 0.000000
# 4 0.000000 0.000000 0.000000 0.062522 0.000000 0.007416
# 5 0.000103 0.005270 0.001946 0.000000 0.021612 0.000000
# 6 0.000000 0.000000 0.000000 0.007416 0.000000 0.027120
#
#
# Mechanical properties :
#
#
# Convention : Reuss Voigt Hill
#
# Bulk Modulus (GPa) = 33.28918 56.68153 44.98536
# Shear Modulus (GPa) = 29.99035 40.01681 35.00358
#
# Velocity S-wave (km/s) = 3.35287 3.87300 3.62228
# Velocity P-wave (km/s) = 5.24092 6.42238 5.86149
#
# Compressibility (1/GPa) = 0.03003979
#
# Stress axis : x y z
#
# Youngs Moduli (GPa) = 143.36913 60.27358 70.51904
#
# Poissons Ratio (x) = 0.23999 0.28854
# Poissons Ratio (y) = 0.57086 -0.29759
# Poissons Ratio (z) = 0.58661 -0.25435
#
# Static dielectric constant tensor:
#      x y z
#    x 2.040690 0.000000 0.054180 
#    y 0.000000 2.117530 0.000000 
#    z 0.054180 0.000000 2.234560 
# 
# From -- ./inp_files/7676.got.cif
#   From: 2010.05.17/outbox.cif.g08.bks.cpg/sg4_4_cif.got.tgz:7676.got - 2010.06.03 18:43:04.
