data_PCOD9117467
_publ_section_title
;
Structure prediction by ZEFSAII (Michael W. Deem and Ramdas Pophale) SiO2 
 PCOD9117467
Probable space group: P 21
;
_chemical_formula_sum "Si O2"
_cell_formula_units_Z 16
_cell_length_a 28.633323
_cell_length_b 5.562807
_cell_length_c 9.200977
_cell_angle_alpha 90.000000
_cell_angle_beta 29.233396
_cell_angle_gamma 90.000000
_cell_volume 715.726709
_symmetry_space_group_name_H-M "P 21"
_symmetry_group_IT_number 4
_symmetry_cell_setting 'monoclinic'
loop_
_space_group_symop_operation_xyz
x,y,z
-x,1/2+y,-z
loop_
_atom_site_type_symbol
_atom_site_label
_atom_site_fract_x
_atom_site_fract_y
_atom_site_fract_z
Si Si1 0.753036 0.084390 0.021055
Si Si2 0.270246 0.974975 0.703315
Si Si3 0.380409 0.690185 0.172791
Si Si4 0.968410 0.243158 0.150594
Si Si5 0.134415 0.305896 0.880619
Si Si6 0.943785 0.062583 0.662396
Si Si7 0.581747 0.862493 0.670551
Si Si8 0.765209 0.045013 0.660588
O O1 0.738951 0.987672 0.897223
O O2 0.857566 0.997348 0.786922
O O3 0.762216 0.359996 0.056119
O O4 0.658593 0.007056 0.366155
O O5 0.296973 0.793479 0.501878
O O6 0.196879 0.156466 0.825512
O O7 0.370966 0.102141 0.459786
O O8 0.414684 0.460869 0.174179
O O9 0.329069 0.642587 0.161227
O O10 0.473796 0.856249 0.908126
O O11 0.854496 0.224752 0.449239
O O12 0.996971 0.519003 0.042531
O O13 0.032783 0.184413 0.117422
O O14 0.192235 0.355288 0.573792
O O15 0.106031 0.547777 0.042842
O O16 0.014073 0.830838 0.466642
#
# Coordination Sequence:
#
# PCOD9117467 Si02
#       8
#     2   2   2   2   2   2   2   2
#     4  11  26  45  63 102 150 179 231 300 373 418
#     4  11  21  44  72  98 134 183 239 297 345 429
#     4  11  22  42  74  99 129 179 247 292 356 422
#     4  10  23  41  65 102 141 183 235 295 355 423
#     4  11  22  44  74 100 141 193 248 288 354 439
#     4  12  26  44  73 104 143 192 249 297 356 430
#     4  11  22  43  70  99 129 178 238 297 347 429
#     4  11  24  45  65 102 143 183 231 296 364 436
#
# _framework density 22.354901999999999
#
# number of rings (size 3 to 8) (size 9 to 14) (size 15 to 20)
#    0.000    1.000    3.750    3.000    0.000    7.000 
#    9.000    0.000    0.000    0.000    0.000    0.000 
#    0.000    0.000    0.000    0.000    0.000    0.000 
#
# Total GULP energy -89126.961477 kJ/mol
# GULP energy per Si atom -5570.435092 kJ/mol
# Density = 2.230402 g / cm^3
# Si number density = 22.354902 Si / 1000 Ang^3
#
#
#
# Elastic Constant Matrix: (Units=GPa)
#
#
# Indices 1 2 3 4 5 6 
#
# 1 104.8829 24.2090 59.3544 0.0000 -18.8530 0.0000
# 2 24.2090 55.7304 34.6496 0.0000 3.0445 0.0000
# 3 59.3544 34.6496 112.5793 0.0000 -18.7417 0.0000
# 4 0.0000 0.0000 0.0000 38.6604 0.0000 -7.0141
# 5 -18.8530 3.0445 -18.7417 0.0000 53.3493 0.0000
# 6 0.0000 0.0000 0.0000 -7.0141 0.0000 25.5901
#
#
#
# Elastic Compliance Matrix: (Units=1/GPa)
#
#
# Indices 1 2 3 4 5 6 
#
# 1 0.014146 -0.002443 -0.006214 0.000000 0.002955 0.000000
# 2 -0.002443 0.023400 -0.006670 0.000000 -0.004542 0.000000
# 3 -0.006214 -0.006670 0.014774 0.000000 0.003375 0.000000
# 4 0.000000 0.000000 0.000000 0.027220 0.000000 0.007461
# 5 0.002955 -0.004542 0.003375 0.000000 0.021233 0.000000
# 6 0.000000 0.000000 0.000000 0.007461 0.000000 0.041123
#
#
# Mechanical properties :
#
#
# Convention : Reuss Voigt Hill
#
# Bulk Modulus (GPa) = 46.15717 56.62428 51.39073
# Shear Modulus (GPa) = 27.81293 33.85196 30.83245
#
# Velocity S-wave (km/s) = 3.53108 3.89562 3.71782
# Velocity P-wave (km/s) = 6.10876 6.75419 6.43957
#
# Compressibility (1/GPa) = 0.02166510
#
# Stress axis : x y z
#
# Youngs Moduli (GPa) = 70.68960 42.73519 67.68764
#
# Poissons Ratio (x) = 0.10439 0.42064
# Poissons Ratio (y) = 0.17268 0.45149
# Poissons Ratio (z) = 0.43930 0.28505
#
# Static dielectric constant tensor:
#      x y z
#    x 1.839150 0.000000 0.030390 
#    y 0.000000 1.971990 0.000000 
#    z 0.030390 0.000000 1.901710 
# 
# From -- ./inp_files/9513.got.cif
#   From: 2010.05.17/outbox.cif.g08.bks.cpg/sg4_5_cif.got.tgz:9513.got - 2010.06.03 18:43:04.
