data_PCOD9117529
_publ_section_title
;
Structure prediction by ZEFSAII (Michael W. Deem and Ramdas Pophale) SiO2 
 PCOD9117529
Probable space group: P 21
;
_chemical_formula_sum "Si O2"
_cell_formula_units_Z 16
_cell_length_a 14.624828
_cell_length_b 7.857065
_cell_length_c 11.034169
_cell_angle_alpha 90.000000
_cell_angle_beta 150.652594
_cell_angle_gamma 90.000000
_cell_volume 621.410858
_symmetry_space_group_name_H-M "P 21"
_symmetry_group_IT_number 4
_symmetry_cell_setting 'monoclinic'
loop_
_space_group_symop_operation_xyz
x,y,z
-x,1/2+y,-z
loop_
_atom_site_type_symbol
_atom_site_label
_atom_site_fract_x
_atom_site_fract_y
_atom_site_fract_z
Si Si1 0.154331 0.407620 0.905939
Si Si2 0.471839 0.596361 0.128409
Si Si3 0.196934 0.982058 0.370085
Si Si4 0.975920 0.535558 0.317305
Si Si5 0.673722 0.101589 0.408699
Si Si6 0.344489 0.506623 0.352451
Si Si7 0.765360 0.390670 0.845183
Si Si8 0.660430 0.463707 0.106502
O O1 0.079461 0.230478 0.770212
O O2 0.974537 0.517273 0.739230
O O3 0.297766 0.494644 0.980743
O O4 0.262692 0.378197 0.158693
O O5 0.629621 0.608178 0.414697
O O6 0.401118 0.775544 0.999811
O O7 0.586911 0.508015 0.153469
O O8 0.276242 0.794567 0.497979
O O9 0.133428 0.963114 0.158037
O O10 0.197063 0.532028 0.551174
O O11 0.877188 0.427000 0.096765
O O12 0.878957 0.483590 0.330652
O O13 0.718340 0.996598 0.581181
O O14 0.460099 0.084028 0.122566
O O15 0.565836 0.483576 0.615756
O O16 0.283280 0.692419 0.231963
#
# Coordination Sequence:
#
# PCOD9117529 Si02
#       8
#     2   2   2   2   2   2   2   2
#     4  11  23  41  65  94 129 166 207 257 310 371
#     4  12  26  44  67  91 122 164 210 262 313 370
#     4  10  23  42  65  93 128 167 208 256 309 369
#     4  11  23  41  65  94 129 166 207 257 310 371
#     4  10  23  42  65  93 128 167 208 256 309 369
#     4  11  21  36  62  95 130 169 207 252 309 369
#     4  11  21  36  62  95 130 169 207 252 309 369
#     4  12  26  44  67  91 122 164 210 262 313 370
#
# _framework density 25.747861
#
# number of rings (size 3 to 8) (size 9 to 14) (size 15 to 20)
#    0.000    1.000    2.500    4.500    0.000    4.000 
#    0.000    0.000    0.000    0.000    0.000    0.000 
#    0.000    0.000    0.000    0.000    0.000    0.000 
#
# Total GULP energy -89718.181843 kJ/mol
# GULP energy per Si atom -5607.386365 kJ/mol
# Density = 2.568926 g / cm^3
# Si number density = 25.747861 Si / 1000 Ang^3
#
#
#
# Elastic Constant Matrix: (Units=GPa)
#
#
# Indices 1 2 3 4 5 6 
#
# 1 161.9640 23.3533 9.2677 0.0000 19.6781 0.0000
# 2 23.3533 77.2337 5.6940 0.0000 9.4939 0.0000
# 3 9.2677 5.6940 60.3665 0.0000 10.1126 0.0000
# 4 0.0000 0.0000 0.0000 31.4118 0.0000 -4.2184
# 5 19.6781 9.4939 10.1126 0.0000 44.8319 0.0000
# 6 0.0000 0.0000 0.0000 -4.2184 0.0000 27.6966
#
#
#
# Elastic Compliance Matrix: (Units=1/GPa)
#
#
# Indices 1 2 3 4 5 6 
#
# 1 0.006749 -0.001700 -0.000457 0.000000 -0.002499 0.000000
# 2 -0.001700 0.013760 -0.000700 0.000000 -0.002010 0.000000
# 3 -0.000457 -0.000700 0.017297 0.000000 -0.003553 0.000000
# 4 0.000000 0.000000 0.000000 0.032500 0.000000 0.004950
# 5 -0.002499 -0.002010 -0.003553 0.000000 0.024630 0.000000
# 6 0.000000 0.000000 0.000000 0.004950 0.000000 0.036859
#
#
# Mechanical properties :
#
#
# Convention : Reuss Voigt Hill
#
# Bulk Modulus (GPa) = 31.16047 41.79936 36.47992
# Shear Modulus (GPa) = 33.73660 38.20469 35.97065
#
# Velocity S-wave (km/s) = 3.62369 3.85619 3.74175
# Velocity P-wave (km/s) = 5.44395 6.00802 5.73293
#
# Compressibility (1/GPa) = 0.03209194
#
# Stress axis : x y z
#
# Youngs Moduli (GPa) = 148.16750 72.67234 57.81401
#
# Poissons Ratio (x) = 0.12353 0.02643
# Poissons Ratio (y) = 0.25186 0.04048
# Poissons Ratio (z) = 0.06773 0.05089
#
# Static dielectric constant tensor:
#      x y z
#    x 2.059980 0.000000 -0.022720 
#    y 0.000000 1.999460 0.000000 
#    z -0.022720 0.000000 1.998990 
# 
# From -- ./inp_files/9156.got.cif
#   From: 2010.05.17/outbox.cif.g08.bks.cpg/sg4_5_cif.got.tgz:9156.got - 2010.06.03 18:43:04.
