data_PCOD9117241
_publ_section_title
;
Structure prediction by ZEFSAII (Michael W. Deem and Ramdas Pophale) SiO2 
 PCOD9117241
Probable space group: P 21
;
_chemical_formula_sum "Si O2"
_cell_formula_units_Z 16
_cell_length_a 5.464746
_cell_length_b 18.773156
_cell_length_c 6.123625
_cell_angle_alpha 90.000000
_cell_angle_beta 106.941994
_cell_angle_gamma 90.000000
_cell_volume 600.961088
_symmetry_space_group_name_H-M "P 21"
_symmetry_group_IT_number 4
_symmetry_cell_setting 'monoclinic'
loop_
_space_group_symop_operation_xyz
x,y,z
-x,1/2+y,-z
loop_
_atom_site_type_symbol
_atom_site_label
_atom_site_fract_x
_atom_site_fract_y
_atom_site_fract_z
Si Si1 0.971227 0.402320 0.722586
Si Si2 0.419043 0.907462 0.780560
Si Si3 0.332906 0.020293 0.103514
Si Si4 0.715968 0.969036 0.521296
Si Si5 0.536783 0.680470 0.432493
Si Si6 0.727040 0.285693 0.926510
Si Si7 0.133405 0.579325 0.096804
Si Si8 0.872749 0.164268 0.291885
O O1 0.234639 0.426184 0.688402
O O2 0.806403 0.407836 0.456443
O O3 0.884630 0.462210 0.872589
O O4 0.925577 0.327628 0.823314
O O5 0.659317 0.907567 0.683193
O O6 0.384581 0.842821 0.933163
O O7 0.439682 0.982646 0.913733
O O8 0.488948 0.019378 0.369625
O O9 0.175969 0.091417 0.006014
O O10 0.883237 0.022504 0.706736
O O11 0.490672 0.753753 0.287051
O O12 0.366596 0.626137 0.246078
O O13 0.839251 0.664660 0.534949
O O14 0.359879 0.683139 0.605534
O O15 0.864010 0.224389 0.101328
O O16 0.185723 0.589067 0.846986
#
# Coordination Sequence:
#
# PCOD9117241 Si02
#       8
#     2   2   2   2   2   2   2   2
#     4  10  22  45  63 108 148 188 236 296 364 458
#     4  10  22  45  67 107 150 193 235 300 373 449
#     4  10  23  41  63 105 150 186 232 289 371 442
#     4  11  24  41  69 112 153 187 242 297 374 464
#     4  11  27  53  77 110 144 196 262 322 364 443
#     4  10  24  50  73 106 147 197 252 306 379 440
#     4  11  25  44  78 106 146 195 246 311 377 448
#     4  11  27  53  76 106 146 198 255 319 376 434
#
# _framework density 26.624016999999998
#
# number of rings (size 3 to 8) (size 9 to 14) (size 15 to 20)
#    0.000    1.500    1.250    1.500    3.500    6.000 
#   29.250    0.000    0.000    0.000    0.000    0.000 
#    0.000    0.000    0.000    0.000    0.000    0.000 
#
# Total GULP energy -89209.879426 kJ/mol
# GULP energy per Si atom -5575.617464 kJ/mol
# Density = 2.656342 g / cm^3
# Si number density = 26.624017 Si / 1000 Ang^3
#
#
#
# Elastic Constant Matrix: (Units=GPa)
#
#
# Indices 1 2 3 4 5 6 
#
# 1 58.1517 21.0716 59.7391 0.0000 5.4296 0.0000
# 2 21.0716 95.6464 43.4764 0.0000 2.9761 0.0000
# 3 59.7391 43.4764 159.9103 0.0000 16.9260 0.0000
# 4 0.0000 0.0000 0.0000 65.5025 0.0000 -5.9447
# 5 5.4296 2.9761 16.9260 0.0000 67.8303 0.0000
# 6 0.0000 0.0000 0.0000 -5.9447 0.0000 30.8530
#
#
#
# Elastic Compliance Matrix: (Units=1/GPa)
#
#
# Indices 1 2 3 4 5 6 
#
# 1 0.028132 -0.001614 -0.010107 0.000000 0.000341 0.000000
# 2 -0.001614 0.012028 -0.002696 0.000000 0.000274 0.000000
# 3 -0.010107 -0.002696 0.010953 0.000000 -0.001806 0.000000
# 4 0.000000 0.000000 0.000000 0.015538 0.000000 0.002994
# 5 0.000341 0.000274 -0.001806 0.000000 0.015154 0.000000
# 6 0.000000 0.000000 0.000000 0.002994 0.000000 0.032989
#
#
# Mechanical properties :
#
#
# Convention : Reuss Voigt Hill
#
# Bulk Modulus (GPa) = 44.88522 62.47584 53.68053
# Shear Modulus (GPa) = 33.10055 45.46524 39.28290
#
# Velocity S-wave (km/s) = 3.52981 4.13689 3.84535
# Velocity P-wave (km/s) = 5.78864 6.80701 6.31837
#
# Compressibility (1/GPa) = 0.02227905
#
# Stress axis : x y z
#
# Youngs Moduli (GPa) = 35.54647 83.14076 91.29624
#
# Poissons Ratio (x) = 0.13421 0.92271
# Poissons Ratio (y) = 0.05738 0.24614
# Poissons Ratio (z) = 0.35926 0.22415
#
# Static dielectric constant tensor:
#      x y z
#    x 2.486870 0.000000 -0.001570 
#    y 0.000000 2.195170 0.000000 
#    z -0.001570 0.000000 2.032350 
# 
# From -- ./inp_files/700.got.cif
#   From: 2010.05.17/outbox.cif.g08.bks.cpg/sg4_1_cif.got.tgz:700.got - 2010.06.03 18:43:04.
