data_PCOD9117977
_publ_section_title
;
Structure prediction by ZEFSAII (Michael W. Deem and Ramdas Pophale) SiO2 
 PCOD9117977
Probable space group: P 21
;
_chemical_formula_sum "Si O2"
_cell_formula_units_Z 14
_cell_length_a 15.151170
_cell_length_b 8.300688
_cell_length_c 4.840068
_cell_angle_alpha 90.000000
_cell_angle_beta 97.343073
_cell_angle_gamma 90.000000
_cell_volume 603.719540
_symmetry_space_group_name_H-M "P 21"
_symmetry_group_IT_number 4
_symmetry_cell_setting 'monoclinic'
loop_
_space_group_symop_operation_xyz
x,y,z
-x,1/2+y,-z
loop_
_atom_site_type_symbol
_atom_site_label
_atom_site_fract_x
_atom_site_fract_y
_atom_site_fract_z
Si Si1 0.005416 0.084220 0.098069
Si Si2 0.836795 0.149034 0.652106
Si Si3 0.393652 0.300478 0.161875
Si Si4 0.654391 0.277492 0.586454
Si Si5 0.042691 0.880232 0.644715
Si Si6 0.310792 0.442934 0.625764
Si Si7 0.421859 0.946233 0.932831
O O1 0.025438 0.260343 0.226921
O O2 0.004238 0.968112 0.361288
O O3 0.881250 0.263292 0.440033
O O4 0.068827 0.009986 0.887881
O O5 0.754090 0.250383 0.740276
O O6 0.912213 0.104317 0.899336
O O7 0.788336 0.995511 0.496660
O O8 0.355071 0.306893 0.453429
O O9 0.411552 0.123308 0.053354
O O10 0.321652 0.392498 0.943340
O O11 0.483371 0.403708 0.162808
O O12 0.593002 0.326086 0.814845
O O13 0.634356 0.106235 0.430452
O O14 0.647744 0.406648 0.338746
#
# Coordination Sequence:
#
# PCOD9117977 Si02
#       7
#     2   2   2   2   2   2   2
#     4  12  24  44  75 105 140 186 237 293 361 443
#     4  10  26  44  80  94 154 180 242 284 380 412
#     4  12  24  42  68 103 140 181 238 289 343 412
#     4  10  24  42  71  95 135 191 227 279 355 409
#     4  12  24  44  75 105 140 186 237 293 361 443
#     4  10  24  42  71  95 135 191 227 279 355 409
#     4  12  24  42  68 103 140 181 238 289 343 412
#
# _framework density 23.189578000000001
#
# number of rings (size 3 to 8) (size 9 to 14) (size 15 to 20)
#    0.857    0.000    2.857    4.286    4.000    0.000 
#    0.000    5.714    3.143    0.000    0.000    0.000 
#    0.000    0.000    0.000    0.000    0.000    0.000 
#
# Total GULP energy -78241.670268 kJ/mol
# GULP energy per Si atom -5588.690733 kJ/mol
# Density = 2.313680 g / cm^3
# Si number density = 23.189578 Si / 1000 Ang^3
#
#
#
# Elastic Constant Matrix: (Units=GPa)
#
#
# Indices 1 2 3 4 5 6 
#
# 1 23.9669 3.9830 7.6437 0.0000 9.8010 0.0000
# 2 3.9830 65.7295 13.9338 0.0000 6.9165 0.0000
# 3 7.6437 13.9338 91.1167 0.0000 -9.2328 0.0000
# 4 0.0000 0.0000 0.0000 53.4743 0.0000 -5.3737
# 5 9.8010 6.9165 -9.2328 0.0000 27.5183 0.0000
# 6 0.0000 0.0000 0.0000 -5.3737 0.0000 29.7706
#
#
#
# Elastic Compliance Matrix: (Units=1/GPa)
#
#
# Indices 1 2 3 4 5 6 
#
# 1 0.052317 0.000428 -0.006577 0.000000 -0.020948 0.000000
# 2 0.000428 0.016400 -0.003082 0.000000 -0.005308 0.000000
# 3 -0.006577 -0.003082 0.012747 0.000000 0.007394 0.000000
# 4 0.000000 0.000000 0.000000 0.019046 0.000000 0.003438
# 5 -0.020948 -0.005308 0.007394 0.000000 0.047615 0.000000
# 6 0.000000 0.000000 0.000000 0.003438 0.000000 0.034211
#
#
# Mechanical properties :
#
#
# Convention : Reuss Voigt Hill
#
# Bulk Modulus (GPa) = 15.87226 25.77047 20.82137
# Shear Modulus (GPa) = 22.54307 32.50282 27.52295
#
# Velocity S-wave (km/s) = 3.12127 3.74787 3.44883
# Velocity P-wave (km/s) = 4.45524 5.46496 4.98573
#
# Compressibility (1/GPa) = 0.06300298
#
# Stress axis : x y z
#
# Youngs Moduli (GPa) = 19.11428 60.97642 78.44893
#
# Poissons Ratio (x) = -0.02611 0.51595
# Poissons Ratio (y) = -0.00819 0.24176
# Poissons Ratio (z) = 0.12571 0.18791
#
# Static dielectric constant tensor:
#      x y z
#    x 1.880160 0.000000 0.001740 
#    y 0.000000 1.917200 0.000000 
#    z 0.001740 0.000000 1.851080 
# 
# From -- ./inp_files/4046.got.cif
#   From: 2010.05.17/outbox.cif.g08.bks.cpg/sg4_3_cif.got.tgz:4046.got - 2010.06.03 18:43:04.
