data_PCOD9117097
_publ_section_title
;
Structure prediction by ZEFSAII (Michael W. Deem and Ramdas Pophale) SiO2 
 PCOD9117097
Probable space group: P 21
;
_chemical_formula_sum "Si O2"
_cell_formula_units_Z 14
_cell_length_a 9.069364
_cell_length_b 11.477901
_cell_length_c 5.600976
_cell_angle_alpha 90.000000
_cell_angle_beta 79.016050
_cell_angle_gamma 90.000000
_cell_volume 572.365206
_symmetry_space_group_name_H-M "P 21"
_symmetry_group_IT_number 4
_symmetry_cell_setting 'monoclinic'
loop_
_space_group_symop_operation_xyz
x,y,z
-x,1/2+y,-z
loop_
_atom_site_type_symbol
_atom_site_label
_atom_site_fract_x
_atom_site_fract_y
_atom_site_fract_z
Si Si1 0.980835 0.581950 0.831649
Si Si2 0.726773 0.182164 0.050352
Si Si3 0.217840 0.445383 0.440771
Si Si4 0.292521 0.813377 0.445237
Si Si5 0.778161 0.678985 0.516295
Si Si6 0.510817 0.028472 0.371113
Si Si7 0.953807 0.464190 0.252899
O O1 0.098208 0.655479 0.953384
O O2 0.096967 0.529934 0.603664
O O3 0.848399 0.656427 0.758061
O O4 0.916360 0.467529 0.984677
O O5 0.677410 0.257013 0.301828
O O6 0.619205 0.070261 0.124500
O O7 0.712099 0.233765 0.789336
O O8 0.217493 0.314579 0.541389
O O9 0.379185 0.499234 0.442071
O O10 0.131889 0.441968 0.215245
O O11 0.132213 0.874334 0.551967
O O12 0.413350 0.913578 0.354781
O O13 0.611539 0.628453 0.545023
O O14 0.881620 0.590576 0.335861
#
# Coordination Sequence:
#
# PCOD9117097 Si02
#       7
#     2   2   2   2   2   2   2
#     4  10  24  43  71 107 141 189 248 315 362 449
#     4  11  26  46  74 105 148 195 244 306 373 436
#     4  10  22  43  69 103 141 192 241 304 371 439
#     4  11  26  46  74 105 146 197 243 305 375 435
#     4  10  22  44  69 104 142 188 243 305 370 439
#     4  10  24  48  68 106 146 192 248 299 364 456
#     4  10  24  42  71 102 142 181 251 306 359 444
#
# _framework density 24.459907000000001
#
# number of rings (size 3 to 8) (size 9 to 14) (size 15 to 20)
#    0.000    1.714    0.000    1.714   14.000    2.286 
#   12.857    0.000    0.000    0.000    0.000    0.000 
#    0.000    0.000    0.000    0.000    0.000    0.000 
#
# Total GULP energy -78116.460188 kJ/mol
# GULP energy per Si atom -5579.747156 kJ/mol
# Density = 2.440423 g / cm^3
# Si number density = 24.459907 Si / 1000 Ang^3
#
#
#
# Elastic Constant Matrix: (Units=GPa)
#
#
# Indices 1 2 3 4 5 6 
#
# 1 167.5940 46.9537 23.8665 0.0000 -15.1931 0.0000
# 2 46.9537 86.7950 33.8117 0.0000 -1.9477 0.0000
# 3 23.8665 33.8117 98.8461 0.0000 -1.5353 0.0000
# 4 0.0000 0.0000 0.0000 40.8716 0.0000 5.6140
# 5 -15.1931 -1.9477 -1.5353 0.0000 28.6605 0.0000
# 6 0.0000 0.0000 0.0000 5.6140 0.0000 28.1780
#
#
#
# Elastic Compliance Matrix: (Units=1/GPa)
#
#
# Indices 1 2 3 4 5 6 
#
# 1 0.007413 -0.003753 -0.000449 0.000000 0.003651 0.000000
# 2 -0.003753 0.015206 -0.004313 0.000000 -0.001187 0.000000
# 3 -0.000449 -0.004313 0.011702 0.000000 0.000096 0.000000
# 4 0.000000 0.000000 0.000000 0.025155 0.000000 -0.005012
# 5 0.003651 -0.001187 0.000096 0.000000 0.036751 0.000000
# 6 0.000000 0.000000 0.000000 -0.005012 0.000000 0.036487
#
#
# Mechanical properties :
#
#
# Convention : Reuss Voigt Hill
#
# Bulk Modulus (GPa) = 57.84143 62.49989 60.17066
# Shear Modulus (GPa) = 32.15230 36.11556 34.13393
#
# Velocity S-wave (km/s) = 3.62952 3.84672 3.73970
# Velocity P-wave (km/s) = 6.42366 6.73328 6.58029
#
# Compressibility (1/GPa) = 0.01728865
#
# Stress axis : x y z
#
# Youngs Moduli (GPa) = 134.89243 65.76517 85.45401
#
# Poissons Ratio (x) = 0.24685 0.03840
# Poissons Ratio (y) = 0.50631 0.36860
# Poissons Ratio (z) = 0.06061 0.28368
#
# Static dielectric constant tensor:
#      x y z
#    x 1.993180 0.000000 0.126530 
#    y 0.000000 2.061670 0.000000 
#    z 0.126530 0.000000 2.213080 
# 
# From -- ./inp_files/1126.got.cif
#   From: 2010.05.17/outbox.cif.g08.bks.cpg/sg4_1_cif.got.tgz:1126.got - 2010.06.03 18:43:04.
