data_PCOD9117102
_publ_section_title
;
Structure prediction by ZEFSAII (Michael W. Deem and Ramdas Pophale) SiO2 
 PCOD9117102
Probable space group: P 21
;
_chemical_formula_sum "Si O2"
_cell_formula_units_Z 14
_cell_length_a 14.483299
_cell_length_b 6.965840
_cell_length_c 5.874404
_cell_angle_alpha 90.000000
_cell_angle_beta 63.507211
_cell_angle_gamma 90.000000
_cell_volume 530.424082
_symmetry_space_group_name_H-M "P 21"
_symmetry_group_IT_number 4
_symmetry_cell_setting 'monoclinic'
loop_
_space_group_symop_operation_xyz
x,y,z
-x,1/2+y,-z
loop_
_atom_site_type_symbol
_atom_site_label
_atom_site_fract_x
_atom_site_fract_y
_atom_site_fract_z
Si Si1 0.095612 0.478760 0.887804
Si Si2 0.591971 0.940482 0.839606
Si Si3 0.195000 0.713821 0.145849
Si Si4 0.386300 0.972766 0.827353
Si Si5 0.210695 0.309046 0.395356
Si Si6 0.575525 0.906476 0.355641
Si Si7 0.991738 0.735858 0.641258
O O1 0.164719 0.313406 0.698719
O O2 0.029185 0.563941 0.758171
O O3 0.170957 0.628200 0.924219
O O4 0.022050 0.409650 0.168164
O O5 0.469112 0.930743 0.938343
O O6 0.669927 0.754994 0.754646
O O7 0.617173 0.998916 0.546051
O O8 0.595418 0.016583 0.097381
O O9 0.221109 0.532186 0.287537
O O10 0.084786 0.776854 0.368521
O O11 0.279623 0.876579 0.018027
O O12 0.453771 0.883505 0.543142
O O13 0.380871 0.193980 0.746359
O O14 0.121030 0.216723 0.344491
#
# Coordination Sequence:
#
# PCOD9117102 Si02
#       7
#     2   2   2   2   2   2   2
#     4  10  22  43  69  97 136 186 223 292 345 424
#     4  10  26  43  71 102 139 182 234 286 349 416
#     4  10  23  43  70 101 135 183 230 285 349 415
#     4  10  26  43  72  99 144 177 240 283 351 414
#     4  10  23  42  71  96 138 183 229 287 353 417
#     4  10  26  44  69 103 137 184 230 289 348 407
#     4  10  22  44  68 102 133 181 234 280 359 413
#
# _framework density 26.393974
#
# number of rings (size 3 to 8) (size 9 to 14) (size 15 to 20)
#    0.857    1.143    0.000    0.857   12.000    1.143 
#   12.857    0.000    0.000    0.000    0.000    0.000 
#    0.000    0.000    0.000    0.000    0.000    0.000 
#
# Total GULP energy -77996.275107 kJ/mol
# GULP energy per Si atom -5571.162508 kJ/mol
# Density = 2.633390 g / cm^3
# Si number density = 26.393974 Si / 1000 Ang^3
#
#
#
# Elastic Constant Matrix: (Units=GPa)
#
#
# Indices 1 2 3 4 5 6 
#
# 1 109.8444 20.2570 77.6449 0.0000 -7.1770 0.0000
# 2 20.2570 75.9979 18.9849 0.0000 -1.4421 0.0000
# 3 77.6449 18.9849 189.2726 0.0000 11.3942 0.0000
# 4 0.0000 0.0000 0.0000 35.8047 0.0000 -8.2239
# 5 -7.1770 -1.4421 11.3942 0.0000 53.3922 0.0000
# 6 0.0000 0.0000 0.0000 -8.2239 0.0000 20.2267
#
#
#
# Elastic Compliance Matrix: (Units=1/GPa)
#
#
# Indices 1 2 3 4 5 6 
#
# 1 0.013621 -0.002189 -0.005546 0.000000 0.002955 0.000000
# 2 -0.002189 0.013871 -0.000505 0.000000 0.000188 0.000000
# 3 -0.005546 -0.000505 0.007754 0.000000 -0.002414 0.000000
# 4 0.000000 0.000000 0.000000 0.030806 0.000000 0.012525
# 5 0.002955 0.000188 -0.002414 0.000000 0.019647 0.000000
# 6 0.000000 0.000000 0.000000 0.012525 0.000000 0.054532
#
#
# Mechanical properties :
#
#
# Convention : Reuss Voigt Hill
#
# Bulk Modulus (GPa) = 53.28443 67.65428 60.46936
# Shear Modulus (GPa) = 30.68103 39.09993 34.89048
#
# Velocity S-wave (km/s) = 3.41313 3.85307 3.63975
# Velocity P-wave (km/s) = 5.98035 6.74410 6.37368
#
# Compressibility (1/GPa) = 0.01876721
#
# Stress axis : x y z
#
# Youngs Moduli (GPa) = 73.41698 72.09084 128.95839
#
# Poissons Ratio (x) = 0.15781 0.71520
# Poissons Ratio (y) = 0.16072 0.06508
# Poissons Ratio (z) = 0.40717 0.03638
#
# Static dielectric constant tensor:
#      x y z
#    x 2.196020 0.000000 -0.028390 
#    y 0.000000 2.199050 0.000000 
#    z -0.028390 0.000000 2.055120 
# 
# From -- ./inp_files/3689.got.cif
#   From: 2010.05.17/outbox.cif.g08.bks.cpg/sg4_2_cif.got.tgz:3689.got - 2010.06.03 18:43:04.
