data_PCOD9117854
_publ_section_title
;
Structure prediction by ZEFSAII (Michael W. Deem and Ramdas Pophale) SiO2 
 PCOD9117854
Probable space group: P 21
;
_chemical_formula_sum "Si O2"
_cell_formula_units_Z 16
_cell_length_a 14.587164
_cell_length_b 5.026583
_cell_length_c 9.194405
_cell_angle_alpha 90.000000
_cell_angle_beta 59.312210
_cell_angle_gamma 90.000000
_cell_volume 579.757180
_symmetry_space_group_name_H-M "P 21"
_symmetry_group_IT_number 4
_symmetry_cell_setting 'monoclinic'
loop_
_space_group_symop_operation_xyz
x,y,z
-x,1/2+y,-z
loop_
_atom_site_type_symbol
_atom_site_label
_atom_site_fract_x
_atom_site_fract_y
_atom_site_fract_z
Si Si1 0.442335 0.846180 0.093747
Si Si2 0.463240 0.667792 0.378311
Si Si3 0.760493 0.002574 0.779096
Si Si4 0.277614 0.247191 0.474436
Si Si5 0.062028 0.513220 0.773629
Si Si6 0.333160 0.921435 0.707556
Si Si7 0.863813 0.151346 0.972821
Si Si8 0.944248 0.335054 0.484248
O O1 0.435180 0.876875 0.273331
O O2 0.344676 0.677519 0.109668
O O3 0.535420 0.626730 0.996245
O O4 0.383474 0.428021 0.402516
O O5 0.590413 0.630908 0.275239
O O6 0.425267 0.724913 0.573273
O O7 0.835650 0.209845 0.630970
O O8 0.739705 0.756471 0.686797
O O9 0.819249 0.956753 0.884099
O O10 0.169255 0.387876 0.620502
O O11 0.286567 0.021701 0.591153
O O12 0.083007 0.523757 0.928152
O O13 0.052488 0.790029 0.692097
O O14 0.952864 0.351610 0.838288
O O15 0.239404 0.806008 0.879552
O O16 0.969993 0.628557 0.516949
#
# Coordination Sequence:
#
# PCOD9117854 Si02
#       8
#     2   2   2   2   2   2   2   2
#     4  11  27  48  74 111 156 201 255 325 390 467
#     4  11  24  44  75 109 148 198 255 311 389 473
#     4  10  25  47  74 109 155 200 266 311 403 470
#     4  10  23  47  70 110 142 210 246 323 382 484
#     4  11  25  44  73 109 153 191 262 313 396 463
#     4  12  24  43  80 108 155 195 259 319 401 461
#     4  12  25  46  73 116 153 202 252 337 392 469
#     4  11  25  49  77 108 146 203 255 317 391 471
#
# _framework density 27.597761999999999
#
# number of rings (size 3 to 8) (size 9 to 14) (size 15 to 20)
#    0.000    1.000    3.750    1.500    5.250    5.000 
#    2.250    0.000    0.000    0.000    0.000    0.000 
#    0.000    0.000    0.000    0.000    0.000    0.000 
#
# Total GULP energy -89615.214039 kJ/mol
# GULP energy per Si atom -5600.950877 kJ/mol
# Density = 2.753495 g / cm^3
# Si number density = 27.597762 Si / 1000 Ang^3
#
#
#
# Elastic Constant Matrix: (Units=GPa)
#
#
# Indices 1 2 3 4 5 6 
#
# 1 160.8368 24.5560 56.6433 0.0000 13.9850 0.0000
# 2 24.5560 62.5249 26.8984 0.0000 8.3933 0.0000
# 3 56.6433 26.8984 130.4706 0.0000 22.0996 0.0000
# 4 0.0000 0.0000 0.0000 37.6186 0.0000 6.3886
# 5 13.9850 8.3933 22.0996 0.0000 75.1423 0.0000
# 6 0.0000 0.0000 0.0000 6.3886 0.0000 43.8030
#
#
#
# Elastic Compliance Matrix: (Units=1/GPa)
#
#
# Indices 1 2 3 4 5 6 
#
# 1 0.007510 -0.001672 -0.002853 0.000000 -0.000372 0.000000
# 2 -0.001672 0.017986 -0.002836 0.000000 -0.000864 0.000000
# 3 -0.002853 -0.002836 0.009834 0.000000 -0.002045 0.000000
# 4 0.000000 0.000000 0.000000 0.027258 0.000000 -0.003975
# 5 -0.000372 -0.000864 -0.002045 0.000000 0.014075 0.000000
# 6 0.000000 0.000000 0.000000 -0.003975 0.000000 0.023409
#
#
# Mechanical properties :
#
#
# Convention : Reuss Voigt Hill
#
# Bulk Modulus (GPa) = 48.52319 63.33644 55.92981
# Shear Modulus (GPa) = 41.09710 47.69508 44.39609
#
# Velocity S-wave (km/s) = 3.86313 4.16170 4.01519
# Velocity P-wave (km/s) = 6.12526 6.78916 6.46574
#
# Compressibility (1/GPa) = 0.02060870
#
# Stress axis : x y z
#
# Youngs Moduli (GPa) = 133.16016 55.59781 101.68851
#
# Poissons Ratio (x) = 0.09297 0.29007
# Poissons Ratio (y) = 0.22268 0.28837
# Poissons Ratio (z) = 0.37985 0.15767
#
# Static dielectric constant tensor:
#      x y z
#    x 2.204630 0.000000 -0.038640 
#    y 0.000000 2.175530 0.000000 
#    z -0.038640 0.000000 2.175250 
# 
# From -- ./inp_files/8920.got.cif
#   From: 2010.05.17/outbox.cif.g08.bks.cpg/sg4_5_cif.got.tgz:8920.got - 2010.06.03 18:43:04.
