data_PCOD9117194
_publ_section_title
;
Structure prediction by ZEFSAII (Michael W. Deem and Ramdas Pophale) SiO2 
 PCOD9117194
Probable space group: P 21
;
_chemical_formula_sum "Si O2"
_cell_formula_units_Z 14
_cell_length_a 6.722320
_cell_length_b 8.331069
_cell_length_c 11.952463
_cell_angle_alpha 90.000000
_cell_angle_beta 59.419051
_cell_angle_gamma 90.000000
_cell_volume 576.282854
_symmetry_space_group_name_H-M "P 21"
_symmetry_group_IT_number 4
_symmetry_cell_setting 'monoclinic'
loop_
_space_group_symop_operation_xyz
x,y,z
-x,1/2+y,-z
loop_
_atom_site_type_symbol
_atom_site_label
_atom_site_fract_x
_atom_site_fract_y
_atom_site_fract_z
Si Si1 0.286444 0.422650 0.993091
Si Si2 0.824264 0.687934 0.441721
Si Si3 0.040933 0.163790 0.349580
Si Si4 0.162881 0.756718 0.940565
Si Si5 0.372480 0.451380 0.220867
Si Si6 0.409865 0.533895 0.450309
Si Si7 0.202916 0.850986 0.183613
O O1 0.214406 0.568499 0.933589
O O2 0.519995 0.337117 0.886142
O O3 0.352745 0.496293 0.095831
O O4 0.066493 0.305433 0.060440
O O5 0.883844 0.616843 0.545539
O O6 0.664771 0.567399 0.419373
O O7 0.048014 0.739623 0.307415
O O8 0.683702 0.854492 0.500852
O O9 0.150582 0.336654 0.300071
O O10 0.765914 0.148315 0.431297
O O11 0.144938 0.033525 0.235613
O O12 0.394535 0.844434 0.834224
O O13 0.129292 0.815105 0.078059
O O14 0.393426 0.564190 0.322445
#
# Coordination Sequence:
#
# PCOD9117194 Si02
#       7
#     2   2   2   2   2   2   2
#     4  11  26  46  75 101 142 181 240 287 354 411
#     4  10  24  44  70 105 137 182 232 283 351 415
#     4  10  22  44  70  98 140 185 221 285 351 412
#     4  11  26  43  72 107 133 185 234 294 347 410
#     4  10  24  46  71  99 143 182 231 288 353 414
#     4  10  24  43  72 104 138 181 233 283 349 417
#     4  10  24  46  68 102 143 180 229 286 351 413
#
# _framework density 24.293627000000001
#
# number of rings (size 3 to 8) (size 9 to 14) (size 15 to 20)
#    0.000    1.714    1.429    0.000    6.000   10.286 
#    0.000    0.000    0.000    0.000    0.000    0.000 
#    0.000    0.000    0.000    0.000    0.000    0.000 
#
# Total GULP energy -78403.338122 kJ/mol
# GULP energy per Si atom -5600.238437 kJ/mol
# Density = 2.423833 g / cm^3
# Si number density = 24.293627 Si / 1000 Ang^3
#
#
#
# Elastic Constant Matrix: (Units=GPa)
#
#
# Indices 1 2 3 4 5 6 
#
# 1 138.6742 38.7985 31.6894 0.0000 -20.1049 0.0000
# 2 38.7985 42.2829 21.0202 0.0000 -10.2905 0.0000
# 3 31.6894 21.0202 82.2299 0.0000 -8.5803 0.0000
# 4 0.0000 0.0000 0.0000 33.3213 0.0000 -1.9326
# 5 -20.1049 -10.2905 -8.5803 0.0000 33.0311 0.0000
# 6 0.0000 0.0000 0.0000 -1.9326 0.0000 49.3061
#
#
#
# Elastic Compliance Matrix: (Units=1/GPa)
#
#
# Indices 1 2 3 4 5 6 
#
# 1 0.010247 -0.007777 -0.001606 0.000000 0.003397 0.000000
# 2 -0.007777 0.034581 -0.005358 0.000000 0.004648 0.000000
# 3 -0.001606 -0.005358 0.014260 0.000000 0.001057 0.000000
# 4 0.000000 0.000000 0.000000 0.030079 0.000000 0.001179
# 5 0.003397 0.004648 0.001057 0.000000 0.034065 0.000000
# 6 0.000000 0.000000 0.000000 0.001179 0.000000 0.020328
#
#
# Mechanical properties :
#
#
# Convention : Reuss Voigt Hill
#
# Bulk Modulus (GPa) = 33.77768 49.57815 41.67792
# Shear Modulus (GPa) = 27.33592 34.57696 30.95644
#
# Velocity S-wave (km/s) = 3.35808 3.77675 3.57355
# Velocity P-wave (km/s) = 5.38236 6.28257 5.84980
#
# Compressibility (1/GPa) = 0.02960535
#
# Stress axis : x y z
#
# Youngs Moduli (GPa) = 97.59427 28.91765 70.12621
#
# Poissons Ratio (x) = 0.22489 0.11265
# Poissons Ratio (y) = 0.75898 0.37572
# Poissons Ratio (z) = 0.15677 0.15494
#
# Static dielectric constant tensor:
#      x y z
#    x 1.870650 0.000000 -0.010430 
#    y 0.000000 2.001100 0.000000 
#    z -0.010430 0.000000 1.915880 
# 
# From -- ./inp_files/2396.got.cif
#   From: 2010.05.17/outbox.cif.g08.bks.cpg/sg4_2_cif.got.tgz:2396.got - 2010.06.03 18:43:04.
