data_PCOD9117889
_publ_section_title
;
Structure prediction by ZEFSAII (Michael W. Deem and Ramdas Pophale) SiO2 
 PCOD9117889
Probable space group: P 21
;
_chemical_formula_sum "Si O2"
_cell_formula_units_Z 14
_cell_length_a 10.559059
_cell_length_b 6.931812
_cell_length_c 10.066121
_cell_angle_alpha 90.000000
_cell_angle_beta 43.087457
_cell_angle_gamma 90.000000
_cell_volume 503.300393
_symmetry_space_group_name_H-M "P 21"
_symmetry_group_IT_number 4
_symmetry_cell_setting 'monoclinic'
loop_
_space_group_symop_operation_xyz
x,y,z
-x,1/2+y,-z
loop_
_atom_site_type_symbol
_atom_site_label
_atom_site_fract_x
_atom_site_fract_y
_atom_site_fract_z
Si Si1 0.258594 0.352750 0.784535
Si Si2 0.866806 0.146374 0.431363
Si Si3 0.661934 0.650660 0.738548
Si Si4 0.677459 0.916915 0.970969
Si Si5 0.507568 0.914682 0.641494
Si Si6 0.958669 0.229735 0.660245
Si Si7 0.141824 0.788285 0.844282
O O1 0.401020 0.311634 0.557788
O O2 0.242243 0.586459 0.792735
O O3 0.314725 0.316358 0.892591
O O4 0.045591 0.292253 0.928104
O O5 0.654447 0.079588 0.568148
O O6 0.990521 0.948041 0.334644
O O7 0.911451 0.280089 0.270709
O O8 0.883334 0.227933 0.566378
O O9 0.728387 0.774853 0.812709
O O10 0.521579 0.775527 0.756713
O O11 0.840083 0.627500 0.508427
O O12 0.536554 0.477753 0.885277
O O13 0.813673 0.101462 0.852690
O O14 0.293302 0.948547 0.767573
#
# Coordination Sequence:
#
# PCOD9117889 Si02
#       7
#     2   2   2   2   2   2   2
#     4  11  27  45  74 108 139 197 239 298 367 430
#     4  10  24  45  76 107 142 200 235 300 375 418
#     4  11  26  45  74 106 141 193 237 303 366 428
#     4  12  26  47  71 109 143 187 251 293 365 441
#     4  10  23  49  67 103 148 187 237 288 367 429
#     4  11  23  47  73 103 152 187 246 301 366 432
#     4  11  25  46  75 108 145 189 243 301 362 446
#
# _framework density 27.816392
#
# number of rings (size 3 to 8) (size 9 to 14) (size 15 to 20)
#    0.000    1.143    4.286    0.857    8.000    4.571 
#    2.571    0.000    0.000    0.000    0.000    0.000 
#    0.000    0.000    0.000    0.000    0.000    0.000 
#
# Total GULP energy -78527.414586 kJ/mol
# GULP energy per Si atom -5609.101042 kJ/mol
# Density = 2.775308 g / cm^3
# Si number density = 27.816392 Si / 1000 Ang^3
#
#
#
# Elastic Constant Matrix: (Units=GPa)
#
#
# Indices 1 2 3 4 5 6 
#
# 1 169.5295 33.0297 61.2364 0.0000 9.6619 0.0000
# 2 33.0297 75.7530 39.7316 0.0000 -7.8692 0.0000
# 3 61.2364 39.7316 173.8076 0.0000 -17.8931 0.0000
# 4 0.0000 0.0000 0.0000 48.8121 0.0000 -0.9512
# 5 9.6619 -7.8692 -17.8931 0.0000 65.8684 0.0000
# 6 0.0000 0.0000 0.0000 -0.9512 0.0000 33.5629
#
#
#
# Elastic Compliance Matrix: (Units=1/GPa)
#
#
# Indices 1 2 3 4 5 6 
#
# 1 0.007248 -0.002179 -0.002255 0.000000 -0.001936 0.000000
# 2 -0.002179 0.015704 -0.002671 0.000000 0.001470 0.000000
# 3 -0.002255 -0.002671 0.007366 0.000000 0.002013 0.000000
# 4 0.000000 0.000000 0.000000 0.020498 0.000000 0.000581
# 5 -0.001936 0.001470 0.002013 0.000000 0.016188 0.000000
# 6 0.000000 0.000000 0.000000 0.000581 0.000000 0.029811
#
#
# Mechanical properties :
#
#
# Convention : Reuss Voigt Hill
#
# Bulk Modulus (GPa) = 62.07748 76.34283 69.21016
# Shear Modulus (GPa) = 42.95743 48.65486 45.80615
#
# Velocity S-wave (km/s) = 3.93405 4.18681 4.06240
# Velocity P-wave (km/s) = 6.55751 7.13284 6.85122
#
# Compressibility (1/GPa) = 0.01610890
#
# Stress axis : x y z
#
# Youngs Moduli (GPa) = 137.96920 63.67647 135.76445
#
# Poissons Ratio (x) = 0.13873 0.30613
# Poissons Ratio (y) = 0.30059 0.36263
# Poissons Ratio (z) = 0.31111 0.17008
#
# Static dielectric constant tensor:
#      x y z
#    x 2.177670 0.000000 -0.097350 
#    y 0.000000 2.219690 0.000000 
#    z -0.097350 0.000000 2.131020 
# 
# From -- ./inp_files/11963.got.cif
#   From: 2010.05.17/outbox.cif.g08.bks.cpg/sg4_6_cif.got.tgz:11963.got - 2010.06.03 18:43:04.
