data_PCOD9117636
_publ_section_title
;
Structure prediction by ZEFSAII (Michael W. Deem and Ramdas Pophale) SiO2 
 PCOD9117636
Probable space group: P 21
;
_chemical_formula_sum "Si O2"
_cell_formula_units_Z 16
_cell_length_a 8.785902
_cell_length_b 5.256140
_cell_length_c 21.146602
_cell_angle_alpha 90.000000
_cell_angle_beta 39.859832
_cell_angle_gamma 90.000000
_cell_volume 625.881380
_symmetry_space_group_name_H-M "P 21"
_symmetry_group_IT_number 4
_symmetry_cell_setting 'monoclinic'
loop_
_space_group_symop_operation_xyz
x,y,z
-x,1/2+y,-z
loop_
_atom_site_type_symbol
_atom_site_label
_atom_site_fract_x
_atom_site_fract_y
_atom_site_fract_z
Si Si1 0.246908 0.878470 0.765891
Si Si2 0.008860 0.867727 0.536955
Si Si3 0.722399 0.042160 0.051556
Si Si4 0.622391 0.721737 0.540005
Si Si5 0.408457 0.392571 0.230994
Si Si6 0.079591 0.039552 0.055362
Si Si7 0.045641 0.581540 0.254252
Si Si8 0.177720 0.575264 0.614728
O O1 0.463169 0.817275 0.649104
O O2 0.372168 0.981549 0.791769
O O3 0.109886 0.623165 0.831624
O O4 0.046894 0.027310 0.788244
O O5 0.797879 0.818789 0.653544
O O6 0.045008 0.639519 0.477999
O O7 0.257816 0.951235 0.486109
O O8 0.500736 0.148238 0.162383
O O9 0.928549 0.022311 0.038782
O O10 0.786290 0.273353 0.983756
O O11 0.739231 0.776173 0.009913
O O12 0.446033 0.656429 0.540530
O O13 0.812251 0.928825 0.455377
O O14 0.301183 0.580834 0.210962
O O15 0.920864 0.845862 0.310872
O O16 0.950202 0.328656 0.320294
#
# Coordination Sequence:
#
# PCOD9117636 Si02
#       8
#     2   2   2   2   2   2   2   2
#     4  10  23  43  70  98 134 176 222 279 337 394
#     4  12  28  42  63 101 141 175 229 277 324 404
#     4   9  20  39  66  93 125 168 217 270 336 393
#     4  11  23  41  66  94 139 182 225 269 338 388
#     4  11  24  45  71  97 136 180 220 275 337 397
#     4   9  19  40  63  96 125 163 219 277 328 396
#     4  11  26  45  64 101 133 173 227 269 328 400
#     4  11  25  41  65  90 139 179 221 274 318 394
#
# _framework density 25.563949000000001
#
# number of rings (size 3 to 8) (size 9 to 14) (size 15 to 20)
#    0.000    1.500    2.500    1.500    3.500    4.000 
#    4.500    1.250    0.000    0.000    0.000    0.000 
#    0.000    0.000    0.000    0.000    0.000    0.000 
#
# Total GULP energy -89210.413416 kJ/mol
# GULP energy per Si atom -5575.650838 kJ/mol
# Density = 2.550576 g / cm^3
# Si number density = 25.563949 Si / 1000 Ang^3
#
#
#
# Elastic Constant Matrix: (Units=GPa)
#
#
# Indices 1 2 3 4 5 6 
#
# 1 146.7115 10.9318 -4.7803 0.0000 6.3874 0.0000
# 2 10.9318 114.7019 31.1957 0.0000 -4.0760 0.0000
# 3 -4.7803 31.1957 132.0232 0.0000 -0.0874 0.0000
# 4 0.0000 0.0000 0.0000 37.9477 0.0000 4.7811
# 5 6.3874 -4.0760 -0.0874 0.0000 15.3412 0.0000
# 6 0.0000 0.0000 0.0000 4.7811 0.0000 22.2698
#
#
#
# Elastic Compliance Matrix: (Units=1/GPa)
#
#
# Indices 1 2 3 4 5 6 
#
# 1 0.007037 -0.000911 0.000468 0.000000 -0.003169 0.000000
# 2 -0.000911 0.009529 -0.002283 0.000000 0.002898 0.000000
# 3 0.000468 -0.002283 0.008130 0.000000 -0.000755 0.000000
# 4 0.000000 0.000000 0.000000 0.027085 0.000000 -0.005815
# 5 -0.003169 0.002898 -0.000755 0.000000 0.067269 0.000000
# 6 0.000000 0.000000 0.000000 -0.005815 0.000000 0.046152
#
#
# Mechanical properties :
#
#
# Convention : Reuss Voigt Hill
#
# Bulk Modulus (GPa) = 51.95991 52.01454 51.98723
# Shear Modulus (GPa) = 28.23775 38.85103 33.54439
#
# Velocity S-wave (km/s) = 3.32715 3.90264 3.62633
# Velocity P-wave (km/s) = 5.92701 6.37953 6.15743
#
# Compressibility (1/GPa) = 0.01924561
#
# Stress axis : x y z
#
# Youngs Moduli (GPa) = 142.10255 104.94484 122.99788
#
# Poissons Ratio (x) = 0.09556 -0.05755
# Poissons Ratio (y) = 0.12939 0.28076
# Poissons Ratio (z) = -0.06648 0.23955
#
# Static dielectric constant tensor:
#      x y z
#    x 2.295010 0.000000 -0.007980 
#    y 0.000000 2.130260 0.000000 
#    z -0.007980 0.000000 2.021380 
# 
# From -- ./inp_files/15555.got.cif
#   From: 2010.05.17/outbox.cif.g08.bks.cpg/sg4_8_cif.got.tgz:15555.got - 2010.06.03 18:43:04.
