data_PCOD9117315
_publ_section_title
;
Structure prediction by ZEFSAII (Michael W. Deem and Ramdas Pophale) SiO2 
 PCOD9117315
Probable space group: P 21
;
_chemical_formula_sum "Si O2"
_cell_formula_units_Z 16
_cell_length_a 9.233419
_cell_length_b 10.490441
_cell_length_c 9.446201
_cell_angle_alpha 90.000000
_cell_angle_beta 136.543448
_cell_angle_gamma 90.000000
_cell_volume 629.329906
_symmetry_space_group_name_H-M "P 21"
_symmetry_group_IT_number 4
_symmetry_cell_setting 'monoclinic'
loop_
_space_group_symop_operation_xyz
x,y,z
-x,1/2+y,-z
loop_
_atom_site_type_symbol
_atom_site_label
_atom_site_fract_x
_atom_site_fract_y
_atom_site_fract_z
Si Si1 0.331627 0.148710 0.915526
Si Si2 0.552074 0.152062 0.788277
Si Si3 0.968042 0.034872 0.071905
Si Si4 0.369619 0.758626 0.631991
Si Si5 0.048351 0.396759 0.645714
Si Si6 0.251637 0.492613 0.501796
Si Si7 0.273503 0.923764 0.080704
Si Si8 0.727148 0.762104 0.661416
O O1 0.513200 0.205058 0.146539
O O2 0.233343 0.029209 0.930698
O O3 0.433282 0.101259 0.841526
O O4 0.179305 0.267114 0.770906
O O5 0.674037 0.280341 0.927634
O O6 0.389579 0.190614 0.551443
O O7 0.732679 0.062546 0.854848
O O8 0.102335 0.931178 0.083061
O O9 0.940617 0.990441 0.213383
O O10 0.107372 0.162511 0.158899
O O11 0.242023 0.642052 0.467725
O O12 0.551497 0.797149 0.652057
O O13 0.195306 0.861124 0.545915
O O14 0.147840 0.461153 0.578771
O O15 0.503025 0.467228 0.691908
O O16 0.171951 0.387002 0.336547
#
# Coordination Sequence:
#
# PCOD9117315 Si02
#       8
#     2   2   2   2   2   2   2   2
#     4  11  24  46  69 102 140 183 226 287 343 407
#     4  11  26  45  73  99 141 185 229 283 353 406
#     4  12  26  44  73 103 140 182 237 282 345 417
#     4  11  26  45  73  99 141 185 229 283 353 406
#     4  12  26  44  73 103 140 182 237 282 345 417
#     4  10  22  46  67  99 144 177 224 291 335 409
#     4  10  22  46  67  99 144 177 224 291 335 409
#     4  11  24  46  69 102 140 183 226 287 343 407
#
# _framework density 25.423866
#
# number of rings (size 3 to 8) (size 9 to 14) (size 15 to 20)
#    0.000    1.000    5.000    3.000    7.000    2.000 
#    0.000    0.000    0.000    0.000    0.000    0.000 
#    0.000    0.000    0.000    0.000    0.000    0.000 
#
# Total GULP energy -89759.608060 kJ/mol
# GULP energy per Si atom -5609.975504 kJ/mol
# Density = 2.536600 g / cm^3
# Si number density = 25.423866 Si / 1000 Ang^3
#
#
#
# Elastic Constant Matrix: (Units=GPa)
#
#
# Indices 1 2 3 4 5 6 
#
# 1 66.3572 12.1897 29.3050 0.0000 -1.2774 0.0000
# 2 12.1897 97.3224 5.5449 0.0000 4.0485 0.0000
# 3 29.3050 5.5449 76.4473 0.0000 -3.0783 0.0000
# 4 0.0000 0.0000 0.0000 44.4691 0.0000 2.5684
# 5 -1.2774 4.0485 -3.0783 0.0000 30.0363 0.0000
# 6 0.0000 0.0000 0.0000 2.5684 0.0000 50.9453
#
#
#
# Elastic Compliance Matrix: (Units=1/GPa)
#
#
# Indices 1 2 3 4 5 6 
#
# 1 0.018495 -0.001935 -0.006936 0.000000 0.000337 0.000000
# 2 -0.001935 0.010586 -0.000087 0.000000 -0.001518 0.000000
# 3 -0.006936 -0.000087 0.015800 0.000000 0.001336 0.000000
# 4 0.000000 0.000000 0.000000 0.022553 0.000000 -0.001137
# 5 0.000337 -0.001518 0.001336 0.000000 0.033649 0.000000
# 6 0.000000 0.000000 0.000000 -0.001137 0.000000 0.019686
#
#
# Mechanical properties :
#
#
# Convention : Reuss Voigt Hill
#
# Bulk Modulus (GPa) = 37.08660 37.13401 37.11030
# Shear Modulus (GPa) = 33.85854 37.96262 35.91058
#
# Velocity S-wave (km/s) = 3.65329 3.86837 3.76237
# Velocity P-wave (km/s) = 5.69336 5.88133 5.78811
#
# Compressibility (1/GPa) = 0.02696392
#
# Stress axis : x y z
#
# Youngs Moduli (GPa) = 54.06867 94.46756 63.29202
#
# Poissons Ratio (x) = 0.18283 0.43898
# Poissons Ratio (y) = 0.10464 0.00551
# Poissons Ratio (z) = 0.37501 0.00822
#
# Static dielectric constant tensor:
#      x y z
#    x 1.930710 0.000000 0.032250 
#    y 0.000000 2.015040 0.000000 
#    z 0.032250 0.000000 2.022600 
# 
# From -- ./inp_files/6381.got.cif
#   From: 2010.05.17/outbox.cif.g08.bks.cpg/sg4_4_cif.got.tgz:6381.got - 2010.06.03 18:43:04.
