data_PCOD9117767
_publ_section_title
;
Structure prediction by ZEFSAII (Michael W. Deem and Ramdas Pophale) SiO2 
 PCOD9117767
Probable space group: P 21
;
_chemical_formula_sum "Si O2"
_cell_formula_units_Z 16
_cell_length_a 26.270083
_cell_length_b 5.142169
_cell_length_c 9.905645
_cell_angle_alpha 90.000000
_cell_angle_beta 29.772728
_cell_angle_gamma 90.000000
_cell_volume 664.451116
_symmetry_space_group_name_H-M "P 21"
_symmetry_group_IT_number 4
_symmetry_cell_setting 'monoclinic'
loop_
_space_group_symop_operation_xyz
x,y,z
-x,1/2+y,-z
loop_
_atom_site_type_symbol
_atom_site_label
_atom_site_fract_x
_atom_site_fract_y
_atom_site_fract_z
Si Si1 0.068245 0.169310 0.375874
Si Si2 0.265188 0.466932 0.829484
Si Si3 0.425681 0.522421 0.696646
Si Si4 0.033646 0.209032 0.750639
Si Si5 0.369729 0.537356 0.137758
Si Si6 0.417439 0.196824 0.274092
Si Si7 0.259407 0.822185 0.613353
Si Si8 0.096098 0.208721 0.901197
O O1 0.986470 0.404388 0.543762
O O2 0.090011 0.146679 0.484402
O O3 0.174536 0.263993 0.067414
O O4 0.329279 0.544561 0.814915
O O5 0.350544 0.359357 0.531972
O O6 0.215871 0.688573 0.847699
O O7 0.502377 0.770871 0.503011
O O8 0.376375 0.498730 0.961716
O O9 0.100682 0.183693 0.729675
O O10 0.989407 0.500664 0.853569
O O11 0.942336 0.996039 0.975008
O O12 0.396506 0.289259 0.169843
O O13 0.272566 0.661640 0.442509
O O14 0.467200 0.718597 0.944590
O O15 0.373358 0.908669 0.393237
O O16 0.198124 0.085631 0.724640
#
# Coordination Sequence:
#
# PCOD9117767 Si02
#       8
#     2   2   2   2   2   2   2   2
#     4  12  28  47  75 107 147 198 249 308 372 446
#     4  11  28  48  72 109 150 197 251 303 374 448
#     4  12  28  49  76 109 156 200 242 306 379 442
#     4  10  23  46  71 100 145 183 239 305 367 429
#     4  11  24  43  70 106 145 191 240 299 363 437
#     4  11  23  43  71 103 141 188 245 299 354 442
#     4  11  25  43  77 102 143 192 249 301 359 439
#     4  10  23  45  72 104 139 187 239 303 366 425
#
# _framework density 24.080027999999999
#
# number of rings (size 3 to 8) (size 9 to 14) (size 15 to 20)
#    0.000    1.000    2.500    2.250   12.250    1.000 
#    6.750    0.000    0.000    0.000    0.000    0.000 
#    0.000    0.000    0.000    0.000    0.000    0.000 
#
# Total GULP energy -89429.935709 kJ/mol
# GULP energy per Si atom -5589.370982 kJ/mol
# Density = 2.402522 g / cm^3
# Si number density = 24.080028 Si / 1000 Ang^3
#
#
#
# Elastic Constant Matrix: (Units=GPa)
#
#
# Indices 1 2 3 4 5 6 
#
# 1 136.2901 11.8215 52.8467 0.0000 32.0344 0.0000
# 2 11.8215 80.9849 36.9299 0.0000 3.2541 0.0000
# 3 52.8467 36.9299 112.5831 0.0000 26.8982 0.0000
# 4 0.0000 0.0000 0.0000 38.0299 0.0000 -3.7674
# 5 32.0344 3.2541 26.8982 0.0000 55.6689 0.0000
# 6 0.0000 0.0000 0.0000 -3.7674 0.0000 29.8279
#
#
#
# Elastic Compliance Matrix: (Units=1/GPa)
#
#
# Indices 1 2 3 4 5 6 
#
# 1 0.009646 0.000469 -0.003786 0.000000 -0.003749 0.000000
# 2 0.000469 0.014677 -0.005387 0.000000 0.001475 0.000000
# 3 -0.003786 -0.005387 0.013375 0.000000 -0.003969 0.000000
# 4 0.000000 0.000000 0.000000 0.026628 0.000000 0.003363
# 5 -0.003749 0.001475 -0.003969 0.000000 0.021952 0.000000
# 6 0.000000 0.000000 0.000000 0.003363 0.000000 0.033950
#
#
# Mechanical properties :
#
#
# Convention : Reuss Voigt Hill
#
# Bulk Modulus (GPa) = 49.28628 59.22825 54.25727
# Shear Modulus (GPa) = 34.62636 39.92269 37.27452
#
# Velocity S-wave (km/s) = 3.79617 4.07617 3.93866
# Velocity P-wave (km/s) = 6.30291 6.84130 6.57762
#
# Compressibility (1/GPa) = 0.02028962
#
# Stress axis : x y z
#
# Youngs Moduli (GPa) = 103.67285 68.13508 74.76785
#
# Poissons Ratio (x) = -0.03196 0.28307
# Poissons Ratio (y) = -0.04863 0.40277
# Poissons Ratio (z) = 0.39250 0.36704
#
# Static dielectric constant tensor:
#      x y z
#    x 1.946840 0.000000 -0.033300 
#    y 0.000000 2.025940 0.000000 
#    z -0.033300 0.000000 1.962380 
# 
# From -- ./inp_files/10120.got.cif
#   From: 2010.05.17/outbox.cif.g08.bks.cpg/sg4_6_cif.got.tgz:10120.got - 2010.06.03 18:43:04.
