data_PCOD9117741
_publ_section_title
;
Structure prediction by ZEFSAII (Michael W. Deem and Ramdas Pophale) SiO2 
 PCOD9117741
Probable space group: P 21
;
_chemical_formula_sum "Si O2"
_cell_formula_units_Z 16
_cell_length_a 9.434196
_cell_length_b 5.575643
_cell_length_c 18.703279
_cell_angle_alpha 90.000000
_cell_angle_beta 43.179952
_cell_angle_gamma 90.000000
_cell_volume 673.223187
_symmetry_space_group_name_H-M "P 21"
_symmetry_group_IT_number 4
_symmetry_cell_setting 'monoclinic'
loop_
_space_group_symop_operation_xyz
x,y,z
-x,1/2+y,-z
loop_
_atom_site_type_symbol
_atom_site_label
_atom_site_fract_x
_atom_site_fract_y
_atom_site_fract_z
Si Si1 0.352533 0.590330 0.253233
Si Si2 0.847620 0.038206 0.893588
Si Si3 0.723558 0.649186 0.315258
Si Si4 0.313043 0.374871 0.417888
Si Si5 0.427958 0.493322 0.733486
Si Si6 0.254128 0.051816 0.143143
Si Si7 0.955491 0.852677 0.353699
Si Si8 0.631807 0.203773 0.099962
O O1 0.278486 0.425443 0.346896
O O2 0.524225 0.466004 0.140197
O O3 0.146440 0.668742 0.289201
O O4 0.459858 0.803712 0.256801
O O5 0.765702 0.292566 0.888943
O O6 0.081799 0.995919 0.781747
O O7 0.737993 0.789828 0.909267
O O8 0.828050 0.110229 0.984043
O O9 0.504616 0.528974 0.379027
O O10 0.766525 0.735267 0.379578
O O11 0.737415 0.875901 0.256962
O O12 0.401572 0.106749 0.381708
O O13 0.119373 0.415053 0.539846
O O14 0.336381 0.668459 0.826939
O O15 0.450828 0.058877 0.123869
O O16 0.054684 0.062343 0.269551
#
# Coordination Sequence:
#
# PCOD9117741 Si02
#       8
#     2   2   2   2   2   2   2   2
#     4  10  23  45  66 109 139 184 254 307 359 449
#     4  11  26  43  73 106 144 192 240 302 368 438
#     4  10  25  46  61 103 144 183 249 293 351 457
#     4  10  25  43  70 101 146 196 244 304 374 434
#     4  10  23  46  66  97 147 180 249 302 354 446
#     4  11  24  43  68 113 146 175 251 307 357 446
#     4  11  24  43  75 102 144 200 238 311 374 434
#     4  11  22  43  73  97 144 192 231 308 381 418
#
# _framework density 23.766265000000001
#
# number of rings (size 3 to 8) (size 9 to 14) (size 15 to 20)
#    0.000    1.500    1.250    2.250    8.750    0.000 
#   15.750    0.000    0.000    0.000    0.000    0.000 
#    0.000    0.000    0.000    0.000    0.000    0.000 
#
# Total GULP energy -89253.430522 kJ/mol
# GULP energy per Si atom -5578.339408 kJ/mol
# Density = 2.371217 g / cm^3
# Si number density = 23.766265 Si / 1000 Ang^3
#
#
#
# Elastic Constant Matrix: (Units=GPa)
#
#
# Indices 1 2 3 4 5 6 
#
# 1 57.2214 14.6541 -22.3596 0.0000 15.2966 0.0000
# 2 14.6541 82.5836 17.2248 0.0000 8.0208 0.0000
# 3 -22.3596 17.2248 104.9519 0.0000 17.1039 0.0000
# 4 0.0000 0.0000 0.0000 28.5880 0.0000 -0.7582
# 5 15.2966 8.0208 17.1039 0.0000 28.4462 0.0000
# 6 0.0000 0.0000 0.0000 -0.7582 0.0000 33.9078
#
#
#
# Elastic Compliance Matrix: (Units=1/GPa)
#
#
# Indices 1 2 3 4 5 6 
#
# 1 0.027922 -0.005136 0.009981 0.000000 -0.019568 0.000000
# 2 -0.005136 0.013652 -0.003500 0.000000 0.001017 0.000000
# 3 0.009981 -0.003500 0.014349 0.000000 -0.013007 0.000000
# 4 0.000000 0.000000 0.000000 0.035000 0.000000 0.000783
# 5 -0.019568 0.001017 -0.013007 0.000000 0.053211 0.000000
# 6 0.000000 0.000000 0.000000 0.000783 0.000000 0.029509
#
#
# Mechanical properties :
#
#
# Convention : Reuss Voigt Hill
#
# Bulk Modulus (GPa) = 17.06168 29.31060 23.18614
# Shear Modulus (GPa) = 26.24792 33.87091 30.05941
#
# Velocity S-wave (km/s) = 3.32689 3.77923 3.56025
# Velocity P-wave (km/s) = 4.68531 5.60385 5.16504
#
# Compressibility (1/GPa) = 0.05861087
#
# Stress axis : x y z
#
# Youngs Moduli (GPa) = 35.81394 73.25160 69.69230
#
# Poissons Ratio (x) = 0.37621 -0.69556
# Poissons Ratio (y) = 0.18393 0.24395
# Poissons Ratio (z) = -0.35744 0.25641
#
# Static dielectric constant tensor:
#      x y z
#    x 1.887230 0.000000 0.002010 
#    y 0.000000 2.050430 0.000000 
#    z 0.002010 0.000000 1.962230 
# 
# From -- ./inp_files/14828.got.cif
#   From: 2010.05.17/outbox.cif.g08.bks.cpg/sg4_8_cif.got.tgz:14828.got - 2010.06.03 18:43:04.
