data_PCOD9117671
_publ_section_title
;
Structure prediction by ZEFSAII (Michael W. Deem and Ramdas Pophale) SiO2 
 PCOD9117671
Probable space group: P 21
;
_chemical_formula_sum "Si O2"
_cell_formula_units_Z 14
_cell_length_a 5.310776
_cell_length_b 10.068476
_cell_length_c 9.470941
_cell_angle_alpha 90.000000
_cell_angle_beta 77.608200
_cell_angle_gamma 90.000000
_cell_volume 494.626495
_symmetry_space_group_name_H-M "P 21"
_symmetry_group_IT_number 4
_symmetry_cell_setting 'monoclinic'
loop_
_space_group_symop_operation_xyz
x,y,z
-x,1/2+y,-z
loop_
_atom_site_type_symbol
_atom_site_label
_atom_site_fract_x
_atom_site_fract_y
_atom_site_fract_z
Si Si1 0.409697 0.137710 0.831881
Si Si2 0.872131 0.994473 0.613607
Si Si3 0.030031 0.947021 0.050670
Si Si4 0.282927 0.694792 0.949611
Si Si5 0.423202 0.338828 0.593604
Si Si6 0.209007 0.050844 0.320591
Si Si7 0.829512 0.273001 0.320345
O O1 0.245616 0.027863 0.935247
O O2 0.528244 0.223197 0.946043
O O3 0.308770 0.236291 0.721030
O O4 0.649313 0.065878 0.724679
O O5 0.751975 0.891003 0.513570
O O6 0.062215 0.920725 0.697650
O O7 0.065214 0.070907 0.487953
O O8 0.785088 0.039339 0.046077
O O9 0.097206 0.955798 0.209258
O O10 0.044134 0.794389 0.003671
O O11 0.363492 0.731727 0.781472
O O12 0.537320 0.469907 0.658922
O O13 0.664268 0.268474 0.483964
O O14 0.086430 0.185439 0.269180
#
# Coordination Sequence:
#
# PCOD9117671 Si02
#       7
#     2   2   2   2   2   2   2
#     4  12  26  45  73 108 139 187 243 295 358 429
#     4  11  25  43  73 102 143 183 240 289 359 426
#     4  11  26  43  72 105 145 191 238 298 359 426
#     4  11  25  48  72 105 152 186 240 297 367 425
#     4  11  24  43  71 102 142 183 243 290 350 422
#     4  10  23  44  65 100 137 185 230 288 356 416
#     4  10  23  44  70 102 138 187 228 295 353 426
#
# _framework density 28.304186000000001
#
# number of rings (size 3 to 8) (size 9 to 14) (size 15 to 20)
#    0.000    1.143    2.857    1.714    4.000    9.143 
#    0.000    0.000    0.000    0.000    0.000    0.000 
#    0.000    0.000    0.000    0.000    0.000    0.000 
#
# Total GULP energy -78292.340755 kJ/mol
# GULP energy per Si atom -5592.310054 kJ/mol
# Density = 2.823976 g / cm^3
# Si number density = 28.304186 Si / 1000 Ang^3
#
#
#
# Elastic Constant Matrix: (Units=GPa)
#
#
# Indices 1 2 3 4 5 6 
#
# 1 57.8282 1.9543 52.3887 0.0000 10.6532 0.0000
# 2 1.9543 76.1189 51.4336 0.0000 6.3768 0.0000
# 3 52.3887 51.4336 185.1449 0.0000 5.7270 0.0000
# 4 0.0000 0.0000 0.0000 59.7505 0.0000 7.9477
# 5 10.6532 6.3768 5.7270 0.0000 62.4668 0.0000
# 6 0.0000 0.0000 0.0000 7.9477 0.0000 24.0340
#
#
#
# Elastic Compliance Matrix: (Units=1/GPa)
#
#
# Indices 1 2 3 4 5 6 
#
# 1 0.025760 0.005572 -0.008708 0.000000 -0.004164 0.000000
# 2 0.005572 0.017475 -0.006365 0.000000 -0.002151 0.000000
# 3 -0.008708 -0.006365 0.009595 0.000000 0.001255 0.000000
# 4 0.000000 0.000000 0.000000 0.017506 0.000000 -0.005789
# 5 -0.004164 -0.002151 0.001255 0.000000 0.016823 0.000000
# 6 0.000000 0.000000 0.000000 -0.005789 0.000000 0.043522
#
#
# Mechanical properties :
#
#
# Convention : Reuss Voigt Hill
#
# Bulk Modulus (GPa) = 29.56175 58.96058 44.26117
# Shear Modulus (GPa) = 31.06368 43.47129 37.26749
#
# Velocity S-wave (km/s) = 3.31644 3.92326 3.63254
# Velocity P-wave (km/s) = 5.01318 6.43420 5.76762
#
# Compressibility (1/GPa) = 0.03382749
#
# Stress axis : x y z
#
# Youngs Moduli (GPa) = 38.81926 57.22452 104.22623
#
# Poissons Ratio (x) = -0.31883 0.90762
# Poissons Ratio (y) = -0.21628 0.66336
# Poissons Ratio (z) = 0.33804 0.36421
#
# Static dielectric constant tensor:
#      x y z
#    x 2.263800 0.000000 -0.039800 
#    y 0.000000 2.263190 0.000000 
#    z -0.039800 0.000000 2.214690 
# 
# From -- ./inp_files/1122.got.cif
#   From: 2010.05.17/outbox.cif.g08.bks.cpg/sg4_1_cif.got.tgz:1122.got - 2010.06.03 18:43:04.
