data_PCOD9117006
_publ_section_title
;
Structure prediction by ZEFSAII (Michael W. Deem and Ramdas Pophale) SiO2 
 PCOD9117006
Probable space group: P 21
;
_chemical_formula_sum "Si O2"
_cell_formula_units_Z 14
_cell_length_a 8.967971
_cell_length_b 7.423501
_cell_length_c 11.989896
_cell_angle_alpha 90.000000
_cell_angle_beta 132.221592
_cell_angle_gamma 90.000000
_cell_volume 591.117195
_symmetry_space_group_name_H-M "P 21"
_symmetry_group_IT_number 4
_symmetry_cell_setting 'monoclinic'
loop_
_space_group_symop_operation_xyz
x,y,z
-x,1/2+y,-z
loop_
_atom_site_type_symbol
_atom_site_label
_atom_site_fract_x
_atom_site_fract_y
_atom_site_fract_z
Si Si1 0.664785 0.695360 0.926926
Si Si2 0.380086 0.547752 0.605200
Si Si3 0.042838 0.394811 0.317344
Si Si4 0.472641 0.142436 0.722574
Si Si5 0.292630 0.031021 0.411502
Si Si6 0.889745 0.199419 0.829112
Si Si7 0.608327 0.451763 0.098752
O O1 0.499698 0.678951 0.747432
O O2 0.594413 0.846454 0.978098
O O3 0.634161 0.518107 0.986581
O O4 0.892671 0.732677 0.004494
O O5 0.143278 0.524625 0.463012
O O6 0.424605 0.346428 0.668125
O O7 0.497112 0.569218 0.546654
O O8 0.160879 0.212494 0.348045
O O9 0.060777 0.529096 0.222863
O O10 0.813362 0.344516 0.227066
O O11 0.359429 0.014283 0.574677
O O12 0.712898 0.139466 0.823281
O O13 0.401868 0.102922 0.811048
O O14 0.185431 0.868114 0.287925
#
# Coordination Sequence:
#
# PCOD9117006 Si02
#       7
#     2   2   2   2   2   2   2
#     4  11  26  44  64  99 142 186 224 287 355 429
#     4  10  22  42  70 100 133 174 235 288 338 410
#     4  10  23  43  70  98 135 178 231 283 346 412
#     4  10  22  42  70 100 133 174 235 288 338 410
#     4  10  22  42  72 106 128 180 234 298 330 404
#     4  10  23  43  70  98 135 178 231 283 346 412
#     4  11  26  44  64  99 142 186 224 287 355 429
#
# _framework density 23.683968
#
# number of rings (size 3 to 8) (size 9 to 14) (size 15 to 20)
#    0.000    1.714    1.429    0.857    6.000    4.571 
#   10.286    0.000    0.000    0.000    0.000    0.000 
#    0.000    0.000    0.000    0.000    0.000    0.000 
#
# Total GULP energy -78088.407114 kJ/mol
# GULP energy per Si atom -5577.743365 kJ/mol
# Density = 2.363006 g / cm^3
# Si number density = 23.683968 Si / 1000 Ang^3
#
#
#
# Elastic Constant Matrix: (Units=GPa)
#
#
# Indices 1 2 3 4 5 6 
#
# 1 30.5344 1.0016 6.3122 0.0000 4.6364 0.0000
# 2 1.0016 68.3448 27.6780 0.0000 1.0619 0.0000
# 3 6.3122 27.6780 48.7029 0.0000 -10.1635 0.0000
# 4 0.0000 0.0000 0.0000 22.1630 0.0000 -0.7580
# 5 4.6364 1.0619 -10.1635 0.0000 38.7026 0.0000
# 6 0.0000 0.0000 0.0000 -0.7580 0.0000 36.7834
#
#
#
# Elastic Compliance Matrix: (Units=1/GPa)
#
#
# Indices 1 2 3 4 5 6 
#
# 1 0.035111 0.002530 -0.007279 0.000000 -0.006187 0.000000
# 2 0.002530 0.019661 -0.012354 0.000000 -0.004087 0.000000
# 3 -0.007279 -0.012354 0.030417 0.000000 0.009199 0.000000
# 4 0.000000 0.000000 0.000000 0.045152 0.000000 0.000931
# 5 -0.006187 -0.004087 0.009199 0.000000 0.029107 0.000000
# 6 0.000000 0.000000 0.000000 0.000931 0.000000 0.027205
#
#
# Mechanical properties :
#
#
# Convention : Reuss Voigt Hill
#
# Bulk Modulus (GPa) = 19.61511 24.17397 21.89454
# Shear Modulus (GPa) = 21.02115 27.03583 24.02849
#
# Velocity S-wave (km/s) = 2.98244 3.38231 3.18865
# Velocity P-wave (km/s) = 4.48998 5.04801 4.77715
#
# Compressibility (1/GPa) = 0.05098110
#
# Stress axis : x y z
#
# Youngs Moduli (GPa) = 28.48084 50.86132 32.87668
#
# Poissons Ratio (x) = -0.12866 0.23932
# Poissons Ratio (y) = -0.07204 0.40617
# Poissons Ratio (z) = 0.20732 0.62835
#
# Static dielectric constant tensor:
#      x y z
#    x 1.856340 0.000000 0.013830 
#    y 0.000000 1.956920 0.000000 
#    z 0.013830 0.000000 2.053370 
# 
# From -- ./inp_files/5631.got.cif
#   From: 2010.05.17/outbox.cif.g08.bks.cpg/sg4_3_cif.got.tgz:5631.got - 2010.06.03 18:43:04.
