data_PCOD9117898
_publ_section_title
;
Structure prediction by ZEFSAII (Michael W. Deem and Ramdas Pophale) SiO2 
 PCOD9117898
Probable space group: P 21
;
_chemical_formula_sum "Si O2"
_cell_formula_units_Z 14
_cell_length_a 6.390451
_cell_length_b 5.343806
_cell_length_c 24.689014
_cell_angle_alpha 90.000000
_cell_angle_beta 40.446619
_cell_angle_gamma 90.000000
_cell_volume 546.960743
_symmetry_space_group_name_H-M "P 21"
_symmetry_group_IT_number 4
_symmetry_cell_setting 'monoclinic'
loop_
_space_group_symop_operation_xyz
x,y,z
-x,1/2+y,-z
loop_
_atom_site_type_symbol
_atom_site_label
_atom_site_fract_x
_atom_site_fract_y
_atom_site_fract_z
Si Si1 0.702053 0.882180 0.468923
Si Si2 0.182381 0.280895 0.115958
Si Si3 0.105226 0.554450 0.236510
Si Si4 0.143862 0.489770 0.002154
Si Si5 0.719006 0.094684 0.687341
Si Si6 0.389891 0.318309 0.394151
Si Si7 0.755510 0.949533 0.267188
O O1 0.453886 0.648157 0.513906
O O2 0.783081 0.883765 0.516836
O O3 0.000349 0.802340 0.373025
O O4 0.249542 0.477711 0.150880
O O5 0.102802 0.388225 0.072453
O O6 0.863376 0.152706 0.203364
O O7 0.483572 0.089084 0.063186
O O8 0.301233 0.478332 0.250038
O O9 0.746972 0.447638 0.322371
O O10 0.058972 0.851782 0.240802
O O11 0.045636 0.244674 0.983266
O O12 0.385719 0.226659 0.739840
O O13 0.791007 0.910546 0.623599
O O14 0.488048 0.034688 0.362579
#
# Coordination Sequence:
#
# PCOD9117898 Si02
#       7
#     2   2   2   2   2   2   2
#     4  12  27  45  77 102 154 204 259 338 399 460
#     4  11  28  54  80 118 170 201 274 338 395 498
#     4  10  23  49  72 106 153 202 252 329 390 474
#     4  12  30  53  88 128 167 219 269 331 424 497
#     4  11  25  44  75 110 147 203 278 310 411 471
#     4  10  24  44  66 107 143 198 260 322 392 465
#     4  10  25  45  76 105 156 201 258 326 395 471
#
# _framework density 25.595987000000001
#
# number of rings (size 3 to 8) (size 9 to 14) (size 15 to 20)
#    0.000    1.143    1.429    1.714   12.000    6.857 
#    0.000    0.000    0.000    0.000    0.000    0.000 
#    0.000    0.000    0.000    0.000    0.000    0.000 
#
# Total GULP energy -78153.563835 kJ/mol
# GULP energy per Si atom -5582.397417 kJ/mol
# Density = 2.553773 g / cm^3
# Si number density = 25.595987 Si / 1000 Ang^3
#
#
#
# Elastic Constant Matrix: (Units=GPa)
#
#
# Indices 1 2 3 4 5 6 
#
# 1 120.8975 45.1140 47.2280 0.0000 40.7068 0.0000
# 2 45.1140 101.4552 22.9946 0.0000 14.5839 0.0000
# 3 47.2280 22.9946 115.4377 0.0000 33.2637 0.0000
# 4 0.0000 0.0000 0.0000 39.1627 0.0000 -4.1640
# 5 40.7068 14.5839 33.2637 0.0000 59.3360 0.0000
# 6 0.0000 0.0000 0.0000 -4.1640 0.0000 46.0955
#
#
#
# Elastic Compliance Matrix: (Units=1/GPa)
#
#
# Indices 1 2 3 4 5 6 
#
# 1 0.013068 -0.004288 -0.002639 0.000000 -0.006432 0.000000
# 2 -0.004288 0.011867 -0.000736 0.000000 0.000438 0.000000
# 3 -0.002639 -0.000736 0.011110 0.000000 -0.004237 0.000000
# 4 0.000000 0.000000 0.000000 0.025782 0.000000 0.002329
# 5 -0.006432 0.000438 -0.004237 0.000000 0.023533 0.000000
# 6 0.000000 0.000000 0.000000 0.002329 0.000000 0.021904
#
#
# Mechanical properties :
#
#
# Convention : Reuss Voigt Hill
#
# Bulk Modulus (GPa) = 48.26329 63.16261 55.71295
# Shear Modulus (GPa) = 38.61083 43.74911 41.17997
#
# Velocity S-wave (km/s) = 3.88812 4.13875 4.01539
# Velocity P-wave (km/s) = 6.24927 6.89706 6.58114
#
# Compressibility (1/GPa) = 0.02071968
#
# Stress axis : x y z
#
# Youngs Moduli (GPa) = 76.52133 84.26527 90.01153
#
# Poissons Ratio (x) = 0.36136 0.23753
# Poissons Ratio (y) = 0.32815 0.06620
# Poissons Ratio (z) = 0.20193 0.06198
#
# Static dielectric constant tensor:
#      x y z
#    x 2.107960 0.000000 -0.020920 
#    y 0.000000 2.202350 0.000000 
#    z -0.020920 0.000000 1.968060 
# 
# From -- ./inp_files/3888.got.cif
#   From: 2010.05.17/outbox.cif.g08.bks.cpg/sg4_2_cif.got.tgz:3888.got - 2010.06.03 18:43:04.
