data_PCOD9117263
_publ_section_title
;
Structure prediction by ZEFSAII (Michael W. Deem and Ramdas Pophale) SiO2 
 PCOD9117263
Probable space group: P 21
;
_chemical_formula_sum "Si O2"
_cell_formula_units_Z 16
_cell_length_a 12.301453
_cell_length_b 11.673892
_cell_length_c 9.159919
_cell_angle_alpha 90.000000
_cell_angle_beta 37.888549
_cell_angle_gamma 90.000000
_cell_volume 807.834226
_symmetry_space_group_name_H-M "P 21"
_symmetry_group_IT_number 4
_symmetry_cell_setting 'monoclinic'
loop_
_space_group_symop_operation_xyz
x,y,z
-x,1/2+y,-z
loop_
_atom_site_type_symbol
_atom_site_label
_atom_site_fract_x
_atom_site_fract_y
_atom_site_fract_z
Si Si1 0.072959 0.520720 0.910616
Si Si2 0.641018 0.399395 0.101183
Si Si3 0.942696 0.293346 0.593632
Si Si4 0.898867 0.851645 0.864814
Si Si5 0.718809 0.632952 0.179487
Si Si6 0.621953 0.174050 0.263867
Si Si7 0.750557 0.931168 0.573539
Si Si8 0.252406 0.569163 0.143770
O O1 0.223326 0.600450 0.824318
O O2 0.147431 0.478380 0.676142
O O3 0.038744 0.412171 0.052522
O O4 0.894921 0.592067 0.076460
O O5 0.667618 0.527854 0.128392
O O6 0.676240 0.306778 0.191754
O O7 0.437686 0.380912 0.272856
O O8 0.779112 0.368214 0.827814
O O9 0.903732 0.162921 0.680002
O O10 0.959155 0.304669 0.401761
O O11 0.118109 0.342363 0.485549
O O12 0.804460 0.953966 0.877385
O O13 0.768825 0.748088 0.040995
O O14 0.557152 0.657212 0.458517
O O15 0.606596 0.128180 0.113056
O O16 0.705065 0.031887 0.737395
#
# Coordination Sequence:
#
# PCOD9117263 Si02
#       8
#     2   2   2   2   2   2   2   2
#     4  11  23  41  68  98 133 176 221 275 329 404
#     4  11  24  41  67  99 129 178 220 278 339 395
#     4  10  22  45  68  93 137 172 224 278 336 399
#     4  10  24  40  66  99 130 172 226 272 334 400
#     4  12  24  41  68  96 132 180 220 272 344 392
#     4  10  24  43  63  95 138 164 227 283 327 403
#     4  11  21  43  70  97 138 172 221 272 336 403
#     4   9  22  44  64  97 133 174 217 286 325 394
#
# _framework density 19.806042999999999
#
# number of rings (size 3 to 8) (size 9 to 14) (size 15 to 20)
#    0.000    1.500    2.500    1.500    5.250    5.000 
#    9.000    0.000    0.000    0.000    0.000    0.000 
#    0.000    0.000    0.000    0.000    0.000    0.000 
#
# Total GULP energy -89316.848068 kJ/mol
# GULP energy per Si atom -5582.303004 kJ/mol
# Density = 1.976096 g / cm^3
# Si number density = 19.806043 Si / 1000 Ang^3
#
#
#
# Elastic Constant Matrix: (Units=GPa)
#
#
# Indices 1 2 3 4 5 6 
#
# 1 54.1832 19.0063 32.9052 0.0000 9.2695 0.0000
# 2 19.0063 128.0335 46.3617 0.0000 12.9096 0.0000
# 3 32.9052 46.3617 146.2383 0.0000 9.1696 0.0000
# 4 0.0000 0.0000 0.0000 27.1681 0.0000 10.9781
# 5 9.2695 12.9096 9.1696 0.0000 35.2825 0.0000
# 6 0.0000 0.0000 0.0000 10.9781 0.0000 69.7862
#
#
#
# Elastic Compliance Matrix: (Units=1/GPa)
#
#
# Indices 1 2 3 4 5 6 
#
# 1 0.022271 -0.001310 -0.004330 0.000000 -0.004247 0.000000
# 2 -0.001310 0.009131 -0.002452 0.000000 -0.002359 0.000000
# 3 -0.004330 -0.002452 0.008602 0.000000 -0.000201 0.000000
# 4 0.000000 0.000000 0.000000 0.039306 0.000000 -0.006183
# 5 -0.004247 -0.002359 -0.000201 0.000000 0.030374 0.000000
# 6 0.000000 0.000000 0.000000 -0.006183 0.000000 0.015302
#
#
# Mechanical properties :
#
#
# Convention : Reuss Voigt Hill
#
# Bulk Modulus (GPa) = 41.98010 58.33350 50.15680
# Shear Modulus (GPa) = 33.53215 41.79282 37.66248
#
# Velocity S-wave (km/s) = 4.11910 4.59857 4.36542
# Velocity P-wave (km/s) = 6.62301 7.59685 7.12658
#
# Compressibility (1/GPa) = 0.02382081
#
# Stress axis : x y z
#
# Youngs Moduli (GPa) = 44.90077 109.52047 116.24777
#
# Poissons Ratio (x) = 0.14349 0.50331
# Poissons Ratio (y) = 0.05883 0.28503
# Poissons Ratio (z) = 0.19441 0.26854
#
# Static dielectric constant tensor:
#      x y z
#    x 1.693390 0.000000 0.025230 
#    y 0.000000 1.711730 0.000000 
#    z 0.025230 0.000000 1.680720 
# 
# From -- ./inp_files/6141.got.cif
#   From: 2010.05.17/outbox.cif.g08.bks.cpg/sg4_4_cif.got.tgz:6141.got - 2010.06.03 18:43:04.
