data_PCOD9117729
_publ_section_title
;
Structure prediction by ZEFSAII (Michael W. Deem and Ramdas Pophale) SiO2 
 PCOD9117729
Probable space group: P 21
;
_chemical_formula_sum "Si O2"
_cell_formula_units_Z 16
_cell_length_a 9.253893
_cell_length_b 13.931029
_cell_length_c 5.117280
_cell_angle_alpha 90.000000
_cell_angle_beta 106.349092
_cell_angle_gamma 90.000000
_cell_volume 633.025208
_symmetry_space_group_name_H-M "P 21"
_symmetry_group_IT_number 4
_symmetry_cell_setting 'monoclinic'
loop_
_space_group_symop_operation_xyz
x,y,z
-x,1/2+y,-z
loop_
_atom_site_type_symbol
_atom_site_label
_atom_site_fract_x
_atom_site_fract_y
_atom_site_fract_z
Si Si1 0.495313 0.047090 0.711051
Si Si2 0.241209 0.532036 0.489811
Si Si3 0.148653 0.052237 0.436518
Si Si4 0.994909 0.248440 0.244228
Si Si5 0.988650 0.459934 0.097175
Si Si6 0.313495 0.692909 0.835264
Si Si7 0.762208 0.825150 0.320036
Si Si8 0.561406 0.823829 0.740569
O O1 0.583769 0.047396 0.481177
O O2 0.322036 0.072617 0.588547
O O3 0.515829 0.933989 0.788282
O O4 0.583386 0.123271 0.937078
O O5 0.198572 0.629219 0.604259
O O6 0.215041 0.439986 0.655524
O O7 0.149399 0.515201 0.178514
O O8 0.074216 0.145312 0.253161
O O9 0.080251 0.006032 0.669106
O O10 0.123441 0.974544 0.196910
O O11 0.039977 0.349530 0.133182
O O12 0.817157 0.250809 0.086645
O O13 0.077006 0.274233 0.564202
O O14 0.414429 0.759783 0.705396
O O15 0.644406 0.812219 0.504646
O O16 0.677752 0.791710 0.021351
#
# Coordination Sequence:
#
# PCOD9117729 Si02
#       8
#     2   2   2   2   2   2   2   2
#     4  11  26  46  72 105 150 188 242 302 365 435
#     4  10  23  44  73  96 144 184 236 290 366 416
#     4  12  27  48  74 108 148 195 247 305 371 437
#     4  11  26  46  76 109 147 197 248 302 372 444
#     4  11  27  50  74 106 149 193 248 310 364 437
#     4  12  24  45  71 108 141 189 242 297 363 436
#     4  10  24  48  69 101 142 190 235 294 358 430
#     4  11  25  45  73 103 141 190 238 296 361 425
#
# _framework density 25.275458
#
# number of rings (size 3 to 8) (size 9 to 14) (size 15 to 20)
#    0.000    1.000    2.500    2.250    5.250    7.000 
#    6.750    0.000    0.000    0.000    0.000    0.000 
#    0.000    0.000    0.000    0.000    0.000    0.000 
#
# Total GULP energy -89315.656685 kJ/mol
# GULP energy per Si atom -5582.228543 kJ/mol
# Density = 2.521793 g / cm^3
# Si number density = 25.275458 Si / 1000 Ang^3
#
#
#
# Elastic Constant Matrix: (Units=GPa)
#
#
# Indices 1 2 3 4 5 6 
#
# 1 132.4136 29.5061 36.7766 0.0000 28.3864 0.0000
# 2 29.5061 85.2855 17.1470 0.0000 7.6610 0.0000
# 3 36.7766 17.1470 106.1228 0.0000 7.1357 0.0000
# 4 0.0000 0.0000 0.0000 33.6927 0.0000 13.8632
# 5 28.3864 7.6610 7.1357 0.0000 34.8510 0.0000
# 6 0.0000 0.0000 0.0000 13.8632 0.0000 35.8683
#
#
#
# Elastic Compliance Matrix: (Units=1/GPa)
#
#
# Indices 1 2 3 4 5 6 
#
# 1 0.010433 -0.002395 -0.002730 0.000000 -0.007412 0.000000
# 2 -0.002395 0.012852 -0.001205 0.000000 -0.000628 0.000000
# 3 -0.002730 -0.001205 0.010542 0.000000 0.000330 0.000000
# 4 0.000000 0.000000 0.000000 0.035293 0.000000 -0.013641
# 5 -0.007412 -0.000628 0.000330 0.000000 0.034801 0.000000
# 6 0.000000 0.000000 0.000000 -0.013641 0.000000 0.033152
#
#
# Mechanical properties :
#
#
# Convention : Reuss Voigt Hill
#
# Bulk Modulus (GPa) = 47.24082 54.52013 50.88048
# Shear Modulus (GPa) = 31.89014 36.90853 34.39933
#
# Velocity S-wave (km/s) = 3.55590 3.82547 3.69315
# Velocity P-wave (km/s) = 5.96575 6.41323 6.19353
#
# Compressibility (1/GPa) = 0.02116813
#
# Stress axis : x y z
#
# Youngs Moduli (GPa) = 95.84920 77.80630 94.86207
#
# Poissons Ratio (x) = 0.18633 0.25899
# Poissons Ratio (y) = 0.22953 0.11426
# Poissons Ratio (z) = 0.26169 0.09372
#
# Static dielectric constant tensor:
#      x y z
#    x 2.131610 0.000000 -0.036800 
#    y 0.000000 2.174690 0.000000 
#    z -0.036800 0.000000 2.035060 
# 
# From -- ./inp_files/1945.got.cif
#   From: 2010.05.17/outbox.cif.g08.bks.cpg/sg4_1_cif.got.tgz:1945.got - 2010.06.03 18:43:04.
