data_PCOD9117379
_publ_section_title
;
Structure prediction by ZEFSAII (Michael W. Deem and Ramdas Pophale) SiO2 
 PCOD9117379
Probable space group: P 21
;
_chemical_formula_sum "Si O2"
_cell_formula_units_Z 14
_cell_length_a 5.148297
_cell_length_b 5.073370
_cell_length_c 21.288429
_cell_angle_alpha 90.000000
_cell_angle_beta 113.756166
_cell_angle_gamma 90.000000
_cell_volume 508.923006
_symmetry_space_group_name_H-M "P 21"
_symmetry_group_IT_number 4
_symmetry_cell_setting 'monoclinic'
loop_
_space_group_symop_operation_xyz
x,y,z
-x,1/2+y,-z
loop_
_atom_site_type_symbol
_atom_site_label
_atom_site_fract_x
_atom_site_fract_y
_atom_site_fract_z
Si Si1 0.613032 0.985260 0.870148
Si Si2 0.840562 0.966241 0.646735
Si Si3 0.691411 0.914037 0.012033
Si Si4 0.725804 0.796382 0.375958
Si Si5 0.222484 0.306454 0.757089
Si Si6 0.953683 0.151426 0.156631
Si Si7 0.512651 0.114792 0.458436
O O1 0.788989 0.841160 0.833921
O O2 0.334215 0.819724 0.862508
O O3 0.487174 0.250055 0.828120
O O4 0.792691 0.991334 0.951921
O O5 0.553419 0.120182 0.637555
O O6 0.445664 0.889463 0.502080
O O7 0.067057 0.031526 0.723089
O O8 0.745663 0.680040 0.615159
O O9 0.901748 0.970586 0.089859
O O10 0.431640 0.120784 0.996682
O O11 0.748721 0.003219 0.434340
O O12 0.695481 0.918192 0.303011
O O13 0.994887 0.604034 0.395371
O O14 0.013054 0.478604 0.778116
#
# Coordination Sequence:
#
# PCOD9117379 Si02
#       7
#     2   2   2   2   2   2   2
#     4  11  26  44  76 115 159 222 278 346 418 489
#     4  10  26  51  81 120 163 219 269 343 408 504
#     4  10  22  48  74 114 162 216 284 350 416 492
#     4  10  26  51  81 120 163 219 269 343 408 504
#     4  10  26  52  80 116 170 208 286 336 424 488
#     4  11  26  44  76 115 159 222 278 346 418 489
#     4  12  26  58  88 130 168 218 276 344 416 502
#
# _framework density 27.509070999999999
#
# number of rings (size 3 to 8) (size 9 to 14) (size 15 to 20)
#    0.857    0.571    2.857    0.000    4.000    8.000 
#    5.143    0.000    0.000    0.000    0.000    0.000 
#    0.000    0.000    0.000    0.000    0.000    0.000 
#
# Total GULP energy -78487.523639 kJ/mol
# GULP energy per Si atom -5606.251688 kJ/mol
# Density = 2.744646 g / cm^3
# Si number density = 27.509071 Si / 1000 Ang^3
#
#
#
# Elastic Constant Matrix: (Units=GPa)
#
#
# Indices 1 2 3 4 5 6 
#
# 1 161.2599 40.3525 33.4864 0.0000 -18.9047 0.0000
# 2 40.3525 88.4011 40.2798 0.0000 -14.2668 0.0000
# 3 33.4864 40.2798 140.8981 0.0000 -36.8171 0.0000
# 4 0.0000 0.0000 0.0000 54.4947 0.0000 2.2874
# 5 -18.9047 -14.2668 -36.8171 0.0000 57.8357 0.0000
# 6 0.0000 0.0000 0.0000 2.2874 0.0000 42.1806
#
#
#
# Elastic Compliance Matrix: (Units=1/GPa)
#
#
# Indices 1 2 3 4 5 6 
#
# 1 0.007173 -0.002808 -0.000564 0.000000 0.001293 0.000000
# 2 -0.002808 0.014155 -0.003247 0.000000 0.000507 0.000000
# 3 -0.000564 -0.003247 0.009479 0.000000 0.005049 0.000000
# 4 0.000000 0.000000 0.000000 0.018392 0.000000 -0.000997
# 5 0.001293 0.000507 0.005049 0.000000 0.021052 0.000000
# 6 0.000000 0.000000 0.000000 -0.000997 0.000000 0.023762
#
#
# Mechanical properties :
#
#
# Convention : Reuss Voigt Hill
#
# Bulk Modulus (GPa) = 56.92096 68.75518 62.83807
# Shear Modulus (GPa) = 44.20592 49.33156 46.76874
#
# Velocity S-wave (km/s) = 4.01304 4.23931 4.12773
# Velocity P-wave (km/s) = 6.49686 7.00073 6.75350
#
# Compressibility (1/GPa) = 0.01756822
#
# Stress axis : x y z
#
# Youngs Moduli (GPa) = 139.41939 70.64515 105.49856
#
# Poissons Ratio (x) = 0.19841 0.05950
# Poissons Ratio (y) = 0.39156 0.34253
# Poissons Ratio (z) = 0.07863 0.22937
#
# Static dielectric constant tensor:
#      x y z
#    x 2.083240 0.000000 0.015310 
#    y 0.000000 2.129710 0.000000 
#    z 0.015310 0.000000 2.225850 
# 
# From -- ./inp_files/15443.got.cif
#   From: 2010.05.17/outbox.cif.g08.bks.cpg/sg4_8_cif.got.tgz:15443.got - 2010.06.03 18:43:04.
