data_PCOD9117328
_publ_section_title
;
Structure prediction by ZEFSAII (Michael W. Deem and Ramdas Pophale) SiO2 
 PCOD9117328
Probable space group: P 21
;
_chemical_formula_sum "Si O2"
_cell_formula_units_Z 16
_cell_length_a 6.899913
_cell_length_b 13.460107
_cell_length_c 7.921196
_cell_angle_alpha 90.000000
_cell_angle_beta 75.856794
_cell_angle_gamma 90.000000
_cell_volume 713.370133
_symmetry_space_group_name_H-M "P 21"
_symmetry_group_IT_number 4
_symmetry_cell_setting 'monoclinic'
loop_
_space_group_symop_operation_xyz
x,y,z
-x,1/2+y,-z
loop_
_atom_site_type_symbol
_atom_site_label
_atom_site_fract_x
_atom_site_fract_y
_atom_site_fract_z
Si Si1 0.192560 0.953870 0.690238
Si Si2 0.880930 0.795467 0.609788
Si Si3 0.466336 0.716928 0.200981
Si Si4 0.883474 0.688454 0.959163
Si Si5 0.929289 0.005708 0.252980
Si Si6 0.074370 0.615603 0.387135
Si Si7 0.192637 0.848149 0.040004
Si Si8 0.430179 0.389885 0.570030
O O1 0.390449 0.957486 0.535066
O O2 0.050176 0.870538 0.637054
O O3 0.241465 0.913842 0.865635
O O4 0.063455 0.053603 0.709438
O O5 0.823849 0.732673 0.787520
O O6 0.701587 0.854027 0.560885
O O7 0.974030 0.720756 0.452643
O O8 0.297212 0.635884 0.276245
O O9 0.377006 0.787048 0.073088
O O10 0.493312 0.790772 0.353949
O O11 0.677866 0.672795 0.101748
O O12 0.016215 0.592059 0.889470
O O13 0.020748 0.769896 0.022729
O O14 0.922744 0.055274 0.438077
O O15 0.717901 0.950638 0.275591
O O16 0.099386 0.922234 0.198336
#
# Coordination Sequence:
#
# PCOD9117328 Si02
#       8
#     2   2   2   2   2   2   2   2
#     4  11  24  45  71 105 138 188 234 298 355 422
#     4  10  22  46  69 101 144 174 236 298 349 421
#     4  12  25  45  73 104 141 196 230 290 368 420
#     4  10  25  47  70 101 142 188 230 298 356 423
#     4  11  24  46  70 106 143 182 245 291 347 426
#     4  11  24  45  74 105 140 181 247 295 339 429
#     4  11  25  48  70 101 152 180 232 299 361 424
#     4  12  23  44  77  99 142 193 234 291 363 417
#
# _framework density 22.428750999999998
#
# number of rings (size 3 to 8) (size 9 to 14) (size 15 to 20)
#    0.000    1.000    3.750    2.250    1.750    2.000 
#   11.250    0.000    0.000    0.000    0.000    0.000 
#    0.000    0.000    0.000    0.000    0.000    0.000 
#
# Total GULP energy -89610.937014 kJ/mol
# GULP energy per Si atom -5600.683563 kJ/mol
# Density = 2.237770 g / cm^3
# Si number density = 22.428751 Si / 1000 Ang^3
#
#
#
# Elastic Constant Matrix: (Units=GPa)
#
#
# Indices 1 2 3 4 5 6 
#
# 1 87.9357 22.7992 33.6912 0.0000 -13.1390 0.0000
# 2 22.7992 89.2951 24.7768 0.0000 -7.3316 0.0000
# 3 33.6912 24.7768 82.9635 0.0000 -9.6614 0.0000
# 4 0.0000 0.0000 0.0000 42.4052 0.0000 -0.6600
# 5 -13.1390 -7.3316 -9.6614 0.0000 45.0265 0.0000
# 6 0.0000 0.0000 0.0000 -0.6600 0.0000 44.3578
#
#
#
# Elastic Compliance Matrix: (Units=1/GPa)
#
#
# Indices 1 2 3 4 5 6 
#
# 1 0.014163 -0.002053 -0.004816 0.000000 0.002765 0.000000
# 2 -0.002053 0.012576 -0.002824 0.000000 0.000843 0.000000
# 3 -0.004816 -0.002824 0.015011 0.000000 0.001356 0.000000
# 4 0.000000 0.000000 0.000000 0.023587 0.000000 0.000351
# 5 0.002765 0.000843 0.001356 0.000000 0.023444 0.000000
# 6 0.000000 0.000000 0.000000 0.000351 0.000000 0.022549
#
#
# Mechanical properties :
#
#
# Convention : Reuss Voigt Hill
#
# Bulk Modulus (GPa) = 44.71682 46.96986 45.84334
# Shear Modulus (GPa) = 36.18733 38.28637 37.23685
#
# Velocity S-wave (km/s) = 4.02112 4.13609 4.07901
# Velocity P-wave (km/s) = 6.44513 6.61793 6.53210
#
# Compressibility (1/GPa) = 0.02236295
#
# Stress axis : x y z
#
# Youngs Moduli (GPa) = 70.60861 79.51855 66.61945
#
# Poissons Ratio (x) = 0.16322 0.32086
# Poissons Ratio (y) = 0.14493 0.18813
# Poissons Ratio (z) = 0.34008 0.22456
#
# Static dielectric constant tensor:
#      x y z
#    x 1.780990 0.000000 0.016360 
#    y 0.000000 1.836560 0.000000 
#    z 0.016360 0.000000 1.844970 
# 
# From -- ./inp_files/1525.got.cif
#   From: 2010.05.17/outbox.cif.g08.bks.cpg/sg4_1_cif.got.tgz:1525.got - 2010.06.03 18:43:04.
