data_PCOD9117674
_publ_section_title
;
Structure prediction by ZEFSAII (Michael W. Deem and Ramdas Pophale) SiO2 
 PCOD9117674
Probable space group: P 21
;
_chemical_formula_sum "Si O2"
_cell_formula_units_Z 16
_cell_length_a 11.428352
_cell_length_b 9.314060
_cell_length_c 14.624247
_cell_angle_alpha 90.000000
_cell_angle_beta 151.262431
_cell_angle_gamma 90.000000
_cell_volume 748.443972
_symmetry_space_group_name_H-M "P 21"
_symmetry_group_IT_number 4
_symmetry_cell_setting 'monoclinic'
loop_
_space_group_symop_operation_xyz
x,y,z
-x,1/2+y,-z
loop_
_atom_site_type_symbol
_atom_site_label
_atom_site_fract_x
_atom_site_fract_y
_atom_site_fract_z
Si Si1 0.313130 0.783430 0.962095
Si Si2 0.266599 0.507615 0.288738
Si Si3 0.367233 0.172633 0.337013
Si Si4 0.200184 0.164162 0.023016
Si Si5 0.982673 0.575363 0.637531
Si Si6 0.445347 0.614390 0.212383
Si Si7 0.487747 0.090137 0.047602
Si Si8 0.979123 0.951120 0.152822
O O1 0.367348 0.760292 0.106582
O O2 0.344320 0.941886 0.946353
O O3 0.059929 0.712995 0.753869
O O4 0.510315 0.685869 0.041988
O O5 0.338248 0.340087 0.343133
O O6 0.400986 0.597431 0.459340
O O7 0.350772 0.578074 0.249602
O O8 0.978120 0.527889 0.099377
O O9 0.358460 0.168465 0.222040
O O10 0.144738 0.071456 0.218559
O O11 0.015691 0.299480 0.893213
O O12 0.369987 0.171878 0.051394
O O13 0.224455 0.554134 0.743228
O O14 0.954436 0.450928 0.694688
O O15 0.734042 0.598727 0.414945
O O16 0.300566 0.500944 0.050170
#
# Coordination Sequence:
#
# PCOD9117674 Si02
#       8
#     2   2   2   2   2   2   2   2
#     4   9  23  43  66  94 128 179 218 283 331 396
#     4  12  27  40  71  98 135 177 223 284 337 411
#     4  12  25  46  64 104 135 178 227 276 346 404
#     4  12  25  42  67 102 136 177 220 279 342 404
#     4   9  22  42  67  93 128 173 220 272 326 401
#     4  11  21  42  68  94 126 181 218 273 347 385
#     4  10  23  44  65  97 134 173 225 277 333 398
#     4  11  22  43  70  92 136 176 221 276 338 399
#
# _framework density 21.377685
#
# number of rings (size 3 to 8) (size 9 to 14) (size 15 to 20)
#    0.750    0.500    3.750    1.500    3.500    2.000 
#    6.750    0.000    0.000    0.000    0.000    0.000 
#    0.000    0.000    0.000    0.000    0.000    0.000 
#
# Total GULP energy -89262.697933 kJ/mol
# GULP energy per Si atom -5578.918621 kJ/mol
# Density = 2.132903 g / cm^3
# Si number density = 21.377685 Si / 1000 Ang^3
#
#
#
# Elastic Constant Matrix: (Units=GPa)
#
#
# Indices 1 2 3 4 5 6 
#
# 1 87.3713 23.6657 8.6092 0.0000 -2.1533 0.0000
# 2 23.6657 89.1678 15.4064 0.0000 -21.7976 0.0000
# 3 8.6092 15.4064 102.5162 0.0000 -18.1569 0.0000
# 4 0.0000 0.0000 0.0000 19.6039 0.0000 2.2077
# 5 -2.1533 -21.7976 -18.1569 0.0000 23.4226 0.0000
# 6 0.0000 0.0000 0.0000 2.2077 0.0000 26.3261
#
#
#
# Elastic Compliance Matrix: (Units=1/GPa)
#
#
# Indices 1 2 3 4 5 6 
#
# 1 0.012541 -0.003966 -0.001051 0.000000 -0.003353 0.000000
# 2 -0.003966 0.015777 0.000577 0.000000 0.014766 0.000000
# 3 -0.001051 0.000577 0.011399 0.000000 0.009277 0.000000
# 4 0.000000 0.000000 0.000000 0.051497 0.000000 -0.004319
# 5 -0.003353 0.014766 0.009277 0.000000 0.063318 0.000000
# 6 0.000000 0.000000 0.000000 -0.004319 0.000000 0.038347
#
#
# Mechanical properties :
#
#
# Convention : Reuss Voigt Hill
#
# Bulk Modulus (GPa) = 32.42881 41.60200 37.01540
# Shear Modulus (GPa) = 23.58061 29.29544 26.43802
#
# Velocity S-wave (km/s) = 3.32482 3.70587 3.52051
# Velocity P-wave (km/s) = 5.47189 6.14931 5.82047
#
# Compressibility (1/GPa) = 0.03083678
#
# Stress axis : x y z
#
# Youngs Moduli (GPa) = 79.74036 63.38195 87.72590
#
# Poissons Ratio (x) = 0.25140 0.09219
# Poissons Ratio (y) = 0.31629 -0.05064
# Poissons Ratio (z) = 0.08380 -0.03658
#
# Static dielectric constant tensor:
#      x y z
#    x 1.800090 0.000000 0.023650 
#    y 0.000000 1.869640 0.000000 
#    z 0.023650 0.000000 1.759770 
# 
# From -- ./inp_files/13984.got.cif
#   From: 2010.05.17/outbox.cif.g08.bks.cpg/sg4_7_cif.got.tgz:13984.got - 2010.06.03 18:43:04.
