data_PCOD9117963
_publ_section_title
;
Structure prediction by ZEFSAII (Michael W. Deem and Ramdas Pophale) SiO2 
 PCOD9117963
Probable space group: P 21
;
_chemical_formula_sum "Si O2"
_cell_formula_units_Z 14
_cell_length_a 9.828454
_cell_length_b 7.498946
_cell_length_c 13.370765
_cell_angle_alpha 90.000000
_cell_angle_beta 38.217174
_cell_angle_gamma 90.000000
_cell_volume 609.652617
_symmetry_space_group_name_H-M "P 21"
_symmetry_group_IT_number 4
_symmetry_cell_setting 'monoclinic'
loop_
_space_group_symop_operation_xyz
x,y,z
-x,1/2+y,-z
loop_
_atom_site_type_symbol
_atom_site_label
_atom_site_fract_x
_atom_site_fract_y
_atom_site_fract_z
Si Si1 0.774941 0.019760 0.871324
Si Si2 0.974407 0.490477 0.452604
Si Si3 0.281279 0.899739 0.197389
Si Si4 0.929022 0.687358 0.134289
Si Si5 0.877924 0.027971 0.302741
Si Si6 0.234208 0.814109 0.790944
Si Si7 0.692009 0.845935 0.596282
O O1 0.740687 0.199136 0.827688
O O2 0.886633 0.083736 0.908283
O O3 0.953563 0.914194 0.698157
O O4 0.536295 0.944283 0.033869
O O5 0.808561 0.418459 0.636345
O O6 0.854356 0.676449 0.498774
O O7 0.210596 0.465955 0.371389
O O8 0.120310 0.016547 0.216569
O O9 0.868386 0.864684 0.229218
O O10 0.757014 0.527929 0.223327
O O11 0.021316 0.752944 0.975867
O O12 0.721640 0.965077 0.481655
O O13 0.788186 0.201632 0.297638
O O14 0.447004 0.771515 0.735790
#
# Coordination Sequence:
#
# PCOD9117963 Si02
#       7
#     2   2   2   2   2   2   2
#     4  11  24  41  71  98 141 181 234 292 366 422
#     4  11  22  47  67 101 145 172 241 299 347 439
#     4  10  24  42  67 102 133 186 232 293 365 417
#     4  11  24  46  65 105 140 188 240 297 350 433
#     4  10  24  49  63 102 148 176 254 286 346 441
#     4  12  26  45  75  99 147 191 240 295 361 429
#     4  11  26  46  72 105 138 192 235 300 369 429
#
# _framework density 22.963896999999999
#
# number of rings (size 3 to 8) (size 9 to 14) (size 15 to 20)
#    0.000    1.143    5.714    0.857   10.000    1.143 
#    2.571    0.000    0.000    0.000    0.000    0.000 
#    0.000    0.000    0.000    0.000    0.000    0.000 
#
# Total GULP energy -78028.589551 kJ/mol
# GULP energy per Si atom -5573.470682 kJ/mol
# Density = 2.291163 g / cm^3
# Si number density = 22.963897 Si / 1000 Ang^3
#
#
#
# Elastic Constant Matrix: (Units=GPa)
#
#
# Indices 1 2 3 4 5 6 
#
# 1 47.2795 33.3248 41.8749 0.0000 -13.6532 0.0000
# 2 33.3248 66.2853 19.8329 0.0000 -2.8661 0.0000
# 3 41.8749 19.8329 73.8553 0.0000 -2.3175 0.0000
# 4 0.0000 0.0000 0.0000 27.9502 0.0000 13.6751
# 5 -13.6532 -2.8661 -2.3175 0.0000 40.9403 0.0000
# 6 0.0000 0.0000 0.0000 13.6751 0.0000 42.0663
#
#
#
# Elastic Compliance Matrix: (Units=1/GPa)
#
#
# Indices 1 2 3 4 5 6 
#
# 1 0.081420 -0.028644 -0.037750 0.000000 0.023011 0.000000
# 2 -0.028644 0.026515 0.008895 0.000000 -0.007193 0.000000
# 3 -0.037750 0.008895 0.032237 0.000000 -0.010142 0.000000
# 4 0.000000 0.000000 0.000000 0.042545 0.000000 -0.013831
# 5 0.023011 -0.007193 -0.010142 0.000000 0.031022 0.000000
# 6 0.000000 0.000000 0.000000 -0.013831 0.000000 0.028268
#
#
# Mechanical properties :
#
#
# Convention : Reuss Voigt Hill
#
# Bulk Modulus (GPa) = 39.72445 41.94279 40.83362
# Shear Modulus (GPa) = 13.68379 28.35054 21.01716
#
# Velocity S-wave (km/s) = 2.44372 3.51746 3.02855
# Velocity P-wave (km/s) = 5.02977 5.89924 5.48177
#
# Compressibility (1/GPa) = 0.02517341
#
# Stress axis : x y z
#
# Youngs Moduli (GPa) = 12.28197 37.71517 31.02031
#
# Poissons Ratio (x) = 1.08031 1.17102
# Poissons Ratio (y) = 0.35180 -0.27592
# Poissons Ratio (z) = 0.46365 -0.33547
#
# Static dielectric constant tensor:
#      x y z
#    x 1.937380 0.000000 0.034850 
#    y 0.000000 1.907650 0.000000 
#    z 0.034850 0.000000 1.923480 
# 
# From -- ./inp_files/10776.got.cif
#   From: 2010.05.17/outbox.cif.g08.bks.cpg/sg4_6_cif.got.tgz:10776.got - 2010.06.03 18:43:04.
