data_PCOD9117736
_publ_section_title
;
Structure prediction by ZEFSAII (Michael W. Deem and Ramdas Pophale) SiO2 
 PCOD9117736
Probable space group: P 21
;
_chemical_formula_sum "Si O2"
_cell_formula_units_Z 14
_cell_length_a 11.062717
_cell_length_b 9.006704
_cell_length_c 8.197267
_cell_angle_alpha 90.000000
_cell_angle_beta 137.645919
_cell_angle_gamma 90.000000
_cell_volume 550.262593
_symmetry_space_group_name_H-M "P 21"
_symmetry_group_IT_number 4
_symmetry_cell_setting 'monoclinic'
loop_
_space_group_symop_operation_xyz
x,y,z
-x,1/2+y,-z
loop_
_atom_site_type_symbol
_atom_site_label
_atom_site_fract_x
_atom_site_fract_y
_atom_site_fract_z
Si Si1 0.678929 0.798610 0.314834
Si Si2 0.261544 0.630744 0.068487
Si Si3 0.951042 0.431850 0.833714
Si Si4 0.825208 0.462819 0.041961
Si Si5 0.622374 0.110252 0.150164
Si Si6 0.986146 0.713203 0.388722
Si Si7 0.381818 0.091225 0.441425
O O1 0.874588 0.781449 0.426908
O O2 0.663547 0.722547 0.476824
O O3 0.614410 0.968231 0.257024
O O4 0.550500 0.708847 0.059115
O O5 0.403778 0.589871 0.349207
O O6 0.270486 0.804860 0.033662
O O7 0.061898 0.578839 0.901772
O O8 0.334603 0.542303 0.985871
O O9 0.023943 0.306133 0.788966
O O10 0.972263 0.419712 0.049590
O O11 0.736194 0.455123 0.599261
O O12 0.699732 0.581482 0.820117
O O13 0.906784 0.549313 0.274431
O O14 0.802514 0.199977 0.368965
#
# Coordination Sequence:
#
# PCOD9117736 Si02
#       7
#     2   2   2   2   2   2   2
#     4  11  26  47  71 107 138 184 237 293 354 421
#     4  11  22  47  70  98 147 183 231 291 352 413
#     4  10  23  45  65 102 135 184 236 280 348 415
#     4  10  26  45  69 106 136 188 234 288 349 422
#     4  11  28  43  75 103 141 187 231 296 347 426
#     4  12  26  43  74 103 141 185 233 290 358 419
#     4   9  25  44  72  97 142 181 234 298 338 424
#
# _framework density 25.442399000000002
#
# number of rings (size 3 to 8) (size 9 to 14) (size 15 to 20)
#    0.857    0.571    1.429    1.714   12.000    1.143 
#    5.143    0.000    0.000    0.000    0.000    0.000 
#    0.000    0.000    0.000    0.000    0.000    0.000 
#
# Total GULP energy -78176.986418 kJ/mol
# GULP energy per Si atom -5584.070458 kJ/mol
# Density = 2.538449 g / cm^3
# Si number density = 25.442399 Si / 1000 Ang^3
#
#
#
# Elastic Constant Matrix: (Units=GPa)
#
#
# Indices 1 2 3 4 5 6 
#
# 1 69.6124 26.2114 5.6196 0.0000 4.7166 0.0000
# 2 26.2114 92.9865 43.9102 0.0000 11.3729 0.0000
# 3 5.6196 43.9102 99.3682 0.0000 14.2735 0.0000
# 4 0.0000 0.0000 0.0000 36.4779 0.0000 2.4205
# 5 4.7166 11.3729 14.2735 0.0000 34.2559 0.0000
# 6 0.0000 0.0000 0.0000 2.4205 0.0000 35.2199
#
#
#
# Elastic Compliance Matrix: (Units=1/GPa)
#
#
# Indices 1 2 3 4 5 6 
#
# 1 0.016265 -0.005165 0.001529 0.000000 -0.001162 0.000000
# 2 -0.005165 0.015379 -0.006246 0.000000 -0.001792 0.000000
# 3 0.001529 -0.006246 0.013264 0.000000 -0.003663 0.000000
# 4 0.000000 0.000000 0.000000 0.027539 0.000000 -0.001893
# 5 -0.001162 -0.001792 -0.003663 0.000000 0.031473 0.000000
# 6 0.000000 0.000000 0.000000 -0.001893 0.000000 0.028523
#
#
# Mechanical properties :
#
#
# Convention : Reuss Voigt Hill
#
# Bulk Modulus (GPa) = 39.77105 45.93883 42.85494
# Shear Modulus (GPa) = 31.13535 33.60581 32.37058
#
# Velocity S-wave (km/s) = 3.50202 3.63830 3.57081
# Velocity P-wave (km/s) = 5.65844 5.97870 5.82077
#
# Compressibility (1/GPa) = 0.02514392
#
# Stress axis : x y z
#
# Youngs Moduli (GPa) = 61.48042 65.02349 75.39467
#
# Poissons Ratio (x) = 0.33585 -0.11531
# Poissons Ratio (y) = 0.31755 0.47095
# Poissons Ratio (z) = -0.09403 0.40616
#
# Static dielectric constant tensor:
#      x y z
#    x 2.032640 0.000000 0.020620 
#    y 0.000000 1.989650 0.000000 
#    z 0.020620 0.000000 2.125450 
# 
# From -- ./inp_files/8085.got.cif
#   From: 2010.05.17/outbox.cif.g08.bks.cpg/sg4_5_cif.got.tgz:8085.got - 2010.06.03 18:43:04.
