data_PCOD9117704
_publ_section_title
;
Structure prediction by ZEFSAII (Michael W. Deem and Ramdas Pophale) SiO2 
 PCOD9117704
Probable space group: P 21
;
_chemical_formula_sum "Si O2"
_cell_formula_units_Z 16
_cell_length_a 11.978725
_cell_length_b 8.598011
_cell_length_c 12.150064
_cell_angle_alpha 90.000000
_cell_angle_beta 142.931624
_cell_angle_gamma 90.000000
_cell_volume 754.287848
_symmetry_space_group_name_H-M "P 21"
_symmetry_group_IT_number 4
_symmetry_cell_setting 'monoclinic'
loop_
_space_group_symop_operation_xyz
x,y,z
-x,1/2+y,-z
loop_
_atom_site_type_symbol
_atom_site_label
_atom_site_fract_x
_atom_site_fract_y
_atom_site_fract_z
Si Si1 0.776344 0.092390 0.551613
Si Si2 0.255119 0.166208 0.727759
Si Si3 0.134708 0.700505 0.846040
Si Si4 0.600845 0.731652 0.735389
Si Si5 0.859600 0.027176 0.374144
Si Si6 0.271681 0.240806 0.405790
Si Si7 0.449928 0.573246 0.223497
Si Si8 0.196794 0.066298 0.915202
O O1 0.609308 0.193820 0.464474
O O2 0.774376 0.102457 0.417132
O O3 0.985199 0.130981 0.754233
O O4 0.730088 0.916022 0.549528
O O5 0.192604 0.345454 0.664164
O O6 0.420264 0.119614 0.777537
O O7 0.297187 0.141322 0.889108
O O8 0.079352 0.056781 0.561295
O O9 0.193212 0.610540 0.781211
O O10 0.918850 0.669786 0.698090
O O11 0.170042 0.884716 0.866438
O O12 0.252714 0.646895 0.042663
O O13 0.720450 0.745666 0.719261
O O14 0.585924 0.892133 0.789155
O O15 0.689391 0.603060 0.885769
O O16 0.443418 0.144906 0.588812
#
# Coordination Sequence:
#
# PCOD9117704 Si02
#       8
#     2   2   2   2   2   2   2   2
#     4  10  23  44  69  96 137 180 233 288 343 412
#     4  11  23  40  70 100 145 172 232 284 355 422
#     4  11  25  43  72  99 141 181 229 289 350 412
#     4  12  27  42  71  99 141 184 241 283 351 414
#     4  11  21  42  69 100 142 180 222 290 354 417
#     4  11  24  50  66  99 140 188 234 288 343 423
#     4  12  26  42  70 106 133 185 234 288 352 415
#     4  10  25  43  65 105 135 182 227 288 348 411
#
# _framework density 21.212063000000001
#
# number of rings (size 3 to 8) (size 9 to 14) (size 15 to 20)
#    0.000    1.000    2.500    3.750    7.000    4.000 
#    0.000    0.000    0.000    0.000    0.000    0.000 
#    0.000    0.000    0.000    0.000    0.000    0.000 
#
# Total GULP energy -89476.823083 kJ/mol
# GULP energy per Si atom -5592.301443 kJ/mol
# Density = 2.116378 g / cm^3
# Si number density = 21.212063 Si / 1000 Ang^3
#
#
#
# Elastic Constant Matrix: (Units=GPa)
#
#
# Indices 1 2 3 4 5 6 
#
# 1 79.3566 15.9621 10.0910 0.0000 -20.0051 0.0000
# 2 15.9621 26.9657 7.9764 0.0000 -12.0849 0.0000
# 3 10.0910 7.9764 76.0924 0.0000 -13.4573 0.0000
# 4 0.0000 0.0000 0.0000 16.9638 0.0000 13.2980
# 5 -20.0051 -12.0849 -13.4573 0.0000 16.8963 0.0000
# 6 0.0000 0.0000 0.0000 13.2980 0.0000 14.4253
#
#
#
# Elastic Compliance Matrix: (Units=1/GPa)
#
#
# Indices 1 2 3 4 5 6 
#
# 1 0.018174 -0.001498 0.001586 0.000000 0.021710 0.000000
# 2 -0.001498 0.054826 0.001249 0.000000 0.038435 0.000000
# 3 0.001586 0.001249 0.015470 0.000000 0.015093 0.000000
# 4 0.000000 0.000000 0.000000 0.212543 0.000000 -0.195934
# 5 0.021710 0.038435 0.015093 0.000000 0.124400 0.000000
# 6 0.000000 0.000000 0.000000 -0.195934 0.000000 0.249945
#
#
# Mechanical properties :
#
#
# Convention : Reuss Voigt Hill
#
# Bulk Modulus (GPa) = 10.97147 27.83040 19.40093
# Shear Modulus (GPa) = 7.11172 19.54942 13.33057
#
# Velocity S-wave (km/s) = 1.83302 3.03911 2.50960
# Velocity P-wave (km/s) = 3.10861 5.04614 4.19088
#
# Compressibility (1/GPa) = 0.09114552
#
# Stress axis : x y z
#
# Youngs Moduli (GPa) = 55.02448 18.23941 64.64187
#
# Poissons Ratio (x) = 0.02731 -0.10255
# Poissons Ratio (y) = 0.08240 -0.08073
# Poissons Ratio (z) = -0.08729 -0.02278
#
# Static dielectric constant tensor:
#      x y z
#    x 1.753950 0.000000 -0.001890 
#    y 0.000000 1.767380 0.000000 
#    z -0.001890 0.000000 1.775240 
# 
# From -- ./inp_files/11906.got.cif
#   From: 2010.05.17/outbox.cif.g08.bks.cpg/sg4_6_cif.got.tgz:11906.got - 2010.06.03 18:43:04.
