data_PCOD9117077
_publ_section_title
;
Structure prediction by ZEFSAII (Michael W. Deem and Ramdas Pophale) SiO2 
 PCOD9117077
Probable space group: P 21
;
_chemical_formula_sum "Si O2"
_cell_formula_units_Z 14
_cell_length_a 10.850768
_cell_length_b 11.916444
_cell_length_c 7.302569
_cell_angle_alpha 90.000000
_cell_angle_beta 39.670063
_cell_angle_gamma 90.000000
_cell_volume 602.771043
_symmetry_space_group_name_H-M "P 21"
_symmetry_group_IT_number 4
_symmetry_cell_setting 'monoclinic'
loop_
_space_group_symop_operation_xyz
x,y,z
-x,1/2+y,-z
loop_
_atom_site_type_symbol
_atom_site_label
_atom_site_fract_x
_atom_site_fract_y
_atom_site_fract_z
Si Si1 0.543068 0.286230 0.622133
Si Si2 0.156168 0.030442 0.187088
Si Si3 0.534443 0.492161 0.895988
Si Si4 0.854283 0.085114 0.773300
Si Si5 0.834475 0.889397 0.051731
Si Si6 0.556413 0.033721 0.622429
Si Si7 0.126258 0.806769 0.026408
O O1 0.585566 0.385941 0.715471
O O2 0.313270 0.297071 0.855746
O O3 0.607195 0.162572 0.607321
O O4 0.657495 0.307762 0.303453
O O5 0.960985 0.095604 0.454748
O O6 0.278038 0.050811 0.234713
O O7 0.101563 0.902401 0.206952
O O8 0.325900 0.046388 0.841317
O O9 0.377481 0.572220 0.982169
O O10 0.435620 0.458466 0.203020
O O11 0.906851 0.186932 0.844556
O O12 0.914627 0.966163 0.796462
O O13 0.988039 0.837562 0.014409
O O14 0.695976 0.977570 0.318549
#
# Coordination Sequence:
#
# PCOD9117077 Si02
#       7
#     2   2   2   2   2   2   2
#     4  11  22  45  67  96 131 180 215 273 339 386
#     4  10  24  42  63 100 134 166 222 275 323 394
#     4   9  23  41  67  93 134 166 221 272 322 394
#     4  11  24  44  67  99 134 175 222 277 330 390
#     4  11  24  44  66 101 135 171 229 275 319 409
#     4  10  22  43  67  96 133 171 217 277 327 389
#     4  12  25  41  73  95 137 179 220 271 340 390
#
# _framework density 23.226064000000001
#
# number of rings (size 3 to 8) (size 9 to 14) (size 15 to 20)
#    0.857    0.571    2.857    1.714    2.000    5.714 
#    2.571    0.000    0.000    0.000    0.000    0.000 
#    0.000    0.000    0.000    0.000    0.000    0.000 
#
# Total GULP energy -78022.651491 kJ/mol
# GULP energy per Si atom -5573.046535 kJ/mol
# Density = 2.317320 g / cm^3
# Si number density = 23.226064 Si / 1000 Ang^3
#
#
#
# Elastic Constant Matrix: (Units=GPa)
#
#
# Indices 1 2 3 4 5 6 
#
# 1 71.2923 1.8749 -13.3132 0.0000 -16.5475 0.0000
# 2 1.8749 47.9667 -12.4894 0.0000 0.7300 0.0000
# 3 -13.3132 -12.4894 80.8779 0.0000 4.5552 0.0000
# 4 0.0000 0.0000 0.0000 26.9702 0.0000 10.9297
# 5 -16.5475 0.7300 4.5552 0.0000 37.6687 0.0000
# 6 0.0000 0.0000 0.0000 10.9297 0.0000 26.8947
#
#
#
# Elastic Compliance Matrix: (Units=1/GPa)
#
#
# Indices 1 2 3 4 5 6 
#
# 1 0.016019 -0.000148 0.002233 0.000000 0.006770 0.000000
# 2 -0.000148 0.021748 0.003385 0.000000 -0.000896 0.000000
# 3 0.002233 0.003385 0.013293 0.000000 -0.000692 0.000000
# 4 0.000000 0.000000 0.000000 0.044388 0.000000 -0.018039
# 5 0.006770 -0.000896 -0.000692 0.000000 0.029622 0.000000
# 6 0.000000 0.000000 0.000000 -0.018039 0.000000 0.044513
#
#
# Mechanical properties :
#
#
# Convention : Reuss Voigt Hill
#
# Bulk Modulus (GPa) = 16.12907 16.92017 16.52462
# Shear Modulus (GPa) = 27.88437 33.24436 30.56436
#
# Velocity S-wave (km/s) = 3.46867 3.78741 3.63154
# Velocity P-wave (km/s) = 4.79601 5.14070 4.97134
#
# Compressibility (1/GPa) = 0.06199985
#
# Stress axis : x y z
#
# Youngs Moduli (GPa) = 62.42612 45.98027 75.22483
#
# Poissons Ratio (x) = 0.00680 -0.16796
# Poissons Ratio (y) = 0.00923 -0.25460
# Poissons Ratio (z) = -0.13938 -0.15562
#
# Static dielectric constant tensor:
#      x y z
#    x 1.921930 0.000000 -0.038060 
#    y 0.000000 1.865180 0.000000 
#    z -0.038060 0.000000 1.899430 
# 
# From -- ./inp_files/8140.got.cif
#   From: 2010.05.17/outbox.cif.g08.bks.cpg/sg4_5_cif.got.tgz:8140.got - 2010.06.03 18:43:04.
