data_PCOD9117393
_publ_section_title
;
Structure prediction by ZEFSAII (Michael W. Deem and Ramdas Pophale) SiO2 
 PCOD9117393
Probable space group: P 21
;
_chemical_formula_sum "Si O2"
_cell_formula_units_Z 16
_cell_length_a 4.840018
_cell_length_b 5.408021
_cell_length_c 22.248253
_cell_angle_alpha 90.000000
_cell_angle_beta 95.358434
_cell_angle_gamma 90.000000
_cell_volume 579.801352
_symmetry_space_group_name_H-M "P 21"
_symmetry_group_IT_number 4
_symmetry_cell_setting 'monoclinic'
loop_
_space_group_symop_operation_xyz
x,y,z
-x,1/2+y,-z
loop_
_atom_site_type_symbol
_atom_site_label
_atom_site_fract_x
_atom_site_fract_y
_atom_site_fract_z
Si Si1 0.174584 0.571990 0.006391
Si Si2 0.212715 0.592701 0.877932
Si Si3 0.074535 0.260555 0.678357
Si Si4 0.388499 0.250401 0.428196
Si Si5 0.743130 0.745287 0.449921
Si Si6 0.984315 0.927950 0.779909
Si Si7 0.315531 0.771169 0.134242
Si Si8 0.601191 0.581124 0.700590
O O1 0.320428 0.611150 0.073256
O O2 0.338849 0.615149 0.947387
O O3 0.045915 0.298700 0.000529
O O4 0.284019 0.489513 0.696954
O O5 0.195528 0.822912 0.833924
O O6 0.901045 0.495016 0.881415
O O7 0.073593 0.226202 0.606325
O O8 0.764802 0.329395 0.690277
O O9 0.140714 0.035319 0.724391
O O10 0.553060 0.502793 0.441440
O O11 0.161837 0.242090 0.477869
O O12 0.570673 0.999782 0.438955
O O13 0.321523 0.242826 0.356859
O O14 0.762115 0.717840 0.756651
O O15 0.807427 0.127558 0.812518
O O16 0.614106 0.883206 0.151803
#
# Coordination Sequence:
#
# PCOD9117393 Si02
#       8
#     2   2   2   2   2   2   2   2
#     4  10  22  50  84 118 160 208 264 338 400 474
#     4  11  27  50  79 116 157 207 266 327 397 479
#     4  11  28  49  75 113 155 208 263 327 391 481
#     4   9  20  44  75 110 151 199 259 327 396 465
#     4   9  20  44  75 110 151 199 259 327 396 465
#     4  12  28  52  80 114 162 216 262 328 408 474
#     4  11  27  50  79 116 157 207 266 327 397 479
#     4  11  28  49  75 113 155 208 263 327 391 481
#
# _framework density 27.595656999999999
#
# number of rings (size 3 to 8) (size 9 to 14) (size 15 to 20)
#    0.000    1.500    1.250    0.750    7.000   11.000 
#    2.250    1.250    0.000    0.000    0.000    0.000 
#    0.000    0.000    0.000    0.000    0.000    0.000 
#
# Total GULP energy -89678.248200 kJ/mol
# GULP energy per Si atom -5604.890512 kJ/mol
# Density = 2.753285 g / cm^3
# Si number density = 27.595657 Si / 1000 Ang^3
#
#
#
# Elastic Constant Matrix: (Units=GPa)
#
#
# Indices 1 2 3 4 5 6 
#
# 1 86.4346 35.2049 29.7070 0.0000 -6.9639 0.0000
# 2 35.2049 122.5308 41.2712 0.0000 -9.4667 0.0000
# 3 29.7070 41.2712 182.1099 0.0000 -13.8659 0.0000
# 4 0.0000 0.0000 0.0000 76.3625 0.0000 -3.4951
# 5 -6.9639 -9.4667 -13.8659 0.0000 22.9684 0.0000
# 6 0.0000 0.0000 0.0000 -3.4951 0.0000 36.7134
#
#
#
# Elastic Compliance Matrix: (Units=1/GPa)
#
#
# Indices 1 2 3 4 5 6 
#
# 1 0.013518 -0.003292 -0.001311 0.000000 0.001951 0.000000
# 2 -0.003292 0.009782 -0.001519 0.000000 0.002117 0.000000
# 3 -0.001311 -0.001519 0.006259 0.000000 0.002755 0.000000
# 4 0.000000 0.000000 0.000000 0.013153 0.000000 0.001252
# 5 0.001951 0.002117 0.002755 0.000000 0.046665 0.000000
# 6 0.000000 0.000000 0.000000 0.001252 0.000000 0.027357
#
#
# Mechanical properties :
#
#
# Convention : Reuss Voigt Hill
#
# Bulk Modulus (GPa) = 57.74781 67.04907 62.39844
# Shear Modulus (GPa) = 37.10619 46.20166 41.65393
#
# Velocity S-wave (km/s) = 3.67091 4.09618 3.88936
# Velocity P-wave (km/s) = 6.24013 6.83530 6.54449
#
# Compressibility (1/GPa) = 0.01731667
#
# Stress axis : x y z
#
# Youngs Moduli (GPa) = 73.97676 102.22782 159.77113
#
# Poissons Ratio (x) = 0.33650 0.20940
# Poissons Ratio (y) = 0.24351 0.24265
# Poissons Ratio (z) = 0.09695 0.15526
#
# Static dielectric constant tensor:
#      x y z
#    x 2.090830 0.000000 0.015450 
#    y 0.000000 2.162390 0.000000 
#    z 0.015450 0.000000 2.219980 
# 
# From -- ./inp_files/14765.got.cif
#   From: 2010.05.17/outbox.cif.g08.bks.cpg/sg4_8_cif.got.tgz:14765.got - 2010.06.03 18:43:04.
