data_PCOD9117011
_publ_section_title
;
Structure prediction by ZEFSAII (Michael W. Deem and Ramdas Pophale) SiO2 
 PCOD9117011
Probable space group: P 21
;
_chemical_formula_sum "Si O2"
_cell_formula_units_Z 12
_cell_length_a 5.098254
_cell_length_b 19.247167
_cell_length_c 4.793014
_cell_angle_alpha 90.000000
_cell_angle_beta 99.409316
_cell_angle_gamma 90.000000
_cell_volume 463.995898
_symmetry_space_group_name_H-M "P 21"
_symmetry_group_IT_number 4
_symmetry_cell_setting 'monoclinic'
loop_
_space_group_symop_operation_xyz
x,y,z
-x,1/2+y,-z
loop_
_atom_site_type_symbol
_atom_site_label
_atom_site_fract_x
_atom_site_fract_y
_atom_site_fract_z
Si Si1 0.134249 0.809520 0.581130
Si Si2 0.371066 0.500700 0.006005
Si Si3 0.798998 0.682116 0.538103
Si Si4 0.500328 0.913390 0.493596
Si Si5 0.868024 0.590393 0.074436
Si Si6 0.558032 0.278387 0.844335
O O1 0.201876 0.891505 0.550022
O O2 0.160263 0.785510 0.265153
O O3 0.927396 0.754445 0.661029
O O4 0.387852 0.788747 0.823060
O O5 0.341092 0.434324 0.204407
O O6 0.106639 0.545467 0.986817
O O7 0.628576 0.543613 0.151549
O O8 0.456992 0.475086 0.715606
O O9 0.564870 0.708317 0.293900
O O10 0.971521 0.635908 0.353013
O O11 0.750474 0.636664 0.801796
O O12 0.585278 0.845438 0.326535
#
# Coordination Sequence:
#
# PCOD9117011 Si02
#       6
#     2   2   2   2   2   2
#     4  10  22  42  70 105 133 177 223 309 351 405
#     4  12  26  48  70 102 144 192 238 280 348 424
#     4  12  26  44  72 106 138 186 240 284 366 416
#     4  10  22  46  72 102 138 178 242 288 358 410
#     4  12  30  44  74 100 148 196 230 290 338 436
#     4  10  22  42  70 105 133 177 223 309 351 405
#
# _framework density 25.862300000000001
#
# number of rings (size 3 to 8) (size 9 to 14) (size 15 to 20)
#    1.000    0.000    1.667    4.000    7.000    2.667 
#    0.000    0.000    0.000    0.000    0.000    0.000 
#    0.000    0.000    0.000    0.000    0.000    0.000 
#
# Total GULP energy -66855.497438 kJ/mol
# GULP energy per Si atom -5571.291453 kJ/mol
# Density = 2.580344 g / cm^3
# Si number density = 25.862300 Si / 1000 Ang^3
#
#
#
# Elastic Constant Matrix: (Units=GPa)
#
#
# Indices 1 2 3 4 5 6 
#
# 1 71.0412 33.9185 1.3411 0.0000 -12.2236 0.0000
# 2 33.9185 64.3651 20.4628 0.0000 -1.0182 0.0000
# 3 1.3411 20.4628 148.9764 0.0000 -14.5388 0.0000
# 4 0.0000 0.0000 0.0000 42.0563 0.0000 -1.5942
# 5 -12.2236 -1.0182 -14.5388 0.0000 19.8072 0.0000
# 6 0.0000 0.0000 0.0000 -1.5942 0.0000 38.6841
#
#
#
# Elastic Compliance Matrix: (Units=1/GPa)
#
#
# Indices 1 2 3 4 5 6 
#
# 1 0.022800 -0.012744 0.003075 0.000000 0.015672 0.000000
# 2 -0.012744 0.023383 -0.004036 0.000000 -0.009626 0.000000
# 3 0.003075 -0.004036 0.007975 0.000000 0.007544 0.000000
# 4 0.000000 0.000000 0.000000 0.023815 0.000000 0.000981
# 5 0.015672 -0.009626 0.007544 0.000000 0.065201 0.000000
# 6 0.000000 0.000000 0.000000 0.000981 0.000000 0.025891
#
#
# Mechanical properties :
#
#
# Convention : Reuss Voigt Hill
#
# Bulk Modulus (GPa) = 37.38849 43.98084 40.68466
# Shear Modulus (GPa) = 24.34359 35.35353 29.84856
#
# Velocity S-wave (km/s) = 3.07135 3.70129 3.40094
# Velocity P-wave (km/s) = 5.20247 5.94212 5.58456
#
# Compressibility (1/GPa) = 0.02674620
#
# Stress axis : x y z
#
# Youngs Moduli (GPa) = 43.86032 42.76563 125.38437
#
# Poissons Ratio (x) = 0.54502 -0.38552
# Poissons Ratio (y) = 0.55897 0.50611
# Poissons Ratio (z) = -0.13486 0.17262
#
# Static dielectric constant tensor:
#      x y z
#    x 2.197880 0.000000 0.025430 
#    y 0.000000 2.144890 0.000000 
#    z 0.025430 0.000000 1.913450 
# 
# From -- ./inp_files/425.got.cif
#   From: 2010.05.17/outbox.cif.g08.bks.cpg/sg4_1_cif.got.tgz:425.got - 2010.06.03 18:43:04.
