data_PCOD9117293
_publ_section_title
;
Structure prediction by ZEFSAII (Michael W. Deem and Ramdas Pophale) SiO2 
 PCOD9117293
Probable space group: P 21
;
_chemical_formula_sum "Si O2"
_cell_formula_units_Z 16
_cell_length_a 15.072704
_cell_length_b 6.048381
_cell_length_c 11.702064
_cell_angle_alpha 90.000000
_cell_angle_beta 38.394010
_cell_angle_gamma 90.000000
_cell_volume 662.567954
_symmetry_space_group_name_H-M "P 21"
_symmetry_group_IT_number 4
_symmetry_cell_setting 'monoclinic'
loop_
_space_group_symop_operation_xyz
x,y,z
-x,1/2+y,-z
loop_
_atom_site_type_symbol
_atom_site_label
_atom_site_fract_x
_atom_site_fract_y
_atom_site_fract_z
Si Si1 0.309548 0.979600 0.104211
Si Si2 0.636239 0.883204 0.592902
Si Si3 0.435153 0.294173 0.753449
Si Si4 0.892143 0.182140 0.342519
Si Si5 0.543147 0.077845 0.050554
Si Si6 0.188512 0.049453 0.971707
Si Si7 0.041325 0.229256 0.420760
Si Si8 0.701141 0.494295 0.378589
O O1 0.458882 0.023841 0.020647
O O2 0.206328 0.160697 0.263491
O O3 0.312887 0.713876 0.122570
O O4 0.252253 0.975750 0.030191
O O5 0.558965 0.723449 0.761365
O O6 0.700790 0.746726 0.421513
O O7 0.517613 0.059387 0.673011
O O8 0.769522 0.016380 0.508273
O O9 0.430353 0.376230 0.889282
O O10 0.272851 0.283234 0.876098
O O11 0.536755 0.432493 0.569059
O O12 0.804488 0.361701 0.359582
O O13 0.979155 0.285695 0.358795
O O14 0.019062 0.063705 0.144391
O O15 0.248007 0.933468 0.799008
O O16 0.016043 0.469102 0.505841
#
# Coordination Sequence:
#
# PCOD9117293 Si02
#       8
#     2   2   2   2   2   2   2   2
#     4  11  25  42  71 107 140 190 238 302 368 432
#     4  10  22  45  71  97 135 186 235 286 359 441
#     4  10  23  43  70 102 136 184 233 297 360 431
#     4  10  25  45  69 103 136 192 239 295 373 433
#     4  11  23  43  71 101 140 181 234 292 366 434
#     4  11  24  46  63 106 141 173 244 298 357 431
#     4  11  27  47  75 107 152 194 246 306 368 446
#     4  10  25  43  72  95 138 190 237 294 365 438
#
# _framework density 24.148464000000001
#
# number of rings (size 3 to 8) (size 9 to 14) (size 15 to 20)
#    0.000    1.500    1.250    1.500   10.500    3.000 
#    4.500    0.000    0.000    0.000    0.000    0.000 
#    0.000    0.000    0.000    0.000    0.000    0.000 
#
# Total GULP energy -89074.285480 kJ/mol
# GULP energy per Si atom -5567.142843 kJ/mol
# Density = 2.409350 g / cm^3
# Si number density = 24.148464 Si / 1000 Ang^3
#
#
#
# Elastic Constant Matrix: (Units=GPa)
#
#
# Indices 1 2 3 4 5 6 
#
# 1 73.2371 32.5612 10.3298 0.0000 -1.9290 0.0000
# 2 32.5612 79.1762 22.3155 0.0000 6.7800 0.0000
# 3 10.3298 22.3155 72.7904 0.0000 -11.1258 0.0000
# 4 0.0000 0.0000 0.0000 27.5399 0.0000 -3.1108
# 5 -1.9290 6.7800 -11.1258 0.0000 44.5912 0.0000
# 6 0.0000 0.0000 0.0000 -3.1108 0.0000 14.0894
#
#
#
# Elastic Compliance Matrix: (Units=1/GPa)
#
#
# Indices 1 2 3 4 5 6 
#
# 1 0.016852 -0.007105 0.000066 0.000000 0.001826 0.000000
# 2 -0.007105 0.017299 -0.004932 0.000000 -0.004168 0.000000
# 3 0.000066 -0.004932 0.015965 0.000000 0.004736 0.000000
# 4 0.000000 0.000000 0.000000 0.037240 0.000000 0.008222
# 5 0.001826 -0.004168 0.004736 0.000000 0.024320 0.000000
# 6 0.000000 0.000000 0.000000 0.008222 0.000000 0.072790
#
#
# Mechanical properties :
#
#
# Convention : Reuss Voigt Hill
#
# Bulk Modulus (GPa) = 38.20790 39.51296 38.86043
# Shear Modulus (GPa) = 23.02725 27.91060 25.46893
#
# Velocity S-wave (km/s) = 3.09134 3.40338 3.25111
# Velocity P-wave (km/s) = 5.34774 5.64288 5.49729
#
# Compressibility (1/GPa) = 0.02617260
#
# Stress axis : x y z
#
# Youngs Moduli (GPa) = 59.33978 57.80625 62.63820
#
# Poissons Ratio (x) = 0.41073 -0.00412
# Poissons Ratio (y) = 0.42163 0.30895
# Poissons Ratio (z) = -0.00391 0.28511
#
# Static dielectric constant tensor:
#      x y z
#    x 1.868470 0.000000 0.030420 
#    y 0.000000 2.106440 0.000000 
#    z 0.030420 0.000000 2.059230 
# 
# From -- ./inp_files/12471.got.cif
#   From: 2010.05.17/outbox.cif.g08.bks.cpg/sg4_7_cif.got.tgz:12471.got - 2010.06.03 18:43:04.
