data_PCOD9117145
_publ_section_title
;
Structure prediction by ZEFSAII (Michael W. Deem and Ramdas Pophale) SiO2 
 PCOD9117145
Probable space group: P 21
;
_chemical_formula_sum "Si O2"
_cell_formula_units_Z 14
_cell_length_a 7.081207
_cell_length_b 15.090667
_cell_length_c 5.412129
_cell_angle_alpha 90.000000
_cell_angle_beta 101.491985
_cell_angle_gamma 90.000000
_cell_volume 566.746606
_symmetry_space_group_name_H-M "P 21"
_symmetry_group_IT_number 4
_symmetry_cell_setting 'monoclinic'
loop_
_space_group_symop_operation_xyz
x,y,z
-x,1/2+y,-z
loop_
_atom_site_type_symbol
_atom_site_label
_atom_site_fract_x
_atom_site_fract_y
_atom_site_fract_z
Si Si1 0.657944 0.321380 0.884551
Si Si2 0.260401 0.103817 0.191819
Si Si3 0.112624 0.849930 0.553837
Si Si4 0.488126 0.636161 0.338604
Si Si5 0.076881 0.529061 0.559950
Si Si6 0.555114 0.984038 0.018633
Si Si7 0.084553 0.185605 0.737018
O O1 0.736991 0.360283 0.640558
O O2 0.621214 0.218711 0.806867
O O3 0.476870 0.379714 0.938817
O O4 0.793919 0.323837 0.161063
O O5 0.459464 0.141447 0.359485
O O6 0.100929 0.054845 0.310752
O O7 0.350384 0.025035 0.051377
O O8 0.135419 0.182261 0.037524
O O9 0.975496 0.774726 0.406633
O O10 0.989586 0.937479 0.575176
O O11 0.708537 0.653660 0.306640
O O12 0.426386 0.537049 0.237526
O O13 0.265196 0.514237 0.770826
O O14 0.075379 0.611475 0.370791
#
# Coordination Sequence:
#
# PCOD9117145 Si02
#       7
#     2   2   2   2   2   2   2
#     4  12  27  47  72 108 147 187 242 300 355 429
#     4  10  22  44  66 106 136 192 228 308 342 442
#     4  12  27  47  72 108 147 187 242 300 355 429
#     4  10  24  43  71 101 145 184 243 290 362 422
#     4  11  24  45  71 102 143 188 241 293 366 419
#     4  11  24  45  71 102 143 188 241 293 366 419
#     4  10  24  43  71 101 145 184 243 290 362 422
#
# _framework density 24.702396
#
# number of rings (size 3 to 8) (size 9 to 14) (size 15 to 20)
#    0.000    1.143    1.429    4.286   12.000    0.000 
#    0.000    0.000    0.000    0.000    0.000    0.000 
#    0.000    0.000    0.000    0.000    0.000    0.000 
#
# Total GULP energy -78072.537616 kJ/mol
# GULP energy per Si atom -5576.609830 kJ/mol
# Density = 2.464617 g / cm^3
# Si number density = 24.702396 Si / 1000 Ang^3
#
#
#
# Elastic Constant Matrix: (Units=GPa)
#
#
# Indices 1 2 3 4 5 6 
#
# 1 44.2174 1.2258 -3.9770 0.0000 7.7790 0.0000
# 2 1.2258 107.2742 37.9388 0.0000 16.3590 0.0000
# 3 -3.9770 37.9388 118.8182 0.0000 37.2910 0.0000
# 4 0.0000 0.0000 0.0000 37.7922 0.0000 15.8486
# 5 7.7790 16.3590 37.2910 0.0000 31.2403 0.0000
# 6 0.0000 0.0000 0.0000 15.8486 0.0000 41.2959
#
#
#
# Elastic Compliance Matrix: (Units=1/GPa)
#
#
# Indices 1 2 3 4 5 6 
#
# 1 0.025056 -0.000117 0.004501 0.000000 -0.011551 0.000000
# 2 -0.000117 0.010622 -0.002653 0.000000 -0.002367 0.000000
# 3 0.004501 -0.002653 0.014919 0.000000 -0.017540 0.000000
# 4 0.000000 0.000000 0.000000 0.031536 0.000000 -0.012103
# 5 -0.011551 -0.002367 -0.017540 0.000000 0.057063 0.000000
# 6 0.000000 0.000000 0.000000 -0.012103 0.000000 0.028860
#
#
# Mechanical properties :
#
#
# Convention : Reuss Voigt Hill
#
# Bulk Modulus (GPa) = 18.49797 37.85389 28.17593
# Shear Modulus (GPa) = 27.38031 37.74049 32.56040
#
# Velocity S-wave (km/s) = 3.33289 3.91296 3.63451
# Velocity P-wave (km/s) = 4.72392 5.98099 5.38923
#
# Compressibility (1/GPa) = 0.05406000
#
# Stress axis : x y z
#
# Youngs Moduli (GPa) = 39.91110 94.14097 67.02912
#
# Poissons Ratio (x) = 0.01099 -0.30171
# Poissons Ratio (y) = 0.00466 0.17782
# Poissons Ratio (z) = -0.17965 0.24974
#
# Static dielectric constant tensor:
#      x y z
#    x 2.075960 0.000000 -0.210280 
#    y 0.000000 1.998770 0.000000 
#    z -0.210280 0.000000 2.496900 
# 
# From -- ./inp_files/1669.got.cif
#   From: 2010.05.17/outbox.cif.g08.bks.cpg/sg4_1_cif.got.tgz:1669.got - 2010.06.03 18:43:04.
