data_PCOD9117866
_publ_section_title
;
Structure prediction by ZEFSAII (Michael W. Deem and Ramdas Pophale) SiO2 
 PCOD9117866
Probable space group: P 21
;
_chemical_formula_sum "Si O2"
_cell_formula_units_Z 12
_cell_length_a 10.741686
_cell_length_b 5.189245
_cell_length_c 18.805892
_cell_angle_alpha 90.000000
_cell_angle_beta 155.585267
_cell_angle_gamma 90.000000
_cell_volume 433.287858
_symmetry_space_group_name_H-M "P 21"
_symmetry_group_IT_number 4
_symmetry_cell_setting 'monoclinic'
loop_
_space_group_symop_operation_xyz
x,y,z
-x,1/2+y,-z
loop_
_atom_site_type_symbol
_atom_site_label
_atom_site_fract_x
_atom_site_fract_y
_atom_site_fract_z
Si Si1 0.585439 0.330500 0.204056
Si Si2 0.959995 0.503352 0.628409
Si Si3 0.500270 0.622867 0.549881
Si Si4 0.501395 0.632923 0.287319
Si Si5 0.161038 0.612126 0.891169
Si Si6 0.111260 0.985428 0.981170
O O1 0.704886 0.488892 0.333478
O O2 0.247975 0.267458 0.054879
O O3 0.483537 0.488275 0.081445
O O4 0.768110 0.072687 0.283331
O O5 0.775184 0.236569 0.544968
O O6 0.711860 0.695261 0.463711
O O7 0.100987 0.573480 0.777445
O O8 0.422333 0.384521 0.456567
O O9 0.827518 0.529826 0.749281
O O10 0.311149 0.835505 0.142922
O O11 0.238079 0.466148 0.186330
O O12 0.179556 0.890550 0.936943
#
# Coordination Sequence:
#
# PCOD9117866 Si02
#       6
#     2   2   2   2   2   2
#     4  11  27  47  73 110 156 204 263 330 411 473
#     4  11  26  48  76 114 155 203 268 346 396 475
#     4  10  23  47  78 119 155 203 266 328 398 478
#     4  11  24  48  73 109 145 212 266 325 392 498
#     4  10  25  47  76 112 152 205 262 332 407 482
#     4  11  23  47  76 102 151 205 265 325 402 484
#
# _framework density 27.695214
#
# number of rings (size 3 to 8) (size 9 to 14) (size 15 to 20)
#    0.000    1.333    3.333    0.000    9.333    0.000 
#   18.000    0.000    0.000    0.000    0.000    0.000 
#    0.000    0.000    0.000    0.000    0.000    0.000 
#
# Total GULP energy -66870.197921 kJ/mol
# GULP energy per Si atom -5572.516493 kJ/mol
# Density = 2.763218 g / cm^3
# Si number density = 27.695214 Si / 1000 Ang^3
#
#
#
# Elastic Constant Matrix: (Units=GPa)
#
#
# Indices 1 2 3 4 5 6 
#
# 1 102.8248 30.5185 46.3633 0.0000 -8.0504 0.0000
# 2 30.5185 81.9840 27.5713 0.0000 -5.8566 0.0000
# 3 46.3633 27.5713 137.9858 0.0000 -18.5240 0.0000
# 4 0.0000 0.0000 0.0000 35.1405 0.0000 -1.8290
# 5 -8.0504 -5.8566 -18.5240 0.0000 60.2781 0.0000
# 6 0.0000 0.0000 0.0000 -1.8290 0.0000 36.0987
#
#
#
# Elastic Compliance Matrix: (Units=1/GPa)
#
#
# Indices 1 2 3 4 5 6 
#
# 1 0.012298 -0.003411 -0.003416 0.000000 0.000261 0.000000
# 2 -0.003411 0.014036 -0.001603 0.000000 0.000416 0.000000
# 3 -0.003416 -0.001603 0.009004 0.000000 0.002155 0.000000
# 4 0.000000 0.000000 0.000000 0.028532 0.000000 0.001446
# 5 0.000261 0.000416 0.002155 0.000000 0.017327 0.000000
# 6 0.000000 0.000000 0.000000 0.001446 0.000000 0.027775
#
#
# Mechanical properties :
#
#
# Convention : Reuss Voigt Hill
#
# Bulk Modulus (GPa) = 54.11161 59.07786 56.59474
# Shear Modulus (GPa) = 37.88132 40.85956 39.37044
#
# Velocity S-wave (km/s) = 3.70238 3.84517 3.77445
# Velocity P-wave (km/s) = 6.15285 6.41027 6.28287
#
# Compressibility (1/GPa) = 0.01848032
#
# Stress axis : x y z
#
# Youngs Moduli (GPa) = 81.31343 71.24641 111.05757
#
# Poissons Ratio (x) = 0.24299 0.37933
# Poissons Ratio (y) = 0.27733 0.17800
# Poissons Ratio (z) = 0.27773 0.11419
#
# Static dielectric constant tensor:
#      x y z
#    x 2.424860 0.000000 -0.086420 
#    y 0.000000 2.208120 0.000000 
#    z -0.086420 0.000000 2.207110 
# 
# From -- ./inp_files/15698.got.cif
#   From: 2010.05.17/outbox.cif.g08.bks.cpg/sg4_8_cif.got.tgz:15698.got - 2010.06.03 18:43:04.
