data_PCOD9117668
_publ_section_title
;
Structure prediction by ZEFSAII (Michael W. Deem and Ramdas Pophale) SiO2 
 PCOD9117668
Probable space group: P 21
;
_chemical_formula_sum "Si O2"
_cell_formula_units_Z 14
_cell_length_a 7.022066
_cell_length_b 9.392518
_cell_length_c 8.634338
_cell_angle_alpha 90.000000
_cell_angle_beta 65.853861
_cell_angle_gamma 90.000000
_cell_volume 519.650406
_symmetry_space_group_name_H-M "P 21"
_symmetry_group_IT_number 4
_symmetry_cell_setting 'monoclinic'
loop_
_space_group_symop_operation_xyz
x,y,z
-x,1/2+y,-z
loop_
_atom_site_type_symbol
_atom_site_label
_atom_site_fract_x
_atom_site_fract_y
_atom_site_fract_z
Si Si1 0.558981 0.093080 0.632377
Si Si2 0.287150 0.651181 0.952158
Si Si3 0.867869 0.514234 0.804863
Si Si4 0.142533 0.255831 0.748770
Si Si5 0.239206 0.027065 0.506959
Si Si6 0.462234 0.408260 0.070629
Si Si7 0.142363 0.754164 0.679456
O O1 0.364418 0.199017 0.740252
O O2 0.750026 0.185662 0.507328
O O3 0.464898 0.013071 0.512510
O O4 0.617349 0.979468 0.743573
O O5 0.338134 0.487578 0.974692
O O6 0.283742 0.712398 0.779328
O O7 0.479131 0.742504 0.960977
O O8 0.060740 0.687901 0.099624
O O9 0.777125 0.487426 0.664516
O O10 0.700906 0.467282 0.983514
O O11 0.076622 0.419945 0.757922
O O12 0.928812 0.677392 0.788490
O O13 0.160826 0.185490 0.571010
O O14 0.111318 0.918033 0.655940
#
# Coordination Sequence:
#
# PCOD9117668 Si02
#       7
#     2   2   2   2   2   2   2
#     4  10  24  42  66  97 134 173 215 282 317 403
#     4  11  24  46  67 100 132 185 217 281 330 403
#     4  11  24  41  68  96 130 176 220 277 331 404
#     4   9  23  42  66  91 137 166 225 270 338 379
#     4  10  23  44  64  97 131 170 225 270 330 397
#     4  11  25  44  67  98 137 173 231 271 335 392
#     4  12  25  41  72  95 137 175 225 267 343 388
#
# _framework density 26.941192000000001
#
# number of rings (size 3 to 8) (size 9 to 14) (size 15 to 20)
#    0.857    0.571    1.429    2.571    8.000    2.286 
#    0.000    0.000    0.000    0.000    0.000    0.000 
#    0.000    0.000    0.000    0.000    0.000    0.000 
#
# Total GULP energy -78293.331664 kJ/mol
# GULP energy per Si atom -5592.380833 kJ/mol
# Density = 2.687987 g / cm^3
# Si number density = 26.941192 Si / 1000 Ang^3
#
#
#
# Elastic Constant Matrix: (Units=GPa)
#
#
# Indices 1 2 3 4 5 6 
#
# 1 89.8236 -7.7119 23.6539 0.0000 4.9205 0.0000
# 2 -7.7119 39.5959 1.8000 0.0000 1.8358 0.0000
# 3 23.6539 1.8000 83.7332 0.0000 2.1159 0.0000
# 4 0.0000 0.0000 0.0000 33.9895 0.0000 -5.8790
# 5 4.9205 1.8358 2.1159 0.0000 58.9878 0.0000
# 6 0.0000 0.0000 0.0000 -5.8790 0.0000 46.2194
#
#
#
# Elastic Compliance Matrix: (Units=1/GPa)
#
#
# Indices 1 2 3 4 5 6 
#
# 1 0.012337 0.002608 -0.003516 0.000000 -0.000984 0.000000
# 2 0.002608 0.025866 -0.001268 0.000000 -0.000977 0.000000
# 3 -0.003516 -0.001268 0.012967 0.000000 -0.000132 0.000000
# 4 0.000000 0.000000 0.000000 0.030083 0.000000 0.003826
# 5 -0.000984 -0.000977 -0.000132 0.000000 0.017070 0.000000
# 6 0.000000 0.000000 0.000000 0.003826 0.000000 0.022123
#
#
# Mechanical properties :
#
#
# Convention : Reuss Voigt Hill
#
# Bulk Modulus (GPa) = 21.35972 27.62631 24.49301
# Shear Modulus (GPa) = 35.61187 40.86671 38.23929
#
# Velocity S-wave (km/s) = 3.63965 3.89895 3.77153
# Velocity P-wave (km/s) = 5.06046 5.52681 5.29877
#
# Compressibility (1/GPa) = 0.04681709
#
# Stress axis : x y z
#
# Youngs Moduli (GPa) = 81.05877 38.66072 77.12120
#
# Poissons Ratio (x) = -0.10084 0.27118
# Poissons Ratio (y) = -0.21142 0.09780
# Poissons Ratio (z) = 0.28502 0.04903
#
# Static dielectric constant tensor:
#      x y z
#    x 2.142030 0.000000 0.027000 
#    y 0.000000 2.103480 0.000000 
#    z 0.027000 0.000000 2.067170 
# 
# From -- ./inp_files/5773.got.cif
#   From: 2010.05.17/outbox.cif.g08.bks.cpg/sg4_3_cif.got.tgz:5773.got - 2010.06.03 18:43:04.
