data_PCOD9117281
_publ_section_title
;
Structure prediction by ZEFSAII (Michael W. Deem and Ramdas Pophale) SiO2 
 PCOD9117281
Probable space group: P 21
;
_chemical_formula_sum "Si O2"
_cell_formula_units_Z 14
_cell_length_a 7.822597
_cell_length_b 11.559469
_cell_length_c 12.041040
_cell_angle_alpha 90.000000
_cell_angle_beta 35.746254
_cell_angle_gamma 90.000000
_cell_volume 636.080188
_symmetry_space_group_name_H-M "P 21"
_symmetry_group_IT_number 4
_symmetry_cell_setting 'monoclinic'
loop_
_space_group_symop_operation_xyz
x,y,z
-x,1/2+y,-z
loop_
_atom_site_type_symbol
_atom_site_label
_atom_site_fract_x
_atom_site_fract_y
_atom_site_fract_z
Si Si1 0.713091 0.804420 0.471816
Si Si2 0.935132 0.375018 0.252954
Si Si3 0.892532 0.368267 0.924061
Si Si4 0.573994 0.068197 0.781456
Si Si5 0.896676 0.130258 0.833839
Si Si6 0.646512 0.804156 0.136945
Si Si7 0.971861 0.393001 0.498873
O O1 0.384648 0.842498 0.622779
O O2 0.796113 0.680739 0.376140
O O3 0.937150 0.886052 0.282721
O O4 0.818409 0.807791 0.542571
O O5 0.033652 0.502950 0.160623
O O6 0.948798 0.372190 0.378977
O O7 0.174727 0.293508 0.070911
O O8 0.783388 0.234418 0.971094
O O9 0.141457 0.362255 0.885916
O O10 0.651747 0.463520 0.078041
O O11 0.442089 0.174056 0.782336
O O12 0.679642 0.116864 0.844402
O O13 0.864381 0.014813 0.573592
O O14 0.350981 0.877099 0.282873
#
# Coordination Sequence:
#
# PCOD9117281 Si02
#       7
#     2   2   2   2   2   2   2
#     4  10  22  45  70 105 141 183 239 296 352 432
#     4  11  25  46  74 102 145 191 235 300 364 419
#     4  10  24  45  73 106 146 189 240 295 364 427
#     4  11  25  46  71 106 146 193 240 296 365 431
#     4   9  23  43  72 104 146 176 254 289 356 440
#     4  12  25  49  70 112 145 187 249 295 356 445
#     4  11  24  46  70 101 145 183 241 293 353 422
#
# _framework density 22.009803999999999
#
# number of rings (size 3 to 8) (size 9 to 14) (size 15 to 20)
#    0.857    0.571    2.857    0.857   12.000    1.143 
#    5.143    0.000    0.000    0.000    0.000    0.000 
#    0.000    0.000    0.000    0.000    0.000    0.000 
#
# Total GULP energy -78130.824630 kJ/mol
# GULP energy per Si atom -5580.773188 kJ/mol
# Density = 2.195971 g / cm^3
# Si number density = 22.009804 Si / 1000 Ang^3
#
#
#
# Elastic Constant Matrix: (Units=GPa)
#
#
# Indices 1 2 3 4 5 6 
#
# 1 105.8452 25.5544 41.0267 0.0000 -20.0387 0.0000
# 2 25.5544 77.8865 24.0143 0.0000 -20.4566 0.0000
# 3 41.0267 24.0143 88.6770 0.0000 -15.4909 0.0000
# 4 0.0000 0.0000 0.0000 42.9531 0.0000 -8.2145
# 5 -20.0387 -20.4566 -15.4909 0.0000 19.4546 0.0000
# 6 0.0000 0.0000 0.0000 -8.2145 0.0000 35.5786
#
#
#
# Elastic Compliance Matrix: (Units=1/GPa)
#
#
# Indices 1 2 3 4 5 6 
#
# 1 0.013003 -0.000455 -0.004224 0.000000 0.009551 0.000000
# 2 -0.000455 0.018003 -0.001672 0.000000 0.017130 0.000000
# 3 -0.004224 -0.001672 0.014655 0.000000 0.005560 0.000000
# 4 0.000000 0.000000 0.000000 0.024357 0.000000 0.005624
# 5 0.009551 0.017130 0.005560 0.000000 0.083679 0.000000
# 6 0.000000 0.000000 0.000000 0.005624 0.000000 0.029405
#
#
# Mechanical properties :
#
#
# Convention : Reuss Voigt Hill
#
# Bulk Modulus (GPa) = 30.34132 50.39995 40.37063
# Shear Modulus (GPa) = 24.17875 31.71813 27.94844
#
# Velocity S-wave (km/s) = 3.31803 3.80029 3.56732
# Velocity P-wave (km/s) = 5.33801 6.49652 5.94555
#
# Compressibility (1/GPa) = 0.03295835
#
# Stress axis : x y z
#
# Youngs Moduli (GPa) = 76.90352 55.54529 68.23433
#
# Poissons Ratio (x) = 0.02529 0.28824
# Poissons Ratio (y) = 0.03501 0.11411
# Poissons Ratio (z) = 0.32486 0.09289
#
# Static dielectric constant tensor:
#      x y z
#    x 1.822840 0.000000 0.039140 
#    y 0.000000 1.826070 0.000000 
#    z 0.039140 0.000000 1.819010 
# 
# From -- ./inp_files/13738.got.cif
#   From: 2010.05.17/outbox.cif.g08.bks.cpg/sg4_7_cif.got.tgz:13738.got - 2010.06.03 18:43:04.
