data_PCOD9117174
_publ_section_title
;
Structure prediction by ZEFSAII (Michael W. Deem and Ramdas Pophale) SiO2 
 PCOD9117174
Probable space group: P 21
;
_chemical_formula_sum "Si O2"
_cell_formula_units_Z 16
_cell_length_a 22.619096
_cell_length_b 4.943350
_cell_length_c 5.582876
_cell_angle_alpha 90.000000
_cell_angle_beta 66.407440
_cell_angle_gamma 90.000000
_cell_volume 572.066659
_symmetry_space_group_name_H-M "P 21"
_symmetry_group_IT_number 4
_symmetry_cell_setting 'monoclinic'
loop_
_space_group_symop_operation_xyz
x,y,z
-x,1/2+y,-z
loop_
_atom_site_type_symbol
_atom_site_label
_atom_site_fract_x
_atom_site_fract_y
_atom_site_fract_z
Si Si1 0.729995 0.000000 0.448737
Si Si2 0.965598 0.892152 0.966121
Si Si3 0.103645 0.111646 0.307338
Si Si4 0.607265 0.307022 0.680406
Si Si5 0.765497 0.497153 0.124258
Si Si6 0.141981 0.615303 0.540692
Si Si7 0.358984 0.106459 0.885189
Si Si8 0.518009 0.914406 0.330973
O O1 0.781743 0.135009 0.543318
O O2 0.654292 0.046853 0.610098
O O3 0.749300 0.692393 0.374343
O O4 0.745063 0.188346 0.193840
O O5 0.958328 0.710265 0.739968
O O6 0.995548 0.673743 0.102763
O O7 0.895609 0.993675 0.169341
O O8 0.106589 0.885170 0.508423
O O9 0.158863 0.003737 0.039570
O O10 0.130919 0.389353 0.362724
O O11 0.624276 0.460595 0.399383
O O12 0.529902 0.289012 0.789469
O O13 0.624295 0.454781 0.898100
O O14 0.718229 0.629256 0.003053
O O15 0.406134 0.365005 0.817262
O O16 0.498192 0.723582 0.589018
#
# Coordination Sequence:
#
# PCOD9117174 Si02
#       8
#     2   2   2   2   2   2   2   2
#     4  11  23  44  73 105 143 187 238 301 372 441
#     4  12  28  50  76 104 152 196 240 310 382 460
#     4  12  26  46  77 110 142 191 248 306 367 451
#     4  10  23  43  67 103 142 193 248 307 377 449
#     4  11  23  44  73 105 143 187 238 301 372 441
#     4  12  26  46  77 110 142 191 248 306 367 451
#     4  10  23  43  67 103 142 193 248 307 377 449
#     4  10  22  44  68  98 142 192 246 310 374 450
#
# _framework density 27.968769999999999
#
# number of rings (size 3 to 8) (size 9 to 14) (size 15 to 20)
#    0.000    1.000    1.250    4.500    1.750    8.000 
#    0.000   11.250    0.000    0.000    0.000    0.000 
#    0.000    0.000    0.000    0.000    0.000    0.000 
#
# Total GULP energy -89573.925855 kJ/mol
# GULP energy per Si atom -5598.370366 kJ/mol
# Density = 2.790511 g / cm^3
# Si number density = 27.968770 Si / 1000 Ang^3
#
#
#
# Elastic Constant Matrix: (Units=GPa)
#
#
# Indices 1 2 3 4 5 6 
#
# 1 151.6170 41.1766 17.3449 0.0000 26.4338 0.0000
# 2 41.1766 142.8749 36.7181 0.0000 7.6533 0.0000
# 3 17.3449 36.7181 98.6987 0.0000 8.6423 0.0000
# 4 0.0000 0.0000 0.0000 38.6565 0.0000 4.1074
# 5 26.4338 7.6533 8.6423 0.0000 34.8087 0.0000
# 6 0.0000 0.0000 0.0000 4.1074 0.0000 54.7023
#
#
#
# Elastic Compliance Matrix: (Units=1/GPa)
#
#
# Indices 1 2 3 4 5 6 
#
# 1 0.008154 -0.001995 -0.000191 0.000000 -0.005706 0.000000
# 2 -0.001995 0.008262 -0.002757 0.000000 0.000383 0.000000
# 3 -0.000191 -0.002757 0.011372 0.000000 -0.002072 0.000000
# 4 0.000000 0.000000 0.000000 0.026077 0.000000 -0.001958
# 5 -0.005706 0.000383 -0.002072 0.000000 0.033492 0.000000
# 6 0.000000 0.000000 0.000000 -0.001958 0.000000 0.018428
#
#
# Mechanical properties :
#
#
# Convention : Reuss Voigt Hill
#
# Bulk Modulus (GPa) = 55.85711 64.85219 60.35465
# Shear Modulus (GPa) = 41.10532 45.49690 43.30111
#
# Velocity S-wave (km/s) = 3.83781 4.03762 3.93898
# Velocity P-wave (km/s) = 6.29706 6.70628 6.50489
#
# Compressibility (1/GPa) = 0.01790282
#
# Stress axis : x y z
#
# Youngs Moduli (GPa) = 122.63689 121.03498 87.93226
#
# Poissons Ratio (x) = 0.24150 0.01680
# Poissons Ratio (y) = 0.24469 0.24239
# Poissons Ratio (z) = 0.02343 0.33364
#
# Static dielectric constant tensor:
#      x y z
#    x 2.315400 0.000000 -0.024700 
#    y 0.000000 2.073860 0.000000 
#    z -0.024700 0.000000 2.286780 
# 
# From -- ./inp_files/4378.got.cif
#   From: 2010.05.17/outbox.cif.g08.bks.cpg/sg4_3_cif.got.tgz:4378.got - 2010.06.03 18:43:04.
