data_PCOD9117310
_publ_section_title
;
Structure prediction by ZEFSAII (Michael W. Deem and Ramdas Pophale) SiO2 
 PCOD9117310
Probable space group: P 21
;
_chemical_formula_sum "Si O2"
_cell_formula_units_Z 14
_cell_length_a 12.844419
_cell_length_b 4.858352
_cell_length_c 18.233238
_cell_angle_alpha 90.000000
_cell_angle_beta 30.883806
_cell_angle_gamma 90.000000
_cell_volume 584.033037
_symmetry_space_group_name_H-M "P 21"
_symmetry_group_IT_number 4
_symmetry_cell_setting 'monoclinic'
loop_
_space_group_symop_operation_xyz
x,y,z
-x,1/2+y,-z
loop_
_atom_site_type_symbol
_atom_site_label
_atom_site_fract_x
_atom_site_fract_y
_atom_site_fract_z
Si Si1 0.054055 0.400370 0.154822
Si Si2 0.879306 0.105020 0.048726
Si Si3 0.172856 0.950573 0.470347
Si Si4 0.236809 0.392170 0.646954
Si Si5 0.109761 0.953412 0.349085
Si Si6 0.493154 0.558546 0.625200
Si Si7 0.379398 0.120011 0.061553
O O1 0.244150 0.271504 0.082567
O O2 0.954449 0.685867 0.241187
O O3 0.119047 0.461937 0.031766
O O4 0.866977 0.190131 0.282338
O O5 0.667352 0.161382 0.217147
O O6 0.999940 0.389958 0.972935
O O7 0.233914 0.908413 0.348882
O O8 0.341804 0.893864 0.427627
O O9 0.084427 0.255890 0.532583
O O10 0.980373 0.757856 0.597721
O O11 0.374098 0.376341 0.637403
O O12 0.386955 0.296577 0.491394
O O13 0.243233 0.933866 0.197460
O O14 0.469430 0.375970 0.054573
#
# Coordination Sequence:
#
# PCOD9117310 Si02
#       7
#     2   2   2   2   2   2   2
#     4  12  25  50  70 104 152 195 229 309 378 422
#     4  12  26  48  71 106 151 194 236 299 369 443
#     4  10  23  42  73  95 138 179 233 298 349 415
#     4  12  26  44  73 105 150 187 247 300 364 432
#     4  10  22  46  65 103 136 181 229 296 361 404
#     4  12  26  45  74 110 138 191 251 297 352 449
#     4  12  26  43  72 103 137 185 241 287 349 445
#
# _framework density 23.971246000000001
#
# number of rings (size 3 to 8) (size 9 to 14) (size 15 to 20)
#    0.000    0.571    2.857    4.286    2.000    4.571 
#    0.000    0.000    0.000    0.000    0.000    0.000 
#    0.000    0.000    0.000    0.000    0.000    0.000 
#
# Total GULP energy -78310.120817 kJ/mol
# GULP energy per Si atom -5593.580058 kJ/mol
# Density = 2.391669 g / cm^3
# Si number density = 23.971246 Si / 1000 Ang^3
#
#
#
# Elastic Constant Matrix: (Units=GPa)
#
#
# Indices 1 2 3 4 5 6 
#
# 1 99.1411 13.8227 35.0920 0.0000 -11.0926 0.0000
# 2 13.8227 54.0894 14.9800 0.0000 6.9351 0.0000
# 3 35.0920 14.9800 114.7082 0.0000 30.9164 0.0000
# 4 0.0000 0.0000 0.0000 4.3794 0.0000 5.6072
# 5 -11.0926 6.9351 30.9164 0.0000 34.7572 0.0000
# 6 0.0000 0.0000 0.0000 5.6072 0.0000 23.8544
#
#
#
# Elastic Compliance Matrix: (Units=1/GPa)
#
#
# Indices 1 2 3 4 5 6 
#
# 1 0.014312 -0.003175 -0.007057 0.000000 0.011478 0.000000
# 2 -0.003175 0.020003 -0.000384 0.000000 -0.004662 0.000000
# 3 -0.007057 -0.000384 0.015144 0.000000 -0.015646 0.000000
# 4 0.000000 0.000000 0.000000 0.326651 0.000000 -0.076782
# 5 0.011478 -0.004662 -0.015646 0.000000 0.047282 0.000000
# 6 0.000000 0.000000 0.000000 -0.076782 0.000000 0.059969
#
#
# Mechanical properties :
#
#
# Convention : Reuss Voigt Hill
#
# Bulk Modulus (GPa) = 35.42810 43.96980 39.69895
# Shear Modulus (GPa) = 9.72757 26.20111 17.96434
#
# Velocity S-wave (km/s) = 2.01664 3.30968 2.74051
# Velocity P-wave (km/s) = 4.49821 5.74350 5.15857
#
# Compressibility (1/GPa) = 0.02822618
#
# Stress axis : x y z
#
# Youngs Moduli (GPa) = 69.87351 49.99134 66.03285
#
# Poissons Ratio (x) = 0.15870 0.46602
# Poissons Ratio (y) = 0.22182 0.02539
# Poissons Ratio (z) = 0.49312 0.01922
#
# Static dielectric constant tensor:
#      x y z
#    x 1.932060 0.000000 0.021290 
#    y 0.000000 1.886270 0.000000 
#    z 0.021290 0.000000 2.000700 
# 
# From -- ./inp_files/15019.got.cif
#   From: 2010.05.17/outbox.cif.g08.bks.cpg/sg4_8_cif.got.tgz:15019.got - 2010.06.03 18:43:04.
