data_PCOD9117294
_publ_section_title
;
Structure prediction by ZEFSAII (Michael W. Deem and Ramdas Pophale) SiO2 
 PCOD9117294
Probable space group: P 21
;
_chemical_formula_sum "Si O2"
_cell_formula_units_Z 16
_cell_length_a 9.379880
_cell_length_b 9.502937
_cell_length_c 11.598995
_cell_angle_alpha 90.000000
_cell_angle_beta 38.838893
_cell_angle_gamma 90.000000
_cell_volume 648.387947
_symmetry_space_group_name_H-M "P 21"
_symmetry_group_IT_number 4
_symmetry_cell_setting 'monoclinic'
loop_
_space_group_symop_operation_xyz
x,y,z
-x,1/2+y,-z
loop_
_atom_site_type_symbol
_atom_site_label
_atom_site_fract_x
_atom_site_fract_y
_atom_site_fract_z
Si Si1 0.438824 0.262730 0.093480
Si Si2 0.619690 0.093636 0.296289
Si Si3 0.767156 0.401910 0.180823
Si Si4 0.060079 0.461151 0.431141
Si Si5 0.893732 0.558093 0.305139
Si Si6 0.271577 0.518579 0.517282
Si Si7 0.061309 0.835899 0.143071
Si Si8 0.464386 0.946225 0.175093
O O1 0.238539 0.333959 0.296261
O O2 0.449276 0.095412 0.113019
O O3 0.682512 0.328542 0.974551
O O4 0.425998 0.321209 0.970172
O O5 0.694169 0.243240 0.202963
O O6 0.351841 0.095881 0.492973
O O7 0.723797 0.088601 0.360095
O O8 0.613528 0.979304 0.196220
O O9 0.870431 0.420874 0.241671
O O10 0.534165 0.489004 0.325257
O O11 0.935457 0.435501 0.970599
O O12 0.153655 0.563421 0.473078
O O13 0.054152 0.541321 0.312894
O O14 0.799057 0.417102 0.622472
O O15 0.972920 0.680744 0.171343
O O16 0.111556 0.385518 0.649583
#
# Coordination Sequence:
#
# PCOD9117294 Si02
#       8
#     2   2   2   2   2   2   2   2
#     4  12  25  44  74 107 146 197 243 302 369 441
#     4  10  22  45  71  98 145 184 234 297 359 426
#     4  11  23  45  68  98 136 183 233 290 357 425
#     4  11  24  43  69 103 142 186 243 295 356 435
#     4  10  25  44  71 102 136 189 235 296 361 427
#     4  11  23  43  67  99 135 184 230 289 356 422
#     4  12  23  42  72  96 140 186 231 290 359 425
#     4  11  25  46  74 107 150 193 245 307 367 439
#
# _framework density 24.676583999999998
#
# number of rings (size 3 to 8) (size 9 to 14) (size 15 to 20)
#    0.000    1.000    5.000    0.750    3.500    2.000 
#    0.000    3.750    2.750    0.000    0.000    0.000 
#    0.000    0.000    0.000    0.000    0.000    0.000 
#
# Total GULP energy -89323.977328 kJ/mol
# GULP energy per Si atom -5582.748583 kJ/mol
# Density = 2.462042 g / cm^3
# Si number density = 24.676584 Si / 1000 Ang^3
#
#
#
# Elastic Constant Matrix: (Units=GPa)
#
#
# Indices 1 2 3 4 5 6 
#
# 1 132.9360 7.0310 14.7098 0.0000 15.5333 0.0000
# 2 7.0310 39.8855 26.2732 0.0000 5.3633 0.0000
# 3 14.7098 26.2732 127.3558 0.0000 14.3808 0.0000
# 4 0.0000 0.0000 0.0000 26.7870 0.0000 3.7711
# 5 15.5333 5.3633 14.3808 0.0000 36.0710 0.0000
# 6 0.0000 0.0000 0.0000 3.7711 0.0000 23.5548
#
#
#
# Elastic Compliance Matrix: (Units=1/GPa)
#
#
# Indices 1 2 3 4 5 6 
#
# 1 0.007976 -0.000705 -0.000419 0.000000 -0.003163 0.000000
# 2 -0.000705 0.029218 -0.005749 0.000000 -0.001749 0.000000
# 3 -0.000419 -0.005749 0.009392 0.000000 -0.002709 0.000000
# 4 0.000000 0.000000 0.000000 0.038192 0.000000 -0.006114
# 5 -0.003163 -0.001749 -0.002709 0.000000 0.030425 0.000000
# 6 0.000000 0.000000 0.000000 -0.006114 0.000000 0.043433
#
#
# Mechanical properties :
#
#
# Convention : Reuss Voigt Hill
#
# Bulk Modulus (GPa) = 30.44941 44.02282 37.23611
# Shear Modulus (GPa) = 27.27351 34.09345 30.68348
#
# Velocity S-wave (km/s) = 3.32812 3.72104 3.53005
# Velocity P-wave (km/s) = 5.20910 6.02828 5.63360
#
# Compressibility (1/GPa) = 0.03284136
#
# Stress axis : x y z
#
# Youngs Moduli (GPa) = 125.38260 34.22558 106.47060
#
# Poissons Ratio (x) = 0.02412 0.04457
# Poissons Ratio (y) = 0.08838 0.61207
# Poissons Ratio (z) = 0.05249 0.19675
#
# Static dielectric constant tensor:
#      x y z
#    x 2.017530 0.000000 0.037800 
#    y 0.000000 1.953330 0.000000 
#    z 0.037800 0.000000 1.980710 
# 
# From -- ./inp_files/11338.got.cif
#   From: 2010.05.17/outbox.cif.g08.bks.cpg/sg4_6_cif.got.tgz:11338.got - 2010.06.03 18:43:04.
