data_PCOD9117602
_publ_section_title
;
Structure prediction by ZEFSAII (Michael W. Deem and Ramdas Pophale) SiO2 
 PCOD9117602
Probable space group: P 21
;
_chemical_formula_sum "Si O2"
_cell_formula_units_Z 16
_cell_length_a 8.922453
_cell_length_b 7.825836
_cell_length_c 16.355499
_cell_angle_alpha 90.000000
_cell_angle_beta 146.547861
_cell_angle_gamma 90.000000
_cell_volume 629.534751
_symmetry_space_group_name_H-M "P 21"
_symmetry_group_IT_number 4
_symmetry_cell_setting 'monoclinic'
loop_
_space_group_symop_operation_xyz
x,y,z
-x,1/2+y,-z
loop_
_atom_site_type_symbol
_atom_site_label
_atom_site_fract_x
_atom_site_fract_y
_atom_site_fract_z
Si Si1 0.460928 0.449700 0.565576
Si Si2 0.949386 0.592125 0.254843
Si Si3 0.569659 0.218028 0.896411
Si Si4 0.696413 0.253407 0.197159
Si Si5 0.557986 0.435779 0.295275
Si Si6 0.860317 0.651239 0.857481
Si Si7 0.786860 0.568798 0.558962
Si Si8 0.150978 0.083803 0.963080
O O1 0.642575 0.516373 0.723624
O O2 0.644173 0.473487 0.568466
O O3 0.344325 0.258295 0.513671
O O4 0.201970 0.573898 0.431190
O O5 0.706404 0.709295 0.177253
O O6 0.801562 0.407030 0.189882
O O7 0.045601 0.602818 0.204426
O O8 0.685040 0.408814 0.944375
O O9 0.498451 0.108328 0.782457
O O10 0.852201 0.131531 0.058124
O O11 0.698849 0.313364 0.292884
O O12 0.900170 0.099443 0.279376
O O13 0.387271 0.211889 0.042157
O O14 0.293851 0.335424 0.211710
O O15 0.748719 0.472203 0.457513
O O16 0.940988 0.635687 0.989160
#
# Coordination Sequence:
#
# PCOD9117602 Si02
#       8
#     2   2   2   2   2   2   2   2
#     4  11  26  44  68 103 140 180 223 285 338 409
#     4  10  24  45  68  98 138 174 227 278 342 405
#     4  11  24  41  71  98 136 177 230 277 343 399
#     4   9  23  43  66 102 136 177 225 286 340 406
#     4  10  23  43  67 102 136 182 222 290 334 411
#     4  11  25  44  69 100 140 175 229 278 342 403
#     4  11  24  43  72  99 144 178 232 276 351 403
#     4  11  23  41  71  98 134 179 224 280 342 402
#
# _framework density 25.415593999999999
#
# number of rings (size 3 to 8) (size 9 to 14) (size 15 to 20)
#    0.000    1.500    0.000    3.000    8.750    9.000 
#    4.500    0.000    0.000    0.000    0.000    0.000 
#    0.000    0.000    0.000    0.000    0.000    0.000 
#
# Total GULP energy -89481.825174 kJ/mol
# GULP energy per Si atom -5592.614073 kJ/mol
# Density = 2.535775 g / cm^3
# Si number density = 25.415594 Si / 1000 Ang^3
#
#
#
# Elastic Constant Matrix: (Units=GPa)
#
#
# Indices 1 2 3 4 5 6 
#
# 1 46.1949 -21.4169 21.6443 0.0000 13.0834 0.0000
# 2 -21.4169 47.6451 -7.5786 0.0000 0.0722 0.0000
# 3 21.6443 -7.5786 43.4939 0.0000 -14.5690 0.0000
# 4 0.0000 0.0000 0.0000 26.5000 0.0000 2.7181
# 5 13.0834 0.0722 -14.5690 0.0000 29.0899 0.0000
# 6 0.0000 0.0000 0.0000 2.7181 0.0000 35.6224
#
#
#
# Elastic Compliance Matrix: (Units=1/GPa)
#
#
# Indices 1 2 3 4 5 6 
#
# 1 0.076443 0.025840 -0.054163 0.000000 -0.061572 0.000000
# 2 0.025840 0.030439 -0.013786 0.000000 -0.018602 0.000000
# 3 -0.054163 -0.013786 0.066945 0.000000 0.057923 0.000000
# 4 0.000000 0.000000 0.000000 0.038034 0.000000 -0.002902
# 5 -0.061572 -0.018602 0.057923 0.000000 0.091124 0.000000
# 6 0.000000 0.000000 0.000000 -0.002902 0.000000 0.028294
#
#
# Mechanical properties :
#
#
# Convention : Reuss Voigt Hill
#
# Bulk Modulus (GPa) = 11.15955 13.62573 12.39264
# Shear Modulus (GPa) = 11.22668 27.88812 19.55740
#
# Velocity S-wave (km/s) = 2.10400 3.31612 2.77700
# Velocity P-wave (km/s) = 3.20980 4.47605 3.89473
#
# Compressibility (1/GPa) = 0.08960931
#
# Stress axis : x y z
#
# Youngs Moduli (GPa) = 13.08157 32.85250 14.93753
#
# Poissons Ratio (x) = -0.84890 0.80906
# Poissons Ratio (y) = -0.33803 0.20593
# Poissons Ratio (z) = 0.70854 0.45290
#
# Static dielectric constant tensor:
#      x y z
#    x 2.006030 0.000000 0.019810 
#    y 0.000000 2.066150 0.000000 
#    z 0.019810 0.000000 1.994950 
# 
# From -- ./inp_files/5514.got.cif
#   From: 2010.05.17/outbox.cif.g08.bks.cpg/sg4_3_cif.got.tgz:5514.got - 2010.06.03 18:43:04.
