data_PCOD9117722
_publ_section_title
;
Structure prediction by ZEFSAII (Michael W. Deem and Ramdas Pophale) SiO2 
 PCOD9117722
Probable space group: P 21
;
_chemical_formula_sum "Si O2"
_cell_formula_units_Z 14
_cell_length_a 5.006661
_cell_length_b 21.193077
_cell_length_c 5.157157
_cell_angle_alpha 90.000000
_cell_angle_beta 88.756448
_cell_angle_gamma 90.000000
_cell_volume 547.079267
_symmetry_space_group_name_H-M "P 21"
_symmetry_group_IT_number 4
_symmetry_cell_setting 'monoclinic'
loop_
_space_group_symop_operation_xyz
x,y,z
-x,1/2+y,-z
loop_
_atom_site_type_symbol
_atom_site_label
_atom_site_fract_x
_atom_site_fract_y
_atom_site_fract_z
Si Si1 0.149575 0.575690 0.943687
Si Si2 0.631277 0.645276 0.087127
Si Si3 0.828601 0.772940 0.868411
Si Si4 0.006843 0.880510 0.212452
Si Si5 0.449468 0.546750 0.433542
Si Si6 0.151555 0.938549 0.709144
Si Si7 0.350591 0.810673 0.573000
O O1 0.337678 0.638255 0.970404
O O2 0.273729 0.544015 0.690960
O O3 0.842733 0.595724 0.955345
O O4 0.243038 0.538304 0.198284
O O5 0.753934 0.712940 0.041933
O O6 0.580297 0.615949 0.373971
O O7 0.818102 0.834575 0.053301
O O8 0.115970 0.773184 0.724796
O O9 0.623922 0.777496 0.632413
O O10 0.945699 0.912110 0.493260
O O11 0.244207 0.831260 0.292207
O O12 0.070404 0.936955 0.011316
O O13 0.685627 0.497166 0.401739
O O14 0.357608 0.879532 0.704613
#
# Coordination Sequence:
#
# PCOD9117722 Si02
#       7
#     2   2   2   2   2   2   2
#     4  10  24  43  66 102 133 178 233 279 354 413
#     4  10  25  42  71 100 139 185 237 284 354 419
#     4  11  21  47  64 102 137 186 229 296 343 428
#     4   9  21  41  69  98 137 173 235 279 356 404
#     4  10  23  44  72 101 141 184 232 292 349 418
#     4   9  19  45  66 103 134 183 229 292 346 427
#     4   9  23  38  70  96 135 175 231 280 358 403
#
# _framework density 25.590437999999999
#
# number of rings (size 3 to 8) (size 9 to 14) (size 15 to 20)
#    1.714    0.571    0.000    1.714    2.000    3.429 
#    7.714    1.429    0.000    0.000    0.000    0.000 
#    0.000    0.000    0.000    0.000    0.000    0.000 
#
# Total GULP energy -78110.699348 kJ/mol
# GULP energy per Si atom -5579.335668 kJ/mol
# Density = 2.553219 g / cm^3
# Si number density = 25.590438 Si / 1000 Ang^3
#
#
#
# Elastic Constant Matrix: (Units=GPa)
#
#
# Indices 1 2 3 4 5 6 
#
# 1 107.5735 0.9231 25.6819 0.0000 0.7326 0.0000
# 2 0.9231 36.1794 -1.7336 0.0000 8.9003 0.0000
# 3 25.6819 -1.7336 159.4215 0.0000 4.3508 0.0000
# 4 0.0000 0.0000 0.0000 13.7101 0.0000 3.5174
# 5 0.7326 8.9003 4.3508 0.0000 32.3304 0.0000
# 6 0.0000 0.0000 0.0000 3.5174 0.0000 29.9142
#
#
#
# Elastic Compliance Matrix: (Units=1/GPa)
#
#
# Indices 1 2 3 4 5 6 
#
# 1 0.009672 -0.000343 -0.001564 0.000000 0.000086 0.000000
# 2 -0.000343 0.029708 0.000603 0.000000 -0.008252 0.000000
# 3 -0.001564 0.000603 0.006559 0.000000 -0.001013 0.000000
# 4 0.000000 0.000000 0.000000 0.075208 0.000000 -0.008843
# 5 0.000086 -0.008252 -0.001013 0.000000 0.033337 0.000000
# 6 0.000000 0.000000 0.000000 -0.008843 0.000000 0.034469
#
#
# Mechanical properties :
#
#
# Convention : Reuss Voigt Hill
#
# Bulk Modulus (GPa) = 23.07794 39.21302 31.14548
# Shear Modulus (GPa) = 24.27160 33.74447 29.00804
#
# Velocity S-wave (km/s) = 3.08305 3.63524 3.37048
# Velocity P-wave (km/s) = 4.65955 5.74252 5.22915
#
# Compressibility (1/GPa) = 0.04333143
#
# Stress axis : x y z
#
# Youngs Moduli (GPa) = 103.39395 33.66128 152.46528
#
# Poissons Ratio (x) = 0.01154 0.23848
# Poissons Ratio (y) = 0.03544 -0.09201
# Poissons Ratio (z) = 0.16172 -0.02031
#
# Static dielectric constant tensor:
#      x y z
#    x 2.007220 0.000000 -0.011790 
#    y 0.000000 2.073430 0.000000 
#    z -0.011790 0.000000 2.030790 
# 
# From -- ./inp_files/748.got.cif
#   From: 2010.05.17/outbox.cif.g08.bks.cpg/sg4_1_cif.got.tgz:748.got - 2010.06.03 18:43:04.
