data_PCOD9117126
_publ_section_title
;
Structure prediction by ZEFSAII (Michael W. Deem and Ramdas Pophale) SiO2 
 PCOD9117126
Probable space group: P 21
;
_chemical_formula_sum "Si O2"
_cell_formula_units_Z 16
_cell_length_a 11.646217
_cell_length_b 7.974369
_cell_length_c 9.823715
_cell_angle_alpha 90.000000
_cell_angle_beta 135.499300
_cell_angle_gamma 90.000000
_cell_volume 639.475868
_symmetry_space_group_name_H-M "P 21"
_symmetry_group_IT_number 4
_symmetry_cell_setting 'monoclinic'
loop_
_space_group_symop_operation_xyz
x,y,z
-x,1/2+y,-z
loop_
_atom_site_type_symbol
_atom_site_label
_atom_site_fract_x
_atom_site_fract_y
_atom_site_fract_z
Si Si1 0.391104 0.626090 0.712200
Si Si2 0.711982 0.456220 0.033783
Si Si3 0.538886 0.360907 0.467866
Si Si4 0.181248 0.292656 0.498748
Si Si5 0.486754 0.679342 0.275836
Si Si6 0.105750 0.866660 0.560460
Si Si7 0.980405 0.987817 0.874382
Si Si8 0.912631 0.372617 0.760329
O O1 0.557585 0.575405 0.926626
O O2 0.451928 0.695831 0.618197
O O3 0.276098 0.464527 0.613503
O O4 0.273293 0.766196 0.672646
O O5 0.635473 0.272194 0.931591
O O6 0.835034 0.476091 0.262676
O O7 0.828478 0.496492 0.005212
O O8 0.437161 0.503535 0.302353
O O9 0.489499 0.307519 0.576803
O O10 0.725953 0.425334 0.631433
O O11 0.330397 0.161990 0.629572
O O12 0.039624 0.264880 0.488629
O O13 0.099330 0.337673 0.283027
O O14 0.045233 0.919079 0.359349
O O15 0.911675 0.170133 0.777175
O O16 0.971898 0.948627 0.026599
#
# Coordination Sequence:
#
# PCOD9117126 Si02
#       8
#     2   2   2   2   2   2   2   2
#     4  10  22  46  70  96 145 182 240 290 360 419
#     4  10  23  45  72 102 142 188 235 297 357 431
#     4  11  23  41  70 105 143 188 240 301 357 422
#     4  10  22  43  73  98 144 189 228 299 357 430
#     4  11  23  41  73 104 143 186 244 294 368 421
#     4  10  23  44  69 103 143 181 234 288 367 424
#     4  11  23  45  69 101 141 181 238 293 354 424
#     4  11  25  45  70 105 137 187 233 300 350 425
#
# _framework density 25.020492000000001
#
# number of rings (size 3 to 8) (size 9 to 14) (size 15 to 20)
#    0.000    1.500    3.750    1.500    1.750    4.000 
#    6.750    0.000    0.000    0.000    0.000    0.000 
#    0.000    0.000    0.000    0.000    0.000    0.000 
#
# Total GULP energy -89443.174601 kJ/mol
# GULP energy per Si atom -5590.198413 kJ/mol
# Density = 2.496354 g / cm^3
# Si number density = 25.020492 Si / 1000 Ang^3
#
#
#
# Elastic Constant Matrix: (Units=GPa)
#
#
# Indices 1 2 3 4 5 6 
#
# 1 94.3790 8.4147 62.5013 0.0000 -9.7147 0.0000
# 2 8.4147 64.5690 27.6957 0.0000 -2.7038 0.0000
# 3 62.5013 27.6957 140.3874 0.0000 -24.2711 0.0000
# 4 0.0000 0.0000 0.0000 39.1541 0.0000 4.3798
# 5 -9.7147 -2.7038 -24.2711 0.0000 50.1321 0.0000
# 6 0.0000 0.0000 0.0000 4.3798 0.0000 20.5288
#
#
#
# Elastic Compliance Matrix: (Units=1/GPa)
#
#
# Indices 1 2 3 4 5 6 
#
# 1 0.015092 0.001014 -0.006989 0.000000 -0.000404 0.000000
# 2 0.001014 0.017014 -0.003946 0.000000 -0.000796 0.000000
# 3 -0.006989 -0.003946 0.011723 0.000000 0.004109 0.000000
# 4 0.000000 0.000000 0.000000 0.026165 0.000000 -0.005582
# 5 -0.000404 -0.000796 0.004109 0.000000 0.021815 0.000000
# 6 0.000000 0.000000 0.000000 -0.005582 0.000000 0.049903
#
#
# Mechanical properties :
#
#
# Convention : Reuss Voigt Hill
#
# Bulk Modulus (GPa) = 41.68687 55.17321 48.43004
# Shear Modulus (GPa) = 29.48991 35.34459 32.41725
#
# Velocity S-wave (km/s) = 3.43684 3.76257 3.60339
# Velocity P-wave (km/s) = 5.69618 6.40117 6.05894
#
# Compressibility (1/GPa) = 0.02398837
#
# Stress axis : x y z
#
# Youngs Moduli (GPa) = 66.26069 58.77425 85.29920
#
# Poissons Ratio (x) = -0.05960 0.59616
# Poissons Ratio (y) = -0.06719 0.33657
# Poissons Ratio (z) = 0.46310 0.23191
#
# Static dielectric constant tensor:
#      x y z
#    x 1.987720 0.000000 -0.069940 
#    y 0.000000 2.092250 0.000000 
#    z -0.069940 0.000000 1.986180 
# 
# From -- ./inp_files/8062.got.cif
#   From: 2010.05.17/outbox.cif.g08.bks.cpg/sg4_5_cif.got.tgz:8062.got - 2010.06.03 18:43:04.
