data_PCOD9117650
_publ_section_title
;
Structure prediction by ZEFSAII (Michael W. Deem and Ramdas Pophale) SiO2 
 PCOD9117650
Probable space group: P 21
;
_chemical_formula_sum "Si O2"
_cell_formula_units_Z 12
_cell_length_a 16.028268
_cell_length_b 4.691457
_cell_length_c 20.827839
_cell_angle_alpha 90.000000
_cell_angle_beta 16.936608
_cell_angle_gamma 90.000000
_cell_volume 456.246048
_symmetry_space_group_name_H-M "P 21"
_symmetry_group_IT_number 4
_symmetry_cell_setting 'monoclinic'
loop_
_space_group_symop_operation_xyz
x,y,z
-x,1/2+y,-z
loop_
_atom_site_type_symbol
_atom_site_label
_atom_site_fract_x
_atom_site_fract_y
_atom_site_fract_z
Si Si1 0.312248 0.622530 0.123491
Si Si2 0.602328 0.470402 0.592840
Si Si3 0.980184 0.996834 0.281265
Si Si4 0.105216 0.341092 0.462988
Si Si5 0.085103 0.284752 0.900853
Si Si6 0.303157 0.094816 0.917854
O O1 0.048361 0.685724 0.364887
O O2 0.234273 0.787892 0.116085
O O3 0.432081 0.308143 0.032797
O O4 0.882256 0.274319 0.391798
O O5 0.425759 0.363370 0.786121
O O6 0.707245 0.786053 0.496558
O O7 0.412793 0.371653 0.670544
O O8 0.081504 0.131056 0.139414
O O9 0.913164 0.607137 0.580028
O O10 0.411708 0.451186 0.261585
O O11 0.888574 0.396991 0.988328
O O12 0.939417 0.450449 0.068754
#
# Coordination Sequence:
#
# PCOD9117650 Si02
#       6
#     2   2   2   2   2   2
#     4  12  25  46  68 101 143 183 246 307 359 443
#     4  11  25  46  71 108 148 190 251 307 371 450
#     4  12  26  44  74 106 146 198 245 307 382 447
#     4  12  27  45  72 104 141 192 245 299 375 450
#     4  10  23  43  73 104 143 195 244 305 378 445
#     4  11  26  48  74 107 151 196 247 313 381 451
#
# _framework density 26.301597999999998
#
# number of rings (size 3 to 8) (size 9 to 14) (size 15 to 20)
#    0.000    0.667    1.667    6.000    2.333    8.000 
#    0.000    0.000    0.000    0.000    0.000    0.000 
#    0.000    0.000    0.000    0.000    0.000    0.000 
#
# Total GULP energy -67031.125607 kJ/mol
# GULP energy per Si atom -5585.927134 kJ/mol
# Density = 2.624173 g / cm^3
# Si number density = 26.301598 Si / 1000 Ang^3
#
#
#
# Elastic Constant Matrix: (Units=GPa)
#
#
# Indices 1 2 3 4 5 6 
#
# 1 112.3356 18.7050 55.3280 0.0000 6.6419 0.0000
# 2 18.7050 132.2323 25.7440 0.0000 8.9906 0.0000
# 3 55.3280 25.7440 112.6789 0.0000 2.4022 0.0000
# 4 0.0000 0.0000 0.0000 34.3463 0.0000 -11.0734
# 5 6.6419 8.9906 2.4022 0.0000 71.3734 0.0000
# 6 0.0000 0.0000 0.0000 -11.0734 0.0000 37.0300
#
#
#
# Elastic Compliance Matrix: (Units=1/GPa)
#
#
# Indices 1 2 3 4 5 6 
#
# 1 0.011832 -0.000511 -0.005675 0.000000 -0.000846 0.000000
# 2 -0.000511 0.008000 -0.001557 0.000000 -0.000908 0.000000
# 3 -0.005675 -0.001557 0.012010 0.000000 0.000320 0.000000
# 4 0.000000 0.000000 0.000000 0.032222 0.000000 0.009636
# 5 -0.000846 -0.000908 0.000320 0.000000 0.014193 0.000000
# 6 0.000000 0.000000 0.000000 0.009636 0.000000 0.029887
#
#
# Mechanical properties :
#
#
# Convention : Reuss Voigt Hill
#
# Bulk Modulus (GPa) = 61.14391 61.86676 61.50534
# Shear Modulus (GPa) = 38.73494 45.71459 42.22476
#
# Velocity S-wave (km/s) = 3.84177 4.17357 4.01110
# Velocity P-wave (km/s) = 6.55565 6.84091 6.69980
#
# Compressibility (1/GPa) = 0.01635486
#
# Stress axis : x y z
#
# Youngs Moduli (GPa) = 84.51568 125.00507 83.26184
#
# Poissons Ratio (x) = 0.06392 0.47251
# Poissons Ratio (y) = 0.04322 0.12966
# Poissons Ratio (z) = 0.47963 0.19467
#
# Static dielectric constant tensor:
#      x y z
#    x 2.187710 0.000000 -0.073330 
#    y 0.000000 2.002470 0.000000 
#    z -0.073330 0.000000 2.124090 
# 
# From -- ./inp_files/15781.got.cif
#   From: 2010.05.17/outbox.cif.g08.bks.cpg/sg4_8_cif.got.tgz:15781.got - 2010.06.03 18:43:04.
