data_PCOD9117556
_publ_section_title
;
Structure prediction by ZEFSAII (Michael W. Deem and Ramdas Pophale) SiO2 
 PCOD9117556
Probable space group: P 21
;
_chemical_formula_sum "Si O2"
_cell_formula_units_Z 16
_cell_length_a 14.845952
_cell_length_b 4.837233
_cell_length_c 20.921198
_cell_angle_alpha 90.000000
_cell_angle_beta 155.829863
_cell_angle_gamma 90.000000
_cell_volume 615.162582
_symmetry_space_group_name_H-M "P 21"
_symmetry_group_IT_number 4
_symmetry_cell_setting 'monoclinic'
loop_
_space_group_symop_operation_xyz
x,y,z
-x,1/2+y,-z
loop_
_atom_site_type_symbol
_atom_site_label
_atom_site_fract_x
_atom_site_fract_y
_atom_site_fract_z
Si Si1 0.018623 0.742890 0.281523
Si Si2 0.468459 0.466932 0.529300
Si Si3 0.463223 0.977376 0.280055
Si Si4 0.700897 0.991275 0.896448
Si Si5 0.685002 0.376778 0.262708
Si Si6 0.923477 0.186841 0.542105
Si Si7 0.140090 0.063942 0.245186
Si Si8 0.540231 0.504460 0.982353
O O1 0.213733 0.543756 0.383799
O O2 0.054077 0.846855 0.376645
O O3 0.030932 0.996027 0.241325
O O4 0.787999 0.590464 0.126649
O O5 0.547658 0.569356 0.654438
O O6 0.379225 0.220558 0.414611
O O7 0.716554 0.301070 0.684870
O O8 0.323197 0.175605 0.142321
O O9 0.717012 0.987092 0.421725
O O10 0.387805 0.667928 0.219704
O O11 0.533875 0.014594 0.848778
O O12 0.940308 0.105531 0.069146
O O13 0.842789 0.336951 0.426373
O O14 0.607299 0.104382 0.173402
O O15 0.845643 0.541083 0.320001
O O16 0.531771 0.195298 0.003626
#
# Coordination Sequence:
#
# PCOD9117556 Si02
#       8
#     2   2   2   2   2   2   2   2
#     4  11  25  48  67 107 146 190 238 310 369 432
#     4  11  27  46  77 107 143 195 252 315 374 445
#     4  10  26  47  70 105 147 196 242 303 375 441
#     4  11  26  46  73 106 149 194 242 307 370 443
#     4  11  23  42  68 106 141 193 240 292 357 444
#     4  10  23  42  69 100 144 189 244 290 361 435
#     4  12  26  45  78 106 144 193 255 314 375 444
#     4  12  28  46  72 107 146 190 241 297 365 434
#
# _framework density 26.009383
#
# number of rings (size 3 to 8) (size 9 to 14) (size 15 to 20)
#    0.000    1.000    3.750    0.750   10.500    3.000 
#    0.000    0.000    0.000    0.000    0.000    0.000 
#    0.000    0.000    0.000    0.000    0.000    0.000 
#
# Total GULP energy -89149.675957 kJ/mol
# GULP energy per Si atom -5571.854747 kJ/mol
# Density = 2.595018 g / cm^3
# Si number density = 26.009383 Si / 1000 Ang^3
#
#
#
# Elastic Constant Matrix: (Units=GPa)
#
#
# Indices 1 2 3 4 5 6 
#
# 1 127.3198 6.6022 38.5794 0.0000 0.8029 0.0000
# 2 6.6022 54.1200 15.4045 0.0000 3.0134 0.0000
# 3 38.5794 15.4045 140.0742 0.0000 10.3370 0.0000
# 4 0.0000 0.0000 0.0000 19.0716 0.0000 7.7423
# 5 0.8029 3.0134 10.3370 0.0000 39.5887 0.0000
# 6 0.0000 0.0000 0.0000 7.7423 0.0000 32.9839
#
#
#
# Elastic Compliance Matrix: (Units=1/GPa)
#
#
# Indices 1 2 3 4 5 6 
#
# 1 0.008586 -0.000403 -0.002355 0.000000 0.000472 0.000000
# 2 -0.000403 0.019127 -0.001923 0.000000 -0.000946 0.000000
# 3 -0.002355 -0.001923 0.008142 0.000000 -0.001932 0.000000
# 4 0.000000 0.000000 0.000000 0.057957 0.000000 -0.013604
# 5 0.000472 -0.000946 -0.001932 0.000000 0.025827 0.000000
# 6 0.000000 0.000000 0.000000 -0.013604 0.000000 0.033511
#
#
# Mechanical properties :
#
#
# Convention : Reuss Voigt Hill
#
# Bulk Modulus (GPa) = 37.74715 49.18737 43.46726
# Shear Modulus (GPa) = 29.18154 35.72402 32.45278
#
# Velocity S-wave (km/s) = 3.35320 3.71010 3.53616
# Velocity P-wave (km/s) = 5.43474 6.10783 5.78109
#
# Compressibility (1/GPa) = 0.02649206
#
# Stress axis : x y z
#
# Youngs Moduli (GPa) = 116.47109 52.28334 122.82403
#
# Poissons Ratio (x) = 0.02109 0.28927
# Poissons Ratio (y) = 0.04697 0.23614
# Poissons Ratio (z) = 0.27431 0.10052
#
# Static dielectric constant tensor:
#      x y z
#    x 2.105920 0.000000 -0.047240 
#    y 0.000000 2.116360 0.000000 
#    z -0.047240 0.000000 2.008550 
# 
# From -- ./inp_files/10760.got.cif
#   From: 2010.05.17/outbox.cif.g08.bks.cpg/sg4_6_cif.got.tgz:10760.got - 2010.06.03 18:43:04.
