data_PCOD9117800
_publ_section_title
;
Structure prediction by ZEFSAII (Michael W. Deem and Ramdas Pophale) SiO2 
 PCOD9117800
Probable space group: P 21
;
_chemical_formula_sum "Si O2"
_cell_formula_units_Z 14
_cell_length_a 5.315939
_cell_length_b 8.811206
_cell_length_c 15.877319
_cell_angle_alpha 90.000000
_cell_angle_beta 45.791072
_cell_angle_gamma 90.000000
_cell_volume 533.079156
_symmetry_space_group_name_H-M "P 21"
_symmetry_group_IT_number 4
_symmetry_cell_setting 'monoclinic'
loop_
_space_group_symop_operation_xyz
x,y,z
-x,1/2+y,-z
loop_
_atom_site_type_symbol
_atom_site_label
_atom_site_fract_x
_atom_site_fract_y
_atom_site_fract_z
Si Si1 0.645052 0.075110 0.412631
Si Si2 0.049815 0.842090 0.562398
Si Si3 0.176323 0.572779 0.804689
Si Si4 0.618882 0.323562 0.953088
Si Si5 0.170514 0.837499 0.347965
Si Si6 0.698216 0.659438 0.135112
Si Si7 0.523834 0.326838 0.158180
O O1 0.724611 0.192057 0.467829
O O2 0.740940 0.156586 0.302593
O O3 0.276090 0.995106 0.511556
O O4 0.910437 0.930661 0.349449
O O5 0.964608 0.824621 0.483780
O O6 0.757059 0.840713 0.701916
O O7 0.488536 0.447335 0.726478
O O8 0.260694 0.677821 0.864694
O O9 0.803270 0.487406 0.895399
O O10 0.420236 0.258695 0.918655
O O11 0.956434 0.220608 0.899198
O O12 0.393934 0.321127 0.091776
O O13 0.351980 0.685211 0.273945
O O14 0.744131 0.482182 0.107251
#
# Coordination Sequence:
#
# PCOD9117800 Si02
#       7
#     2   2   2   2   2   2   2
#     4  11  24  45  72 101 146 197 246 312 379 469
#     4  11  28  40  71 108 144 193 250 311 387 455
#     4  10  23  46  72 102 143 202 249 307 391 450
#     4  11  26  52  74 108 155 206 249 320 392 459
#     4  10  23  46  67  99 146 191 239 314 384 454
#     4  11  27  48  78 109 151 200 260 319 387 453
#     4  12  27  45  74 115 147 193 263 323 370 472
#
# _framework density 26.262516000000002
#
# number of rings (size 3 to 8) (size 9 to 14) (size 15 to 20)
#    0.000    1.143    2.857    0.857    6.000    6.857 
#    0.000    0.000    0.000    0.000    0.000    0.000 
#    0.000    0.000    0.000    0.000    0.000    0.000 
#
# Total GULP energy -78408.440312 kJ/mol
# GULP energy per Si atom -5600.602879 kJ/mol
# Density = 2.620274 g / cm^3
# Si number density = 26.262516 Si / 1000 Ang^3
#
#
#
# Elastic Constant Matrix: (Units=GPa)
#
#
# Indices 1 2 3 4 5 6 
#
# 1 74.7112 14.3442 33.7491 0.0000 1.2094 0.0000
# 2 14.3442 114.1811 13.4665 0.0000 -5.6907 0.0000
# 3 33.7491 13.4665 179.2688 0.0000 -7.4582 0.0000
# 4 0.0000 0.0000 0.0000 42.0893 0.0000 0.7166
# 5 1.2094 -5.6907 -7.4582 0.0000 39.4212 0.0000
# 6 0.0000 0.0000 0.0000 0.7166 0.0000 44.0471
#
#
#
# Elastic Compliance Matrix: (Units=1/GPa)
#
#
# Indices 1 2 3 4 5 6 
#
# 1 0.014954 -0.001615 -0.002744 0.000000 -0.001211 0.000000
# 2 -0.001615 0.009064 -0.000323 0.000000 0.001297 0.000000
# 3 -0.002744 -0.000323 0.006169 0.000000 0.001205 0.000000
# 4 0.000000 0.000000 0.000000 0.023766 0.000000 -0.000387
# 5 -0.001211 0.001297 0.001205 0.000000 0.025819 0.000000
# 6 0.000000 0.000000 0.000000 -0.000387 0.000000 0.022709
#
#
# Mechanical properties :
#
#
# Convention : Reuss Voigt Hill
#
# Bulk Modulus (GPa) = 48.02561 54.58673 51.30617
# Shear Modulus (GPa) = 42.09209 45.55160 43.82185
#
# Velocity S-wave (km/s) = 4.00777 4.16922 4.08929
# Velocity P-wave (km/s) = 6.30419 6.63375 6.47107
#
# Compressibility (1/GPa) = 0.02082222
#
# Stress axis : x y z
#
# Youngs Moduli (GPa) = 66.87031 110.33080 162.09464
#
# Poissons Ratio (x) = 0.17822 0.44484
# Poissons Ratio (y) = 0.10802 0.05232
# Poissons Ratio (z) = 0.18351 0.03561
#
# Static dielectric constant tensor:
#      x y z
#    x 2.055300 0.000000 -0.014490 
#    y 0.000000 2.069710 0.000000 
#    z -0.014490 0.000000 2.065180 
# 
# From -- ./inp_files/2429.got.cif
#   From: 2010.05.17/outbox.cif.g08.bks.cpg/sg4_2_cif.got.tgz:2429.got - 2010.06.03 18:43:04.
