data_PCOD9117016
_publ_section_title
;
Structure prediction by ZEFSAII (Michael W. Deem and Ramdas Pophale) SiO2 
 PCOD9117016
Probable space group: P 21
;
_chemical_formula_sum "Si O2"
_cell_formula_units_Z 16
_cell_length_a 8.754797
_cell_length_b 10.462288
_cell_length_c 11.724187
_cell_angle_alpha 90.000000
_cell_angle_beta 138.312671
_cell_angle_gamma 90.000000
_cell_volume 714.199800
_symmetry_space_group_name_H-M "P 21"
_symmetry_group_IT_number 4
_symmetry_cell_setting 'monoclinic'
loop_
_space_group_symop_operation_xyz
x,y,z
-x,1/2+y,-z
loop_
_atom_site_type_symbol
_atom_site_label
_atom_site_fract_x
_atom_site_fract_y
_atom_site_fract_z
Si Si1 0.054491 0.817560 0.180344
Si Si2 0.918414 0.165787 0.588155
Si Si3 0.306211 0.612789 0.180322
Si Si4 0.110677 0.891828 0.769560
Si Si5 0.383347 0.465187 0.999970
Si Si6 0.257828 0.264536 0.588167
Si Si7 0.098482 0.965151 0.999987
Si Si8 0.428433 0.538503 0.769563
O O1 0.156183 0.763771 0.354598
O O2 0.118082 0.715176 0.118070
O O3 0.797341 0.854290 0.071836
O O4 0.141885 0.940165 0.158642
O O5 0.717500 0.134798 0.387223
O O6 0.132860 0.215161 0.632898
O O7 0.996356 0.033081 0.690729
O O8 0.346305 0.576078 0.071795
O O9 0.553072 0.666554 0.354585
O O10 0.175434 0.490175 0.158629
O O11 0.361580 0.906514 0.854623
O O12 0.139609 0.865665 0.919725
O O13 0.943124 0.795532 0.612762
O O14 0.347553 0.523861 0.854547
O O15 0.385066 0.397237 0.690755
O O16 0.300135 0.064632 0.080211
#
# Coordination Sequence:
#
# PCOD9117016 Si02
#       8
#     2   2   2   2   2   2   2   2
#     4  11  22  40  67  94 136 172 212 276 341 389
#     4  11  22  42  65  94 133 172 216 280 332 390
#     4  11  22  40  67  94 136 172 212 276 341 389
#     4  10  22  42  70  95 128 174 228 272 325 393
#     4  10  22  42  70  94 128 174 230 278 312 404
#     4  11  22  42  65  94 133 172 216 280 332 390
#     4  10  22  42  70  96 132 172 224 274 330 400
#     4  10  22  42  70  95 128 174 228 272 325 393
#
# _framework density 22.402697
#
# number of rings (size 3 to 8) (size 9 to 14) (size 15 to 20)
#    0.000    1.500    5.000    0.000    0.000    2.000 
#    0.000    8.750    0.000    0.000    0.000    0.000 
#    0.000    0.000    0.000    0.000    0.000    0.000 
#
# Total GULP energy -89146.258049 kJ/mol
# GULP energy per Si atom -5571.641128 kJ/mol
# Density = 2.235171 g / cm^3
# Si number density = 22.402697 Si / 1000 Ang^3
#
#
#
# Elastic Constant Matrix: (Units=GPa)
#
#
# Indices 1 2 3 4 5 6 
#
# 1 188.6568 42.1424 81.4254 0.0000 0.9499 0.0000
# 2 42.1424 40.0789 40.7419 0.0000 0.0012 0.0000
# 3 81.4254 40.7419 129.2986 0.0000 -0.3282 0.0000
# 4 0.0000 0.0000 0.0000 38.1484 0.0000 -0.4073
# 5 0.9499 0.0012 -0.3282 0.0000 12.3444 0.0000
# 6 0.0000 0.0000 0.0000 -0.4073 0.0000 6.9253
#
#
#
# Elastic Compliance Matrix: (Units=1/GPa)
#
#
# Indices 1 2 3 4 5 6 
#
# 1 0.007855 -0.004751 -0.003451 0.000000 -0.000696 0.000000
# 2 -0.004751 0.039584 -0.009481 0.000000 0.000110 0.000000
# 3 -0.003451 -0.009481 0.012896 0.000000 0.000609 0.000000
# 4 0.000000 0.000000 0.000000 0.026230 0.000000 0.001543
# 5 -0.000696 0.000110 0.000609 0.000000 0.081078 0.000000
# 6 0.000000 0.000000 0.000000 0.001543 0.000000 0.144489
#
#
# Mechanical properties :
#
#
# Convention : Reuss Voigt Hill
#
# Bulk Modulus (GPa) = 40.04925 76.29486 58.17206
# Shear Modulus (GPa) = 14.05199 24.39860 19.22530
#
# Velocity S-wave (km/s) = 2.50720 3.30372 2.93263
# Velocity P-wave (km/s) = 5.12808 6.97731 6.12291
#
# Compressibility (1/GPa) = 0.02496926
#
# Stress axis : x y z
#
# Youngs Moduli (GPa) = 127.30621 25.26285 77.54050
#
# Poissons Ratio (x) = 0.12002 0.26763
# Poissons Ratio (y) = 0.60482 0.73514
# Poissons Ratio (z) = 0.43939 0.23951
#
# Static dielectric constant tensor:
#      x y z
#    x 1.797560 0.000000 -0.000570 
#    y 0.000000 2.030980 0.000000 
#    z -0.000570 0.000000 1.840810 
# 
# From -- ./inp_files/11304.got.cif
#   From: 2010.05.17/outbox.cif.g08.bks.cpg/sg4_6_cif.got.tgz:11304.got - 2010.06.03 18:43:04.
