data_PCOD9117699
_publ_section_title
;
Structure prediction by ZEFSAII (Michael W. Deem and Ramdas Pophale) SiO2 
 PCOD9117699
Probable space group: P 21
;
_chemical_formula_sum "Si O2"
_cell_formula_units_Z 10
_cell_length_a 20.048042
_cell_length_b 5.115370
_cell_length_c 5.729179
_cell_angle_alpha 90.000000
_cell_angle_beta 145.465793
_cell_angle_gamma 90.000000
_cell_volume 333.078388
_symmetry_space_group_name_H-M "P 21"
_symmetry_group_IT_number 4
_symmetry_cell_setting 'monoclinic'
loop_
_space_group_symop_operation_xyz
x,y,z
-x,1/2+y,-z
loop_
_atom_site_type_symbol
_atom_site_label
_atom_site_fract_x
_atom_site_fract_y
_atom_site_fract_z
Si Si1 0.661461 0.396790 0.584389
Si Si2 0.545405 0.045349 0.760373
Si Si3 0.754333 0.401022 0.361130
Si Si4 0.846189 0.003073 0.080886
Si Si5 0.046107 0.006888 0.352367
O O1 0.522788 0.440238 0.208181
O O2 0.713829 0.518020 0.495058
O O3 0.705612 0.496432 0.966953
O O4 0.711957 0.098686 0.718347
O O5 0.487540 0.322711 0.520071
O O6 0.682458 0.123815 0.161301
O O7 0.893585 0.450834 0.723142
O O8 0.906285 0.262416 0.361771
O O9 0.907056 0.991781 0.001445
O O10 0.895734 0.765650 0.372390
#
# Coordination Sequence:
#
# PCOD9117699 Si02
#       5
#     2   2   2   2   2
#     4  10  23  44  69 100 136 179 226 279 338 402
#     4  10  24  46  70 100 138 180 228 280 338 404
#     4  10  23  44  69 100 136 179 226 279 338 402
#     4   9  19  40  68  99 135 176 224 278 337 401
#     4   9  19  40  68  99 135 176 224 278 337 401
#
# _framework density 30.022960000000001
#
# number of rings (size 3 to 8) (size 9 to 14) (size 15 to 20)
#    0.000    2.400    0.000    0.000    0.000   20.800 
#    0.000   40.000    0.000    0.000    0.000    0.000 
#    0.000    0.000    0.000    0.000    0.000    0.000 
#
# Total GULP energy -55786.528634 kJ/mol
# GULP energy per Si atom -5578.652863 kJ/mol
# Density = 2.995463 g / cm^3
# Si number density = 30.022960 Si / 1000 Ang^3
#
#
#
# Elastic Constant Matrix: (Units=GPa)
#
#
# Indices 1 2 3 4 5 6 
#
# 1 344.1001 52.5257 67.7720 0.0000 22.8637 0.0000
# 2 52.5257 172.0773 51.6900 0.0000 19.9741 0.0000
# 3 67.7720 51.6900 133.3796 0.0000 -0.1603 0.0000
# 4 0.0000 0.0000 0.0000 44.3274 0.0000 -23.1116
# 5 22.8637 19.9741 -0.1603 0.0000 78.4280 0.0000
# 6 0.0000 0.0000 0.0000 -23.1116 0.0000 -23.9220
#
#
#
# Elastic Compliance Matrix: (Units=1/GPa)
#
#
# Indices 1 2 3 4 5 6 
#
# 1 0.003332 -0.000463 -0.001515 0.000000 -0.000857 0.000000
# 2 -0.000463 0.006870 -0.002429 0.000000 -0.001620 0.000000
# 3 -0.001515 -0.002429 0.009210 0.000000 0.001079 0.000000
# 4 0.000000 0.000000 0.000000 0.015002 0.000000 -0.014494
# 5 -0.000857 -0.001620 0.001079 0.000000 0.013415 0.000000
# 6 0.000000 0.000000 0.000000 -0.014494 0.000000 -0.027799
#
#
# Mechanical properties :
#
#
# Convention : Reuss Voigt Hill
#
# Bulk Modulus (GPa) = 94.35223 110.39249 102.37236
# Shear Modulus (GPa) = 154.43178 51.60464 103.01821
#
# Velocity S-wave (km/s) = 7.17980 4.15039 5.86410
# Velocity P-wave (km/s) = 10.01138 7.73413 8.94551
#
# Compressibility (1/GPa) = 0.01059858
#
# Stress axis : x y z
#
# Youngs Moduli (GPa) = 300.11895 145.55297 108.57910
#
# Poissons Ratio (x) = 0.06734 0.16447
# Poissons Ratio (y) = 0.13884 0.26378
# Poissons Ratio (z) = 0.45462 0.35361
#
# Static dielectric constant tensor:
#      x y z
#    x 2.538050 0.000000 0.170270 
#    y 0.000000 2.319740 0.000000 
#    z 0.170270 0.000000 2.597880 
# 
# From -- ./inp_files/4278.got.cif
#   From: 2010.05.17/outbox.cif.g08.bks.cpg/sg4_3_cif.got.tgz:4278.got - 2010.06.03 18:43:04.
