data_PCOD9117405
_publ_section_title
;
Structure prediction by ZEFSAII (Michael W. Deem and Ramdas Pophale) SiO2 
 PCOD9117405
Probable space group: P 21
;
_chemical_formula_sum "Si O2"
_cell_formula_units_Z 16
_cell_length_a 26.856023
_cell_length_b 5.160519
_cell_length_c 8.680658
_cell_angle_alpha 90.000000
_cell_angle_beta 41.259160
_cell_angle_gamma 90.000000
_cell_volume 793.377976
_symmetry_space_group_name_H-M "P 21"
_symmetry_group_IT_number 4
_symmetry_cell_setting 'monoclinic'
loop_
_space_group_symop_operation_xyz
x,y,z
-x,1/2+y,-z
loop_
_atom_site_type_symbol
_atom_site_label
_atom_site_fract_x
_atom_site_fract_y
_atom_site_fract_z
Si Si1 0.250600 0.523270 0.376963
Si Si2 0.532152 0.081955 0.849632
Si Si3 0.764149 0.523303 0.374500
Si Si4 0.912131 0.111452 0.285831
Si Si5 0.925905 0.610895 0.045214
Si Si6 0.533877 0.406775 0.554807
Si Si7 0.630457 0.063623 0.168185
Si Si8 0.353951 0.282140 0.559447
O O1 0.248261 0.246462 0.467189
O O2 0.172568 0.561808 0.460784
O O3 0.248041 0.749994 0.511998
O O4 0.319706 0.546114 0.098776
O O5 0.617607 0.975306 0.642210
O O6 0.518516 0.171091 0.706985
O O7 0.480048 0.845514 0.026548
O O8 0.851643 0.554745 0.117863
O O9 0.707572 0.590323 0.367638
O O10 0.916252 0.399007 0.204572
O O11 0.919831 0.898808 0.130421
O O12 0.987751 0.076465 0.211780
O O13 0.453714 0.453378 0.665756
O O14 0.569445 0.629738 0.576255
O O15 0.603961 0.350721 0.278205
O O16 0.667017 0.933756 0.235326
#
# Coordination Sequence:
#
# PCOD9117405 Si02
#       8
#     2   2   2   2   2   2   2   2
#     4  10  23  38  61  91 116 148 197 249 286 343
#     4  11  24  40  61  86 109 143 191 250 303 347
#     4  10  23  37  58  92 119 148 190 244 302 344
#     4   8  14  29  53  84 114 144 180 228 285 336
#     4   8  14  29  52  82 118 145 175 225 288 352
#     4  11  24  42  61  79 110 160 203 238 298 355
#     4  11  25  41  60  82 115 160 204 246 289 358
#     4  11  25  42  58  84 119 156 196 244 305 355
#
# _framework density 20.166933
#
# number of rings (size 3 to 8) (size 9 to 14) (size 15 to 20)
#    0.000    2.000    2.500    0.000    7.000    1.000 
#    0.000    0.000    0.000    0.000    3.250    0.000 
#    0.000    0.000    0.000    0.000    0.000    0.000 
#
# Total GULP energy -89101.722933 kJ/mol
# GULP energy per Si atom -5568.857683 kJ/mol
# Density = 2.012103 g / cm^3
# Si number density = 20.166933 Si / 1000 Ang^3
#
#
#
# Elastic Constant Matrix: (Units=GPa)
#
#
# Indices 1 2 3 4 5 6 
#
# 1 76.7359 10.1121 37.7186 0.0000 -20.6321 0.0000
# 2 10.1121 86.3794 1.6628 0.0000 -3.0179 0.0000
# 3 37.7186 1.6628 53.8110 0.0000 -19.4576 0.0000
# 4 0.0000 0.0000 0.0000 22.9893 0.0000 -1.1260
# 5 -20.6321 -3.0179 -19.4576 0.0000 15.0075 0.0000
# 6 0.0000 0.0000 0.0000 -1.1260 0.0000 28.4922
#
#
#
# Elastic Compliance Matrix: (Units=1/GPa)
#
#
# Indices 1 2 3 4 5 6 
#
# 1 0.022926 -0.001828 -0.008942 0.000000 0.019558 0.000000
# 2 -0.001828 0.011829 0.001633 0.000000 0.001982 0.000000
# 3 -0.008942 0.001633 0.038545 0.000000 0.038010 0.000000
# 4 0.000000 0.000000 0.000000 0.043583 0.000000 0.001722
# 5 0.019558 0.001982 0.038010 0.000000 0.143201 0.000000
# 6 0.000000 0.000000 0.000000 0.001722 0.000000 0.035165
#
#
# Mechanical properties :
#
#
# Convention : Reuss Voigt Hill
#
# Bulk Modulus (GPa) = 18.17346 35.10147 26.63747
# Shear Modulus (GPa) = 15.06632 24.45999 19.76315
#
# Velocity S-wave (km/s) = 2.73624 3.48642 3.13386
# Velocity P-wave (km/s) = 4.36048 5.80086 5.13146
#
# Compressibility (1/GPa) = 0.05502529
#
# Stress axis : x y z
#
# Youngs Moduli (GPa) = 43.61773 84.54017 25.94380
#
# Poissons Ratio (x) = 0.15458 0.23198
# Poissons Ratio (y) = 0.07975 -0.04236
# Poissons Ratio (z) = 0.39001 -0.13803
#
# Static dielectric constant tensor:
#      x y z
#    x 1.821260 0.000000 -0.025350 
#    y 0.000000 1.844640 0.000000 
#    z -0.025350 0.000000 1.735930 
# 
# From -- ./inp_files/10097.got.cif
#   From: 2010.05.17/outbox.cif.g08.bks.cpg/sg4_6_cif.got.tgz:10097.got - 2010.06.03 18:43:04.
