data_PCOD9117584
_publ_section_title
;
Structure prediction by ZEFSAII (Michael W. Deem and Ramdas Pophale) SiO2 
 PCOD9117584
Probable space group: P 21
;
_chemical_formula_sum "Si O2"
_cell_formula_units_Z 16
_cell_length_a 8.157541
_cell_length_b 4.881299
_cell_length_c 26.459095
_cell_angle_alpha 90.000000
_cell_angle_beta 143.031607
_cell_angle_gamma 90.000000
_cell_volume 633.599134
_symmetry_space_group_name_H-M "P 21"
_symmetry_group_IT_number 4
_symmetry_cell_setting 'monoclinic'
loop_
_space_group_symop_operation_xyz
x,y,z
-x,1/2+y,-z
loop_
_atom_site_type_symbol
_atom_site_label
_atom_site_fract_x
_atom_site_fract_y
_atom_site_fract_z
Si Si1 0.295420 0.351520 0.349879
Si Si2 0.939490 0.823668 0.275110
Si Si3 0.142748 0.074317 0.055031
Si Si4 0.607175 0.958830 0.103395
Si Si5 0.890860 0.294080 0.089805
Si Si6 0.329246 0.605989 0.246119
Si Si7 0.668003 0.103638 0.301896
Si Si8 0.086980 0.960630 0.489051
O O1 0.090584 0.549996 0.329898
O O2 0.303240 0.481078 0.295610
O O3 0.604516 0.368756 0.445077
O O4 0.170554 0.050031 0.319922
O O5 0.769184 0.768166 0.182017
O O6 0.743553 0.964399 0.267648
O O7 0.423219 0.141678 0.096164
O O8 0.096104 0.149624 0.101172
O O9 0.079596 0.756048 0.030082
O O10 0.812024 0.131423 0.120221
O O11 0.386947 0.834571 0.010321
O O12 0.045685 0.564982 0.146463
O O13 0.440905 0.910896 0.272303
O O14 0.551175 0.409110 0.273312
O O15 0.933456 0.077324 0.402587
O O16 0.926577 0.700508 0.472385
#
# Coordination Sequence:
#
# PCOD9117584 Si02
#       8
#     2   2   2   2   2   2   2   2
#     4  12  25  46  70 106 141 185 222 303 345 425
#     4  12  28  45  70 104 153 177 236 294 365 410
#     4  10  23  43  64  95 133 175 237 300 348 411
#     4  11  25  44  67 104 138 191 239 297 351 422
#     4  11  25  41  72  99 139 191 242 291 356 420
#     4  12  25  45  73 103 141 183 243 282 354 419
#     4  12  26  48  74 108 137 191 226 295 359 433
#     4  12  23  44  76 105 138 179 239 284 348 434
#
# _framework density 25.252559000000002
#
# number of rings (size 3 to 8) (size 9 to 14) (size 15 to 20)
#    0.000    0.500    3.750    3.750    1.750    9.000 
#    0.000    0.000    0.000    0.000    0.000    0.000 
#    0.000    0.000    0.000    0.000    0.000    0.000 
#
# Total GULP energy -89715.422134 kJ/mol
# GULP energy per Si atom -5607.213883 kJ/mol
# Density = 2.519508 g / cm^3
# Si number density = 25.252559 Si / 1000 Ang^3
#
#
#
# Elastic Constant Matrix: (Units=GPa)
#
#
# Indices 1 2 3 4 5 6 
#
# 1 133.3116 10.0582 -0.7870 0.0000 3.5295 0.0000
# 2 10.0582 87.6164 8.2040 0.0000 11.9973 0.0000
# 3 -0.7870 8.2040 127.1558 0.0000 8.7025 0.0000
# 4 0.0000 0.0000 0.0000 32.5640 0.0000 9.4199
# 5 3.5295 11.9973 8.7025 0.0000 34.6107 0.0000
# 6 0.0000 0.0000 0.0000 9.4199 0.0000 41.9974
#
#
#
# Elastic Compliance Matrix: (Units=1/GPa)
#
#
# Indices 1 2 3 4 5 6 
#
# 1 0.007577 -0.000811 0.000135 0.000000 -0.000526 0.000000
# 2 -0.000811 0.012100 -0.000513 0.000000 -0.003983 0.000000
# 3 0.000135 -0.000513 0.008025 0.000000 -0.001854 0.000000
# 4 0.000000 0.000000 0.000000 0.032839 0.000000 -0.007366
# 5 -0.000526 -0.003983 -0.001854 0.000000 0.030793 0.000000
# 6 0.000000 0.000000 0.000000 -0.007366 0.000000 0.025463
#
#
# Mechanical properties :
#
#
# Convention : Reuss Voigt Hill
#
# Bulk Modulus (GPa) = 39.48642 42.55937 41.02289
# Shear Modulus (GPa) = 39.17996 43.87501 41.52748
#
# Velocity S-wave (km/s) = 3.94321 4.17279 4.05963
# Velocity P-wave (km/s) = 6.03344 6.33296 6.18501
#
# Compressibility (1/GPa) = 0.02532516
#
# Stress axis : x y z
#
# Youngs Moduli (GPa) = 131.97673 82.64597 124.60777
#
# Poissons Ratio (x) = 0.06699 -0.01684
# Poissons Ratio (y) = 0.10697 0.06394
# Poissons Ratio (z) = -0.01784 0.04241
#
# Static dielectric constant tensor:
#      x y z
#    x 2.010690 0.000000 0.020990 
#    y 0.000000 1.935860 0.000000 
#    z 0.020990 0.000000 2.002030 
# 
# From -- ./inp_files/16342.got.cif
#   From: 2010.05.17/outbox.cif.g08.bks.cpg/sg4_9_cif.got.tgz:16342.got - 2010.06.03 18:43:04.
