data_PCOD9117742
_publ_section_title
;
Structure prediction by ZEFSAII (Michael W. Deem and Ramdas Pophale) SiO2 
 PCOD9117742
Probable space group: P 21
;
_chemical_formula_sum "Si O2"
_cell_formula_units_Z 16
_cell_length_a 9.631563
_cell_length_b 9.514104
_cell_length_c 7.803611
_cell_angle_alpha 90.000000
_cell_angle_beta 81.293845
_cell_angle_gamma 90.000000
_cell_volume 706.849773
_symmetry_space_group_name_H-M "P 21"
_symmetry_group_IT_number 4
_symmetry_cell_setting 'monoclinic'
loop_
_space_group_symop_operation_xyz
x,y,z
-x,1/2+y,-z
loop_
_atom_site_type_symbol
_atom_site_label
_atom_site_fract_x
_atom_site_fract_y
_atom_site_fract_z
Si Si1 0.401387 0.012970 0.613553
Si Si2 0.348479 0.552511 0.688507
Si Si3 0.572123 0.310014 0.086337
Si Si4 0.953270 0.603786 0.989996
Si Si5 0.081427 0.942124 0.648945
Si Si6 0.897008 0.167217 0.502072
Si Si7 0.864731 0.332393 0.865140
Si Si8 0.676907 0.765383 0.133551
O O1 0.507877 0.015590 0.437278
O O2 0.249637 0.949584 0.592522
O O3 0.371970 0.165538 0.700782
O O4 0.462809 0.920790 0.758036
O O5 0.383981 0.668674 0.823545
O O6 0.240145 0.610126 0.567613
O O7 0.287607 0.415922 0.793210
O O8 0.707526 0.364796 0.957269
O O9 0.446617 0.284028 0.979685
O O10 0.947015 0.505773 0.160634
O O11 0.809687 0.692635 0.019765
O O12 0.072852 0.717494 0.011606
O O13 0.949571 0.480295 0.849414
O O14 0.999494 0.043362 0.536770
O O15 0.033210 0.782589 0.634961
O O16 0.864837 0.255280 0.681936
#
# Coordination Sequence:
#
# PCOD9117742 Si02
#       8
#     2   2   2   2   2   2   2   2
#     4  11  23  47  66  98 137 180 226 285 342 401
#     4  12  26  43  71  99 139 176 232 282 343 414
#     4  12  24  46  69  97 137 181 226 290 338 407
#     4  10  24  46  66 101 137 180 227 283 337 406
#     4  10  23  45  66  98 137 176 228 280 338 403
#     4  11  25  42  72 103 133 185 225 283 348 402
#     4  11  24  44  72 100 138 176 232 283 346 404
#     4  11  25  43  70 100 136 178 230 280 344 407
#
# _framework density 22.635643999999999
#
# number of rings (size 3 to 8) (size 9 to 14) (size 15 to 20)
#    0.000    1.000    3.750    2.250    8.750    1.000 
#    2.250    0.000    0.000    0.000    0.000    0.000 
#    0.000    0.000    0.000    0.000    0.000    0.000 
#
# Total GULP energy -89588.470763 kJ/mol
# GULP energy per Si atom -5599.279423 kJ/mol
# Density = 2.258412 g / cm^3
# Si number density = 22.635644 Si / 1000 Ang^3
#
#
#
# Elastic Constant Matrix: (Units=GPa)
#
#
# Indices 1 2 3 4 5 6 
#
# 1 46.5748 3.2835 19.8122 0.0000 10.4156 0.0000
# 2 3.2835 114.6187 21.7382 0.0000 26.0054 0.0000
# 3 19.8122 21.7382 82.5122 0.0000 13.6427 0.0000
# 4 0.0000 0.0000 0.0000 49.1258 0.0000 11.1311
# 5 10.4156 26.0054 13.6427 0.0000 35.4196 0.0000
# 6 0.0000 0.0000 0.0000 11.1311 0.0000 20.2817
#
#
#
# Elastic Compliance Matrix: (Units=1/GPa)
#
#
# Indices 1 2 3 4 5 6 
#
# 1 0.025130 0.001812 -0.005415 0.000000 -0.006635 0.000000
# 2 0.001812 0.010798 -0.002009 0.000000 -0.007687 0.000000
# 3 -0.005415 -0.002009 0.014356 0.000000 -0.002462 0.000000
# 4 0.000000 0.000000 0.000000 0.023247 0.000000 -0.012758
# 5 -0.006635 -0.007687 -0.002462 0.000000 0.036776 0.000000
# 6 0.000000 0.000000 0.000000 -0.012758 0.000000 0.056308
#
#
# Mechanical properties :
#
#
# Convention : Reuss Voigt Hill
#
# Bulk Modulus (GPa) = 25.60056 37.04150 31.32103
# Shear Modulus (GPa) = 26.19762 34.22353 30.21058
#
# Velocity S-wave (km/s) = 3.40569 3.89257 3.65724
# Velocity P-wave (km/s) = 5.17681 6.05001 5.63036
#
# Compressibility (1/GPa) = 0.03906165
#
# Stress axis : x y z
#
# Youngs Moduli (GPa) = 39.79288 92.61213 69.65776
#
# Poissons Ratio (x) = -0.16785 0.37716
# Poissons Ratio (y) = -0.07212 0.13994
# Poissons Ratio (z) = 0.21546 0.18605
#
# Static dielectric constant tensor:
#      x y z
#    x 1.803350 0.000000 -0.008350 
#    y 0.000000 1.849740 0.000000 
#    z -0.008350 0.000000 1.952350 
# 
# From -- ./inp_files/5661.got.cif
#   From: 2010.05.17/outbox.cif.g08.bks.cpg/sg4_3_cif.got.tgz:5661.got - 2010.06.03 18:43:04.
