data_PCOD9117546
_publ_section_title
;
Structure prediction by ZEFSAII (Michael W. Deem and Ramdas Pophale) SiO2 
 PCOD9117546
Probable space group: P 21
;
_chemical_formula_sum "Si O2"
_cell_formula_units_Z 16
_cell_length_a 11.058650
_cell_length_b 12.608203
_cell_length_c 5.451206
_cell_angle_alpha 90.000000
_cell_angle_beta 83.697921
_cell_angle_gamma 90.000000
_cell_volume 755.466976
_symmetry_space_group_name_H-M "P 21"
_symmetry_group_IT_number 4
_symmetry_cell_setting 'monoclinic'
loop_
_space_group_symop_operation_xyz
x,y,z
-x,1/2+y,-z
loop_
_atom_site_type_symbol
_atom_site_label
_atom_site_fract_x
_atom_site_fract_y
_atom_site_fract_z
Si Si1 0.261956 0.526820 0.041689
Si Si2 0.332816 0.936513 0.041734
Si Si3 0.566023 0.829336 0.064727
Si Si4 0.560466 0.180825 0.268044
Si Si5 0.157912 0.020686 0.446765
Si Si6 0.782973 0.296441 0.327532
Si Si7 0.630234 0.615163 0.332578
Si Si8 0.881385 0.079849 0.418223
O O1 0.330591 0.414570 0.015551
O O2 0.362749 0.616565 0.951987
O O3 0.173264 0.530152 0.821440
O O4 0.196610 0.551685 0.316996
O O5 0.395107 0.012967 0.829337
O O6 0.255404 0.841387 0.932584
O O7 0.235947 0.015343 0.182878
O O8 0.441879 0.888434 0.178592
O O9 0.609268 0.730100 0.217619
O O10 0.518831 0.774105 0.827697
O O11 0.660345 0.232607 0.424720
O O12 0.467017 0.107196 0.428329
O O13 0.231989 0.100525 0.604007
O O14 0.018255 0.044300 0.440167
O O15 0.179852 0.901804 0.541777
O O16 0.880932 0.205375 0.351763
#
# Coordination Sequence:
#
# PCOD9117546 Si02
#       8
#     2   2   2   2   2   2   2   2
#     4  11  27  46  70 105 143 186 241 295 355 425
#     4  10  23  43  69 103 136 183 236 288 363 433
#     4  11  23  39  71 101 144 176 230 298 372 411
#     4  10  23  42  68 101 138 180 231 291 366 426
#     4  11  24  45  69  99 137 187 242 290 346 425
#     4   9  23  43  73  93 135 186 235 282 363 413
#     4  11  23  40  67 103 139 180 232 296 351 435
#     4  11  28  48  71 101 144 190 241 294 342 428
#
# _framework density 21.178951999999999
#
# number of rings (size 3 to 8) (size 9 to 14) (size 15 to 20)
#    0.000    1.500    0.000    3.000   17.500    2.000 
#    2.250    0.000    0.000    0.000    0.000    0.000 
#    0.000    0.000    0.000    0.000    0.000    0.000 
#
# Total GULP energy -89261.397250 kJ/mol
# GULP energy per Si atom -5578.837328 kJ/mol
# Density = 2.113075 g / cm^3
# Si number density = 21.178952 Si / 1000 Ang^3
#
#
#
# Elastic Constant Matrix: (Units=GPa)
#
#
# Indices 1 2 3 4 5 6 
#
# 1 133.7726 66.9794 52.1650 0.0000 14.4627 0.0000
# 2 66.9794 127.2506 45.4307 0.0000 2.7165 0.0000
# 3 52.1650 45.4307 77.5101 0.0000 7.1602 0.0000
# 4 0.0000 0.0000 0.0000 38.6517 0.0000 8.8811
# 5 14.4627 2.7165 7.1602 0.0000 26.9294 0.0000
# 6 0.0000 0.0000 0.0000 8.8811 0.0000 30.3711
#
#
#
# Elastic Compliance Matrix: (Units=1/GPa)
#
#
# Indices 1 2 3 4 5 6 
#
# 1 0.012263 -0.004507 -0.005172 0.000000 -0.004756 0.000000
# 2 -0.004507 0.011603 -0.003981 0.000000 0.002308 0.000000
# 3 -0.005172 -0.003981 0.018886 0.000000 -0.001842 0.000000
# 4 0.000000 0.000000 0.000000 0.027736 0.000000 -0.008110
# 5 -0.004756 0.002308 -0.001842 0.000000 0.039945 0.000000
# 6 0.000000 0.000000 0.000000 -0.008110 0.000000 0.035298
#
#
# Mechanical properties :
#
#
# Convention : Reuss Voigt Hill
#
# Bulk Modulus (GPa) = 64.80009 74.18706 69.49357
# Shear Modulus (GPa) = 28.05941 30.78767 29.42354
#
# Velocity S-wave (km/s) = 3.64383 3.81687 3.73135
# Velocity P-wave (km/s) = 6.95458 7.38440 7.17271
#
# Compressibility (1/GPa) = 0.01543208
#
# Stress axis : x y z
#
# Youngs Moduli (GPa) = 81.54653 86.18810 52.94938
#
# Poissons Ratio (x) = 0.38841 0.27387
# Poissons Ratio (y) = 0.36750 0.21078
# Poissons Ratio (z) = 0.42178 0.34310
#
# Static dielectric constant tensor:
#      x y z
#    x 1.755290 0.000000 -0.013180 
#    y 0.000000 1.770340 0.000000 
#    z -0.013180 0.000000 1.889670 
# 
# From -- ./inp_files/3073.got.cif
#   From: 2010.05.17/outbox.cif.g08.bks.cpg/sg4_2_cif.got.tgz:3073.got - 2010.06.03 18:43:04.
