data_PCOD9117597
_publ_section_title
;
Structure prediction by ZEFSAII (Michael W. Deem and Ramdas Pophale) SiO2 
 PCOD9117597
Probable space group: P 21
;
_chemical_formula_sum "Si O2"
_cell_formula_units_Z 10
_cell_length_a 13.737900
_cell_length_b 5.309911
_cell_length_c 13.211272
_cell_angle_alpha 90.000000
_cell_angle_beta 159.092902
_cell_angle_gamma 90.000000
_cell_volume 343.908149
_symmetry_space_group_name_H-M "P 21"
_symmetry_group_IT_number 4
_symmetry_cell_setting 'monoclinic'
loop_
_space_group_symop_operation_xyz
x,y,z
-x,1/2+y,-z
loop_
_atom_site_type_symbol
_atom_site_label
_atom_site_fract_x
_atom_site_fract_y
_atom_site_fract_z
Si Si1 0.659966 0.515950 0.186152
Si Si2 0.267188 0.812545 0.342055
Si Si3 0.500922 0.309473 0.225246
Si Si4 0.986028 0.505169 0.314135
Si Si5 0.085395 0.806151 0.959149
O O1 0.655783 0.510224 0.303986
O O2 0.921907 0.462254 0.369670
O O3 0.477345 0.273087 0.981559
O O4 0.494339 0.838853 0.649450
O O5 0.096693 0.557475 0.198330
O O6 0.322853 0.818198 0.275430
O O7 0.081511 0.055954 0.180647
O O8 0.700776 0.070330 0.399268
O O9 0.199239 0.248229 0.895170
O O10 0.865054 0.313928 0.112973
#
# Coordination Sequence:
#
# PCOD9117597 Si02
#       5
#     2   2   2   2   2
#     4  10  24  44  66  94 128 166 210 260 314 372
#     4   9  19  38  63  92 126 164 207 256 310 369
#     4  10  23  43  66  94 128 166 210 259 313 372
#     4  10  23  43  66  94 128 166 210 259 313 372
#     4   9  19  38  63  92 126 164 207 256 310 369
#
# _framework density 29.077531
#
# number of rings (size 3 to 8) (size 9 to 14) (size 15 to 20)
#    0.000    2.400    0.000    0.000    0.000   20.800 
#    0.000   18.000    0.000    0.000    0.000    0.000 
#    0.000    0.000    0.000    0.000    0.000    0.000 
#
# Total GULP energy -56005.146659 kJ/mol
# GULP energy per Si atom -5600.514666 kJ/mol
# Density = 2.901135 g / cm^3
# Si number density = 29.077531 Si / 1000 Ang^3
#
#
#
# Elastic Constant Matrix: (Units=GPa)
#
#
# Indices 1 2 3 4 5 6 
#
# 1 134.4111 64.7635 54.4861 0.0000 -12.7319 0.0000
# 2 64.7635 151.6878 27.1000 0.0000 0.5914 0.0000
# 3 54.4861 27.1000 111.8189 0.0000 -10.7958 0.0000
# 4 0.0000 0.0000 0.0000 24.1177 0.0000 -3.9687
# 5 -12.7319 0.5914 -10.7958 0.0000 52.4923 0.0000
# 6 0.0000 0.0000 0.0000 -3.9687 0.0000 59.5377
#
#
#
# Elastic Compliance Matrix: (Units=1/GPa)
#
#
# Indices 1 2 3 4 5 6 
#
# 1 0.011351 -0.004075 -0.004360 0.000000 0.001902 0.000000
# 2 -0.004075 0.008363 -0.000149 0.000000 -0.001113 0.000000
# 3 -0.004360 -0.000149 0.011224 0.000000 0.001253 0.000000
# 4 0.000000 0.000000 0.000000 0.041923 0.000000 0.002795
# 5 0.001902 -0.001113 0.001253 0.000000 0.019782 0.000000
# 6 0.000000 0.000000 0.000000 0.002795 0.000000 0.016982
#
#
# Mechanical properties :
#
#
# Convention : Reuss Voigt Hill
#
# Bulk Modulus (GPa) = 72.61238 76.73524 74.67381
# Shear Modulus (GPa) = 38.05674 44.00075 41.02874
#
# Velocity S-wave (km/s) = 3.62166 3.89423 3.76042
# Velocity P-wave (km/s) = 6.52034 6.83134 6.67765
#
# Compressibility (1/GPa) = 0.01377176
#
# Stress axis : x y z
#
# Youngs Moduli (GPa) = 88.10065 119.57242 89.09182
#
# Poissons Ratio (x) = 0.48723 0.38841
# Poissons Ratio (y) = 0.35899 0.01326
# Poissons Ratio (z) = 0.38409 0.01780
#
# Static dielectric constant tensor:
#      x y z
#    x 2.428270 0.000000 -0.087900 
#    y 0.000000 2.251550 0.000000 
#    z -0.087900 0.000000 2.177680 
# 
# From -- ./inp_files/3257.got.cif
#   From: 2010.05.17/outbox.cif.g08.bks.cpg/sg4_2_cif.got.tgz:3257.got - 2010.06.03 18:43:04.
