data_PCOD9117288
_publ_section_title
;
Structure prediction by ZEFSAII (Michael W. Deem and Ramdas Pophale) SiO2 
 PCOD9117288
Probable space group: P 21
;
_chemical_formula_sum "Si O2"
_cell_formula_units_Z 14
_cell_length_a 9.514878
_cell_length_b 5.103005
_cell_length_c 12.756624
_cell_angle_alpha 90.000000
_cell_angle_beta 96.306008
_cell_angle_gamma 90.000000
_cell_volume 615.643456
_symmetry_space_group_name_H-M "P 21"
_symmetry_group_IT_number 4
_symmetry_cell_setting 'monoclinic'
loop_
_space_group_symop_operation_xyz
x,y,z
-x,1/2+y,-z
loop_
_atom_site_type_symbol
_atom_site_label
_atom_site_fract_x
_atom_site_fract_y
_atom_site_fract_z
Si Si1 0.886305 0.211360 0.746262
Si Si2 0.072053 0.023520 0.464860
Si Si3 0.820589 0.464500 0.182641
Si Si4 0.675811 0.961466 0.272783
Si Si5 0.641682 0.308813 0.445702
Si Si6 0.429363 0.659876 0.328645
Si Si7 0.091373 0.930086 0.027874
O O1 0.926905 0.396559 0.651227
O O2 0.731434 0.093820 0.711453
O O3 0.865668 0.382769 0.849651
O O4 0.011140 0.002269 0.779632
O O5 0.230461 0.003565 0.521454
O O6 0.985246 0.815880 0.529112
O O7 0.755771 0.705231 0.240623
O O8 0.801313 0.504636 0.056019
O O9 0.743224 0.199366 0.211538
O O10 0.511230 0.865888 0.261226
O O11 0.704238 0.052550 0.394749
O O12 0.529804 0.410776 0.351744
O O13 0.573302 0.267285 0.552600
O O14 0.026536 0.654612 0.984238
#
# Coordination Sequence:
#
# PCOD9117288 Si02
#       7
#     2   2   2   2   2   2   2
#     4  10  24  46  70 104 134 183 235 284 338 423
#     4  11  25  41  65 104 136 172 225 283 331 402
#     4  11  23  43  71 102 130 175 231 297 348 391
#     4  12  23  42  68  99 137 183 222 284 353 399
#     4  11  23  41  68  92 145 188 227 267 347 422
#     4  11  24  44  67 102 140 195 227 275 344 435
#     4  10  22  45  71 101 134 176 229 290 349 404
#
# _framework density 22.740434
#
# number of rings (size 3 to 8) (size 9 to 14) (size 15 to 20)
#    0.000    1.143    2.857    3.429    2.000    2.286 
#    7.714    1.429    0.000    0.000    0.000    0.000 
#    0.000    0.000    0.000    0.000    0.000    0.000 
#
# Total GULP energy -78230.079241 kJ/mol
# GULP energy per Si atom -5587.862803 kJ/mol
# Density = 2.268868 g / cm^3
# Si number density = 22.740434 Si / 1000 Ang^3
#
#
#
# Elastic Constant Matrix: (Units=GPa)
#
#
# Indices 1 2 3 4 5 6 
#
# 1 91.4195 25.8175 32.6985 0.0000 -23.4963 0.0000
# 2 25.8175 97.9502 21.1345 0.0000 -11.1969 0.0000
# 3 32.6985 21.1345 121.0183 0.0000 -20.3441 0.0000
# 4 0.0000 0.0000 0.0000 27.2044 0.0000 1.2266
# 5 -23.4963 -11.1969 -20.3441 0.0000 23.6136 0.0000
# 6 0.0000 0.0000 0.0000 1.2266 0.0000 26.0150
#
#
#
# Elastic Compliance Matrix: (Units=1/GPa)
#
#
# Indices 1 2 3 4 5 6 
#
# 1 0.015478 -0.002252 -0.001613 0.000000 0.012944 0.000000
# 2 -0.002252 0.011273 -0.000980 0.000000 0.002260 0.000000
# 3 -0.001613 -0.000980 0.009966 0.000000 0.006516 0.000000
# 4 0.000000 0.000000 0.000000 0.036837 0.000000 -0.001737
# 5 0.012944 0.002260 0.006516 0.000000 0.061914 0.000000
# 6 0.000000 0.000000 0.000000 -0.001737 0.000000 0.038521
#
#
# Mechanical properties :
#
#
# Convention : Reuss Voigt Hill
#
# Bulk Modulus (GPa) = 37.00117 52.18767 44.59442
# Shear Modulus (GPa) = 25.94871 30.74909 28.34890
#
# Velocity S-wave (km/s) = 3.38166 3.68119 3.53459
# Velocity P-wave (km/s) = 5.61728 6.40838 6.02583
#
# Compressibility (1/GPa) = 0.02702618
#
# Stress axis : x y z
#
# Youngs Moduli (GPa) = 64.60663 88.70991 100.34512
#
# Poissons Ratio (x) = 0.19978 0.16184
# Poissons Ratio (y) = 0.14550 0.09837
# Poissons Ratio (z) = 0.10420 0.08696
#
# Static dielectric constant tensor:
#      x y z
#    x 1.918890 0.000000 -0.037410 
#    y 0.000000 1.888350 0.000000 
#    z -0.037410 0.000000 1.848970 
# 
# From -- ./inp_files/10745.got.cif
#   From: 2010.05.17/outbox.cif.g08.bks.cpg/sg4_6_cif.got.tgz:10745.got - 2010.06.03 18:43:04.
