data_PCOD9117520
_publ_section_title
;
Structure prediction by ZEFSAII (Michael W. Deem and Ramdas Pophale) SiO2 
 PCOD9117520
Probable space group: P 21
;
_chemical_formula_sum "Si O2"
_cell_formula_units_Z 16
_cell_length_a 6.140934
_cell_length_b 19.854585
_cell_length_c 5.430192
_cell_angle_alpha 90.000000
_cell_angle_beta 108.904993
_cell_angle_gamma 90.000000
_cell_volume 626.365446
_symmetry_space_group_name_H-M "P 21"
_symmetry_group_IT_number 4
_symmetry_cell_setting 'monoclinic'
loop_
_space_group_symop_operation_xyz
x,y,z
-x,1/2+y,-z
loop_
_atom_site_type_symbol
_atom_site_label
_atom_site_fract_x
_atom_site_fract_y
_atom_site_fract_z
Si Si1 0.145506 0.406520 0.549839
Si Si2 0.268844 0.904240 0.987400
Si Si3 0.117955 0.019256 0.311080
Si Si4 0.561771 0.966002 0.708136
Si Si5 0.451347 0.692752 0.523766
Si Si6 0.909224 0.291842 0.748818
Si Si7 0.096648 0.587659 0.158334
Si Si8 0.272380 0.180458 0.872748
O O1 0.379530 0.412462 0.484777
O O2 0.936028 0.397392 0.282990
O O3 0.091704 0.479137 0.645066
O O4 0.089611 0.346293 0.711534
O O5 0.498942 0.923054 0.924702
O O6 0.247163 0.834306 0.121806
O O7 0.206130 0.969824 0.124362
O O8 0.342381 0.011869 0.562892
O O9 0.014047 0.087232 0.158846
O O10 0.777791 0.015522 0.798869
O O11 0.277267 0.755739 0.494954
O O12 0.293295 0.634894 0.341980
O O13 0.627776 0.704168 0.356505
O O14 0.552846 0.674469 0.830727
O O15 0.075888 0.232116 0.898406
O O16 0.869349 0.611022 0.221517
#
# Coordination Sequence:
#
# PCOD9117520 Si02
#       8
#     2   2   2   2   2   2   2   2
#     4  10  23  43  69 107 149 189 238 303 369 450
#     4  10  23  43  65 108 145 189 237 295 370 455
#     4  10  23  42  64 105 146 186 236 289 370 446
#     4  11  24  41  71 109 151 190 239 297 385 448
#     4  11  28  51  77 109 142 202 256 317 369 437
#     4  10  26  48  73 104 151 190 252 309 372 447
#     4  11  25  46  75 104 149 190 250 315 365 450
#     4  11  28  50  78 108 143 200 258 313 376 435
#
# _framework density 25.544193
#
# number of rings (size 3 to 8) (size 9 to 14) (size 15 to 20)
#    0.000    1.500    1.250    0.750    7.000    9.000 
#    0.000    0.000    0.000    0.000    0.000    0.000 
#    0.000    0.000    0.000    0.000    0.000    0.000 
#
# Total GULP energy -89297.370172 kJ/mol
# GULP energy per Si atom -5581.085636 kJ/mol
# Density = 2.548605 g / cm^3
# Si number density = 25.544193 Si / 1000 Ang^3
#
#
#
# Elastic Constant Matrix: (Units=GPa)
#
#
# Indices 1 2 3 4 5 6 
#
# 1 129.1553 49.0583 41.7185 0.0000 -9.6555 0.0000
# 2 49.0583 58.3764 8.9591 0.0000 -2.3528 0.0000
# 3 41.7185 8.9591 72.8420 0.0000 -4.9831 0.0000
# 4 0.0000 0.0000 0.0000 24.5994 0.0000 10.5053
# 5 -9.6555 -2.3528 -4.9831 0.0000 53.8023 0.0000
# 6 0.0000 0.0000 0.0000 10.5053 0.0000 47.3345
#
#
#
# Elastic Compliance Matrix: (Units=1/GPa)
#
#
# Indices 1 2 3 4 5 6 
#
# 1 0.014082 -0.010757 -0.006644 0.000000 0.001441 0.000000
# 2 -0.010757 0.025694 0.002964 0.000000 -0.000532 0.000000
# 3 -0.006644 0.002964 0.017205 0.000000 0.000531 0.000000
# 4 0.000000 0.000000 0.000000 0.044908 0.000000 -0.009967
# 5 0.001441 -0.000532 0.000531 0.000000 0.018871 0.000000
# 6 0.000000 0.000000 0.000000 -0.009967 0.000000 0.023338
#
#
# Mechanical properties :
#
#
# Convention : Reuss Voigt Hill
#
# Bulk Modulus (GPa) = 35.57662 51.09396 43.33529
# Shear Modulus (GPa) = 27.42136 35.85642 31.63889
#
# Velocity S-wave (km/s) = 3.27997 3.75066 3.52318
# Velocity P-wave (km/s) = 5.31996 6.22915 5.79242
#
# Compressibility (1/GPa) = 0.02810835
#
# Stress axis : x y z
#
# Youngs Moduli (GPa) = 71.01194 38.92035 58.12246
#
# Poissons Ratio (x) = 0.41865 0.38614
# Poissons Ratio (y) = 0.76385 -0.17228
# Poissons Ratio (z) = 0.47177 -0.11536
#
# Static dielectric constant tensor:
#      x y z
#    x 2.037940 0.000000 0.011080 
#    y 0.000000 2.038020 0.000000 
#    z 0.011080 0.000000 2.150080 
# 
# From -- ./inp_files/611.got.cif
#   From: 2010.05.17/outbox.cif.g08.bks.cpg/sg4_1_cif.got.tgz:611.got - 2010.06.03 18:43:04.
