data_PCOD9117226
_publ_section_title
;
Structure prediction by ZEFSAII (Michael W. Deem and Ramdas Pophale) SiO2 
 PCOD9117226
Probable space group: P 21
;
_chemical_formula_sum "Si O2"
_cell_formula_units_Z 16
_cell_length_a 27.564026
_cell_length_b 5.315357
_cell_length_c 22.577911
_cell_angle_alpha 90.000000
_cell_angle_beta 12.291191
_cell_angle_gamma 90.000000
_cell_volume 704.196802
_symmetry_space_group_name_H-M "P 21"
_symmetry_group_IT_number 4
_symmetry_cell_setting 'monoclinic'
loop_
_space_group_symop_operation_xyz
x,y,z
-x,1/2+y,-z
loop_
_atom_site_type_symbol
_atom_site_label
_atom_site_fract_x
_atom_site_fract_y
_atom_site_fract_z
Si Si1 0.292418 0.048170 0.633755
Si Si2 0.435037 0.573254 0.861529
Si Si3 0.084065 0.555530 0.824654
Si Si4 0.879121 0.888130 0.348741
Si Si5 0.382932 0.070385 0.157995
Si Si6 0.274007 0.789302 0.407819
Si Si7 0.780300 0.035334 0.011383
Si Si8 0.037332 0.741523 0.417736
O O1 0.229259 0.319473 0.679153
O O2 0.181566 0.822994 0.728321
O O3 0.559244 0.983042 0.314452
O O4 0.166098 0.036543 0.847569
O O5 0.681843 0.701165 0.561781
O O6 0.519892 0.316568 0.791022
O O7 0.310585 0.543554 0.947535
O O8 0.273230 0.715443 0.100932
O O9 0.085092 0.550035 0.752809
O O10 0.123007 0.794268 0.078458
O O11 0.769388 0.994893 0.540455
O O12 0.346181 0.944020 0.265287
O O13 0.153724 0.173424 0.402506
O O14 0.461457 0.821233 0.027256
O O15 0.015745 0.877774 0.732298
O O16 0.012927 0.515758 0.494999
#
# Coordination Sequence:
#
# PCOD9117226 Si02
#       8
#     2   2   2   2   2   2   2   2
#     4  10  22  44  74 101 144 187 233 281 353 414
#     4  11  24  46  70  96 143 182 233 287 347 417
#     4  10  22  45  71 105 141 189 230 288 345 416
#     4  11  26  42  72 103 141 182 238 289 347 411
#     4  12  27  48  71 101 144 179 233 294 348 415
#     4  11  26  44  68 103 139 184 234 293 347 413
#     4  11  24  44  69 105 136 187 232 286 348 417
#     4  12  27  47  71 104 136 186 235 284 357 417
#
# _framework density 22.72092
#
# number of rings (size 3 to 8) (size 9 to 14) (size 15 to 20)
#    0.000    1.000    2.500    3.000   10.500    2.000 
#    2.250    0.000    0.000    0.000    0.000    0.000 
#    0.000    0.000    0.000    0.000    0.000    0.000 
#
# Total GULP energy -89241.194272 kJ/mol
# GULP energy per Si atom -5577.574642 kJ/mol
# Density = 2.266921 g / cm^3
# Si number density = 22.720920 Si / 1000 Ang^3
#
#
#
# Elastic Constant Matrix: (Units=GPa)
#
#
# Indices 1 2 3 4 5 6 
#
# 1 79.3820 16.1752 31.7766 0.0000 -20.3095 0.0000
# 2 16.1752 51.9249 5.3431 0.0000 7.2085 0.0000
# 3 31.7766 5.3431 126.4387 0.0000 -1.0512 0.0000
# 4 0.0000 0.0000 0.0000 24.0088 0.0000 4.9298
# 5 -20.3095 7.2085 -1.0512 0.0000 31.9214 0.0000
# 6 0.0000 0.0000 0.0000 4.9298 0.0000 27.3318
#
#
#
# Elastic Compliance Matrix: (Units=1/GPa)
#
#
# Indices 1 2 3 4 5 6 
#
# 1 0.019495 -0.007552 -0.004464 0.000000 0.013962 0.000000
# 2 -0.007552 0.022905 0.000847 0.000000 -0.009949 0.000000
# 3 -0.004464 0.000847 0.008972 0.000000 -0.002736 0.000000
# 4 0.000000 0.000000 0.000000 0.043253 0.000000 -0.007802
# 5 0.013962 -0.009949 -0.002736 0.000000 0.042367 0.000000
# 6 0.000000 0.000000 0.000000 -0.007802 0.000000 0.037995
#
#
# Mechanical properties :
#
#
# Convention : Reuss Voigt Hill
#
# Bulk Modulus (GPa) = 34.44132 40.48172 37.46152
# Shear Modulus (GPa) = 24.15421 30.28246 27.21833
#
# Velocity S-wave (km/s) = 3.26403 3.65472 3.46488
# Velocity P-wave (km/s) = 5.42186 5.97201 5.70357
#
# Compressibility (1/GPa) = 0.02903489
#
# Stress axis : x y z
#
# Youngs Moduli (GPa) = 51.29453 43.65846 111.45298
#
# Poissons Ratio (x) = 0.32970 0.49756
# Poissons Ratio (y) = 0.38737 -0.09443
# Poissons Ratio (z) = 0.22900 -0.03699
#
# Static dielectric constant tensor:
#      x y z
#    x 1.851870 0.000000 0.049620 
#    y 0.000000 2.020970 0.000000 
#    z 0.049620 0.000000 1.868160 
# 
# From -- ./inp_files/16258.got.cif
#   From: 2010.05.17/outbox.cif.g08.bks.cpg/sg4_9_cif.got.tgz:16258.got - 2010.06.03 18:43:04.
