data_PCOD9117921
_publ_section_title
;
Structure prediction by ZEFSAII (Michael W. Deem and Ramdas Pophale) SiO2 
 PCOD9117921
Probable space group: P 21
;
_chemical_formula_sum "Si O2"
_cell_formula_units_Z 14
_cell_length_a 13.961069
_cell_length_b 8.069202
_cell_length_c 12.995479
_cell_angle_alpha 90.000000
_cell_angle_beta 158.334537
_cell_angle_gamma 90.000000
_cell_volume 540.489809
_symmetry_space_group_name_H-M "P 21"
_symmetry_group_IT_number 4
_symmetry_cell_setting 'monoclinic'
loop_
_space_group_symop_operation_xyz
x,y,z
-x,1/2+y,-z
loop_
_atom_site_type_symbol
_atom_site_label
_atom_site_fract_x
_atom_site_fract_y
_atom_site_fract_z
Si Si1 0.870535 0.164230 0.000621
Si Si2 0.702591 0.979537 0.412883
Si Si3 0.155617 0.950524 0.190700
Si Si4 0.207702 0.169283 0.855309
Si Si5 0.363759 0.594716 0.432352
Si Si6 0.128696 0.156346 0.538852
Si Si7 0.619231 0.018607 0.937428
O O1 0.888836 0.338863 0.965980
O O2 0.719257 0.282504 0.632468
O O3 0.667604 0.134335 0.885992
O O4 0.121651 0.057631 0.270565
O O5 0.652021 0.984734 0.483776
O O6 0.932051 0.109876 0.621241
O O7 0.816472 0.811736 0.480400
O O8 0.430440 0.030502 0.090169
O O9 0.357700 0.082984 0.340802
O O10 0.833922 0.037305 0.859263
O O11 0.176112 0.207209 0.703409
O O12 0.306821 0.330496 0.014316
O O13 0.346414 0.025720 0.721911
O O14 0.841145 0.087748 0.236297
#
# Coordination Sequence:
#
# PCOD9117921 Si02
#       7
#     2   2   2   2   2   2   2
#     4  10  26  41  68  98 139 173 224 271 335 406
#     4  12  27  44  76 101 139 182 229 278 353 404
#     4  10  24  38  66  90 144 172 218 272 324 396
#     4  12  26  47  71 103 137 179 233 289 340 404
#     4  10  26  41  68  98 139 173 224 271 335 406
#     4  12  26  47  71 103 137 179 233 289 340 404
#     4  12  27  44  76 101 139 182 229 278 353 404
#
# _framework density 25.902429999999999
#
# number of rings (size 3 to 8) (size 9 to 14) (size 15 to 20)
#    0.857    0.000    0.000    6.000   10.000    0.000 
#    0.000    0.000    0.000    0.000    0.000    0.000 
#    0.000    0.000    0.000    0.000    0.000    0.000 
#
# Total GULP energy -78202.869536 kJ/mol
# GULP energy per Si atom -5585.919253 kJ/mol
# Density = 2.584347 g / cm^3
# Si number density = 25.902430 Si / 1000 Ang^3
#
#
#
# Elastic Constant Matrix: (Units=GPa)
#
#
# Indices 1 2 3 4 5 6 
#
# 1 66.8977 7.7854 2.3651 0.0000 -0.6311 0.0000
# 2 7.7854 49.4968 24.6079 0.0000 -4.7165 0.0000
# 3 2.3651 24.6079 67.0541 0.0000 -1.7254 0.0000
# 4 0.0000 0.0000 0.0000 39.3559 0.0000 0.7059
# 5 -0.6311 -4.7165 -1.7254 0.0000 32.8820 0.0000
# 6 0.0000 0.0000 0.0000 0.7059 0.0000 35.2907
#
#
#
# Elastic Compliance Matrix: (Units=1/GPa)
#
#
# Indices 1 2 3 4 5 6 
#
# 1 0.015237 -0.002611 0.000419 0.000000 -0.000060 0.000000
# 2 -0.002611 0.025473 -0.009176 0.000000 0.003122 0.000000
# 3 0.000419 -0.009176 0.018257 0.000000 -0.000350 0.000000
# 4 0.000000 0.000000 0.000000 0.025418 0.000000 -0.000508
# 5 -0.000060 0.003122 -0.000350 0.000000 0.030840 0.000000
# 6 0.000000 0.000000 0.000000 -0.000508 0.000000 0.028346
#
#
# Mechanical properties :
#
#
# Convention : Reuss Voigt Hill
#
# Bulk Modulus (GPa) = 27.59992 28.10727 27.85359
# Shear Modulus (GPa) = 28.02942 31.41840 29.72391
#
# Velocity S-wave (km/s) = 3.29312 3.48652 3.39120
# Velocity P-wave (km/s) = 5.01378 5.20409 5.10982
#
# Compressibility (1/GPa) = 0.03623199
#
# Stress axis : x y z
#
# Youngs Moduli (GPa) = 65.63130 39.25660 54.77354
#
# Poissons Ratio (x) = 0.10249 -0.02296
# Poissons Ratio (y) = 0.17134 0.50260
# Poissons Ratio (z) = -0.02751 0.36022
#
# Static dielectric constant tensor:
#      x y z
#    x 2.046540 0.000000 -0.133410 
#    y 0.000000 1.986170 0.000000 
#    z -0.133410 0.000000 2.142720 
# 
# From -- ./inp_files/14199.got.cif
#   From: 2010.05.17/outbox.cif.g08.bks.cpg/sg4_8_cif.got.tgz:14199.got - 2010.06.03 18:43:04.
