data_PCOD9117623
_publ_section_title
;
Structure prediction by ZEFSAII (Michael W. Deem and Ramdas Pophale) SiO2 
 PCOD9117623
Probable space group: P 21
;
_chemical_formula_sum "Si O2"
_cell_formula_units_Z 16
_cell_length_a 11.324900
_cell_length_b 7.695088
_cell_length_c 8.511252
_cell_angle_alpha 90.000000
_cell_angle_beta 120.871672
_cell_angle_gamma 90.000000
_cell_volume 636.634240
_symmetry_space_group_name_H-M "P 21"
_symmetry_group_IT_number 4
_symmetry_cell_setting 'monoclinic'
loop_
_space_group_symop_operation_xyz
x,y,z
-x,1/2+y,-z
loop_
_atom_site_type_symbol
_atom_site_label
_atom_site_fract_x
_atom_site_fract_y
_atom_site_fract_z
Si Si1 0.673861 0.405340 0.700820
Si Si2 0.620086 0.912758 0.364931
Si Si3 0.743161 0.544702 0.087148
Si Si4 0.388847 0.007863 0.685347
Si Si5 0.195987 0.580223 0.731882
Si Si6 0.006775 0.236915 0.642441
Si Si7 0.303068 0.423080 0.075381
Si Si8 0.186560 0.563380 0.265063
O O1 0.517830 0.457410 0.637911
O O2 0.697596 0.468986 0.535224
O O3 0.693260 0.199281 0.697176
O O4 0.751773 0.465621 0.915519
O O5 0.608606 0.715969 0.305074
O O6 0.657778 0.040019 0.250672
O O7 0.759191 0.944455 0.557403
O O8 0.653967 0.454182 0.164752
O O9 0.884971 0.579082 0.276853
O O10 0.696997 0.742745 0.018387
O O11 0.541500 0.936685 0.760139
O O12 0.092087 0.413247 0.677740
O O13 0.106437 0.712864 0.570829
O O14 0.252436 0.593527 0.945193
O O15 0.929818 0.194537 0.754825
O O16 0.183398 0.424173 0.124577
#
# Coordination Sequence:
#
# PCOD9117623 Si02
#       8
#     2   2   2   2   2   2   2   2
#     4  12  25  43  71 105 142 172 237 284 351 414
#     4  11  20  45  66  97 138 173 220 287 348 400
#     4  11  27  45  68 103 137 187 230 282 346 419
#     4  12  24  44  72 101 136 181 223 284 352 414
#     4  10  23  43  69  91 138 179 230 287 335 412
#     4  10  24  46  63  98 135 182 239 277 345 406
#     4  11  22  44  66  99 136 175 230 282 354 406
#     4  11  25  40  69 102 136 183 225 289 345 411
#
# _framework density 25.132169000000001
#
# number of rings (size 3 to 8) (size 9 to 14) (size 15 to 20)
#    0.000    1.000    5.000    1.500    3.500    3.000 
#    2.250    1.250    0.000    0.000    0.000    0.000 
#    0.000    0.000    0.000    0.000    0.000    0.000 
#
# Total GULP energy -89089.808147 kJ/mol
# GULP energy per Si atom -5568.113009 kJ/mol
# Density = 2.507497 g / cm^3
# Si number density = 25.132169 Si / 1000 Ang^3
#
#
#
# Elastic Constant Matrix: (Units=GPa)
#
#
# Indices 1 2 3 4 5 6 
#
# 1 91.1440 24.5393 -4.9428 0.0000 -15.4397 0.0000
# 2 24.5393 77.1863 32.0927 0.0000 -3.7659 0.0000
# 3 -4.9428 32.0927 90.7798 0.0000 -17.2976 0.0000
# 4 0.0000 0.0000 0.0000 36.5594 0.0000 -8.6386
# 5 -15.4397 -3.7659 -17.2976 0.0000 40.4890 0.0000
# 6 0.0000 0.0000 0.0000 -8.6386 0.0000 17.9025
#
#
#
# Elastic Compliance Matrix: (Units=1/GPa)
#
#
# Indices 1 2 3 4 5 6 
#
# 1 0.013832 -0.005753 0.004017 0.000000 0.006456 0.000000
# 2 -0.005753 0.017615 -0.007235 0.000000 -0.003646 0.000000
# 3 0.004017 -0.007235 0.015193 0.000000 0.007349 0.000000
# 4 0.000000 0.000000 0.000000 0.030873 0.000000 0.014897
# 5 0.006456 -0.003646 0.007349 0.000000 0.029960 0.000000
# 6 0.000000 0.000000 0.000000 0.014897 0.000000 0.063046
#
#
# Mechanical properties :
#
#
# Convention : Reuss Voigt Hill
#
# Bulk Modulus (GPa) = 34.84644 40.27648 37.56146
# Shear Modulus (GPa) = 25.24908 32.81825 29.03366
#
# Velocity S-wave (km/s) = 3.17306 3.61754 3.40257
# Velocity P-wave (km/s) = 5.22684 5.78874 5.51495
#
# Compressibility (1/GPa) = 0.02869733
#
# Stress axis : x y z
#
# Youngs Moduli (GPa) = 72.29672 56.76983 65.82146
#
# Poissons Ratio (x) = 0.32658 -0.26440
# Poissons Ratio (y) = 0.41590 0.47624
# Poissons Ratio (z) = -0.29041 0.41075
#
# Static dielectric constant tensor:
#      x y z
#    x 2.109160 0.000000 -0.102150 
#    y 0.000000 1.998830 0.000000 
#    z -0.102150 0.000000 2.126490 
# 
# From -- ./inp_files/7878.got.cif
#   From: 2010.05.17/outbox.cif.g08.bks.cpg/sg4_4_cif.got.tgz:7878.got - 2010.06.03 18:43:04.
