data_PCOD9117890
_publ_section_title
;
Structure prediction by ZEFSAII (Michael W. Deem and Ramdas Pophale) SiO2 
 PCOD9117890
Probable space group: P 21
;
_chemical_formula_sum "Si O2"
_cell_formula_units_Z 16
_cell_length_a 11.170442
_cell_length_b 12.653074
_cell_length_c 12.019079
_cell_angle_alpha 90.000000
_cell_angle_beta 156.953352
_cell_angle_gamma 90.000000
_cell_volume 665.039838
_symmetry_space_group_name_H-M "P 21"
_symmetry_group_IT_number 4
_symmetry_cell_setting 'monoclinic'
loop_
_space_group_symop_operation_xyz
x,y,z
-x,1/2+y,-z
loop_
_atom_site_type_symbol
_atom_site_label
_atom_site_fract_x
_atom_site_fract_y
_atom_site_fract_z
Si Si1 0.882596 0.453360 0.859683
Si Si2 0.324898 0.293121 0.647254
Si Si3 0.797032 0.105707 0.461221
Si Si4 0.757082 0.560068 0.350730
Si Si5 0.339507 0.872079 0.874861
Si Si6 0.279042 0.241835 0.973812
Si Si7 0.248839 0.437268 0.394950
Si Si8 0.485333 0.922672 0.668353
O O1 0.558190 0.501660 0.623507
O O2 0.713775 0.394294 0.610988
O O3 0.029211 0.415377 0.102669
O O4 0.208509 0.496333 0.089761
O O5 0.373179 0.170636 0.717068
O O6 0.327365 0.325568 0.520643
O O7 0.006095 0.331171 0.430080
O O8 0.576698 0.361447 0.925520
O O9 0.445340 0.132937 0.146768
O O10 0.944650 0.088242 0.466266
O O11 0.866728 0.008623 0.601780
O O12 0.948363 0.209019 0.648179
O O13 0.590236 0.485665 0.117678
O O14 0.749861 0.481814 0.450295
O O15 0.547229 0.791285 0.983164
O O16 0.348582 0.323128 0.132221
#
# Coordination Sequence:
#
# PCOD9117890 Si02
#       8
#     2   2   2   2   2   2   2   2
#     4  10  23  49  68  92 132 184 244 285 336 394
#     4  12  24  41  65 102 138 180 218 272 349 411
#     4  12  23  39  68 105 142 174 219 280 353 425
#     4  11  25  42  70 108 143 177 223 278 353 428
#     4  11  23  39  62  97 145 175 210 266 333 421
#     4  11  22  40  63 103 134 178 222 271 345 412
#     4  11  24  43  69  97 133 181 228 293 342 401
#     4  10  24  45  73  94 135 187 230 291 337 398
#
# _framework density 24.058710000000001
#
# number of rings (size 3 to 8) (size 9 to 14) (size 15 to 20)
#    0.000    1.000    3.750    2.250    1.750    6.000 
#    0.000   12.500    0.000    0.000    0.000    0.000 
#    0.000    0.000    0.000    0.000    0.000    0.000 
#
# Total GULP energy -89107.131702 kJ/mol
# GULP energy per Si atom -5569.195731 kJ/mol
# Density = 2.400395 g / cm^3
# Si number density = 24.058710 Si / 1000 Ang^3
#
#
#
# Elastic Constant Matrix: (Units=GPa)
#
#
# Indices 1 2 3 4 5 6 
#
# 1 87.3762 16.9417 20.3233 0.0000 -12.4268 0.0000
# 2 16.9417 80.3730 19.6111 0.0000 -9.7968 0.0000
# 3 20.3233 19.6111 128.0765 0.0000 -3.1508 0.0000
# 4 0.0000 0.0000 0.0000 14.3649 0.0000 7.8590
# 5 -12.4268 -9.7968 -3.1508 0.0000 43.4559 0.0000
# 6 0.0000 0.0000 0.0000 7.8590 0.0000 5.5491
#
#
#
# Elastic Compliance Matrix: (Units=1/GPa)
#
#
# Indices 1 2 3 4 5 6 
#
# 1 0.012628 -0.001888 -0.001639 0.000000 0.003067 0.000000
# 2 -0.001888 0.013550 -0.001716 0.000000 0.002390 0.000000
# 3 -0.001639 -0.001716 0.008325 0.000000 -0.000252 0.000000
# 4 0.000000 0.000000 0.000000 0.309170 0.000000 -0.437867
# 5 0.003067 0.002390 -0.000252 0.000000 0.024409 0.000000
# 6 0.000000 0.000000 0.000000 -0.437867 0.000000 0.800346
#
#
# Mechanical properties :
#
#
# Convention : Reuss Voigt Hill
#
# Bulk Modulus (GPa) = 41.63991 45.50864 43.57428
# Shear Modulus (GPa) = 4.21258 28.60394 16.40826
#
# Velocity S-wave (km/s) = 1.32467 3.45182 2.61436
# Velocity P-wave (km/s) = 4.43676 5.90283 5.22151
#
# Compressibility (1/GPa) = 0.02401542
#
# Stress axis : x y z
#
# Youngs Moduli (GPa) = 79.18717 73.79992 120.12629
#
# Poissons Ratio (x) = 0.13934 0.19693
# Poissons Ratio (y) = 0.14951 0.20618
# Poissons Ratio (z) = 0.12981 0.12667
#
# Static dielectric constant tensor:
#      x y z
#    x 2.023620 0.000000 0.025230 
#    y 0.000000 1.962560 0.000000 
#    z 0.025230 0.000000 2.000610 
# 
# From -- ./inp_files/12364.got.cif
#   From: 2010.05.17/outbox.cif.g08.bks.cpg/sg4_7_cif.got.tgz:12364.got - 2010.06.03 18:43:04.
