data_PCOD9117656
_publ_section_title
;
Structure prediction by ZEFSAII (Michael W. Deem and Ramdas Pophale) SiO2 
 PCOD9117656
Probable space group: P 21
;
_chemical_formula_sum "Si O2"
_cell_formula_units_Z 16
_cell_length_a 8.747544
_cell_length_b 10.113109
_cell_length_c 12.431626
_cell_angle_alpha 90.000000
_cell_angle_beta 139.819936
_cell_angle_gamma 90.000000
_cell_volume 709.557602
_symmetry_space_group_name_H-M "P 21"
_symmetry_group_IT_number 4
_symmetry_cell_setting 'monoclinic'
loop_
_space_group_symop_operation_xyz
x,y,z
-x,1/2+y,-z
loop_
_atom_site_type_symbol
_atom_site_label
_atom_site_fract_x
_atom_site_fract_y
_atom_site_fract_z
Si Si1 0.721064 0.246600 0.646707
Si Si2 0.022488 0.983926 0.828612
Si Si3 0.420669 0.894795 0.879070
Si Si4 0.280422 0.980836 0.196042
Si Si5 0.227485 0.506777 0.629936
Si Si6 0.317380 0.624152 0.900815
Si Si7 0.166664 0.794347 0.535049
Si Si8 0.795538 0.710363 0.681680
O O1 0.794624 0.359861 0.769165
O O2 0.741168 0.303838 0.536542
O O3 0.449077 0.198650 0.514853
O O4 0.893636 0.122850 0.749928
O O5 0.836805 0.863826 0.728023
O O6 0.196630 0.959720 0.820747
O O7 0.162900 0.974160 0.016270
O O8 0.465396 0.761103 0.974279
O O9 0.355336 0.839336 0.726839
O O10 0.609872 0.012864 0.974759
O O11 0.564495 0.970332 0.339004
O O12 0.227966 0.119490 0.225641
O O13 0.352080 0.548998 0.807671
O O14 0.105442 0.640980 0.523283
O O15 0.053482 0.388592 0.561256
O O16 0.040726 0.662982 0.758516
#
# Coordination Sequence:
#
# PCOD9117656 Si02
#       8
#     2   2   2   2   2   2   2   2
#     4  12  26  46  77 105 144 191 236 296 366 432
#     4  11  25  49  73 105 144 191 236 300 362 427
#     4  10  23  43  74 104 142 188 246 299 347 421
#     4  12  25  47  71 107 148 186 238 300 356 432
#     4  11  24  46  69 106 143 185 245 293 355 421
#     4  10  23  44  70 101 147 188 239 299 352 430
#     4  11  25  46  73 106 142 192 235 303 351 431
#     4  11  25  45  71 106 148 187 235 294 367 430
#
# _framework density 22.549261000000001
#
# number of rings (size 3 to 8) (size 9 to 14) (size 15 to 20)
#    0.000    1.000    2.500    3.000    5.250    4.000 
#    0.000    0.000    0.000    0.000    0.000    0.000 
#    0.000    0.000    0.000    0.000    0.000    0.000 
#
# Total GULP energy -89520.193115 kJ/mol
# GULP energy per Si atom -5595.012070 kJ/mol
# Density = 2.249794 g / cm^3
# Si number density = 22.549261 Si / 1000 Ang^3
#
#
#
# Elastic Constant Matrix: (Units=GPa)
#
#
# Indices 1 2 3 4 5 6 
#
# 1 81.6548 37.3718 27.3169 0.0000 -9.2856 0.0000
# 2 37.3718 96.1271 50.0263 0.0000 -11.6622 0.0000
# 3 27.3169 50.0263 80.1729 0.0000 -13.5267 0.0000
# 4 0.0000 0.0000 0.0000 42.8409 0.0000 5.4710
# 5 -9.2856 -11.6622 -13.5267 0.0000 28.8315 0.0000
# 6 0.0000 0.0000 0.0000 5.4710 0.0000 34.5619
#
#
#
# Elastic Compliance Matrix: (Units=1/GPa)
#
#
# Indices 1 2 3 4 5 6 
#
# 1 0.015274 -0.004677 -0.001927 0.000000 0.002123 0.000000
# 2 -0.004677 0.016931 -0.008763 0.000000 0.001231 0.000000
# 3 -0.001927 -0.008763 0.019433 0.000000 0.004952 0.000000
# 4 0.000000 0.000000 0.000000 0.023824 0.000000 -0.003771
# 5 0.002123 0.001231 0.004952 0.000000 0.038189 0.000000
# 6 0.000000 0.000000 0.000000 -0.003771 0.000000 0.029531
#
#
# Mechanical properties :
#
#
# Convention : Reuss Voigt Hill
#
# Bulk Modulus (GPa) = 47.84233 54.15387 50.99810
# Shear Modulus (GPa) = 27.64182 30.79621 29.21901
#
# Velocity S-wave (km/s) = 3.50500 3.69959 3.60361
# Velocity P-wave (km/s) = 6.13538 6.50517 6.32298
#
# Compressibility (1/GPa) = 0.02090199
#
# Stress axis : x y z
#
# Youngs Moduli (GPa) = 65.47239 59.06211 51.45779
#
# Poissons Ratio (x) = 0.27626 0.09917
# Poissons Ratio (y) = 0.30624 0.45095
# Poissons Ratio (z) = 0.12618 0.51759
#
# Static dielectric constant tensor:
#      x y z
#    x 1.830890 0.000000 0.015260 
#    y 0.000000 1.812210 0.000000 
#    z 0.015260 0.000000 1.866940 
# 
# From -- ./inp_files/11112.got.cif
#   From: 2010.05.17/outbox.cif.g08.bks.cpg/sg4_6_cif.got.tgz:11112.got - 2010.06.03 18:43:04.
