data_PCOD9117805
_publ_section_title
;
Structure prediction by ZEFSAII (Michael W. Deem and Ramdas Pophale) SiO2 
 PCOD9117805
Probable space group: P 21
;
_chemical_formula_sum "Si O2"
_cell_formula_units_Z 16
_cell_length_a 4.917258
_cell_length_b 9.653833
_cell_length_c 12.987427
_cell_angle_alpha 90.000000
_cell_angle_beta 83.140355
_cell_angle_gamma 90.000000
_cell_volume 612.104978
_symmetry_space_group_name_H-M "P 21"
_symmetry_group_IT_number 4
_symmetry_cell_setting 'monoclinic'
loop_
_space_group_symop_operation_xyz
x,y,z
-x,1/2+y,-z
loop_
_atom_site_type_symbol
_atom_site_label
_atom_site_fract_x
_atom_site_fract_y
_atom_site_fract_z
Si Si1 0.885716 0.726310 0.852295
Si Si2 0.521313 0.966374 0.913489
Si Si3 0.724924 0.417884 0.852208
Si Si4 0.286695 0.574555 0.371987
Si Si5 0.431138 0.369139 0.667417
Si Si6 0.170538 0.903745 0.674001
Si Si7 0.953291 0.439399 0.543097
Si Si8 0.034935 0.163103 0.911167
O O1 0.618556 0.825054 0.855297
O O2 0.852340 0.567187 0.822700
O O3 0.103056 0.797122 0.766627
O O4 0.937081 0.722292 0.973153
O O5 0.310652 0.076475 0.872138
O O6 0.793700 0.051287 0.926260
O O7 0.385249 0.926077 0.027178
O O8 0.474049 0.399431 0.785273
O O9 0.929899 0.287862 0.844448
O O10 0.433149 0.719182 0.354056
O O11 0.522750 0.459151 0.349923
O O12 0.130415 0.563794 0.487669
O O13 0.044363 0.532992 0.304042
O O14 0.142268 0.376253 0.623600
O O15 0.653028 0.468846 0.599997
O O16 0.086717 0.855057 0.562358
#
# Coordination Sequence:
#
# PCOD9117805 Si02
#       8
#     2   2   2   2   2   2   2   2
#     4  11  25  48  79 110 151 200 254 316 374 452
#     4  11  26  50  76 106 157 208 251 310 382 470
#     4  11  27  48  73 120 150 195 255 318 380 444
#     4  10  23  46  69 104 146 185 254 293 369 448
#     4  12  25  45  76 104 152 191 241 315 369 432
#     4  10  23  46  71 108 139 190 253 291 367 453
#     4  10  23  46  68 108 136 196 237 303 363 451
#     4  11  26  49  76 110 159 201 253 314 388 448
#
# _framework density 26.139306000000001
#
# number of rings (size 3 to 8) (size 9 to 14) (size 15 to 20)
#    0.750    0.500    1.250    3.750    1.750   10.000 
#    4.500    0.000    0.000    0.000    0.000    0.000 
#    0.000    0.000    0.000    0.000    0.000    0.000 
#
# Total GULP energy -89587.668616 kJ/mol
# GULP energy per Si atom -5599.229288 kJ/mol
# Density = 2.607981 g / cm^3
# Si number density = 26.139306 Si / 1000 Ang^3
#
#
#
# Elastic Constant Matrix: (Units=GPa)
#
#
# Indices 1 2 3 4 5 6 
#
# 1 150.1673 28.2457 24.6326 0.0000 19.5701 0.0000
# 2 28.2457 129.0073 25.8933 0.0000 0.7766 0.0000
# 3 24.6326 25.8933 109.6214 0.0000 21.7014 0.0000
# 4 0.0000 0.0000 0.0000 27.0745 0.0000 -2.1670
# 5 19.5701 0.7766 21.7014 0.0000 40.8155 0.0000
# 6 0.0000 0.0000 0.0000 -2.1670 0.0000 25.5804
#
#
#
# Elastic Compliance Matrix: (Units=1/GPa)
#
#
# Indices 1 2 3 4 5 6 
#
# 1 0.007466 -0.001475 -0.000700 0.000000 -0.003180 0.000000
# 2 -0.001475 0.008463 -0.001985 0.000000 0.001601 0.000000
# 3 -0.000700 -0.001985 0.010813 0.000000 -0.005376 0.000000
# 4 0.000000 0.000000 0.000000 0.037187 0.000000 0.003150
# 5 -0.003180 0.001601 -0.005376 0.000000 0.028853 0.000000
# 6 0.000000 0.000000 0.000000 0.003150 0.000000 0.039359
#
#
# Mechanical properties :
#
#
# Convention : Reuss Voigt Hill
#
# Bulk Modulus (GPa) = 54.28090 60.70435 57.49262
# Shear Modulus (GPa) = 34.10626 39.36237 36.73431
#
# Velocity S-wave (km/s) = 3.61610 3.88476 3.75284
# Velocity P-wave (km/s) = 6.18434 6.58754 6.38912
#
# Compressibility (1/GPa) = 0.01842269
#
# Stress axis : x y z
#
# Youngs Moduli (GPa) = 133.94351 118.15931 92.48523
#
# Poissons Ratio (x) = 0.17429 0.06472
# Poissons Ratio (y) = 0.19757 0.18355
# Poissons Ratio (z) = 0.09373 0.23450
#
# Static dielectric constant tensor:
#      x y z
#    x 2.035520 0.000000 -0.022420 
#    y 0.000000 2.069800 0.000000 
#    z -0.022420 0.000000 2.118710 
# 
# From -- ./inp_files/10522.got.cif
#   From: 2010.05.17/outbox.cif.g08.bks.cpg/sg4_6_cif.got.tgz:10522.got - 2010.06.03 18:43:04.
