data_PCOD9117136
_publ_section_title
;
Structure prediction by ZEFSAII (Michael W. Deem and Ramdas Pophale) SiO2 
 PCOD9117136
Probable space group: P 21
;
_chemical_formula_sum "Si O2"
_cell_formula_units_Z 16
_cell_length_a 9.664186
_cell_length_b 10.428683
_cell_length_c 10.066912
_cell_angle_alpha 90.000000
_cell_angle_beta 43.047978
_cell_angle_gamma 90.000000
_cell_volume 692.570529
_symmetry_space_group_name_H-M "P 21"
_symmetry_group_IT_number 4
_symmetry_cell_setting 'monoclinic'
loop_
_space_group_symop_operation_xyz
x,y,z
-x,1/2+y,-z
loop_
_atom_site_type_symbol
_atom_site_label
_atom_site_fract_x
_atom_site_fract_y
_atom_site_fract_z
Si Si1 0.864631 0.068840 0.275652
Si Si2 0.023126 0.799256 0.199834
Si Si3 0.848878 0.339431 0.381403
Si Si4 0.144558 0.259189 0.961130
Si Si5 0.573783 0.600508 0.908373
Si Si6 0.532187 0.350594 0.100102
Si Si7 0.890183 0.752142 0.564207
Si Si8 0.552981 0.969437 0.271792
O O1 0.983561 0.337725 0.420869
O O2 0.925708 0.937390 0.301311
O O3 0.707461 0.033784 0.267944
O O4 0.078499 0.125235 0.070100
O O5 0.900347 0.746586 0.162425
O O6 0.007710 0.721865 0.347333
O O7 0.251760 0.819963 0.989218
O O8 0.776863 0.190022 0.417603
O O9 0.668367 0.439897 0.514176
O O10 0.989863 0.353137 0.151708
O O11 0.355464 0.329971 0.827871
O O12 0.537985 0.491993 0.039367
O O13 0.807745 0.629176 0.704312
O O14 0.469794 0.552539 0.844927
O O15 0.489386 0.741643 0.000433
O O16 0.325834 0.318970 0.321526
#
# Coordination Sequence:
#
# PCOD9117136 Si02
#       8
#     2   2   2   2   2   2   2   2
#     4   9  23  43  65  96 134 174 235 285 336 417
#     4  11  21  44  66  96 136 178 226 287 337 412
#     4  10  22  44  64  96 136 176 228 287 346 400
#     4   9  23  43  66  97 137 173 231 283 347 400
#     4  10  23  43  66 100 141 176 232 277 344 413
#     4  10  23  43  67  98 139 179 227 276 347 405
#     4  10  24  42  67 103 135 174 234 281 338 410
#     4  11  21  42  67  94 134 178 227 288 343 409
#
# _framework density 23.102339000000001
#
# number of rings (size 3 to 8) (size 9 to 14) (size 15 to 20)
#    1.500    0.500    0.000    3.000    0.000    4.000 
#   22.500    0.000    0.000    0.000    0.000    0.000 
#    0.000    0.000    0.000    0.000    0.000    0.000 
#
# Total GULP energy -89156.971241 kJ/mol
# GULP energy per Si atom -5572.310703 kJ/mol
# Density = 2.304976 g / cm^3
# Si number density = 23.102339 Si / 1000 Ang^3
#
#
#
# Elastic Constant Matrix: (Units=GPa)
#
#
# Indices 1 2 3 4 5 6 
#
# 1 77.0462 -4.4630 13.8328 0.0000 -2.3443 0.0000
# 2 -4.4630 43.5488 -9.5823 0.0000 -8.0430 0.0000
# 3 13.8328 -9.5823 73.5152 0.0000 -4.7606 0.0000
# 4 0.0000 0.0000 0.0000 28.5122 0.0000 1.2147
# 5 -2.3443 -8.0430 -4.7606 0.0000 24.0183 0.0000
# 6 0.0000 0.0000 0.0000 1.2147 0.0000 22.6421
#
#
#
# Elastic Compliance Matrix: (Units=1/GPa)
#
#
# Indices 1 2 3 4 5 6 
#
# 1 0.013496 0.001100 -0.002317 0.000000 0.001226 0.000000
# 2 0.001100 0.025643 0.003747 0.000000 0.009437 0.000000
# 3 -0.002317 0.003747 0.014783 0.000000 0.003959 0.000000
# 4 0.000000 0.000000 0.000000 0.035153 0.000000 -0.001886
# 5 0.001226 0.009437 0.003959 0.000000 0.045699 0.000000
# 6 0.000000 0.000000 0.000000 -0.001886 0.000000 0.044267
#
#
# Mechanical properties :
#
#
# Convention : Reuss Voigt Hill
#
# Bulk Modulus (GPa) = 16.95445 21.52057 19.23751
# Shear Modulus (GPa) = 25.82082 27.98938 26.90510
#
# Velocity S-wave (km/s) = 3.34679 3.48449 3.41633
# Velocity P-wave (km/s) = 4.72117 5.05217 4.88947
#
# Compressibility (1/GPa) = 0.05898157
#
# Stress axis : x y z
#
# Youngs Moduli (GPa) = 74.09494 38.99744 67.64422
#
# Poissons Ratio (x) = -0.04289 0.15671
# Poissons Ratio (y) = -0.08150 -0.25343
# Poissons Ratio (z) = 0.17165 -0.14610
#
# Static dielectric constant tensor:
#      x y z
#    x 1.869000 0.000000 -0.023020 
#    y 0.000000 1.894050 0.000000 
#    z -0.023020 0.000000 1.854550 
# 
# From -- ./inp_files/12197.got.cif
#   From: 2010.05.17/outbox.cif.g08.bks.cpg/sg4_7_cif.got.tgz:12197.got - 2010.06.03 18:43:04.
