data_PCOD9117733
_publ_section_title
;
Structure prediction by ZEFSAII (Michael W. Deem and Ramdas Pophale) SiO2 
 PCOD9117733
Probable space group: P 21
;
_chemical_formula_sum "Si O2"
_cell_formula_units_Z 16
_cell_length_a 11.422500
_cell_length_b 5.543772
_cell_length_c 21.618498
_cell_angle_alpha 90.000000
_cell_angle_beta 151.517670
_cell_angle_gamma 90.000000
_cell_volume 652.842133
_symmetry_space_group_name_H-M "P 21"
_symmetry_group_IT_number 4
_symmetry_cell_setting 'monoclinic'
loop_
_space_group_symop_operation_xyz
x,y,z
-x,1/2+y,-z
loop_
_atom_site_type_symbol
_atom_site_label
_atom_site_fract_x
_atom_site_fract_y
_atom_site_fract_z
Si Si1 0.657368 0.283800 0.076283
Si Si2 0.458611 0.358984 0.785783
Si Si3 0.379204 0.224148 0.223359
Si Si4 0.204936 0.819851 0.230647
Si Si5 0.357260 0.003812 0.429301
Si Si6 0.088207 0.901173 0.932413
Si Si7 0.312713 0.102770 0.590281
Si Si8 0.072640 0.584045 0.683353
O O1 0.842671 0.297129 0.103376
O O2 0.801102 0.261217 0.208760
O O3 0.499176 0.532960 0.001089
O O4 0.538034 0.634846 0.804680
O O5 0.356317 0.225629 0.677774
O O6 0.263336 0.385305 0.748836
O O7 0.711339 0.270973 0.931805
O O8 0.628789 0.320738 0.370820
O O9 0.157218 0.400349 0.137191
O O10 0.257346 0.992562 0.198092
O O11 0.226835 0.965562 0.303391
O O12 0.459852 0.668281 0.349077
O O13 0.950938 0.680747 0.105503
O O14 0.545242 0.779194 0.523412
O O15 0.152966 0.965133 0.386009
O O16 0.060387 0.178315 0.441128
#
# Coordination Sequence:
#
# PCOD9117733 Si02
#       8
#     2   2   2   2   2   2   2   2
#     4  12  30  55  77 119 163 209 268 332 405 484
#     4  11  27  47  72 117 151 207 263 325 401 476
#     4  10  24  44  77 106 156 200 266 327 384 479
#     4  10  23  44  75 109 152 197 269 318 391 469
#     4  12  27  48  79 116 159 205 265 326 399 483
#     4  11  26  46  78 111 152 211 264 328 395 471
#     4  10  24  49  70 115 149 205 260 326 402 470
#     4  12  27  49  80 113 162 208 259 338 407 484
#
# _framework density 24.508220999999999
#
# number of rings (size 3 to 8) (size 9 to 14) (size 15 to 20)
#    0.000    1.000    2.500    1.500   14.000    1.000 
#    6.750    0.000    0.000    0.000    0.000    0.000 
#    0.000    0.000    0.000    0.000    0.000    0.000 
#
# Total GULP energy -89105.655382 kJ/mol
# GULP energy per Si atom -5569.103461 kJ/mol
# Density = 2.445244 g / cm^3
# Si number density = 24.508221 Si / 1000 Ang^3
#
#
#
# Elastic Constant Matrix: (Units=GPa)
#
#
# Indices 1 2 3 4 5 6 
#
# 1 129.5307 38.8899 58.1922 0.0000 -61.9914 0.0000
# 2 38.8899 98.0420 68.1702 0.0000 -48.9824 0.0000
# 3 58.1922 68.1702 178.8913 0.0000 -92.3688 0.0000
# 4 0.0000 0.0000 0.0000 0.5248 0.0000 -1.0349
# 5 -61.9914 -48.9824 -92.3688 0.0000 175.0069 0.0000
# 6 0.0000 0.0000 0.0000 -1.0349 0.0000 28.6616
#
#
#
# Elastic Compliance Matrix: (Units=1/GPa)
#
#
# Indices 1 2 3 4 5 6 
#
# 1 0.009990 -0.001877 -0.001345 0.000000 0.002304 0.000000
# 2 -0.001877 0.014522 -0.004355 0.000000 0.001101 0.000000
# 3 -0.001345 -0.004355 0.009364 0.000000 0.003247 0.000000
# 4 0.000000 0.000000 0.000000 2.051590 0.000000 0.074079
# 5 0.002304 0.001101 0.003247 0.000000 0.008552 0.000000
# 6 0.000000 0.000000 0.000000 0.074079 0.000000 0.037565
#
#
# Mechanical properties :
#
#
# Convention : Reuss Voigt Hill
#
# Bulk Modulus (GPa) = 53.41104 81.88539 67.64821
# Shear Modulus (GPa) = 2.32237 56.91944 29.62090
#
# Velocity S-wave (km/s) = 0.97450 4.82442 3.48028
# Velocity P-wave (km/s) = 4.80693 8.03227 6.61906
#
# Compressibility (1/GPa) = 0.01872272
#
# Stress axis : x y z
#
# Youngs Moduli (GPa) = 100.09590 68.85916 106.79761
#
# Poissons Ratio (x) = 0.12922 0.14367
# Poissons Ratio (y) = 0.18784 0.46510
# Poissons Ratio (z) = 0.13466 0.29988
#
# Static dielectric constant tensor:
#      x y z
#    x 2.706240 0.000000 -0.077420 
#    y 0.000000 1.968310 0.000000 
#    z -0.077420 0.000000 2.050070 
# 
# From -- ./inp_files/15695.got.cif
#   From: 2010.05.17/outbox.cif.g08.bks.cpg/sg4_8_cif.got.tgz:15695.got - 2010.06.03 18:43:04.
