data_PCOD9117130
_publ_section_title
;
Structure prediction by ZEFSAII (Michael W. Deem and Ramdas Pophale) SiO2 
 PCOD9117130
Probable space group: P 21
;
_chemical_formula_sum "Si O2"
_cell_formula_units_Z 16
_cell_length_a 5.509432
_cell_length_b 8.052530
_cell_length_c 17.800063
_cell_angle_alpha 90.000000
_cell_angle_beta 60.971932
_cell_angle_gamma 90.000000
_cell_volume 690.497290
_symmetry_space_group_name_H-M "P 21"
_symmetry_group_IT_number 4
_symmetry_cell_setting 'monoclinic'
loop_
_space_group_symop_operation_xyz
x,y,z
-x,1/2+y,-z
loop_
_atom_site_type_symbol
_atom_site_label
_atom_site_fract_x
_atom_site_fract_y
_atom_site_fract_z
Si Si1 0.893636 0.493040 0.217276
Si Si2 0.153147 0.953188 0.539048
Si Si3 0.739219 0.684644 0.828991
Si Si4 0.240704 0.814726 0.198211
Si Si5 0.269588 0.603242 0.506045
Si Si6 0.322136 0.178247 0.981289
Si Si7 0.786157 0.353228 0.079273
Si Si8 0.342360 0.638823 0.330736
O O1 0.917107 0.465782 0.124607
O O2 0.569744 0.495432 0.285494
O O3 0.066520 0.338135 0.222460
O O4 0.011184 0.673272 0.220053
O O5 0.147120 0.762523 0.565689
O O6 0.469745 0.017174 0.493694
O O7 0.972935 0.981807 0.488983
O O8 0.968936 0.065490 0.622683
O O9 0.846940 0.505595 0.788686
O O10 0.428356 0.728086 0.849081
O O11 0.692035 0.682162 0.926642
O O12 0.455160 0.785194 0.097639
O O13 0.375223 0.767542 0.258479
O O14 0.379996 0.689984 0.411685
O O15 0.363099 0.988234 0.950085
O O16 0.021677 0.249826 0.002855
#
# Coordination Sequence:
#
# PCOD9117130 Si02
#       8
#     2   2   2   2   2   2   2   2
#     4  11  23  45  63  93 136 180 227 293 355 418
#     4  10  22  44  74 113 143 184 231 281 349 432
#     4  11  25  40  65  94 131 180 245 290 356 421
#     4  12  24  43  68  95 136 184 233 301 349 419
#     4  10  22  43  77 106 146 183 229 282 347 432
#     4  11  23  36  64  92 129 178 239 296 353 412
#     4  11  23  40  61  94 126 176 234 295 357 417
#     4  10  24  43  72  99 143 185 224 284 366 409
#
# _framework density 23.171704999999999
#
# number of rings (size 3 to 8) (size 9 to 14) (size 15 to 20)
#    0.750    0.500    2.500    3.000    5.250    2.000 
#    0.000    6.250    0.000    0.000    0.000    0.000 
#    0.000    0.000    0.000    0.000    0.000    0.000 
#
# Total GULP energy -89288.850715 kJ/mol
# GULP energy per Si atom -5580.553170 kJ/mol
# Density = 2.311897 g / cm^3
# Si number density = 23.171705 Si / 1000 Ang^3
#
#
#
# Elastic Constant Matrix: (Units=GPa)
#
#
# Indices 1 2 3 4 5 6 
#
# 1 96.1016 34.1514 4.1027 0.0000 -21.6874 0.0000
# 2 34.1514 124.3298 -0.8701 0.0000 -18.4925 0.0000
# 3 4.1027 -0.8701 28.9230 0.0000 7.8344 0.0000
# 4 0.0000 0.0000 0.0000 18.6756 0.0000 -5.4982
# 5 -21.6874 -18.4925 7.8344 0.0000 31.0059 0.0000
# 6 0.0000 0.0000 0.0000 -5.4982 0.0000 31.1642
#
#
#
# Elastic Compliance Matrix: (Units=1/GPa)
#
#
# Indices 1 2 3 4 5 6 
#
# 1 0.013509 -0.002380 -0.004469 0.000000 0.009159 0.000000
# 2 -0.002380 0.009287 -0.000464 0.000000 0.003992 0.000000
# 3 -0.004469 -0.000464 0.038770 0.000000 -0.013199 0.000000
# 4 0.000000 0.000000 0.000000 0.056479 0.000000 0.009964
# 5 0.009159 0.003992 -0.013199 0.000000 0.044374 0.000000
# 6 0.000000 0.000000 0.000000 0.009964 0.000000 0.033846
#
#
# Mechanical properties :
#
#
# Convention : Reuss Voigt Hill
#
# Bulk Modulus (GPa) = 21.30359 36.01360 28.65859
# Shear Modulus (GPa) = 22.07140 30.30050 26.18595
#
# Velocity S-wave (km/s) = 3.08963 3.62007 3.36532
# Velocity P-wave (km/s) = 4.68418 5.74883 5.24359
#
# Compressibility (1/GPa) = 0.04694044
#
# Stress axis : x y z
#
# Youngs Moduli (GPa) = 74.02480 107.67400 25.79339
#
# Poissons Ratio (x) = 0.25623 0.11526
# Poissons Ratio (y) = 0.17616 0.01198
# Poissons Ratio (z) = 0.33079 0.05000
#
# Static dielectric constant tensor:
#      x y z
#    x 1.975850 0.000000 0.011100 
#    y 0.000000 1.878440 0.000000 
#    z 0.011100 0.000000 1.908450 
# 
# From -- ./inp_files/15513.got.cif
#   From: 2010.05.17/outbox.cif.g08.bks.cpg/sg4_8_cif.got.tgz:15513.got - 2010.06.03 18:43:04.
