data_PCOD9117563
_publ_section_title
;
Structure prediction by ZEFSAII (Michael W. Deem and Ramdas Pophale) SiO2 
 PCOD9117563
Probable space group: P 21
;
_chemical_formula_sum "Si O2"
_cell_formula_units_Z 16
_cell_length_a 6.518885
_cell_length_b 7.899480
_cell_length_c 15.986182
_cell_angle_alpha 90.000000
_cell_angle_beta 54.808006
_cell_angle_gamma 90.000000
_cell_volume 672.757351
_symmetry_space_group_name_H-M "P 21"
_symmetry_group_IT_number 4
_symmetry_cell_setting 'monoclinic'
loop_
_space_group_symop_operation_xyz
x,y,z
-x,1/2+y,-z
loop_
_atom_site_type_symbol
_atom_site_label
_atom_site_fract_x
_atom_site_fract_y
_atom_site_fract_z
Si Si1 0.019964 0.934200 0.990837
Si Si2 0.392702 0.203333 0.607799
Si Si3 0.377012 0.197922 0.951741
Si Si4 0.202546 0.545191 0.388040
Si Si5 0.730723 0.700466 0.713283
Si Si6 0.378202 0.672918 0.940199
Si Si7 0.664827 0.557426 0.563398
Si Si8 0.149262 0.826841 0.260865
O O1 0.164843 0.806797 0.016906
O O2 0.239969 0.068035 0.920294
O O3 0.858481 0.818306 0.965247
O O4 0.783047 0.041539 0.077250
O O5 0.558708 0.371232 0.577270
O O6 0.117763 0.253291 0.706704
O O7 0.536918 0.054513 0.623170
O O8 0.376694 0.155425 0.513651
O O9 0.610730 0.291254 0.854157
O O10 0.484807 0.110625 0.009337
O O11 0.148185 0.374676 0.348071
O O12 0.201804 0.709125 0.329026
O O13 0.966525 0.558594 0.505326
O O14 0.570972 0.753712 0.831377
O O15 0.566786 0.641628 0.671394
O O16 0.866256 0.526596 0.712614
#
# Coordination Sequence:
#
# PCOD9117563 Si02
#       8
#     2   2   2   2   2   2   2   2
#     4  10  23  42  69  98 137 188 240 298 378 426
#     4  11  25  46  75 112 140 207 242 304 388 445
#     4  11  23  46  72 100 144 190 243 313 370 444
#     4  11  25  48  70 104 150 192 243 310 370 439
#     4  12  25  46  72 106 148 191 247 308 365 441
#     4  11  24  44  69 106 142 192 245 303 374 448
#     4  11  25  44  76 104 152 188 251 304 369 450
#     4  11  26  46  71 106 147 190 247 314 368 445
#
# _framework density 23.782722
#
# number of rings (size 3 to 8) (size 9 to 14) (size 15 to 20)
#    0.000    1.000    2.500    3.000    5.250    4.000 
#    2.250    1.250    0.000    0.000    0.000    0.000 
#    0.000    0.000    0.000    0.000    0.000    0.000 
#
# Total GULP energy -89133.239384 kJ/mol
# GULP energy per Si atom -5570.827461 kJ/mol
# Density = 2.372859 g / cm^3
# Si number density = 23.782722 Si / 1000 Ang^3
#
#
#
# Elastic Constant Matrix: (Units=GPa)
#
#
# Indices 1 2 3 4 5 6 
#
# 1 128.8950 40.9164 49.1573 0.0000 -24.4338 0.0000
# 2 40.9164 99.7493 22.0690 0.0000 -11.1358 0.0000
# 3 49.1573 22.0690 80.7884 0.0000 -5.6977 0.0000
# 4 0.0000 0.0000 0.0000 27.7039 0.0000 -3.5081
# 5 -24.4338 -11.1358 -5.6977 0.0000 18.6827 0.0000
# 6 0.0000 0.0000 0.0000 -3.5081 0.0000 43.3461
#
#
#
# Elastic Compliance Matrix: (Units=1/GPa)
#
#
# Indices 1 2 3 4 5 6 
#
# 1 0.013915 -0.002589 -0.006730 0.000000 0.014603 0.000000
# 2 -0.002589 0.011755 -0.001411 0.000000 0.003191 0.000000
# 3 -0.006730 -0.001411 0.016534 0.000000 -0.004600 0.000000
# 4 0.000000 0.000000 0.000000 0.036470 0.000000 0.002952
# 5 0.014603 0.003191 -0.004600 0.000000 0.073122 0.000000
# 6 0.000000 0.000000 0.000000 0.002952 0.000000 0.023309
#
#
# Mechanical properties :
#
#
# Convention : Reuss Voigt Hill
#
# Bulk Modulus (GPa) = 48.20388 59.30203 53.75296
# Shear Modulus (GPa) = 24.57264 31.09921 27.83593
#
# Velocity S-wave (km/s) = 3.21785 3.62005 3.42486
# Velocity P-wave (km/s) = 5.84111 6.51629 6.18792
#
# Compressibility (1/GPa) = 0.02074522
#
# Stress axis : x y z
#
# Youngs Moduli (GPa) = 71.86703 85.06745 60.48208
#
# Poissons Ratio (x) = 0.22020 0.40702
# Poissons Ratio (y) = 0.18603 0.08535
# Poissons Ratio (z) = 0.48364 0.12004
#
# Static dielectric constant tensor:
#      x y z
#    x 1.887620 0.000000 -0.020570 
#    y 0.000000 2.048720 0.000000 
#    z -0.020570 0.000000 1.830060 
# 
# From -- ./inp_files/14678.got.cif
#   From: 2010.05.17/outbox.cif.g08.bks.cpg/sg4_8_cif.got.tgz:14678.got - 2010.06.03 18:43:04.
