data_PCOD9117521
_publ_section_title
;
Structure prediction by ZEFSAII (Michael W. Deem and Ramdas Pophale) SiO2 
 PCOD9117521
Probable space group: P 21
;
_chemical_formula_sum "Si O2"
_cell_formula_units_Z 14
_cell_length_a 17.238313
_cell_length_b 7.434448
_cell_length_c 12.315619
_cell_angle_alpha 90.000000
_cell_angle_beta 22.636911
_cell_angle_gamma 90.000000
_cell_volume 607.486112
_symmetry_space_group_name_H-M "P 21"
_symmetry_group_IT_number 4
_symmetry_cell_setting 'monoclinic'
loop_
_space_group_symop_operation_xyz
x,y,z
-x,1/2+y,-z
loop_
_atom_site_type_symbol
_atom_site_label
_atom_site_fract_x
_atom_site_fract_y
_atom_site_fract_z
Si Si1 0.094122 0.646750 0.449338
Si Si2 0.530721 0.730441 0.891772
Si Si3 0.435769 0.631676 0.248587
Si Si4 0.062526 0.049670 0.574806
Si Si5 0.003586 0.054271 0.194573
Si Si6 0.757608 0.233396 0.119189
Si Si7 0.417020 0.098824 0.714323
O O1 0.958786 0.634327 0.518185
O O2 0.036747 0.515951 0.623488
O O3 0.328348 0.629781 0.113551
O O4 0.076140 0.840414 0.529281
O O5 0.538599 0.923929 0.824131
O O6 0.740502 0.623788 0.617471
O O7 0.490350 0.747325 0.073429
O O8 0.563947 0.669861 0.188924
O O9 0.199088 0.643816 0.584197
O O10 0.867410 0.099361 0.896533
O O11 0.066476 0.864561 0.060257
O O12 0.210971 0.165811 0.923597
O O13 0.621800 0.383638 0.232649
O O14 0.613740 0.143913 0.392280
#
# Coordination Sequence:
#
# PCOD9117521 Si02
#       7
#     2   2   2   2   2   2   2
#     4  11  24  37  68  97 133 170 206 268 333 384
#     4  11  22  39  63  97 131 166 204 267 322 394
#     4  11  21  42  65  91 132 161 209 263 327 381
#     4  12  23  40  65  98 130 172 214 264 329 384
#     4   9  22  42  61  92 125 159 218 268 310 389
#     4  10  23  42  64  87 128 168 221 263 308 383
#     4  10  23  46  60  88 127 174 212 271 313 373
#
# _framework density 23.045791999999999
#
# number of rings (size 3 to 8) (size 9 to 14) (size 15 to 20)
#    0.857    0.571    2.857    2.571    4.000    0.000 
#    2.571    0.000    0.000    0.000    0.000    0.000 
#    0.000    0.000    0.000    0.000    0.000    0.000 
#
# Total GULP energy -78174.787786 kJ/mol
# GULP energy per Si atom -5583.913413 kJ/mol
# Density = 2.299334 g / cm^3
# Si number density = 23.045792 Si / 1000 Ang^3
#
#
#
# Elastic Constant Matrix: (Units=GPa)
#
#
# Indices 1 2 3 4 5 6 
#
# 1 32.5399 -0.5639 12.2854 0.0000 -8.3086 0.0000
# 2 -0.5639 67.3523 27.6978 0.0000 -4.4516 0.0000
# 3 12.2854 27.6978 140.9867 0.0000 -4.5835 0.0000
# 4 0.0000 0.0000 0.0000 40.5413 0.0000 2.3096
# 5 -8.3086 -4.4516 -4.5835 0.0000 25.8773 0.0000
# 6 0.0000 0.0000 0.0000 2.3096 0.0000 17.2021
#
#
#
# Elastic Compliance Matrix: (Units=1/GPa)
#
#
# Indices 1 2 3 4 5 6 
#
# 1 0.034760 0.002303 -0.003124 0.000000 0.011004 0.000000
# 2 0.002303 0.016434 -0.003332 0.000000 0.002976 0.000000
# 3 -0.003124 -0.003332 0.008015 0.000000 -0.000157 0.000000
# 4 0.000000 0.000000 0.000000 0.024856 0.000000 -0.003337
# 5 0.011004 0.002976 -0.000157 0.000000 0.042661 0.000000
# 6 0.000000 0.000000 0.000000 -0.003337 0.000000 0.058580
#
#
# Mechanical properties :
#
#
# Convention : Reuss Voigt Hill
#
# Bulk Modulus (GPa) = 19.64546 35.52417 27.58481
# Shear Modulus (GPa) = 23.74389 30.15479 26.94934
#
# Velocity S-wave (km/s) = 3.21330 3.62121 3.42333
# Velocity P-wave (km/s) = 4.72336 5.73866 5.25558
#
# Compressibility (1/GPa) = 0.05090234
#
# Stress axis : x y z
#
# Youngs Moduli (GPa) = 28.76840 60.85045 124.77156
#
# Poissons Ratio (x) = -0.14013 0.38974
# Poissons Ratio (y) = -0.06625 0.41579
# Poissons Ratio (z) = 0.08986 0.20278
#
# Static dielectric constant tensor:
#      x y z
#    x 1.844540 0.000000 -0.050400 
#    y 0.000000 1.910820 0.000000 
#    z -0.050400 0.000000 1.902780 
# 
# From -- ./inp_files/12894.got.cif
#   From: 2010.05.17/outbox.cif.g08.bks.cpg/sg4_7_cif.got.tgz:12894.got - 2010.06.03 18:43:04.
