data_PCOD9117564
_publ_section_title
;
Structure prediction by ZEFSAII (Michael W. Deem and Ramdas Pophale) SiO2 
 PCOD9117564
Probable space group: P 21
;
_chemical_formula_sum "Si O2"
_cell_formula_units_Z 16
_cell_length_a 9.776288
_cell_length_b 8.216193
_cell_length_c 8.125104
_cell_angle_alpha 90.000000
_cell_angle_beta 75.838120
_cell_angle_gamma 90.000000
_cell_volume 632.804985
_symmetry_space_group_name_H-M "P 21"
_symmetry_group_IT_number 4
_symmetry_cell_setting 'monoclinic'
loop_
_space_group_symop_operation_xyz
x,y,z
-x,1/2+y,-z
loop_
_atom_site_type_symbol
_atom_site_label
_atom_site_fract_x
_atom_site_fract_y
_atom_site_fract_z
Si Si1 0.650813 0.386350 0.320796
Si Si2 0.413466 0.908390 0.150625
Si Si3 0.568935 0.028794 0.414564
Si Si4 0.321159 0.276767 0.116195
Si Si5 0.083557 0.007230 0.607736
Si Si6 0.179744 0.800206 0.032521
Si Si7 0.828407 0.870435 0.500355
Si Si8 0.913282 0.948502 0.996622
O O1 0.577569 0.211585 0.348796
O O2 0.533115 0.518198 0.397614
O O3 0.776293 0.398778 0.418006
O O4 0.727616 0.402311 0.124549
O O5 0.491489 0.917483 0.302067
O O6 0.351827 0.088391 0.138675
O O7 0.535353 0.860750 0.985914
O O8 0.278956 0.790178 0.162887
O O9 0.723349 0.962998 0.410064
O O10 0.257012 0.349258 0.302827
O O11 0.204161 0.314655 0.010804
O O12 0.135185 0.190734 0.572949
O O13 0.000117 0.977927 0.801988
O O14 0.973847 0.961957 0.498079
O O15 0.155841 0.624338 0.956529
O O16 0.028370 0.885897 0.092487
#
# Coordination Sequence:
#
# PCOD9117564 Si02
#       8
#     2   2   2   2   2   2   2   2
#     4  11  24  44  65  95 132 169 217 267 320 381
#     4  12  25  41  66  96 132 174 215 263 321 382
#     4  12  25  41  66  96 132 174 215 263 321 382
#     4  11  24  44  65  95 132 169 217 267 320 381
#     4  10  23  42  69  99 128 168 215 269 324 379
#     4  11  24  45  68  96 132 169 216 267 321 384
#     4  11  24  45  68  96 132 169 216 267 321 384
#     4  10  23  42  69  99 128 168 215 269 324 379
#
# _framework density 25.284251000000001
#
# number of rings (size 3 to 8) (size 9 to 14) (size 15 to 20)
#    0.000    1.000    0.000    6.750    0.000   10.000 
#    0.000    1.250    0.000    0.000    0.000    0.000 
#    0.000    0.000    0.000    0.000    0.000    0.000 
#
# Total GULP energy -89718.295212 kJ/mol
# GULP energy per Si atom -5607.393451 kJ/mol
# Density = 2.522670 g / cm^3
# Si number density = 25.284251 Si / 1000 Ang^3
#
#
#
# Elastic Constant Matrix: (Units=GPa)
#
#
# Indices 1 2 3 4 5 6 
#
# 1 170.5825 19.0810 20.6560 0.0000 10.9017 0.0000
# 2 19.0810 60.3162 6.2030 0.0000 0.1634 0.0000
# 3 20.6560 6.2030 50.5639 0.0000 3.2906 0.0000
# 4 0.0000 0.0000 0.0000 30.4750 0.0000 -5.8858
# 5 10.9017 0.1634 3.2906 0.0000 32.0785 0.0000
# 6 0.0000 0.0000 0.0000 -5.8858 0.0000 53.6484
#
#
#
# Elastic Compliance Matrix: (Units=1/GPa)
#
#
# Indices 1 2 3 4 5 6 
#
# 1 0.006467 -0.001805 -0.002293 0.000000 -0.001953 0.000000
# 2 -0.001805 0.017295 -0.001428 0.000000 0.000672 0.000000
# 3 -0.002293 -0.001428 0.020978 0.000000 -0.001365 0.000000
# 4 0.000000 0.000000 0.000000 0.033524 0.000000 0.003678
# 5 -0.001953 0.000672 -0.001365 0.000000 0.031974 0.000000
# 6 0.000000 0.000000 0.000000 0.003678 0.000000 0.019043
#
#
# Mechanical properties :
#
#
# Convention : Reuss Voigt Hill
#
# Bulk Modulus (GPa) = 29.68447 41.48250 35.58349
# Shear Modulus (GPa) = 32.98971 38.94189 35.96580
#
# Velocity S-wave (km/s) = 3.61606 3.92875 3.77564
# Velocity P-wave (km/s) = 5.40373 6.08459 5.75424
#
# Compressibility (1/GPa) = 0.03368765
#
# Stress axis : x y z
#
# Youngs Moduli (GPa) = 154.63982 57.81935 47.66940
#
# Poissons Ratio (x) = 0.10434 0.10932
# Poissons Ratio (y) = 0.27906 0.06808
# Poissons Ratio (z) = 0.35462 0.08258
#
# Static dielectric constant tensor:
#      x y z
#    x 2.020130 0.000000 0.050390 
#    y 0.000000 1.932050 0.000000 
#    z 0.050390 0.000000 2.048180 
# 
# From -- ./inp_files/5426.got.cif
#   From: 2010.05.17/outbox.cif.g08.bks.cpg/sg4_3_cif.got.tgz:5426.got - 2010.06.03 18:43:04.
