data_PCOD9117652
_publ_section_title
;
Structure prediction by ZEFSAII (Michael W. Deem and Ramdas Pophale) SiO2 
 PCOD9117652
Probable space group: P 21
;
_chemical_formula_sum "Si O2"
_cell_formula_units_Z 14
_cell_length_a 9.905714
_cell_length_b 5.295819
_cell_length_c 11.862971
_cell_angle_alpha 90.000000
_cell_angle_beta 68.477517
_cell_angle_gamma 90.000000
_cell_volume 578.926088
_symmetry_space_group_name_H-M "P 21"
_symmetry_group_IT_number 4
_symmetry_cell_setting 'monoclinic'
loop_
_space_group_symop_operation_xyz
x,y,z
-x,1/2+y,-z
loop_
_atom_site_type_symbol
_atom_site_label
_atom_site_fract_x
_atom_site_fract_y
_atom_site_fract_z
Si Si1 0.596051 0.970210 0.800825
Si Si2 0.042751 0.455688 0.553500
Si Si3 0.406751 0.104667 0.645100
Si Si4 0.673716 0.302475 0.976432
Si Si5 0.140468 0.185016 0.202558
Si Si6 0.938270 0.006136 0.964388
Si Si7 0.322687 0.602181 0.595443
O O1 0.512398 0.041397 0.714853
O O2 0.741321 0.805854 0.749309
O O3 0.643387 0.209510 0.859384
O O4 0.476557 0.834643 0.914918
O O5 0.208172 0.523493 0.535192
O O6 0.014927 0.178841 0.511462
O O7 0.956460 0.494332 0.697150
O O8 0.297143 0.874650 0.657577
O O9 0.515169 0.129128 0.505206
O O10 0.328189 0.371764 0.680921
O O11 0.768224 0.551678 0.925307
O O12 0.772022 0.103216 0.013466
O O13 0.045986 0.397075 0.167778
O O14 0.023877 0.264540 0.969061
#
# Coordination Sequence:
#
# PCOD9117652 Si02
#       7
#     2   2   2   2   2   2   2
#     4  11  24  43  71 104 138 188 235 296 354 416
#     4  12  28  47  75 104 139 186 237 292 362 422
#     4  10  23  43  73  92 142 175 225 288 352 391
#     4  11  24  44  70 106 143 186 248 290 349 437
#     4  11  26  46  73 103 146 186 243 302 347 434
#     4  11  24  47  71 101 145 194 232 290 359 425
#     4  10  23  46  65 106 129 177 232 284 337 433
#
# _framework density 24.182706
#
# number of rings (size 3 to 8) (size 9 to 14) (size 15 to 20)
#    0.000    1.143    2.857    1.714    8.000    2.286 
#    5.143    0.000    0.000    0.000    0.000    0.000 
#    0.000    0.000    0.000    0.000    0.000    0.000 
#
# Total GULP energy -78274.672217 kJ/mol
# GULP energy per Si atom -5591.048016 kJ/mol
# Density = 2.412767 g / cm^3
# Si number density = 24.182706 Si / 1000 Ang^3
#
#
#
# Elastic Constant Matrix: (Units=GPa)
#
#
# Indices 1 2 3 4 5 6 
#
# 1 78.1859 16.0140 3.0440 0.0000 10.5103 0.0000
# 2 16.0140 73.1340 22.6323 0.0000 -7.0405 0.0000
# 3 3.0440 22.6323 23.8304 0.0000 4.8056 0.0000
# 4 0.0000 0.0000 0.0000 20.8143 0.0000 13.2327
# 5 10.5103 -7.0405 4.8056 0.0000 30.4387 0.0000
# 6 0.0000 0.0000 0.0000 13.2327 0.0000 44.7756
#
#
#
# Elastic Compliance Matrix: (Units=1/GPa)
#
#
# Indices 1 2 3 4 5 6 
#
# 1 0.014637 -0.005293 0.004568 0.000000 -0.007000 0.000000
# 2 -0.005293 0.023159 -0.023516 0.000000 0.010897 0.000000
# 3 0.004568 -0.023516 0.067270 0.000000 -0.017637 0.000000
# 4 0.000000 0.000000 0.000000 0.059159 0.000000 -0.017483
# 5 -0.007000 0.010897 -0.017637 0.000000 0.040575 0.000000
# 6 0.000000 0.000000 0.000000 -0.017483 0.000000 0.027500
#
#
# Mechanical properties :
#
#
# Convention : Reuss Voigt Hill
#
# Bulk Modulus (GPa) = 17.67232 28.72566 23.19899
# Shear Modulus (GPa) = 16.68656 28.10305 22.39481
#
# Velocity S-wave (km/s) = 2.62967 3.41268 3.04644
# Velocity P-wave (km/s) = 4.06742 5.23764 4.68918
#
# Compressibility (1/GPa) = 0.05658567
#
# Stress axis : x y z
#
# Youngs Moduli (GPa) = 68.31937 43.18013 14.86547
#
# Poissons Ratio (x) = 0.22854 -0.06791
# Poissons Ratio (y) = 0.36159 0.34957
# Poissons Ratio (z) = -0.31211 1.01542
#
# Static dielectric constant tensor:
#      x y z
#    x 1.904690 0.000000 0.005710 
#    y 0.000000 1.984940 0.000000 
#    z 0.005710 0.000000 1.919410 
# 
# From -- ./inp_files/7239.got.cif
#   From: 2010.05.17/outbox.cif.g08.bks.cpg/sg4_4_cif.got.tgz:7239.got - 2010.06.03 18:43:04.
