data_PCOD9117885
_publ_section_title
;
Structure prediction by ZEFSAII (Michael W. Deem and Ramdas Pophale) SiO2 
 PCOD9117885
Probable space group: P 21
;
_chemical_formula_sum "Si O2"
_cell_formula_units_Z 10
_cell_length_a 4.901242
_cell_length_b 16.123762
_cell_length_c 4.780162
_cell_angle_alpha 90.000000
_cell_angle_beta 79.625245
_cell_angle_gamma 90.000000
_cell_volume 371.583260
_symmetry_space_group_name_H-M "P 21"
_symmetry_group_IT_number 4
_symmetry_cell_setting 'monoclinic'
loop_
_space_group_symop_operation_xyz
x,y,z
-x,1/2+y,-z
loop_
_atom_site_type_symbol
_atom_site_label
_atom_site_fract_x
_atom_site_fract_y
_atom_site_fract_z
Si Si1 0.209968 0.483740 0.476257
Si Si2 0.099328 0.825037 0.472304
Si Si3 0.261746 0.203908 0.193820
Si Si4 0.282411 0.089284 0.661675
Si Si5 0.320457 0.363764 0.892347
O O1 0.503435 0.515428 0.314801
O O2 0.238439 0.458645 0.799025
O O3 0.091115 0.399382 0.345676
O O4 0.982927 0.551163 0.443452
O O5 0.405274 0.856713 0.365777
O O6 0.026851 0.740049 0.632637
O O7 0.944888 0.819491 0.202990
O O8 0.407534 0.152707 0.412630
O O9 0.224131 0.141705 0.946167
O O10 0.418169 0.289118 0.083309
#
# Coordination Sequence:
#
# PCOD9117885 Si02
#       5
#     2   2   2   2   2
#     4  10  23  52  69 110 140 198 232 302 349 442
#     4  10  23  48  76 100 141 195 243 282 351 441
#     4  12  28  48  74 112 144 192 236 306 354 434
#     4  12  27  46  75 108 150 180 240 304 369 402
#     4  10  23  48  76 100 141 195 243 282 351 441
#
# _framework density 26.91187
#
# number of rings (size 3 to 8) (size 9 to 14) (size 15 to 20)
#    1.200    0.000    4.000    0.000    2.800    9.600 
#    0.000    0.000    0.000    0.000    0.000    0.000 
#    0.000    0.000    0.000    0.000    0.000    0.000 
#
# Total GULP energy -55733.368734 kJ/mol
# GULP energy per Si atom -5573.336873 kJ/mol
# Density = 2.685062 g / cm^3
# Si number density = 26.911870 Si / 1000 Ang^3
#
#
#
# Elastic Constant Matrix: (Units=GPa)
#
#
# Indices 1 2 3 4 5 6 
#
# 1 89.7101 -1.3280 -78.9903 0.0000 33.4425 0.0000
# 2 -1.3280 105.1660 -3.2386 0.0000 13.0662 0.0000
# 3 -78.9903 -3.2386 -113.8432 0.0000 121.8326 0.0000
# 4 0.0000 0.0000 0.0000 52.0614 0.0000 0.9587
# 5 33.4425 13.0662 121.8326 0.0000 -14.4325 0.0000
# 6 0.0000 0.0000 0.0000 0.9587 0.0000 31.8950
#
#
#
# Elastic Compliance Matrix: (Units=1/GPa)
#
#
# Indices 1 2 3 4 5 6 
#
# 1 0.008213 -0.000405 -0.001778 0.000000 0.003653 0.000000
# 2 -0.000405 0.009593 -0.001033 0.000000 -0.000973 0.000000
# 3 -0.001778 -0.001033 0.001610 0.000000 0.008532 0.000000
# 4 0.000000 0.000000 0.000000 0.019219 0.000000 -0.000578
# 5 0.003653 -0.000973 0.008532 0.000000 0.010314 0.000000
# 6 0.000000 0.000000 0.000000 -0.000578 0.000000 0.031370
#
#
# Mechanical properties :
#
#
# Convention : Reuss Voigt Hill
#
# Bulk Modulus (GPa) = 77.02144 -9.56454 33.72845
# Shear Modulus (GPa) = 54.89725 24.87745 39.88735
#
# Velocity S-wave (km/s) = 4.52141 3.04370 3.85404
# Velocity P-wave (km/s) = 7.47928 2.96486 5.68902
#
# Compressibility (1/GPa) = 0.01298340
#
# Stress axis : x y z
#
# Youngs Moduli (GPa) = 121.75150 104.24596 621.27072
#
# Poissons Ratio (x) = 0.04221 1.10489
# Poissons Ratio (y) = 0.04929 0.64169
# Poissons Ratio (z) = 0.21653 0.10767
#
# Static dielectric constant tensor:
#      x y z
#    x 2.088530 0.000000 -0.334330 
#    y 0.000000 2.433090 0.000000 
#    z -0.334330 0.000000 2.935900 
# 
# From -- ./inp_files/373.got.cif
#   From: 2010.05.17/outbox.cif.g08.bks.cpg/sg4_1_cif.got.tgz:373.got - 2010.06.03 18:43:04.
