data_PCOD9117367
_publ_section_title
;
Structure prediction by ZEFSAII (Michael W. Deem and Ramdas Pophale) SiO2 
 PCOD9117367
Probable space group: P 21
;
_chemical_formula_sum "Si O2"
_cell_formula_units_Z 14
_cell_length_a 9.715155
_cell_length_b 9.321022
_cell_length_c 7.837116
_cell_angle_alpha 90.000000
_cell_angle_beta 103.874187
_cell_angle_gamma 90.000000
_cell_volume 688.985876
_symmetry_space_group_name_H-M "P 21"
_symmetry_group_IT_number 4
_symmetry_cell_setting 'monoclinic'
loop_
_space_group_symop_operation_xyz
x,y,z
-x,1/2+y,-z
loop_
_atom_site_type_symbol
_atom_site_label
_atom_site_fract_x
_atom_site_fract_y
_atom_site_fract_z
Si Si1 0.409751 0.775510 0.605259
Si Si2 0.674235 0.545003 0.231934
Si Si3 0.801044 0.057647 0.629406
Si Si4 0.142247 0.499814 0.978018
Si Si5 0.572482 0.050485 0.108235
Si Si6 0.359373 0.333958 0.597069
Si Si7 0.065157 0.172833 0.875245
O O1 0.314684 0.895674 0.666949
O O2 0.317531 0.673205 0.455504
O O3 0.469989 0.675862 0.774285
O O4 0.532886 0.844263 0.528418
O O5 0.674821 0.671687 0.370141
O O6 0.795784 0.584165 0.132975
O O7 0.527333 0.544737 0.084202
O O8 0.951153 0.138121 0.691592
O O9 0.785986 0.990030 0.813069
O O10 0.777646 0.929665 0.488952
O O11 0.010375 0.605375 0.979020
O O12 0.262982 0.567170 0.895397
O O13 0.097515 0.341053 0.905449
O O14 0.567950 0.903627 0.214905
#
# Coordination Sequence:
#
# PCOD9117367 Si02
#       7
#     2   2   2   2   2   2   2
#     4  11  24  41  66 102 134 176 220 275 337 387
#     4  12  24  40  69 105 124 180 236 254 335 409
#     4   9  24  44  64  92 145 170 213 281 335 380
#     4  10  22  48  65  95 131 176 225 272 332 388
#     4  11  23  40  72  92 138 173 222 281 322 393
#     4  11  22  43  65  98 137 176 215 284 334 377
#     4  10  25  42  69  98 131 177 223 273 333 396
#
# _framework density 20.319718000000002
#
# number of rings (size 3 to 8) (size 9 to 14) (size 15 to 20)
#    0.857    0.571    1.429    4.286    4.000    2.286 
#    2.571    0.000    0.000    0.000    0.000    0.000 
#    0.000    0.000    0.000    0.000    0.000    0.000 
#
# Total GULP energy -78093.996793 kJ/mol
# GULP energy per Si atom -5578.142628 kJ/mol
# Density = 2.027347 g / cm^3
# Si number density = 20.319718 Si / 1000 Ang^3
#
#
#
# Elastic Constant Matrix: (Units=GPa)
#
#
# Indices 1 2 3 4 5 6 
#
# 1 91.7289 10.1728 12.3456 0.0000 -12.5011 0.0000
# 2 10.1728 77.2640 23.9825 0.0000 19.0342 0.0000
# 3 12.3456 23.9825 61.5184 0.0000 10.5140 0.0000
# 4 0.0000 0.0000 0.0000 41.5278 0.0000 -9.6389
# 5 -12.5011 19.0342 10.5140 0.0000 31.1204 0.0000
# 6 0.0000 0.0000 0.0000 -9.6389 0.0000 21.3304
#
#
#
# Elastic Compliance Matrix: (Units=1/GPa)
#
#
# Indices 1 2 3 4 5 6 
#
# 1 0.012618 -0.002678 -0.002796 0.000000 0.007651 0.000000
# 2 -0.002678 0.017150 -0.004427 0.000000 -0.010070 0.000000
# 3 -0.002796 -0.004427 0.019391 0.000000 -0.004966 0.000000
# 4 0.000000 0.000000 0.000000 0.026902 0.000000 0.012157
# 5 0.007651 -0.010070 -0.004966 0.000000 0.043044 0.000000
# 6 0.000000 0.000000 0.000000 0.012157 0.000000 0.052375
#
#
# Mechanical properties :
#
#
# Convention : Reuss Voigt Hill
#
# Bulk Modulus (GPa) = 34.06438 35.94590 35.00514
# Shear Modulus (GPa) = 24.86723 31.06307 27.96515
#
# Velocity S-wave (km/s) = 3.50208 3.91412 3.71382
# Velocity P-wave (km/s) = 5.75789 6.17703 5.97114
#
# Compressibility (1/GPa) = 0.02935618
#
# Stress axis : x y z
#
# Youngs Moduli (GPa) = 79.25358 58.30827 51.57001
#
# Poissons Ratio (x) = 0.15618 0.14417
# Poissons Ratio (y) = 0.21228 0.22832
# Poissons Ratio (z) = 0.22156 0.25815
#
# Static dielectric constant tensor:
#      x y z
#    x 1.728880 0.000000 -0.012250 
#    y 0.000000 1.701790 0.000000 
#    z -0.012250 0.000000 1.722070 
# 
# From -- ./inp_files/5719.got.cif
#   From: 2010.05.17/outbox.cif.g08.bks.cpg/sg4_3_cif.got.tgz:5719.got - 2010.06.03 18:43:04.
