data_PCOD9117034
_publ_section_title
;
Structure prediction by ZEFSAII (Michael W. Deem and Ramdas Pophale) SiO2 
 PCOD9117034
Probable space group: P 21
;
_chemical_formula_sum "Si O2"
_cell_formula_units_Z 16
_cell_length_a 13.578505
_cell_length_b 7.654381
_cell_length_c 19.497738
_cell_angle_alpha 90.000000
_cell_angle_beta 18.889914
_cell_angle_gamma 90.000000
_cell_volume 656.080616
_symmetry_space_group_name_H-M "P 21"
_symmetry_group_IT_number 4
_symmetry_cell_setting 'monoclinic'
loop_
_space_group_symop_operation_xyz
x,y,z
-x,1/2+y,-z
loop_
_atom_site_type_symbol
_atom_site_label
_atom_site_fract_x
_atom_site_fract_y
_atom_site_fract_z
Si Si1 0.376105 0.651170 0.327447
Si Si2 0.693150 0.267952 0.094157
Si Si3 0.596930 0.051631 0.550098
Si Si4 0.867561 0.766795 0.920789
Si Si5 0.274800 0.002874 0.107384
Si Si6 0.242226 0.120257 0.656286
Si Si7 0.341554 0.180951 0.201608
Si Si8 0.294954 0.702840 0.759480
O O1 0.512645 0.453754 0.223383
O O2 0.434560 0.690890 0.369188
O O3 0.538412 0.784870 0.171071
O O4 0.018281 0.668661 0.554083
O O5 0.480560 0.156343 0.184452
O O6 0.746941 0.173908 0.132130
O O7 0.012491 0.265653 0.840129
O O8 0.530207 0.121497 0.518732
O O9 0.917738 0.953512 0.352385
O O10 0.331639 0.912047 0.733811
O O11 0.792368 0.661163 0.901089
O O12 0.033103 0.666838 0.876416
O O13 0.054792 0.940702 0.781825
O O14 0.410097 0.056342 0.091693
O O15 0.499904 0.863315 0.926022
O O16 0.396078 0.137083 0.480629
#
# Coordination Sequence:
#
# PCOD9117034 Si02
#       8
#     2   2   2   2   2   2   2   2
#     4  10  23  46  71  98 144 197 246 302 361 428
#     4  11  24  47  72 107 148 187 249 305 364 446
#     4   9  20  43  69 103 138 183 240 297 370 431
#     4  11  23  44  70 106 144 190 245 301 370 441
#     4  11  23  48  73  99 143 192 253 303 358 436
#     4  11  23  41  71 112 148 186 239 299 380 443
#     4  11  26  47  74 102 141 205 247 309 363 432
#     4  10  22  42  74 107 144 190 235 304 376 441
#
# _framework density 24.387248
#
# number of rings (size 3 to 8) (size 9 to 14) (size 15 to 20)
#    0.000    1.500    2.500    1.500    1.750    1.000 
#   13.500    0.000    0.000    0.000    0.000    0.000 
#    0.000    0.000    0.000    0.000    0.000    0.000 
#
# Total GULP energy -89234.471629 kJ/mol
# GULP energy per Si atom -5577.154477 kJ/mol
# Density = 2.433174 g / cm^3
# Si number density = 24.387248 Si / 1000 Ang^3
#
#
#
# Elastic Constant Matrix: (Units=GPa)
#
#
# Indices 1 2 3 4 5 6 
#
# 1 121.6912 26.7955 26.7506 0.0000 10.7743 0.0000
# 2 26.7955 88.7515 39.0105 0.0000 -0.7418 0.0000
# 3 26.7506 39.0105 112.3093 0.0000 9.2797 0.0000
# 4 0.0000 0.0000 0.0000 36.8874 0.0000 -0.8888
# 5 10.7743 -0.7418 9.2797 0.0000 37.3045 0.0000
# 6 0.0000 0.0000 0.0000 -0.8888 0.0000 23.4237
#
#
#
# Elastic Compliance Matrix: (Units=1/GPa)
#
#
# Indices 1 2 3 4 5 6 
#
# 1 0.009194 -0.002267 -0.001204 0.000000 -0.002401 0.000000
# 2 -0.002267 0.013933 -0.004469 0.000000 0.002043 0.000000
# 3 -0.001204 -0.004469 0.010947 0.000000 -0.002464 0.000000
# 4 0.000000 0.000000 0.000000 0.027134 0.000000 0.001030
# 5 -0.002401 0.002043 -0.002464 0.000000 0.028153 0.000000
# 6 0.000000 0.000000 0.000000 0.001030 0.000000 0.042731
#
#
# Mechanical properties :
#
#
# Convention : Reuss Voigt Hill
#
# Bulk Modulus (GPa) = 54.96085 56.42947 55.69516
# Shear Modulus (GPa) = 32.46003 34.86948 33.66475
#
# Velocity S-wave (km/s) = 3.65228 3.78540 3.71944
# Velocity P-wave (km/s) = 6.35383 6.50345 6.42908
#
# Compressibility (1/GPa) = 0.01819477
#
# Stress axis : x y z
#
# Youngs Moduli (GPa) = 108.76800 71.77229 91.35294
#
# Poissons Ratio (x) = 0.16267 0.11001
# Poissons Ratio (y) = 0.24653 0.40822
# Poissons Ratio (z) = 0.13098 0.32072
#
# Static dielectric constant tensor:
#      x y z
#    x 2.016850 0.000000 0.019040 
#    y 0.000000 2.017080 0.000000 
#    z 0.019040 0.000000 1.991030 
# 
# From -- ./inp_files/15148.got.cif
#   From: 2010.05.17/outbox.cif.g08.bks.cpg/sg4_8_cif.got.tgz:15148.got - 2010.06.03 18:43:04.
