data_PCOD9117701
_publ_section_title
;
Structure prediction by ZEFSAII (Michael W. Deem and Ramdas Pophale) SiO2 
 PCOD9117701
Probable space group: P 21
;
_chemical_formula_sum "Si O2"
_cell_formula_units_Z 14
_cell_length_a 13.602799
_cell_length_b 9.126892
_cell_length_c 6.978935
_cell_angle_alpha 90.000000
_cell_angle_beta 42.899846
_cell_angle_gamma 90.000000
_cell_volume 589.804599
_symmetry_space_group_name_H-M "P 21"
_symmetry_group_IT_number 4
_symmetry_cell_setting 'monoclinic'
loop_
_space_group_symop_operation_xyz
x,y,z
-x,1/2+y,-z
loop_
_atom_site_type_symbol
_atom_site_label
_atom_site_fract_x
_atom_site_fract_y
_atom_site_fract_z
Si Si1 0.035765 0.062210 0.717542
Si Si2 0.047840 0.233912 0.089207
Si Si3 0.614112 0.883764 0.935104
Si Si4 0.727859 0.596077 0.928725
Si Si5 0.177590 0.623454 0.304932
Si Si6 0.548924 0.120241 0.280750
Si Si7 0.540747 0.921256 0.602502
O O1 0.926644 0.142353 0.726704
O O2 0.173207 0.031658 0.383217
O O3 0.966687 0.909478 0.887768
O O4 0.071626 0.165242 0.846105
O O5 0.167060 0.171557 0.066508
O O6 0.897864 0.175713 0.395975
O O7 0.772547 0.953539 0.752405
O O8 0.586561 0.915685 0.754985
O O9 0.623877 0.716370 0.977833
O O10 0.501965 0.979103 0.222865
O O11 0.622743 0.481001 0.180001
O O12 0.332348 0.691300 0.031013
O O13 0.622412 0.040318 0.356566
O O14 0.448687 0.253696 0.481640
#
# Coordination Sequence:
#
# PCOD9117701 Si02
#       7
#     2   2   2   2   2   2   2
#     4  11  25  42  71  96 132 174 220 270 341 386
#     4  11  24  43  67 100 131 175 216 278 332 394
#     4  10  23  44  69  90 132 176 219 270 329 385
#     4  11  25  45  67  99 137 169 229 274 321 403
#     4   9  23  43  64  93 130 166 219 271 321 390
#     4  10  24  40  64  98 133 168 226 270 323 397
#     4  12  24  43  68  98 133 180 217 275 333 391
#
# _framework density 23.736673
#
# number of rings (size 3 to 8) (size 9 to 14) (size 15 to 20)
#    0.857    0.571    1.429    2.571    4.000    5.714 
#    0.000    0.000    0.000    0.000    0.000    0.000 
#    0.000    0.000    0.000    0.000    0.000    0.000 
#
# Total GULP energy -78161.126612 kJ/mol
# GULP energy per Si atom -5582.937615 kJ/mol
# Density = 2.368265 g / cm^3
# Si number density = 23.736673 Si / 1000 Ang^3
#
#
#
# Elastic Constant Matrix: (Units=GPa)
#
#
# Indices 1 2 3 4 5 6 
#
# 1 66.3970 12.7383 21.8335 0.0000 27.0579 0.0000
# 2 12.7383 78.7427 2.8637 0.0000 12.9551 0.0000
# 3 21.8335 2.8637 99.8519 0.0000 10.0695 0.0000
# 4 0.0000 0.0000 0.0000 37.0043 0.0000 4.4381
# 5 27.0579 12.9551 10.0695 0.0000 45.2391 0.0000
# 6 0.0000 0.0000 0.0000 4.4381 0.0000 25.6813
#
#
#
# Elastic Compliance Matrix: (Units=1/GPa)
#
#
# Indices 1 2 3 4 5 6 
#
# 1 0.021133 -0.001406 -0.003423 0.000000 -0.011475 0.000000
# 2 -0.001406 0.013421 0.000231 0.000000 -0.003054 0.000000
# 3 -0.003423 0.000231 0.010799 0.000000 -0.000422 0.000000
# 4 0.000000 0.000000 0.000000 0.027596 0.000000 -0.004769
# 5 -0.011475 -0.003054 -0.000422 0.000000 0.029936 0.000000
# 6 0.000000 0.000000 0.000000 -0.004769 0.000000 0.039763
#
#
# Mechanical properties :
#
#
# Convention : Reuss Voigt Hill
#
# Bulk Modulus (GPa) = 27.65875 35.54031 31.59953
# Shear Modulus (GPa) = 30.50677 35.42203 32.96440
#
# Velocity S-wave (km/s) = 3.58888 3.86721 3.73064
# Velocity P-wave (km/s) = 5.37132 5.91149 5.64786
#
# Compressibility (1/GPa) = 0.03615492
#
# Stress axis : x y z
#
# Youngs Moduli (GPa) = 47.32022 74.50957 92.59825
#
# Poissons Ratio (x) = 0.10478 0.31699
# Poissons Ratio (y) = 0.06654 -0.02135
# Poissons Ratio (z) = 0.16199 -0.01718
#
# Static dielectric constant tensor:
#      x y z
#    x 1.871710 0.000000 -0.030620 
#    y 0.000000 1.936730 0.000000 
#    z -0.030620 0.000000 1.972240 
# 
# From -- ./inp_files/3677.got.cif
#   From: 2010.05.17/outbox.cif.g08.bks.cpg/sg4_2_cif.got.tgz:3677.got - 2010.06.03 18:43:04.
