data_PCOD9117110
_publ_section_title
;
Structure prediction by ZEFSAII (Michael W. Deem and Ramdas Pophale) SiO2 
 PCOD9117110
Probable space group: P 21
;
_chemical_formula_sum "Si O2"
_cell_formula_units_Z 14
_cell_length_a 15.975518
_cell_length_b 5.142877
_cell_length_c 14.150737
_cell_angle_alpha 90.000000
_cell_angle_beta 150.571900
_cell_angle_gamma 90.000000
_cell_volume 571.234312
_symmetry_space_group_name_H-M "P 21"
_symmetry_group_IT_number 4
_symmetry_cell_setting 'monoclinic'
loop_
_space_group_symop_operation_xyz
x,y,z
-x,1/2+y,-z
loop_
_atom_site_type_symbol
_atom_site_label
_atom_site_fract_x
_atom_site_fract_y
_atom_site_fract_z
Si Si1 0.960531 0.085090 0.399822
Si Si2 0.455900 0.515901 0.237686
Si Si3 0.253156 0.322698 0.570550
Si Si4 0.879006 0.009634 0.753912
Si Si5 0.723825 0.518816 0.891425
Si Si6 0.294735 0.009693 0.340117
Si Si7 0.392698 0.619671 0.887864
O O1 0.758757 0.097609 0.184745
O O2 0.995933 0.302261 0.515999
O O3 0.083353 0.169919 0.435908
O O4 0.313016 0.736210 0.104504
O O5 0.598469 0.617245 0.306043
O O6 0.370341 0.237245 0.139690
O O7 0.554685 0.519941 0.435695
O O8 0.311156 0.511804 0.711023
O O9 0.217597 0.485534 0.441241
O O10 0.458259 0.912452 0.946561
O O11 0.801625 0.239442 0.739383
O O12 0.837650 0.739439 0.765119
O O13 0.075786 0.058233 0.924864
O O14 0.646901 0.535185 0.709895
#
# Coordination Sequence:
#
# PCOD9117110 Si02
#       7
#     2   2   2   2   2   2   2
#     4  10  22  43  70  95 129 176 213 261 331 405
#     4  11  24  40  65  95 132 174 212 279 331 364
#     4  10  25  47  65  96 138 172 222 270 331 408
#     4  11  24  41  67  93 129 178 216 274 332 377
#     4  12  23  41  64  99 131 172 228 268 319 390
#     4  11  22  42  65  94 132 178 221 265 325 397
#     4  11  24  44  72 102 129 170 220 275 333 395
#
# _framework density 24.508329
#
# number of rings (size 3 to 8) (size 9 to 14) (size 15 to 20)
#    0.000    1.143    0.000    6.857    0.000   11.429 
#    0.000    8.571    0.000    0.000    0.000    0.000 
#    0.000    0.000    0.000    0.000    0.000    0.000 
#
# Total GULP energy -78536.675186 kJ/mol
# GULP energy per Si atom -5609.762513 kJ/mol
# Density = 2.445255 g / cm^3
# Si number density = 24.508329 Si / 1000 Ang^3
#
#
#
# Elastic Constant Matrix: (Units=GPa)
#
#
# Indices 1 2 3 4 5 6 
#
# 1 91.5966 7.6485 11.3550 0.0000 8.4639 0.0000
# 2 7.6485 77.2497 17.4770 0.0000 5.2133 0.0000
# 3 11.3550 17.4770 50.2037 0.0000 16.1418 0.0000
# 4 0.0000 0.0000 0.0000 25.1390 0.0000 12.6261
# 5 8.4639 5.2133 16.1418 0.0000 49.5680 0.0000
# 6 0.0000 0.0000 0.0000 12.6261 0.0000 45.2745
#
#
#
# Elastic Compliance Matrix: (Units=1/GPa)
#
#
# Indices 1 2 3 4 5 6 
#
# 1 0.011324 -0.000595 -0.001957 0.000000 -0.001234 0.000000
# 2 -0.000595 0.014084 -0.004830 0.000000 0.000193 0.000000
# 3 -0.001957 -0.004830 0.024319 0.000000 -0.007077 0.000000
# 4 0.000000 0.000000 0.000000 0.046258 0.000000 -0.012900
# 5 -0.001234 0.000193 -0.007077 0.000000 0.022669 0.000000
# 6 0.000000 0.000000 0.000000 -0.012900 0.000000 0.025685
#
#
# Mechanical properties :
#
#
# Convention : Reuss Voigt Hill
#
# Bulk Modulus (GPa) = 28.60389 32.44566 30.52478
# Shear Modulus (GPa) = 29.28124 36.16761 32.72443
#
# Velocity S-wave (km/s) = 3.46026 3.84569 3.65805
# Velocity P-wave (km/s) = 5.25937 5.74338 5.50670
#
# Compressibility (1/GPa) = 0.03496028
#
# Stress axis : x y z
#
# Youngs Moduli (GPa) = 88.30984 71.00382 41.12071
#
# Poissons Ratio (x) = 0.04225 0.08049
# Poissons Ratio (y) = 0.05255 0.19863
# Poissons Ratio (z) = 0.17286 0.34298
#
# Static dielectric constant tensor:
#      x y z
#    x 1.912690 0.000000 -0.028240 
#    y 0.000000 1.877580 0.000000 
#    z -0.028240 0.000000 1.959710 
# 
# From -- ./inp_files/10095.got.cif
#   From: 2010.05.17/outbox.cif.g08.bks.cpg/sg4_6_cif.got.tgz:10095.got - 2010.06.03 18:43:04.
