data_PCOD9117105
_publ_section_title
;
Structure prediction by ZEFSAII (Michael W. Deem and Ramdas Pophale) SiO2 
 PCOD9117105
Probable space group: P 21
;
_chemical_formula_sum "Si O2"
_cell_formula_units_Z 14
_cell_length_a 5.216700
_cell_length_b 14.298042
_cell_length_c 9.922194
_cell_angle_alpha 90.000000
_cell_angle_beta 69.866814
_cell_angle_gamma 90.000000
_cell_volume 694.859808
_symmetry_space_group_name_H-M "P 21"
_symmetry_group_IT_number 4
_symmetry_cell_setting 'monoclinic'
loop_
_space_group_symop_operation_xyz
x,y,z
-x,1/2+y,-z
loop_
_atom_site_type_symbol
_atom_site_label
_atom_site_fract_x
_atom_site_fract_y
_atom_site_fract_z
Si Si1 0.758878 0.473090 0.780434
Si Si2 0.672864 0.333183 0.030880
Si Si3 0.875658 0.074276 0.761367
Si Si4 0.829269 0.736558 0.183620
Si Si5 0.426616 0.136557 0.016521
Si Si6 0.376706 0.404755 0.628518
Si Si7 0.431186 0.960367 0.691232
O O1 0.755934 0.572742 0.855691
O O2 0.573263 0.470469 0.681653
O O3 0.065207 0.440605 0.693081
O O4 0.626756 0.398925 0.909583
O O5 0.503765 0.237118 0.062125
O O6 0.615515 0.392895 0.173084
O O7 0.983170 0.299447 0.948696
O O8 0.672477 0.033478 0.685922
O O9 0.981624 0.181587 0.742587
O O10 0.144205 0.011380 0.716824
O O11 0.698780 0.076929 0.931940
O O12 0.625493 0.802864 0.300998
O O13 0.698455 0.661014 0.106949
O O14 0.478105 0.405328 0.457851
#
# Coordination Sequence:
#
# PCOD9117105 Si02
#       7
#     2   2   2   2   2   2   2
#     4  11  23  43  70  93 134 175 221 276 325 397
#     4  10  23  38  72 100 125 173 228 274 325 393
#     4  11  23  41  71  95 132 175 224 267 332 393
#     4  10  22  43  70 101 127 178 225 280 323 395
#     4  11  22  41  72 103 126 169 235 279 324 384
#     4  11  26  45  65  98 141 175 214 272 345 395
#     4  12  25  45  66 100 137 179 213 274 340 403
#
# _framework density 20.147950000000002
#
# number of rings (size 3 to 8) (size 9 to 14) (size 15 to 20)
#    0.000    1.143    4.286    0.857   10.000    0.000 
#    5.143    0.000    0.000    0.000    0.000    0.000 
#    0.000    0.000    0.000    0.000    0.000    0.000 
#
# Total GULP energy -78140.056506 kJ/mol
# GULP energy per Si atom -5581.432608 kJ/mol
# Density = 2.010209 g / cm^3
# Si number density = 20.147950 Si / 1000 Ang^3
#
#
#
# Elastic Constant Matrix: (Units=GPa)
#
#
# Indices 1 2 3 4 5 6 
#
# 1 97.7019 22.4419 28.3074 0.0000 3.1062 0.0000
# 2 22.4419 50.0156 30.5860 0.0000 -3.3411 0.0000
# 3 28.3074 30.5860 116.0058 0.0000 8.2173 0.0000
# 4 0.0000 0.0000 0.0000 4.6010 0.0000 4.5222
# 5 3.1062 -3.3411 8.2173 0.0000 21.0006 0.0000
# 6 0.0000 0.0000 0.0000 4.5222 0.0000 28.9003
#
#
#
# Elastic Compliance Matrix: (Units=1/GPa)
#
#
# Indices 1 2 3 4 5 6 
#
# 1 0.011769 -0.004443 -0.001571 0.000000 -0.001833 0.000000
# 2 -0.004443 0.026389 -0.006395 0.000000 0.007358 0.000000
# 3 -0.001571 -0.006395 0.011052 0.000000 -0.005109 0.000000
# 4 0.000000 0.000000 0.000000 0.256845 0.000000 -0.040190
# 5 -0.001833 0.007358 -0.005109 0.000000 0.051059 0.000000
# 6 0.000000 0.000000 0.000000 -0.040190 0.000000 0.040890
#
#
# Mechanical properties :
#
#
# Convention : Reuss Voigt Hill
#
# Bulk Modulus (GPa) = 40.99460 47.37709 44.18585
# Shear Modulus (GPa) = 11.60224 23.05957 17.33090
#
# Velocity S-wave (km/s) = 2.40229 3.38673 2.93607
# Velocity P-wave (km/s) = 5.29959 6.23369 5.78552
#
# Compressibility (1/GPa) = 0.02439345
#
# Stress axis : x y z
#
# Youngs Moduli (GPa) = 84.96869 37.89403 90.48521
#
# Poissons Ratio (x) = 0.16835 0.14212
# Poissons Ratio (y) = 0.37749 0.57864
# Poissons Ratio (z) = 0.13346 0.24233
#
# Static dielectric constant tensor:
#      x y z
#    x 1.782240 0.000000 0.005740 
#    y 0.000000 1.748900 0.000000 
#    z 0.005740 0.000000 1.679710 
# 
# From -- ./inp_files/1499.got.cif
#   From: 2010.05.17/outbox.cif.g08.bks.cpg/sg4_1_cif.got.tgz:1499.got - 2010.06.03 18:43:04.
