data_PCOD9117225
_publ_section_title
;
Structure prediction by ZEFSAII (Michael W. Deem and Ramdas Pophale) SiO2 
 PCOD9117225
Probable space group: P 21
;
_chemical_formula_sum "Si O2"
_cell_formula_units_Z 14
_cell_length_a 11.903473
_cell_length_b 5.524570
_cell_length_c 7.940071
_cell_angle_alpha 90.000000
_cell_angle_beta 107.592313
_cell_angle_gamma 90.000000
_cell_volume 497.731147
_symmetry_space_group_name_H-M "P 21"
_symmetry_group_IT_number 4
_symmetry_cell_setting 'monoclinic'
loop_
_space_group_symop_operation_xyz
x,y,z
-x,1/2+y,-z
loop_
_atom_site_type_symbol
_atom_site_label
_atom_site_fract_x
_atom_site_fract_y
_atom_site_fract_z
Si Si1 0.891940 0.590790 0.106112
Si Si2 0.547880 0.056739 0.139518
Si Si3 0.243306 0.315209 0.640326
Si Si4 0.233481 0.129171 0.279948
Si Si5 0.944560 0.136642 0.547375
Si Si6 0.475012 0.349365 0.392908
Si Si7 0.690337 0.289698 0.938238
O O1 0.816978 0.733575 0.214068
O O2 0.021864 0.623056 0.239418
O O3 0.869726 0.674165 0.904047
O O4 0.820513 0.335588 0.074273
O O5 0.618737 0.851529 0.272108
O O6 0.411364 0.990233 0.061270
O O7 0.549087 0.292268 0.258364
O O8 0.624077 0.079011 0.005036
O O9 0.210829 0.146773 0.466603
O O10 0.188093 0.573804 0.560781
O O11 0.334870 0.328166 0.295494
O O12 0.285641 0.870063 0.243023
O O13 0.989994 0.390312 0.493006
O O14 0.502211 0.604088 0.488833
#
# Coordination Sequence:
#
# PCOD9117225 Si02
#       7
#     2   2   2   2   2   2   2
#     4   9  21  42  65  95 140 174 237 286 350 411
#     4  11  21  36  65 100 142 191 236 283 364 420
#     4  11  21  41  71  98 134 191 229 291 358 423
#     4   9  22  42  62 105 134 182 231 294 343 421
#     4  10  22  44  74 101 135 183 237 288 354 423
#     4  11  24  42  64 100 146 184 235 292 344 427
#     4   9  21  37  61  95 139 181 235 288 345 423
#
# _framework density 28.127631000000001
#
# number of rings (size 3 to 8) (size 9 to 14) (size 15 to 20)
#    0.857    1.143    1.429    1.714    2.000    2.286 
#    0.000    5.714    0.000    0.000    0.000    0.000 
#    0.000    0.000    0.000    0.000    0.000    0.000 
#
# Total GULP energy -78136.308071 kJ/mol
# GULP energy per Si atom -5581.164862 kJ/mol
# Density = 2.806361 g / cm^3
# Si number density = 28.127631 Si / 1000 Ang^3
#
#
#
# Elastic Constant Matrix: (Units=GPa)
#
#
# Indices 1 2 3 4 5 6 
#
# 1 56.6778 20.8844 6.0948 0.0000 -14.7410 0.0000
# 2 20.8844 122.9950 70.6271 0.0000 -21.1887 0.0000
# 3 6.0948 70.6271 115.0704 0.0000 -2.9817 0.0000
# 4 0.0000 0.0000 0.0000 50.4074 0.0000 -8.8239
# 5 -14.7410 -21.1887 -2.9817 0.0000 48.9711 0.0000
# 6 0.0000 0.0000 0.0000 -8.8239 0.0000 46.5990
#
#
#
# Elastic Compliance Matrix: (Units=1/GPa)
#
#
# Indices 1 2 3 4 5 6 
#
# 1 0.019917 -0.003146 0.000998 0.000000 0.004695 0.000000
# 2 -0.003146 0.014389 -0.008542 0.000000 0.004759 0.000000
# 3 0.000998 -0.008542 0.013814 0.000000 -0.002554 0.000000
# 4 0.000000 0.000000 0.000000 0.020518 0.000000 0.003885
# 5 0.004695 0.004759 -0.002554 0.000000 0.023737 0.000000
# 6 0.000000 0.000000 0.000000 0.003885 0.000000 0.022195
#
#
# Mechanical properties :
#
#
# Convention : Reuss Voigt Hill
#
# Bulk Modulus (GPa) = 37.39760 54.43954 45.91857
# Shear Modulus (GPa) = 34.51504 42.33796 38.42650
#
# Velocity S-wave (km/s) = 3.50678 3.88391 3.70015
# Velocity P-wave (km/s) = 5.45172 6.28566 5.88348
#
# Compressibility (1/GPa) = 0.02673968
#
# Stress axis : x y z
#
# Youngs Moduli (GPa) = 50.20959 69.49558 72.38987
#
# Poissons Ratio (x) = 0.21863 -0.07222
# Poissons Ratio (y) = 0.15795 0.61835
# Poissons Ratio (z) = -0.05009 0.59362
#
# Static dielectric constant tensor:
#      x y z
#    x 2.161720 0.000000 0.044350 
#    y 0.000000 2.234440 0.000000 
#    z 0.044350 0.000000 2.351680 
# 
# From -- ./inp_files/8710.got.cif
#   From: 2010.05.17/outbox.cif.g08.bks.cpg/sg4_5_cif.got.tgz:8710.got - 2010.06.03 18:43:04.
