data_PCOD9117644
_publ_section_title
;
Structure prediction by ZEFSAII (Michael W. Deem and Ramdas Pophale) SiO2 
 PCOD9117644
Probable space group: P 21
;
_chemical_formula_sum "Si O2"
_cell_formula_units_Z 16
_cell_length_a 19.109327
_cell_length_b 8.232796
_cell_length_c 9.037703
_cell_angle_alpha 90.000000
_cell_angle_beta 152.185295
_cell_angle_gamma 90.000000
_cell_volume 663.450085
_symmetry_space_group_name_H-M "P 21"
_symmetry_group_IT_number 4
_symmetry_cell_setting 'monoclinic'
loop_
_space_group_symop_operation_xyz
x,y,z
-x,1/2+y,-z
loop_
_atom_site_type_symbol
_atom_site_label
_atom_site_fract_x
_atom_site_fract_y
_atom_site_fract_z
Si Si1 0.801582 0.690760 0.182524
Si Si2 0.597013 0.208026 0.197258
Si Si3 0.929782 0.727973 0.942527
Si Si4 0.282006 0.016169 0.254135
Si Si5 0.149940 0.574314 0.136938
Si Si6 0.594903 0.906178 0.978446
Si Si7 0.145457 0.712504 0.831843
Si Si8 0.787158 0.351727 0.330773
O O1 0.805689 0.528568 0.292861
O O2 0.973184 0.722989 0.461398
O O3 0.708396 0.646061 0.861504
O O4 0.729557 0.843767 0.129872
O O5 0.712312 0.177255 0.544989
O O6 0.443436 0.254237 0.985862
O O7 0.653484 0.354096 0.198664
O O8 0.614234 0.056629 0.122553
O O9 0.001747 0.662723 0.925187
O O10 0.070840 0.776771 0.313832
O O11 0.817890 0.596685 0.803612
O O12 0.845841 0.899057 0.778884
O O13 0.444925 0.953647 0.606549
O O14 0.186446 0.869346 0.006199
O O15 0.159034 0.568136 0.976310
O O16 0.240906 0.731208 0.861500
#
# Coordination Sequence:
#
# PCOD9117644 Si02
#       8
#     2   2   2   2   2   2   2   2
#     4  11  25  45  73 107 141 188 230 300 356 427
#     4  11  27  46  68 103 137 195 229 293 348 427
#     4  11  23  40  66 105 135 180 224 299 354 408
#     4  11  26  46  70 105 145 184 242 294 354 431
#     4  11  24  39  70 103 140 173 232 292 361 410
#     4  12  28  48  70 101 149 197 239 283 360 439
#     4  11  22  45  73 107 135 177 235 305 352 420
#     4  10  23  43  72 103 138 174 239 292 353 410
#
# _framework density 24.116358000000002
#
# number of rings (size 3 to 8) (size 9 to 14) (size 15 to 20)
#    0.000    1.000    3.750    1.500    8.750    3.000 
#    2.250    0.000    0.000    0.000    0.000    0.000 
#    0.000    0.000    0.000    0.000    0.000    0.000 
#
# Total GULP energy -89521.020721 kJ/mol
# GULP energy per Si atom -5595.063795 kJ/mol
# Density = 2.406147 g / cm^3
# Si number density = 24.116358 Si / 1000 Ang^3
#
#
#
# Elastic Constant Matrix: (Units=GPa)
#
#
# Indices 1 2 3 4 5 6 
#
# 1 64.4973 -3.9217 15.5361 0.0000 -17.2568 0.0000
# 2 -3.9217 61.8469 3.9941 0.0000 -11.9224 0.0000
# 3 15.5361 3.9941 51.7548 0.0000 -18.5290 0.0000
# 4 0.0000 0.0000 0.0000 31.9414 0.0000 -4.9410
# 5 -17.2568 -11.9224 -18.5290 0.0000 28.1382 0.0000
# 6 0.0000 0.0000 0.0000 -4.9410 0.0000 46.5003
#
#
#
# Elastic Compliance Matrix: (Units=1/GPa)
#
#
# Indices 1 2 3 4 5 6 
#
# 1 0.019457 0.003734 -0.001688 0.000000 0.012403 0.000000
# 2 0.003734 0.018441 0.001404 0.000000 0.011028 0.000000
# 3 -0.001688 0.001404 0.025597 0.000000 0.016415 0.000000
# 4 0.000000 0.000000 0.000000 0.031831 0.000000 0.003382
# 5 0.012403 0.011028 0.016415 0.000000 0.058627 0.000000
# 6 0.000000 0.000000 0.000000 0.003382 0.000000 0.021865
#
#
# Mechanical properties :
#
#
# Convention : Reuss Voigt Hill
#
# Bulk Modulus (GPa) = 14.20575 23.25734 18.73154
# Shear Modulus (GPa) = 25.98980 32.14868 29.06924
#
# Velocity S-wave (km/s) = 3.28637 3.65508 3.47562
# Velocity P-wave (km/s) = 4.50595 5.24190 4.88780
#
# Compressibility (1/GPa) = 0.07039401
#
# Stress axis : x y z
#
# Youngs Moduli (GPa) = 51.39610 54.22708 39.06672
#
# Poissons Ratio (x) = -0.20247 0.06596
# Poissons Ratio (y) = -0.19190 -0.05486
# Poissons Ratio (z) = 0.08678 -0.07615
#
# Static dielectric constant tensor:
#      x y z
#    x 1.886070 0.000000 -0.039020 
#    y 0.000000 1.952380 0.000000 
#    z -0.039020 0.000000 1.928500 
# 
# From -- ./inp_files/5658.got.cif
#   From: 2010.05.17/outbox.cif.g08.bks.cpg/sg4_3_cif.got.tgz:5658.got - 2010.06.03 18:43:04.
