data_PCOD9117606
_publ_section_title
;
Structure prediction by ZEFSAII (Michael W. Deem and Ramdas Pophale) SiO2 
 PCOD9117606
Probable space group: P 21
;
_chemical_formula_sum "Si O2"
_cell_formula_units_Z 16
_cell_length_a 9.646380
_cell_length_b 8.035745
_cell_length_c 12.872652
_cell_angle_alpha 90.000000
_cell_angle_beta 39.088228
_cell_angle_gamma 90.000000
_cell_volume 629.151002
_symmetry_space_group_name_H-M "P 21"
_symmetry_group_IT_number 4
_symmetry_cell_setting 'monoclinic'
loop_
_space_group_symop_operation_xyz
x,y,z
-x,1/2+y,-z
loop_
_atom_site_type_symbol
_atom_site_label
_atom_site_fract_x
_atom_site_fract_y
_atom_site_fract_z
Si Si1 0.948658 0.795740 0.508471
Si Si2 0.794172 0.984530 0.133052
Si Si3 0.690070 0.815373 0.871577
Si Si4 0.566740 0.357225 0.501646
Si Si5 0.793316 0.669499 0.400143
Si Si6 0.770455 0.631636 0.032097
Si Si7 0.749537 0.170087 0.950582
Si Si8 0.693605 0.117376 0.605248
O O1 0.847662 0.794007 0.681529
O O2 0.846149 0.657702 0.491028
O O3 0.204961 0.755884 0.374896
O O4 0.868432 0.968475 0.505346
O O5 0.594101 0.959709 0.328452
O O6 0.808841 0.808725 0.066409
O O7 0.018942 0.025377 0.060575
O O8 0.744433 0.122466 0.074556
O O9 0.742882 0.678290 0.928145
O O10 0.719908 0.996715 0.904504
O O11 0.444815 0.788320 0.972379
O O12 0.751436 0.491723 0.369142
O O13 0.414228 0.286783 0.500439
O O14 0.660505 0.203891 0.513568
O O15 0.013185 0.738708 0.219910
O O16 0.542421 0.564022 0.213122
#
# Coordination Sequence:
#
# PCOD9117606 Si02
#       8
#     2   2   2   2   2   2   2   2
#     4  12  25  42  67  97 136 181 221 274 335 398
#     4  10  23  43  67  95 130 173 221 275 332 392
#     4  11  24  41  66  96 132 174 221 272 334 396
#     4  11  25  45  68  99 132 174 222 274 336 400
#     4  12  26  45  68  99 137 175 223 277 333 401
#     4  10  23  43  67  96 132 171 222 279 330 395
#     4  11  24  44  67  96 133 172 223 279 330 397
#     4  11  24  45  68  96 134 174 223 276 332 397
#
# _framework density 25.431097000000001
#
# number of rings (size 3 to 8) (size 9 to 14) (size 15 to 20)
#    0.000    1.000    0.000    6.750    0.000   12.000 
#    0.000    0.000    0.000    0.000    0.000    0.000 
#    0.000    0.000    0.000    0.000    0.000    0.000 
#
# Total GULP energy -89784.516259 kJ/mol
# GULP energy per Si atom -5611.532266 kJ/mol
# Density = 2.537321 g / cm^3
# Si number density = 25.431097 Si / 1000 Ang^3
#
#
#
# Elastic Constant Matrix: (Units=GPa)
#
#
# Indices 1 2 3 4 5 6 
#
# 1 149.6134 37.8009 28.7241 0.0000 -16.4482 0.0000
# 2 37.8009 72.5874 16.5377 0.0000 -8.6242 0.0000
# 3 28.7241 16.5377 55.4421 0.0000 -10.1722 0.0000
# 4 0.0000 0.0000 0.0000 31.8513 0.0000 -8.0094
# 5 -16.4482 -8.6242 -10.1722 0.0000 43.3424 0.0000
# 6 0.0000 0.0000 0.0000 -8.0094 0.0000 54.7961
#
#
#
# Elastic Compliance Matrix: (Units=1/GPa)
#
#
# Indices 1 2 3 4 5 6 
#
# 1 0.008318 -0.003447 -0.002955 0.000000 0.001777 0.000000
# 2 -0.003447 0.016376 -0.002864 0.000000 0.001278 0.000000
# 3 -0.002955 -0.002864 0.021017 0.000000 0.003241 0.000000
# 4 0.000000 0.000000 0.000000 0.032594 0.000000 0.004764
# 5 0.001777 0.001278 0.003241 0.000000 0.024761 0.000000
# 6 0.000000 0.000000 0.000000 0.004764 0.000000 0.018946
#
#
# Mechanical properties :
#
#
# Convention : Reuss Voigt Hill
#
# Bulk Modulus (GPa) = 36.79507 49.30760 43.05133
# Shear Modulus (GPa) = 33.42162 38.96997 36.19580
#
# Velocity S-wave (km/s) = 3.62913 3.91880 3.77674
# Velocity P-wave (km/s) = 5.66222 6.31718 5.99865
#
# Compressibility (1/GPa) = 0.02717755
#
# Stress axis : x y z
#
# Youngs Moduli (GPa) = 120.22828 61.06473 47.58084
#
# Poissons Ratio (x) = 0.21050 0.14060
# Poissons Ratio (y) = 0.41444 0.13629
# Poissons Ratio (z) = 0.35527 0.17491
#
# Static dielectric constant tensor:
#      x y z
#    x 1.973370 0.000000 -0.002160 
#    y 0.000000 2.068980 0.000000 
#    z -0.002160 0.000000 1.937960 
# 
# From -- ./inp_files/5583.got.cif
#   From: 2010.05.17/outbox.cif.g08.bks.cpg/sg4_3_cif.got.tgz:5583.got - 2010.06.03 18:43:04.
