data_PCOD9117445
_publ_section_title
;
Structure prediction by ZEFSAII (Michael W. Deem and Ramdas Pophale) SiO2 
 PCOD9117445
Probable space group: P 21
;
_chemical_formula_sum "Si O2"
_cell_formula_units_Z 16
_cell_length_a 8.688450
_cell_length_b 16.576371
_cell_length_c 8.481402
_cell_angle_alpha 90.000000
_cell_angle_beta 144.854994
_cell_angle_gamma 90.000000
_cell_volume 703.163326
_symmetry_space_group_name_H-M "P 21"
_symmetry_group_IT_number 4
_symmetry_cell_setting 'monoclinic'
loop_
_space_group_symop_operation_xyz
x,y,z
-x,1/2+y,-z
loop_
_atom_site_type_symbol
_atom_site_label
_atom_site_fract_x
_atom_site_fract_y
_atom_site_fract_z
Si Si1 0.145261 0.044780 0.309249
Si Si2 0.207579 0.915949 0.122146
Si Si3 0.610244 0.128010 0.857496
Si Si4 0.968869 0.240903 0.011513
Si Si5 0.801840 0.933919 0.491123
Si Si6 0.180653 0.248984 0.549383
Si Si7 0.333627 0.141742 0.154074
Si Si8 0.075377 0.610536 0.460181
O O1 0.370494 0.066890 0.623408
O O2 0.244923 0.092904 0.235628
O O3 0.139446 0.956849 0.231543
O O4 0.859368 0.076684 0.127229
O O5 0.196565 0.821340 0.142066
O O6 0.496231 0.939873 0.295532
O O7 0.985997 0.933449 0.802735
O O8 0.751440 0.169024 0.824042
O O9 0.470755 0.206201 0.819696
O O10 0.102545 0.239948 0.298458
O O11 0.203824 0.228850 0.083246
O O12 0.829587 0.845409 0.431353
O O13 0.880121 0.015017 0.462337
O O14 0.989983 0.187420 0.483023
O O15 0.643602 0.134814 0.382935
O O16 0.171139 0.109369 0.868368
#
# Coordination Sequence:
#
# PCOD9117445 Si02
#       8
#     2   2   2   2   2   2   2   2
#     4  11  20  35  63  92 124 154 207 263 310 362
#     4  11  21  37  63  95 125 161 215 264 306 379
#     4  11  20  37  60  91 120 163 202 259 310 372
#     4  10  23  40  66  94 124 163 214 262 314 375
#     4  11  22  40  60  92 122 171 218 255 307 391
#     4  11  25  41  67  91 130 170 219 259 318 380
#     4  11  22  39  64  92 125 158 208 261 321 373
#     4  12  25  41  65  93 128 170 207 265 322 374
#
# _framework density 22.754314999999998
#
# number of rings (size 3 to 8) (size 9 to 14) (size 15 to 20)
#    0.000    1.000    6.250    2.250    1.750    0.000 
#    0.000    2.500    0.000    0.000    0.000    0.000 
#    0.000    0.000    0.000    0.000    0.000    0.000 
#
# Total GULP energy -89247.931614 kJ/mol
# GULP energy per Si atom -5577.995726 kJ/mol
# Density = 2.270253 g / cm^3
# Si number density = 22.754315 Si / 1000 Ang^3
#
#
#
# Elastic Constant Matrix: (Units=GPa)
#
#
# Indices 1 2 3 4 5 6 
#
# 1 54.2485 66.0181 27.0666 0.0000 16.3323 0.0000
# 2 66.0181 124.4483 23.2683 0.0000 5.4063 0.0000
# 3 27.0666 23.2683 117.1545 0.0000 28.5378 0.0000
# 4 0.0000 0.0000 0.0000 23.1091 0.0000 5.1513
# 5 16.3323 5.4063 28.5378 0.0000 33.8705 0.0000
# 6 0.0000 0.0000 0.0000 5.1513 0.0000 36.8691
#
#
#
# Elastic Compliance Matrix: (Units=1/GPa)
#
#
# Indices 1 2 3 4 5 6 
#
# 1 0.073072 -0.037039 -0.002998 0.000000 -0.026797 0.000000
# 2 -0.037039 0.027120 -0.000158 0.000000 0.013664 0.000000
# 3 -0.002998 -0.000158 0.011200 0.000000 -0.007966 0.000000
# 4 0.000000 0.000000 0.000000 0.044664 0.000000 -0.006240
# 5 -0.026797 0.013664 -0.007966 0.000000 0.046976 0.000000
# 6 0.000000 0.000000 0.000000 -0.006240 0.000000 0.027995
#
#
# Mechanical properties :
#
#
# Convention : Reuss Voigt Hill
#
# Bulk Modulus (GPa) = 32.25524 58.72856 45.49190
# Shear Modulus (GPa) = 15.53994 30.73630 23.13812
#
# Velocity S-wave (km/s) = 2.61616 3.67930 3.19230
# Velocity P-wave (km/s) = 4.83031 6.62688 5.79860
#
# Compressibility (1/GPa) = 0.03100271
#
# Stress axis : x y z
#
# Youngs Moduli (GPa) = 13.68509 36.87310 89.28474
#
# Poissons Ratio (x) = 1.36575 0.26769
# Poissons Ratio (y) = 0.50688 0.01407
# Poissons Ratio (z) = 0.04103 0.00581
#
# Static dielectric constant tensor:
#      x y z
#    x 1.888630 0.000000 -0.035800 
#    y 0.000000 1.945330 0.000000 
#    z -0.035800 0.000000 1.895350 
# 
# From -- ./inp_files/6940.got.cif
#   From: 2010.05.17/outbox.cif.g08.bks.cpg/sg4_4_cif.got.tgz:6940.got - 2010.06.03 18:43:04.
