data_PCOD9117935
_publ_section_title
;
Structure prediction by ZEFSAII (Michael W. Deem and Ramdas Pophale) SiO2 
 PCOD9117935
Probable space group: P 21
;
_chemical_formula_sum "Si O2"
_cell_formula_units_Z 14
_cell_length_a 11.994936
_cell_length_b 4.951613
_cell_length_c 8.953305
_cell_angle_alpha 90.000000
_cell_angle_beta 91.866890
_cell_angle_gamma 90.000000
_cell_volume 531.492852
_symmetry_space_group_name_H-M "P 21"
_symmetry_group_IT_number 4
_symmetry_cell_setting 'monoclinic'
loop_
_space_group_symop_operation_xyz
x,y,z
-x,1/2+y,-z
loop_
_atom_site_type_symbol
_atom_site_label
_atom_site_fract_x
_atom_site_fract_y
_atom_site_fract_z
Si Si1 0.805151 0.876710 0.979694
Si Si2 0.218869 0.904208 0.830556
Si Si3 0.408445 0.196955 0.214283
Si Si4 0.876326 0.131923 0.688166
Si Si5 0.556048 0.725995 0.236445
Si Si6 0.694368 0.843079 0.513291
Si Si7 0.105126 0.002609 0.542713
O O1 0.697737 0.747077 0.894063
O O2 0.879877 0.011769 0.852678
O O3 0.853026 0.631697 0.082170
O O4 0.767523 0.131516 0.076222
O O5 0.162335 0.815050 0.672094
O O6 0.334794 0.063974 0.812776
O O7 0.470462 0.479390 0.248770
O O8 0.359054 0.125138 0.375377
O O9 0.489341 0.966582 0.151250
O O10 0.752903 0.063486 0.620700
O O11 0.979485 0.025443 0.592727
O O12 0.889989 0.440886 0.634916
O O13 0.601067 0.885630 0.385324
O O14 0.805112 0.737991 0.436140
#
# Coordination Sequence:
#
# PCOD9117935 Si02
#       7
#     2   2   2   2   2   2   2
#     4  11  27  47  72 105 150 191 238 298 366 435
#     4  11  27  47  72 105 150 191 238 298 366 435
#     4  11  24  42  71 102 139 186 237 291 350 423
#     4  11  25  44  76 105 141 187 243 300 362 433
#     4  11  24  42  71 102 139 186 237 291 350 423
#     4  10  24  40  68 104 142 176 232 298 362 412
#     4  11  25  44  76 105 141 187 243 300 362 433
#
# _framework density 26.340899
#
# number of rings (size 3 to 8) (size 9 to 14) (size 15 to 20)
#    0.000    1.143    1.429    2.571   16.000    3.429 
#    0.000    0.000    0.000    0.000    0.000    0.000 
#    0.000    0.000    0.000    0.000    0.000    0.000 
#
# Total GULP energy -78108.388769 kJ/mol
# GULP energy per Si atom -5579.170626 kJ/mol
# Density = 2.628095 g / cm^3
# Si number density = 26.340899 Si / 1000 Ang^3
#
#
#
# Elastic Constant Matrix: (Units=GPa)
#
#
# Indices 1 2 3 4 5 6 
#
# 1 123.1933 25.7141 15.5457 0.0000 2.1026 0.0000
# 2 25.7141 116.2485 9.2575 0.0000 0.2143 0.0000
# 3 15.5457 9.2575 75.2047 0.0000 -3.8388 0.0000
# 4 0.0000 0.0000 0.0000 38.3986 0.0000 -3.8209
# 5 2.1026 0.2143 -3.8388 0.0000 17.8119 0.0000
# 6 0.0000 0.0000 0.0000 -3.8209 0.0000 38.1153
#
#
#
# Elastic Compliance Matrix: (Units=1/GPa)
#
#
# Indices 1 2 3 4 5 6 
#
# 1 0.008724 -0.001796 -0.001652 0.000000 -0.001364 0.000000
# 2 -0.001796 0.009059 -0.000747 0.000000 -0.000058 0.000000
# 3 -0.001652 -0.000747 0.013894 0.000000 0.003198 0.000000
# 4 0.000000 0.000000 0.000000 0.026305 0.000000 0.002637
# 5 -0.001364 -0.000058 0.003198 0.000000 0.056993 0.000000
# 6 0.000000 0.000000 0.000000 0.002637 0.000000 0.026500
#
#
# Mechanical properties :
#
#
# Convention : Reuss Voigt Hill
#
# Bulk Modulus (GPa) = 42.94124 46.18680 44.56402
# Shear Modulus (GPa) = 31.72049 36.47379 34.09714
#
# Velocity S-wave (km/s) = 3.47397 3.72517 3.60176
# Velocity P-wave (km/s) = 5.69463 6.00623 5.85250
#
# Compressibility (1/GPa) = 0.02328764
#
# Stress axis : x y z
#
# Youngs Moduli (GPa) = 114.62801 110.38688 71.97498
#
# Poissons Ratio (x) = 0.19822 0.11890
# Poissons Ratio (y) = 0.20583 0.05376
# Poissons Ratio (z) = 0.18936 0.08245
#
# Static dielectric constant tensor:
#      x y z
#    x 2.057060 0.000000 -0.078910 
#    y 0.000000 2.321370 0.000000 
#    z -0.078910 0.000000 2.214630 
# 
# From -- ./inp_files/7398.got.cif
#   From: 2010.05.17/outbox.cif.g08.bks.cpg/sg4_4_cif.got.tgz:7398.got - 2010.06.03 18:43:04.
