data_PCOD9117273
_publ_section_title
;
Structure prediction by ZEFSAII (Michael W. Deem and Ramdas Pophale) SiO2 
 PCOD9117273
Probable space group: P 21
;
_chemical_formula_sum "Si O2"
_cell_formula_units_Z 14
_cell_length_a 8.480044
_cell_length_b 10.888578
_cell_length_c 6.451959
_cell_angle_alpha 90.000000
_cell_angle_beta 81.003360
_cell_angle_gamma 90.000000
_cell_volume 588.416485
_symmetry_space_group_name_H-M "P 21"
_symmetry_group_IT_number 4
_symmetry_cell_setting 'monoclinic'
loop_
_space_group_symop_operation_xyz
x,y,z
-x,1/2+y,-z
loop_
_atom_site_type_symbol
_atom_site_label
_atom_site_fract_x
_atom_site_fract_y
_atom_site_fract_z
Si Si1 0.083915 0.836280 0.848806
Si Si2 0.452934 0.878175 0.659810
Si Si3 0.344287 0.431242 0.748720
Si Si4 0.080999 0.077265 0.136817
Si Si5 0.910602 0.988410 0.548038
Si Si6 0.640609 0.087263 0.870448
Si Si7 0.617684 0.730170 0.944703
O O1 0.270992 0.844129 0.746348
O O2 0.025125 0.697035 0.912197
O O3 0.982366 0.880498 0.670641
O O4 0.057448 0.948210 0.019735
O O5 0.495181 0.906362 0.413894
O O6 0.519336 0.994351 0.777701
O O7 0.570645 0.772999 0.725726
O O8 0.211529 0.441379 0.600770
O O9 0.352428 0.550580 0.890005
O O10 0.298832 0.333094 0.933284
O O11 0.264369 0.116806 0.078343
O O12 0.042425 0.057401 0.386710
O O13 0.806270 0.076100 0.718346
O O14 0.548509 0.213767 0.898672
#
# Coordination Sequence:
#
# PCOD9117273 Si02
#       7
#     2   2   2   2   2   2   2
#     4  12  28  48  76 119 151 205 254 319 388 454
#     4  10  24  43  73 108 142 196 258 302 381 447
#     4  10  23  45  70  99 148 196 245 316 368 451
#     4  12  27  49  76 113 160 198 253 321 385 456
#     4  11  26  45  72 106 152 195 248 305 385 446
#     4  10  22  45  69 103 137 191 245 305 370 444
#     4  11  24  43  74 102 142 195 253 312 367 450
#
# _framework density 23.792672
#
# number of rings (size 3 to 8) (size 9 to 14) (size 15 to 20)
#    0.000    1.143    1.429    4.286    8.000    4.571 
#    0.000    0.000    0.000    0.000    0.000    0.000 
#    0.000    0.000    0.000    0.000    0.000    0.000 
#
# Total GULP energy -78207.080864 kJ/mol
# GULP energy per Si atom -5586.220062 kJ/mol
# Density = 2.373852 g / cm^3
# Si number density = 23.792672 Si / 1000 Ang^3
#
#
#
# Elastic Constant Matrix: (Units=GPa)
#
#
# Indices 1 2 3 4 5 6 
#
# 1 76.0396 3.6410 60.7068 0.0000 -14.5003 0.0000
# 2 3.6410 71.3609 47.3143 0.0000 -5.1382 0.0000
# 3 60.7068 47.3143 133.3357 0.0000 -10.1136 0.0000
# 4 0.0000 0.0000 0.0000 12.9227 0.0000 0.5268
# 5 -14.5003 -5.1382 -10.1136 0.0000 41.7163 0.0000
# 6 0.0000 0.0000 0.0000 0.5268 0.0000 43.1260
#
#
#
# Elastic Compliance Matrix: (Units=1/GPa)
#
#
# Indices 1 2 3 4 5 6 
#
# 1 0.025074 0.008406 -0.013915 0.000000 0.006377 0.000000
# 2 0.008406 0.021162 -0.011122 0.000000 0.002832 0.000000
# 3 -0.013915 -0.011122 0.017635 0.000000 -0.001931 0.000000
# 4 0.000000 0.000000 0.000000 0.077422 0.000000 -0.000946
# 5 0.006377 0.002832 -0.001931 0.000000 0.026069 0.000000
# 6 0.000000 0.000000 0.000000 -0.000946 0.000000 0.023199
#
#
# Mechanical properties :
#
#
# Convention : Reuss Voigt Hill
#
# Bulk Modulus (GPa) = 32.66937 56.00670 44.33804
# Shear Modulus (GPa) = 21.36505 30.82460 26.09483
#
# Velocity S-wave (km/s) = 2.99986 3.60328 3.31533
# Velocity P-wave (km/s) = 5.07539 6.39547 5.77328
#
# Compressibility (1/GPa) = 0.03060971
#
# Stress axis : x y z
#
# Youngs Moduli (GPa) = 39.88215 47.25366 56.70407
#
# Poissons Ratio (x) = -0.39721 0.78904
# Poissons Ratio (y) = -0.33525 0.63065
# Poissons Ratio (z) = 0.55496 0.52555
#
# Static dielectric constant tensor:
#      x y z
#    x 1.961090 0.000000 -0.017560 
#    y 0.000000 1.969270 0.000000 
#    z -0.017560 0.000000 1.875600 
# 
# From -- ./inp_files/1173.got.cif
#   From: 2010.05.17/outbox.cif.g08.bks.cpg/sg4_1_cif.got.tgz:1173.got - 2010.06.03 18:43:04.
