data_PCOD9117358
_publ_section_title
;
Structure prediction by ZEFSAII (Michael W. Deem and Ramdas Pophale) SiO2 
 PCOD9117358
Probable space group: P 21
;
_chemical_formula_sum "Si O2"
_cell_formula_units_Z 16
_cell_length_a 6.064474
_cell_length_b 7.909770
_cell_length_c 17.340174
_cell_angle_alpha 90.000000
_cell_angle_beta 127.646694
_cell_angle_gamma 90.000000
_cell_volume 658.599850
_symmetry_space_group_name_H-M "P 21"
_symmetry_group_IT_number 4
_symmetry_cell_setting 'monoclinic'
loop_
_space_group_symop_operation_xyz
x,y,z
-x,1/2+y,-z
loop_
_atom_site_type_symbol
_atom_site_label
_atom_site_fract_x
_atom_site_fract_y
_atom_site_fract_z
Si Si1 0.190807 0.775770 0.294093
Si Si2 0.213959 0.831178 0.762041
Si Si3 0.815961 0.270352 0.525391
Si Si4 0.669607 0.628725 0.664960
Si Si5 0.165478 0.366773 0.913878
Si Si6 0.782802 0.692584 0.858958
Si Si7 0.324049 0.044795 0.630988
Si Si8 0.203467 0.982070 0.928161
O O1 0.174169 0.787777 0.381608
O O2 0.363085 0.615711 0.302171
O O3 0.906704 0.823238 0.190671
O O4 0.367565 0.940781 0.311605
O O5 0.491806 0.721996 0.839506
O O6 0.174701 0.945908 0.829846
O O7 0.961931 0.698934 0.694217
O O8 0.240837 0.954633 0.693749
O O9 0.567354 0.145359 0.448867
O O10 0.728984 0.424409 0.452915
O O11 0.115135 0.197960 0.569003
O O12 0.672097 0.725130 0.747152
O O13 0.951283 0.514521 0.896304
O O14 0.136983 0.174383 0.940107
O O15 0.475360 0.437609 0.986555
O O16 0.997898 0.844221 0.922141
#
# Coordination Sequence:
#
# PCOD9117358 Si02
#       8
#     2   2   2   2   2   2   2   2
#     4  11  26  44  68 103 139 192 229 298 348 429
#     4  11  25  46  76 106 142 190 236 302 357 430
#     4  12  26  42  71 104 144 190 237 292 351 421
#     4  10  24  43  73  97 143 186 238 286 359 416
#     4  11  23  45  77 100 145 189 241 292 363 431
#     4  10  22  47  70 107 145 183 243 300 359 431
#     4  12  27  44  71 106 147 184 243 293 354 424
#     4  11  23  47  74 107 143 196 233 303 367 430
#
# _framework density 24.293963000000002
#
# number of rings (size 3 to 8) (size 9 to 14) (size 15 to 20)
#    0.000    1.000    2.500    3.000    8.750    2.000 
#    4.500    6.250    0.000    0.000    0.000    0.000 
#    0.000    0.000    0.000    0.000    0.000    0.000 
#
# Total GULP energy -89339.925013 kJ/mol
# GULP energy per Si atom -5583.745313 kJ/mol
# Density = 2.423867 g / cm^3
# Si number density = 24.293963 Si / 1000 Ang^3
#
#
#
# Elastic Constant Matrix: (Units=GPa)
#
#
# Indices 1 2 3 4 5 6 
#
# 1 54.4277 28.4072 27.6315 0.0000 9.8337 0.0000
# 2 28.4072 145.1647 34.2394 0.0000 11.8253 0.0000
# 3 27.6315 34.2394 137.0850 0.0000 12.0490 0.0000
# 4 0.0000 0.0000 0.0000 39.9689 0.0000 3.6432
# 5 9.8337 11.8253 12.0490 0.0000 41.6094 0.0000
# 6 0.0000 0.0000 0.0000 3.6432 0.0000 32.5709
#
#
#
# Elastic Compliance Matrix: (Units=1/GPa)
#
#
# Indices 1 2 3 4 5 6 
#
# 1 0.022438 -0.003314 -0.003398 0.000000 -0.003377 0.000000
# 2 -0.003314 0.007914 -0.001211 0.000000 -0.001115 0.000000
# 3 -0.003398 -0.001211 0.008395 0.000000 -0.001284 0.000000
# 4 0.000000 0.000000 0.000000 0.025277 0.000000 -0.002827
# 5 -0.003377 -0.001115 -0.001284 0.000000 0.025520 0.000000
# 6 0.000000 0.000000 0.000000 -0.002827 0.000000 0.031018
#
#
# Mechanical properties :
#
#
# Convention : Reuss Voigt Hill
#
# Bulk Modulus (GPa) = 43.66665 57.47040 50.56853
# Shear Modulus (GPa) = 34.71224 39.25648 36.98436
#
# Velocity S-wave (km/s) = 3.78410 4.02418 3.90599
# Velocity P-wave (km/s) = 6.09146 6.73050 6.41894
#
# Compressibility (1/GPa) = 0.02290077
#
# Stress axis : x y z
#
# Youngs Moduli (GPa) = 44.56715 126.36371 119.12037
#
# Poissons Ratio (x) = 0.41881 0.40478
# Poissons Ratio (y) = 0.14771 0.14420
# Poissons Ratio (z) = 0.15144 0.15296
#
# Static dielectric constant tensor:
#      x y z
#    x 2.012360 0.000000 -0.017540 
#    y 0.000000 2.065270 0.000000 
#    z -0.017540 0.000000 1.939860 
# 
# From -- ./inp_files/3507.got.cif
#   From: 2010.05.17/outbox.cif.g08.bks.cpg/sg4_2_cif.got.tgz:3507.got - 2010.06.03 18:43:04.
