data_PCOD9117798
_publ_section_title
;
Structure prediction by ZEFSAII (Michael W. Deem and Ramdas Pophale) SiO2 
 PCOD9117798
Probable space group: P 21
;
_chemical_formula_sum "Si O2"
_cell_formula_units_Z 16
_cell_length_a 7.008443
_cell_length_b 9.230248
_cell_length_c 12.470666
_cell_angle_alpha 90.000000
_cell_angle_beta 117.990068
_cell_angle_gamma 90.000000
_cell_volume 712.359976
_symmetry_space_group_name_H-M "P 21"
_symmetry_group_IT_number 4
_symmetry_cell_setting 'monoclinic'
loop_
_space_group_symop_operation_xyz
x,y,z
-x,1/2+y,-z
loop_
_atom_site_type_symbol
_atom_site_label
_atom_site_fract_x
_atom_site_fract_y
_atom_site_fract_z
Si Si1 0.936623 0.387880 0.045293
Si Si2 0.932694 0.550270 0.465132
Si Si3 0.017382 0.421353 0.814451
Si Si4 0.274185 0.162274 0.226001
Si Si5 0.497623 0.408744 0.420326
Si Si6 0.302538 0.346305 0.594209
Si Si7 0.089707 0.596369 0.270140
Si Si8 0.510087 0.928822 0.147621
O O1 0.419712 0.269701 0.332924
O O2 0.992116 0.519517 0.139459
O O3 0.083911 0.255944 0.122469
O O4 0.994742 0.417770 0.937195
O O5 0.737647 0.450514 0.452816
O O6 0.859343 0.713735 0.470395
O O7 0.154127 0.489006 0.572685
O O8 0.970650 0.542404 0.346749
O O9 0.264313 0.451320 0.851021
O O10 0.851769 0.545528 0.734438
O O11 0.413309 0.074801 0.175212
O O12 0.321097 0.863914 0.024113
O O13 0.451811 0.373969 0.531783
O O14 0.335766 0.541098 0.346910
O O15 0.439252 0.324624 0.737829
O O16 0.054222 0.766906 0.250793
#
# Coordination Sequence:
#
# PCOD9117798 Si02
#       8
#     2   2   2   2   2   2   2   2
#     4  10  24  45  66 100 140 177 232 282 343 409
#     4  11  26  46  73  99 140 181 227 294 330 420
#     4  11  22  40  70  99 137 176 227 288 329 417
#     4  10  25  44  67 103 134 179 230 284 342 416
#     4  10  26  44  72  96 142 184 218 288 348 405
#     4  11  27  45  69 108 131 182 236 276 346 406
#     4  10  23  46  67 105 133 177 235 280 345 406
#     4  11  25  42  70 100 135 182 225 282 347 399
#
# _framework density 22.460553000000001
#
# number of rings (size 3 to 8) (size 9 to 14) (size 15 to 20)
#    0.000    1.500    1.250    1.500    8.750    8.000 
#    0.000    0.000    0.000    0.000    0.000    0.000 
#    0.000    0.000    0.000    0.000    0.000    0.000 
#
# Total GULP energy -89596.513407 kJ/mol
# GULP energy per Si atom -5599.782088 kJ/mol
# Density = 2.240943 g / cm^3
# Si number density = 22.460553 Si / 1000 Ang^3
#
#
#
# Elastic Constant Matrix: (Units=GPa)
#
#
# Indices 1 2 3 4 5 6 
#
# 1 125.8477 42.0976 22.0249 0.0000 -4.0277 0.0000
# 2 42.0976 105.2870 10.0103 0.0000 16.9260 0.0000
# 3 22.0249 10.0103 75.4062 0.0000 7.4784 0.0000
# 4 0.0000 0.0000 0.0000 23.2088 0.0000 6.8941
# 5 -4.0277 16.9260 7.4784 0.0000 26.1450 0.0000
# 6 0.0000 0.0000 0.0000 6.8941 0.0000 33.2754
#
#
#
# Elastic Compliance Matrix: (Units=1/GPa)
#
#
# Indices 1 2 3 4 5 6 
#
# 1 0.010188 -0.004670 -0.002893 0.000000 0.005420 0.000000
# 2 -0.004670 0.012783 0.000575 0.000000 -0.009159 0.000000
# 3 -0.002893 0.000575 0.014523 0.000000 -0.004972 0.000000
# 4 0.000000 0.000000 0.000000 0.045913 0.000000 -0.009512
# 5 0.005420 -0.009159 -0.004972 0.000000 0.046435 0.000000
# 6 0.000000 0.000000 0.000000 -0.009512 0.000000 0.032023
#
#
# Mechanical properties :
#
#
# Convention : Reuss Voigt Hill
#
# Bulk Modulus (GPa) = 42.51949 50.53407 46.52678
# Shear Modulus (GPa) = 27.22119 32.01972 29.62046
#
# Velocity S-wave (km/s) = 3.48509 3.77981 3.63544
# Velocity P-wave (km/s) = 5.93012 6.44958 6.19530
#
# Compressibility (1/GPa) = 0.02351863
#
# Stress axis : x y z
#
# Youngs Moduli (GPa) = 98.15378 78.23018 68.85446
#
# Poissons Ratio (x) = 0.36532 0.19922
# Poissons Ratio (y) = 0.45836 -0.03962
# Poissons Ratio (z) = 0.28400 -0.04502
#
# Static dielectric constant tensor:
#      x y z
#    x 1.802850 0.000000 0.011510 
#    y 0.000000 1.847310 0.000000 
#    z 0.011510 0.000000 1.832170 
# 
# From -- ./inp_files/13347.got.cif
#   From: 2010.05.17/outbox.cif.g08.bks.cpg/sg4_7_cif.got.tgz:13347.got - 2010.06.03 18:43:04.
