data_PCOD9117314
_publ_section_title
;
Structure prediction by ZEFSAII (Michael W. Deem and Ramdas Pophale) SiO2 
 PCOD9117314
Probable space group: P 21
;
_chemical_formula_sum "Si O2"
_cell_formula_units_Z 10
_cell_length_a 11.783177
_cell_length_b 6.898868
_cell_length_c 7.700967
_cell_angle_alpha 90.000000
_cell_angle_beta 144.721450
_cell_angle_gamma 90.000000
_cell_volume 361.556875
_symmetry_space_group_name_H-M "P 21"
_symmetry_group_IT_number 4
_symmetry_cell_setting 'monoclinic'
loop_
_space_group_symop_operation_xyz
x,y,z
-x,1/2+y,-z
loop_
_atom_site_type_symbol
_atom_site_label
_atom_site_fract_x
_atom_site_fract_y
_atom_site_fract_z
Si Si1 0.768994 0.922250 0.855716
Si Si2 0.461546 0.796291 0.702388
Si Si3 0.087025 0.688553 0.424264
Si Si4 0.929835 0.754239 0.699118
Si Si5 0.339710 0.973473 0.871323
O O1 0.545777 0.908074 0.643937
O O2 0.811142 0.810119 0.728234
O O3 0.885037 0.798744 0.147017
O O4 0.879856 0.127726 0.009617
O O5 0.230083 0.761671 0.445222
O O6 0.504298 0.915734 0.933499
O O7 0.554215 0.583397 0.842464
O O8 0.045237 0.464484 0.355535
O O9 0.216469 0.775589 0.743184
O O10 0.805777 0.618818 0.413287
#
# Coordination Sequence:
#
# PCOD9117314 Si02
#       5
#     2   2   2   2   2
#     4  11  23  43  68 100 133 184 218 281 344 402
#     4  10  22  46  67  97 134 182 221 277 345 392
#     4   9  22  43  63  96 134 173 223 283 323 408
#     4  11  21  45  66  98 142 169 229 281 333 409
#     4   9  22  43  64  95 135 174 227 280 325 409
#
# _framework density 27.658166999999999
#
# number of rings (size 3 to 8) (size 9 to 14) (size 15 to 20)
#    1.200    0.800    2.000    1.200    0.000    1.600 
#   21.600    0.000    0.000    0.000    0.000    0.000 
#    0.000    0.000    0.000    0.000    0.000    0.000 
#
# Total GULP energy -55890.941267 kJ/mol
# GULP energy per Si atom -5589.094127 kJ/mol
# Density = 2.759522 g / cm^3
# Si number density = 27.658167 Si / 1000 Ang^3
#
#
#
# Elastic Constant Matrix: (Units=GPa)
#
#
# Indices 1 2 3 4 5 6 
#
# 1 166.9971 40.8778 21.9692 0.0000 5.6680 0.0000
# 2 40.8778 164.0244 6.4667 0.0000 7.0148 0.0000
# 3 21.9692 6.4667 11.7159 0.0000 -3.4541 0.0000
# 4 0.0000 0.0000 0.0000 31.4684 0.0000 10.6970
# 5 5.6680 7.0148 -3.4541 0.0000 36.4487 0.0000
# 6 0.0000 0.0000 0.0000 10.6970 0.0000 32.2925
#
#
#
# Elastic Compliance Matrix: (Units=1/GPa)
#
#
# Indices 1 2 3 4 5 6 
#
# 1 0.008513 -0.001383 -0.015958 0.000000 -0.002570 0.000000
# 2 -0.001383 0.006545 -0.001366 0.000000 -0.001174 0.000000
# 3 -0.015958 -0.001366 0.120200 0.000000 0.014136 0.000000
# 4 0.000000 0.000000 0.000000 0.035810 0.000000 -0.011862
# 5 -0.002570 -0.001174 0.014136 0.000000 0.029401 0.000000
# 6 0.000000 0.000000 0.000000 -0.011862 0.000000 0.034896
#
#
# Mechanical properties :
#
#
# Convention : Reuss Voigt Hill
#
# Bulk Modulus (GPa) = 10.22029 53.48497 31.85263
# Shear Modulus (GPa) = 16.37221 38.27017 27.32119
#
# Velocity S-wave (km/s) = 2.43564 3.72383 3.14636
# Velocity P-wave (km/s) = 3.40779 6.15378 4.97403
#
# Compressibility (1/GPa) = 0.09784457
#
# Stress axis : x y z
#
# Youngs Moduli (GPa) = 117.46537 152.78138 8.31944
#
# Poissons Ratio (x) = 0.21123 0.13276
# Poissons Ratio (y) = 0.16240 0.01137
# Poissons Ratio (z) = 1.87453 0.20877
#
# Static dielectric constant tensor:
#      x y z
#    x 2.298490 0.000000 -0.034870 
#    y 0.000000 2.162600 0.000000 
#    z -0.034870 0.000000 2.140230 
# 
# From -- ./inp_files/5121.got.cif
#   From: 2010.05.17/outbox.cif.g08.bks.cpg/sg4_3_cif.got.tgz:5121.got - 2010.06.03 18:43:04.
