data_PCOD9117807
_publ_section_title
;
Structure prediction by ZEFSAII (Michael W. Deem and Ramdas Pophale) SiO2 
 PCOD9117807
Probable space group: P 21
;
_chemical_formula_sum "Si O2"
_cell_formula_units_Z 16
_cell_length_a 8.928179
_cell_length_b 11.371601
_cell_length_c 9.674657
_cell_angle_alpha 90.000000
_cell_angle_beta 51.751894
_cell_angle_gamma 90.000000
_cell_volume 771.394177
_symmetry_space_group_name_H-M "P 21"
_symmetry_group_IT_number 4
_symmetry_cell_setting 'monoclinic'
loop_
_space_group_symop_operation_xyz
x,y,z
-x,1/2+y,-z
loop_
_atom_site_type_symbol
_atom_site_label
_atom_site_fract_x
_atom_site_fract_y
_atom_site_fract_z
Si Si1 0.239375 0.165860 0.684028
Si Si2 0.167145 0.536625 0.075732
Si Si3 0.769478 0.634940 0.622939
Si Si4 0.838515 0.947056 0.228589
Si Si5 0.605423 0.069279 0.603898
Si Si6 0.814564 0.193313 0.693880
Si Si7 0.643209 0.878177 0.822292
Si Si8 0.777616 0.431097 0.833506
O O1 0.312743 0.144832 0.484866
O O2 0.211458 0.306245 0.729762
O O3 0.389356 0.099571 0.694109
O O4 0.040313 0.096831 0.811773
O O5 0.269751 0.633489 0.118073
O O6 0.210475 0.422292 0.143557
O O7 0.210442 0.498573 0.894802
O O8 0.709676 0.752733 0.733597
O O9 0.726158 0.530139 0.751744
O O10 0.995742 0.627043 0.464009
O O11 0.063329 0.962917 0.142281
O O12 0.719661 0.024422 0.405867
O O13 0.679596 0.185821 0.639584
O O14 0.642657 0.968573 0.695190
O O15 0.874534 0.323991 0.696093
O O16 0.424639 0.883793 0.997323
#
# Coordination Sequence:
#
# PCOD9117807 Si02
#       8
#     2   2   2   2   2   2   2   2
#     4  11  25  44  71 101 144 180 236 286 351 410
#     4  10  25  44  68 100 143 175 226 290 343 410
#     4  11  24  46  71 101 136 185 230 289 350 416
#     4  12  24  47  68 105 140 181 234 291 346 414
#     4  11  24  46  69  98 138 184 227 290 342 418
#     4  10  23  46  68  98 140 179 231 285 348 419
#     4  11  26  44  69 103 141 182 233 280 353 419
#     4  12  25  43  74 100 140 182 235 291 349 412
#
# _framework density 20.741665999999999
#
# number of rings (size 3 to 8) (size 9 to 14) (size 15 to 20)
#    0.000    1.000    5.000    0.750   10.500    1.000 
#    0.000    0.000    0.000    0.000    0.000    0.000 
#    0.000    0.000    0.000    0.000    0.000    0.000 
#
# Total GULP energy -89205.678181 kJ/mol
# GULP energy per Si atom -5575.354886 kJ/mol
# Density = 2.069446 g / cm^3
# Si number density = 20.741666 Si / 1000 Ang^3
#
#
#
# Elastic Constant Matrix: (Units=GPa)
#
#
# Indices 1 2 3 4 5 6 
#
# 1 80.5843 26.0813 51.2688 0.0000 19.3608 0.0000
# 2 26.0813 71.2666 42.5565 0.0000 19.5573 0.0000
# 3 51.2688 42.5565 102.8133 0.0000 27.7862 0.0000
# 4 0.0000 0.0000 0.0000 32.7715 0.0000 2.4159
# 5 19.3608 19.5573 27.7862 0.0000 36.6932 0.0000
# 6 0.0000 0.0000 0.0000 2.4159 0.0000 19.1552
#
#
#
# Elastic Compliance Matrix: (Units=1/GPa)
#
#
# Indices 1 2 3 4 5 6 
#
# 1 0.018600 -0.001208 -0.007917 0.000000 -0.003175 0.000000
# 2 -0.001208 0.019523 -0.006084 0.000000 -0.005161 0.000000
# 3 -0.007917 -0.006084 0.017838 0.000000 -0.006088 0.000000
# 4 0.000000 0.000000 0.000000 0.030801 0.000000 -0.003885
# 5 -0.003175 -0.005161 -0.006088 0.000000 0.036289 0.000000
# 6 0.000000 0.000000 0.000000 -0.003885 0.000000 0.052695
#
#
# Mechanical properties :
#
#
# Convention : Reuss Voigt Hill
#
# Bulk Modulus (GPa) = 39.14905 54.94193 47.04549
# Shear Modulus (GPa) = 23.29069 26.70782 24.99925
#
# Velocity S-wave (km/s) = 3.35460 3.59226 3.47546
# Velocity P-wave (km/s) = 5.82409 6.61453 6.23185
#
# Compressibility (1/GPa) = 0.02554340
#
# Stress axis : x y z
#
# Youngs Moduli (GPa) = 53.76328 51.22101 56.06112
#
# Poissons Ratio (x) = 0.06188 0.44383
# Poissons Ratio (y) = 0.06496 0.34106
# Poissons Ratio (z) = 0.42564 0.31161
#
# Static dielectric constant tensor:
#      x y z
#    x 1.785600 0.000000 0.023550 
#    y 0.000000 1.755810 0.000000 
#    z 0.023550 0.000000 1.758650 
# 
# From -- ./inp_files/6227.got.cif
#   From: 2010.05.17/outbox.cif.g08.bks.cpg/sg4_4_cif.got.tgz:6227.got - 2010.06.03 18:43:04.
