data_PCOD9117878
_publ_section_title
;
Structure prediction by ZEFSAII (Michael W. Deem and Ramdas Pophale) SiO2 
 PCOD9117878
Probable space group: P 21
;
_chemical_formula_sum "Si O2"
_cell_formula_units_Z 14
_cell_length_a 8.752629
_cell_length_b 13.183742
_cell_length_c 5.183239
_cell_angle_alpha 90.000000
_cell_angle_beta 72.589757
_cell_angle_gamma 90.000000
_cell_volume 570.705264
_symmetry_space_group_name_H-M "P 21"
_symmetry_group_IT_number 4
_symmetry_cell_setting 'monoclinic'
loop_
_space_group_symop_operation_xyz
x,y,z
-x,1/2+y,-z
loop_
_atom_site_type_symbol
_atom_site_label
_atom_site_fract_x
_atom_site_fract_y
_atom_site_fract_z
Si Si1 0.541015 0.790140 0.670108
Si Si2 0.101926 0.285066 0.548468
Si Si3 0.248104 0.423018 0.105403
Si Si4 0.111005 0.959750 0.123286
Si Si5 0.677567 0.445809 0.477481
Si Si6 0.600177 0.091136 0.317711
Si Si7 0.106979 0.606388 0.510065
O O1 0.715326 0.765532 0.456670
O O2 0.589333 0.875684 0.854581
O O3 0.425039 0.845651 0.529403
O O4 0.462166 0.686917 0.817626
O O5 0.131449 0.328399 0.239864
O O6 0.018457 0.371880 0.757862
O O7 0.985329 0.190669 0.602094
O O8 0.162931 0.511137 0.313660
O O9 0.308345 0.491490 0.838579
O O10 0.244514 0.950022 0.279623
O O11 0.184988 0.951164 0.806054
O O12 0.019127 0.064846 0.216929
O O13 0.559793 0.540971 0.490872
O O14 0.729123 0.140501 0.441951
#
# Coordination Sequence:
#
# PCOD9117878 Si02
#       7
#     2   2   2   2   2   2   2
#     4  10  23  48  72 110 145 205 247 323 381 457
#     4   9  22  48  69 106 145 199 253 313 384 448
#     4   9  23  46  71 102 154 189 260 316 379 457
#     4  11  26  44  74 106 150 190 251 310 375 451
#     4  12  25  47  71 113 144 195 251 312 372 459
#     4  12  24  46  75 105 152 203 252 322 388 457
#     4  11  23  47  72 106 146 205 250 322 383 459
#
# _framework density 24.531051999999999
#
# number of rings (size 3 to 8) (size 9 to 14) (size 15 to 20)
#    0.857    0.571    1.429    2.571    6.000    0.000 
#    5.143    0.000    0.000    0.000    0.000    0.000 
#    0.000    0.000    0.000    0.000    0.000    0.000 
#
# Total GULP energy -78150.954162 kJ/mol
# GULP energy per Si atom -5582.211012 kJ/mol
# Density = 2.447522 g / cm^3
# Si number density = 24.531052 Si / 1000 Ang^3
#
#
#
# Elastic Constant Matrix: (Units=GPa)
#
#
# Indices 1 2 3 4 5 6 
#
# 1 58.9425 8.0819 1.0705 0.0000 -8.0191 0.0000
# 2 8.0819 112.6978 -4.1425 0.0000 -6.6831 0.0000
# 3 1.0705 -4.1425 60.2129 0.0000 -16.5960 0.0000
# 4 0.0000 0.0000 0.0000 0.9530 0.0000 8.2455
# 5 -8.0191 -6.6831 -16.5960 0.0000 27.5552 0.0000
# 6 0.0000 0.0000 0.0000 8.2455 0.0000 28.3173
#
#
#
# Elastic Compliance Matrix: (Units=1/GPa)
#
#
# Indices 1 2 3 4 5 6 
#
# 1 0.017841 -0.000898 0.001190 0.000000 0.005691 0.000000
# 2 -0.000898 0.009157 0.001422 0.000000 0.002816 0.000000
# 3 0.001190 0.001422 0.020234 0.000000 0.012878 0.000000
# 4 0.000000 0.000000 0.000000 -0.690652 0.000000 0.201106
# 5 0.005691 0.002816 0.012878 0.000000 0.046386 0.000000
# 6 0.000000 0.000000 0.000000 0.201106 0.000000 -0.023244
#
#
# Mechanical properties :
#
#
# Convention : Reuss Voigt Hill
#
# Bulk Modulus (GPa) = 19.73989 26.87478 23.30733
# Shear Modulus (GPa) = -8.23969 26.48800 9.12416
#
# Velocity S-wave (km/s) = -1.83471 3.28956 1.93067
# Velocity P-wave (km/s) = 1.89107 5.04058 3.80681
#
# Compressibility (1/GPa) = 0.05065885
#
# Stress axis : x y z
#
# Youngs Moduli (GPa) = 56.04920 109.20640 49.42238
#
# Poissons Ratio (x) = 0.09810 -0.05879
# Poissons Ratio (y) = 0.05035 -0.07028
# Poissons Ratio (z) = -0.06667 -0.15530
#
# Static dielectric constant tensor:
#      x y z
#    x 1.993810 0.000000 0.046250 
#    y 0.000000 1.944250 0.000000 
#    z 0.046250 0.000000 2.020340 
# 
# From -- ./inp_files/1817.got.cif
#   From: 2010.05.17/outbox.cif.g08.bks.cpg/sg4_1_cif.got.tgz:1817.got - 2010.06.03 18:43:04.
