data_PCOD9117170
_publ_section_title
;
Structure prediction by ZEFSAII (Michael W. Deem and Ramdas Pophale) SiO2 
 PCOD9117170
Probable space group: P 21
;
_chemical_formula_sum "Si O2"
_cell_formula_units_Z 14
_cell_length_a 10.627486
_cell_length_b 9.380179
_cell_length_c 14.093313
_cell_angle_alpha 90.000000
_cell_angle_beta 152.049143
_cell_angle_gamma 90.000000
_cell_volume 658.510591
_symmetry_space_group_name_H-M "P 21"
_symmetry_group_IT_number 4
_symmetry_cell_setting 'monoclinic'
loop_
_space_group_symop_operation_xyz
x,y,z
-x,1/2+y,-z
loop_
_atom_site_type_symbol
_atom_site_label
_atom_site_fract_x
_atom_site_fract_y
_atom_site_fract_z
Si Si1 0.607192 0.881960 0.982400
Si Si2 0.096016 0.884646 0.765479
Si Si3 0.499230 0.873014 0.703732
Si Si4 0.976201 0.139780 0.151958
Si Si5 0.083856 0.690517 0.306615
Si Si6 0.356959 0.189712 0.561373
Si Si7 0.934409 0.251238 0.929658
O O1 0.370487 0.919205 0.895877
O O2 0.478142 0.823575 0.798783
O O3 0.808469 0.765135 0.158313
O O4 0.797860 0.014426 0.078363
O O5 0.145752 0.791085 0.893737
O O6 0.903183 0.776548 0.578107
O O7 0.928308 0.025448 0.675586
O O8 0.322373 0.779239 0.514348
O O9 0.410786 0.038123 0.644885
O O10 0.813388 0.854896 0.888425
O O11 0.268516 0.144063 0.395482
O O12 0.993522 0.136202 0.051280
O O13 0.071003 0.705414 0.183848
O O14 0.621764 0.286049 0.739572
#
# Coordination Sequence:
#
# PCOD9117170 Si02
#       7
#     2   2   2   2   2   2   2
#     4  11  22  46  69  93 134 182 225 272 339 399
#     4  10  25  43  65 101 133 175 228 277 333 397
#     4  11  24  42  69  99 130 182 217 279 339 402
#     4  10  22  44  68  94 134 178 219 275 339 393
#     4  11  24  42  66 103 136 167 230 285 325 404
#     4  10  23  44  63  99 135 174 221 274 336 400
#     4  11  24  41  70  97 134 172 226 272 345 393
#
# _framework density 21.260100000000001
#
# number of rings (size 3 to 8) (size 9 to 14) (size 15 to 20)
#    0.857    0.571    2.857    1.714    2.000    2.286 
#    5.143    0.000    0.000    0.000    0.000    0.000 
#    0.000    0.000    0.000    0.000    0.000    0.000 
#
# Total GULP energy -77995.952418 kJ/mol
# GULP energy per Si atom -5571.139458 kJ/mol
# Density = 2.121171 g / cm^3
# Si number density = 21.260100 Si / 1000 Ang^3
#
#
#
# Elastic Constant Matrix: (Units=GPa)
#
#
# Indices 1 2 3 4 5 6 
#
# 1 34.4599 16.3446 25.4081 0.0000 10.0063 0.0000
# 2 16.3446 123.2464 31.7597 0.0000 8.7591 0.0000
# 3 25.4081 31.7597 130.6568 0.0000 -0.3069 0.0000
# 4 0.0000 0.0000 0.0000 33.4796 0.0000 6.6244
# 5 10.0063 8.7591 -0.3069 0.0000 28.2758 0.0000
# 6 0.0000 0.0000 0.0000 6.6244 0.0000 24.0698
#
#
#
# Elastic Compliance Matrix: (Units=1/GPa)
#
#
# Indices 1 2 3 4 5 6 
#
# 1 0.039219 -0.002443 -0.007064 0.000000 -0.013199 0.000000
# 2 -0.002443 0.009020 -0.001722 0.000000 -0.001948 0.000000
# 3 -0.007064 -0.001722 0.009453 0.000000 0.003136 0.000000
# 4 0.000000 0.000000 0.000000 0.031589 0.000000 -0.008694
# 5 -0.013199 -0.001948 0.003136 0.000000 0.040674 0.000000
# 6 0.000000 0.000000 0.000000 -0.008694 0.000000 0.043938
#
#
# Mechanical properties :
#
#
# Convention : Reuss Voigt Hill
#
# Bulk Modulus (GPa) = 28.38119 48.37644 38.37881
# Shear Modulus (GPa) = 24.02735 31.48844 27.75789
#
# Velocity S-wave (km/s) = 3.36543 3.85269 3.61727
# Velocity P-wave (km/s) = 5.33667 6.52648 5.96133
#
# Compressibility (1/GPa) = 0.03523461
#
# Stress axis : x y z
#
# Youngs Moduli (GPa) = 25.49800 110.86444 105.78335
#
# Poissons Ratio (x) = 0.27081 0.74724
# Poissons Ratio (y) = 0.06229 0.18217
# Poissons Ratio (z) = 0.18011 0.19092
#
# Static dielectric constant tensor:
#      x y z
#    x 1.771160 0.000000 -0.021040 
#    y 0.000000 1.795580 0.000000 
#    z -0.021040 0.000000 1.813410 
# 
# From -- ./inp_files/13952.got.cif
#   From: 2010.05.17/outbox.cif.g08.bks.cpg/sg4_7_cif.got.tgz:13952.got - 2010.06.03 18:43:04.
