data_PCOD9117894
_publ_section_title
;
Structure prediction by ZEFSAII (Michael W. Deem and Ramdas Pophale) SiO2 
 PCOD9117894
Probable space group: P 21
;
_chemical_formula_sum "Si O2"
_cell_formula_units_Z 16
_cell_length_a 8.479140
_cell_length_b 10.278551
_cell_length_c 10.442003
_cell_angle_alpha 90.000000
_cell_angle_beta 136.992748
_cell_angle_gamma 90.000000
_cell_volume 620.740076
_symmetry_space_group_name_H-M "P 21"
_symmetry_group_IT_number 4
_symmetry_cell_setting 'monoclinic'
loop_
_space_group_symop_operation_xyz
x,y,z
-x,1/2+y,-z
loop_
_atom_site_type_symbol
_atom_site_label
_atom_site_fract_x
_atom_site_fract_y
_atom_site_fract_z
Si Si1 0.691115 0.206250 0.211077
Si Si2 0.628994 0.620748 0.401354
Si Si3 0.922168 0.700411 0.348421
Si Si4 0.911751 0.296050 0.089123
Si Si5 0.533844 0.395113 0.697034
Si Si6 0.792442 0.045377 0.675669
Si Si7 0.641392 0.930815 0.073948
Si Si8 0.939262 0.533714 0.810856
O O1 0.849750 0.210130 0.429425
O O2 0.804462 0.985400 0.059127
O O3 0.578603 0.063109 0.117160
O O4 0.523686 0.328775 0.095786
O O5 0.731474 0.616284 0.317210
O O6 0.376242 0.583661 0.307337
O O7 0.805895 0.545592 0.596373
O O8 0.621438 0.772926 0.433553
O O9 0.806508 0.840478 0.259923
O O10 0.014532 0.641353 0.269749
O O11 0.069803 0.420267 0.194898
O O12 0.043314 0.172167 0.103722
O O13 0.649345 0.340045 0.896828
O O14 0.868596 0.232653 0.201672
O O15 0.378423 0.511242 0.546982
O O16 0.783810 0.425108 0.785050
#
# Coordination Sequence:
#
# PCOD9117894 Si02
#       8
#     2   2   2   2   2   2   2   2
#     4  11  27  45  77 110 150 204 255 316 382 461
#     4  11  23  48  74 104 151 196 247 322 373 451
#     4  12  26  48  79 108 155 203 251 316 391 450
#     4  11  24  46  71 105 153 197 251 326 378 451
#     4  11  24  45  73 100 147 201 244 316 389 442
#     4  11  27  46  75 112 147 202 259 306 388 464
#     4  11  26  49  70 114 155 194 261 314 382 463
#     4  10  23  49  69 107 152 193 260 316 377 468
#
# _framework density 25.775687000000001
#
# number of rings (size 3 to 8) (size 9 to 14) (size 15 to 20)
#    0.000    1.000    3.750    1.500    8.750    0.000 
#    9.000    0.000    0.000    0.000    0.000    0.000 
#    0.000    0.000    0.000    0.000    0.000    0.000 
#
# Total GULP energy -89257.266151 kJ/mol
# GULP energy per Si atom -5578.579134 kJ/mol
# Density = 2.571702 g / cm^3
# Si number density = 25.775687 Si / 1000 Ang^3
#
#
#
# Elastic Constant Matrix: (Units=GPa)
#
#
# Indices 1 2 3 4 5 6 
#
# 1 95.3502 69.0854 48.1527 0.0000 19.2646 0.0000
# 2 69.0854 104.9658 22.6474 0.0000 16.4371 0.0000
# 3 48.1527 22.6474 102.4191 0.0000 0.5712 0.0000
# 4 0.0000 0.0000 0.0000 47.4489 0.0000 22.9273
# 5 19.2646 16.4371 0.5712 0.0000 41.2817 0.0000
# 6 0.0000 0.0000 0.0000 22.9273 0.0000 45.7254
#
#
#
# Elastic Compliance Matrix: (Units=1/GPa)
#
#
# Indices 1 2 3 4 5 6 
#
# 1 0.027602 -0.015033 -0.009615 0.000000 -0.006762 0.000000
# 2 -0.015033 0.018882 0.002896 0.000000 -0.000543 0.000000
# 3 -0.009615 0.002896 0.013627 0.000000 0.003145 0.000000
# 4 0.000000 0.000000 0.000000 0.027814 0.000000 -0.013946
# 5 -0.006762 -0.000543 0.003145 0.000000 0.027552 0.000000
# 6 0.000000 0.000000 0.000000 -0.013946 0.000000 0.028863
#
#
# Mechanical properties :
#
#
# Convention : Reuss Voigt Hill
#
# Bulk Modulus (GPa) = 60.22411 64.72288 62.47349
# Shear Modulus (GPa) = 25.85599 37.74784 31.80192
#
# Velocity S-wave (km/s) = 3.17064 3.83100 3.51635
# Velocity P-wave (km/s) = 6.06789 6.68829 6.38563
#
# Compressibility (1/GPa) = 0.01660465
#
# Stress axis : x y z
#
# Youngs Moduli (GPa) = 36.22946 52.96174 73.38628
#
# Poissons Ratio (x) = 0.79619 0.70562
# Poissons Ratio (y) = 0.54465 -0.21251
# Poissons Ratio (z) = 0.34835 -0.15337
#
# Static dielectric constant tensor:
#      x y z
#    x 2.157310 0.000000 -0.070600 
#    y 0.000000 2.099670 0.000000 
#    z -0.070600 0.000000 2.050240 
# 
# From -- ./inp_files/11297.got.cif
#   From: 2010.05.17/outbox.cif.g08.bks.cpg/sg4_6_cif.got.tgz:11297.got - 2010.06.03 18:43:04.
