data_PCOD9117961
_publ_section_title
;
Structure prediction by ZEFSAII (Michael W. Deem and Ramdas Pophale) SiO2 
 PCOD9117961
Probable space group: P 21
;
_chemical_formula_sum "Si O2"
_cell_formula_units_Z 16
_cell_length_a 5.983123
_cell_length_b 19.142080
_cell_length_c 8.700177
_cell_angle_alpha 90.000000
_cell_angle_beta 46.546002
_cell_angle_gamma 90.000000
_cell_volume 723.332504
_symmetry_space_group_name_H-M "P 21"
_symmetry_group_IT_number 4
_symmetry_cell_setting 'monoclinic'
loop_
_space_group_symop_operation_xyz
x,y,z
-x,1/2+y,-z
loop_
_atom_site_type_symbol
_atom_site_label
_atom_site_fract_x
_atom_site_fract_y
_atom_site_fract_z
Si Si1 0.073212 0.283270 0.435603
Si Si2 0.075566 0.224222 0.090024
Si Si3 0.041711 0.472102 0.846680
Si Si4 0.265189 0.854436 0.846496
Si Si5 0.055434 0.043173 0.435633
Si Si6 0.744190 0.102302 0.090059
Si Si7 0.248130 0.663230 0.251982
Si Si8 0.722944 0.413231 0.500106
O O1 0.061368 0.246003 0.274938
O O2 0.405911 0.317522 0.298418
O O3 0.987579 0.225778 0.601373
O O4 0.830193 0.346568 0.547474
O O5 0.985204 0.292460 0.034732
O O6 0.835089 0.163279 0.164766
O O7 0.411758 0.194724 0.895214
O O8 0.054562 0.534107 0.965365
O O9 0.371115 0.433862 0.696168
O O10 0.002846 0.508968 0.701615
O O11 0.789828 0.413281 0.000120
O O12 0.237055 0.892649 0.695845
O O13 0.388617 0.080455 0.275020
O O14 0.809474 0.100655 0.601447
O O15 0.074767 0.979851 0.547401
O O16 0.797404 0.131771 0.895328
#
# Coordination Sequence:
#
# PCOD9117961 Si02
#       8
#     2   2   2   2   2   2   2   2
#     4  11  25  44  67  98 132 171 220 270 325 390
#     4  11  25  43  66  96 130 172 217 268 325 388
#     4  11  24  44  67  96 133 172 216 270 328 388
#     4  11  24  44  67  96 133 172 216 270 328 388
#     4  11  25  44  67  98 132 171 220 270 325 390
#     4  11  25  43  66  96 130 172 217 268 325 388
#     4  12  24  42  66  94 128 170 216 268 324 386
#     4  10  24  42  66  98 132 172 218 268 326 392
#
# _framework density 22.119841000000001
#
# number of rings (size 3 to 8) (size 9 to 14) (size 15 to 20)
#    0.000    1.000    0.000    6.000    0.000   17.000 
#    0.000    0.000    0.000    0.000    0.000    0.000 
#    0.000    0.000    0.000    0.000    0.000    0.000 
#
# Total GULP energy -89636.944715 kJ/mol
# GULP energy per Si atom -5602.309045 kJ/mol
# Density = 2.206950 g / cm^3
# Si number density = 22.119841 Si / 1000 Ang^3
#
#
#
# Elastic Constant Matrix: (Units=GPa)
#
#
# Indices 1 2 3 4 5 6 
#
# 1 116.6812 81.4861 53.1007 0.0000 0.4851 0.0000
# 2 81.4861 190.5422 87.8108 0.0000 0.0504 0.0000
# 3 53.1007 87.8108 75.5586 0.0000 0.3654 0.0000
# 4 0.0000 0.0000 0.0000 57.3248 0.0000 -0.1951
# 5 0.4851 0.0504 0.3654 0.0000 20.5083 0.0000
# 6 0.0000 0.0000 0.0000 -0.1951 0.0000 45.4420
#
#
#
# Elastic Compliance Matrix: (Units=1/GPa)
#
#
# Indices 1 2 3 4 5 6 
#
# 1 0.013344 -0.002983 -0.005910 0.000000 -0.000203 0.000000
# 2 -0.002983 0.011968 -0.011814 0.000000 0.000252 0.000000
# 3 -0.005910 -0.011814 0.031120 0.000000 -0.000386 0.000000
# 4 0.000000 0.000000 0.000000 0.017445 0.000000 0.000075
# 5 -0.000203 0.000252 -0.000386 0.000000 0.048772 0.000000
# 6 0.000000 0.000000 0.000000 0.000075 0.000000 0.022006
#
#
# Mechanical properties :
#
#
# Convention : Reuss Voigt Hill
#
# Bulk Modulus (GPa) = 66.58700 91.95301 79.27001
# Shear Modulus (GPa) = 26.16782 35.34733 30.75757
#
# Velocity S-wave (km/s) = 3.44321 4.00183 3.73298
# Velocity P-wave (km/s) = 6.78055 7.93810 7.38205
#
# Compressibility (1/GPa) = 0.01501795
#
# Stress axis : x y z
#
# Youngs Moduli (GPa) = 74.93970 83.55605 32.13401
#
# Poissons Ratio (x) = 0.24923 0.18993
# Poissons Ratio (y) = 0.22353 0.37962
# Poissons Ratio (z) = 0.44293 0.98711
#
# Static dielectric constant tensor:
#      x y z
#    x 1.791210 0.000000 -0.000070 
#    y 0.000000 1.804810 0.000000 
#    z -0.000070 0.000000 1.787660 
# 
# From -- ./inp_files/465.got.cif
#   From: 2010.05.17/outbox.cif.g08.bks.cpg/sg4_1_cif.got.tgz:465.got - 2010.06.03 18:43:04.
