data_PCOD9117441
_publ_section_title
;
Structure prediction by ZEFSAII (Michael W. Deem and Ramdas Pophale) SiO2 
 PCOD9117441
Probable space group: P 21
;
_chemical_formula_sum "Si O2"
_cell_formula_units_Z 16
_cell_length_a 24.270489
_cell_length_b 6.256291
_cell_length_c 9.941708
_cell_angle_alpha 90.000000
_cell_angle_beta 24.633447
_cell_angle_gamma 90.000000
_cell_volume 629.210789
_symmetry_space_group_name_H-M "P 21"
_symmetry_group_IT_number 4
_symmetry_cell_setting 'monoclinic'
loop_
_space_group_symop_operation_xyz
x,y,z
-x,1/2+y,-z
loop_
_atom_site_type_symbol
_atom_site_label
_atom_site_fract_x
_atom_site_fract_y
_atom_site_fract_z
Si Si1 0.843890 0.769980 0.805924
Si Si2 0.287094 0.000703 0.232540
Si Si3 0.491361 0.347570 0.063095
Si Si4 0.189459 0.242658 0.697292
Si Si5 0.315009 0.659743 0.972959
Si Si6 0.495918 0.831643 0.336456
Si Si7 0.954846 0.028181 0.791322
Si Si8 0.761061 0.413966 0.199365
O O1 0.914985 0.666930 0.519960
O O2 0.949813 0.858715 0.679373
O O3 0.771539 0.586822 0.054307
O O4 0.760246 0.967538 0.935112
O O5 0.203010 0.163337 0.513477
O O6 0.380247 0.865301 0.125380
O O7 0.232895 0.823962 0.247336
O O8 0.395946 0.147733 0.916301
O O9 0.329789 0.332551 0.442128
O O10 0.494149 0.599049 0.013769
O O11 0.172441 0.027824 0.821637
O O12 0.080163 0.411383 0.991396
O O13 0.400921 0.781208 0.671129
O O14 0.424112 0.545725 0.822204
O O15 0.393614 0.857869 0.440931
O O16 0.837993 0.194116 0.013461
#
# Coordination Sequence:
#
# PCOD9117441 Si02
#       8
#     2   2   2   2   2   2   2   2
#     4  11  24  43  68 109 141 188 244 316 381 438
#     4  11  26  41  62 101 158 199 241 297 378 465
#     4  10  23  40  65 101 149 196 243 301 381 463
#     4  10  25  39  66 106 141 198 241 313 377 452
#     4  12  25  41  65 103 155 199 239 293 372 473
#     4  12  24  41  64 104 149 193 235 286 374 463
#     4  11  22  43  72 103 144 181 252 324 381 438
#     4  11  23  40  70 103 149 178 243 306 374 450
#
# _framework density 25.428678000000001
#
# number of rings (size 3 to 8) (size 9 to 14) (size 15 to 20)
#    0.000    1.000    3.750    2.250   15.750    0.000 
#    0.000    0.000    0.000    0.000    6.500    1.750 
#    0.000    0.000    0.000    0.000    0.000    0.000 
#
# Total GULP energy -89283.008410 kJ/mol
# GULP energy per Si atom -5580.188026 kJ/mol
# Density = 2.537080 g / cm^3
# Si number density = 25.428678 Si / 1000 Ang^3
#
#
#
# Elastic Constant Matrix: (Units=GPa)
#
#
# Indices 1 2 3 4 5 6 
#
# 1 63.7363 49.4432 16.3252 0.0000 25.3095 0.0000
# 2 49.4432 156.0067 64.4817 0.0000 33.1432 0.0000
# 3 16.3252 64.4817 95.7879 0.0000 28.9692 0.0000
# 4 0.0000 0.0000 0.0000 53.4008 0.0000 11.3990
# 5 25.3095 33.1432 28.9692 0.0000 32.3217 0.0000
# 6 0.0000 0.0000 0.0000 11.3990 0.0000 45.3961
#
#
#
# Elastic Compliance Matrix: (Units=1/GPa)
#
#
# Indices 1 2 3 4 5 6 
#
# 1 0.027359 -0.006966 0.005961 0.000000 -0.019623 0.000000
# 2 -0.006966 0.011325 -0.006275 0.000000 -0.000534 0.000000
# 3 0.005961 -0.006275 0.017990 0.000000 -0.014358 0.000000
# 4 0.000000 0.000000 0.000000 0.019787 0.000000 -0.004969
# 5 -0.019623 -0.000534 -0.014358 0.000000 0.059721 0.000000
# 6 0.000000 0.000000 0.000000 -0.004969 0.000000 0.023276
#
#
# Mechanical properties :
#
#
# Convention : Reuss Voigt Hill
#
# Bulk Modulus (GPa) = 23.74483 64.00345 43.87414
# Shear Modulus (GPa) = 26.58809 38.57576 32.58192
#
# Velocity S-wave (km/s) = 3.23707 3.89912 3.58342
# Velocity P-wave (km/s) = 4.83007 6.74502 5.86621
#
# Compressibility (1/GPa) = 0.04211443
#
# Stress axis : x y z
#
# Youngs Moduli (GPa) = 36.55125 88.30320 55.58669
#
# Poissons Ratio (x) = 0.61510 -0.33136
# Poissons Ratio (y) = 0.25461 0.34879
# Poissons Ratio (z) = -0.21788 0.55408
#
# Static dielectric constant tensor:
#      x y z
#    x 2.235240 0.000000 0.044150 
#    y 0.000000 1.980920 0.000000 
#    z 0.044150 0.000000 2.048200 
# 
# From -- ./inp_files/13142.got.cif
#   From: 2010.05.17/outbox.cif.g08.bks.cpg/sg4_7_cif.got.tgz:13142.got - 2010.06.03 18:43:04.
