data_PCOD9117592
_publ_section_title
;
Structure prediction by ZEFSAII (Michael W. Deem and Ramdas Pophale) SiO2 
 PCOD9117592
Probable space group: P 21
;
_chemical_formula_sum "Si O2"
_cell_formula_units_Z 10
_cell_length_a 7.209910
_cell_length_b 13.327313
_cell_length_c 4.964282
_cell_angle_alpha 90.000000
_cell_angle_beta 63.732120
_cell_angle_gamma 90.000000
_cell_volume 427.752788
_symmetry_space_group_name_H-M "P 21"
_symmetry_group_IT_number 4
_symmetry_cell_setting 'monoclinic'
loop_
_space_group_symop_operation_xyz
x,y,z
-x,1/2+y,-z
loop_
_atom_site_type_symbol
_atom_site_label
_atom_site_fract_x
_atom_site_fract_y
_atom_site_fract_z
Si Si1 0.901076 0.052430 0.608940
Si Si2 0.511214 0.548851 0.438612
Si Si3 0.874904 0.707555 0.182550
Si Si4 0.027189 0.333707 0.397023
Si Si5 0.691031 0.459953 0.832598
O O1 0.951449 0.135860 0.795467
O O2 0.110949 0.035158 0.301177
O O3 0.885764 0.941677 0.749888
O O4 0.053033 0.255729 0.142044
O O5 0.665737 0.642843 0.304842
O O6 0.289256 0.573173 0.461504
O O7 0.529787 0.509120 0.729426
O O8 0.604251 0.461024 0.186448
O O9 0.852248 0.795763 0.417788
O O10 0.793729 0.359048 0.649117
#
# Coordination Sequence:
#
# PCOD9117592 Si02
#       5
#     2   2   2   2   2
#     4   9  24  43  68  90 134 170 206 268 323 367
#     4  11  21  42  66  91 124 174 207 264 314 373
#     4  11  22  42  64  98 128 165 221 255 314 384
#     4  10  23  43  65  91 135 168 204 272 313 373
#     4   9  22  40  65  86 127 165 206 259 316 371
#
# _framework density 23.37799
#
# number of rings (size 3 to 8) (size 9 to 14) (size 15 to 20)
#    1.200    0.800    0.000    3.600    0.000    6.400 
#   10.800    0.000    0.000    0.000    0.000    0.000 
#    0.000    0.000    0.000    0.000    0.000    0.000 
#
# Total GULP energy -55877.029137 kJ/mol
# GULP energy per Si atom -5587.702914 kJ/mol
# Density = 2.332478 g / cm^3
# Si number density = 23.377990 Si / 1000 Ang^3
#
#
#
# Elastic Constant Matrix: (Units=GPa)
#
#
# Indices 1 2 3 4 5 6 
#
# 1 136.1904 13.4747 7.3196 0.0000 26.4287 0.0000
# 2 13.4747 75.1720 1.4113 0.0000 -0.1793 0.0000
# 3 7.3196 1.4113 72.1438 0.0000 1.7237 0.0000
# 4 0.0000 0.0000 0.0000 30.2835 0.0000 14.1410
# 5 26.4287 -0.1793 1.7237 0.0000 25.7193 0.0000
# 6 0.0000 0.0000 0.0000 14.1410 0.0000 14.9576
#
#
#
# Elastic Compliance Matrix: (Units=1/GPa)
#
#
# Indices 1 2 3 4 5 6 
#
# 1 0.009420 -0.001698 -0.000692 0.000000 -0.009645 0.000000
# 2 -0.001698 0.013614 -0.000138 0.000000 0.001849 0.000000
# 3 -0.000692 -0.000138 0.013939 0.000000 -0.000224 0.000000
# 4 0.000000 0.000000 0.000000 0.059121 0.000000 -0.055894
# 5 -0.009645 0.001849 -0.000224 0.000000 0.048820 0.000000
# 6 0.000000 0.000000 0.000000 -0.055894 0.000000 0.119698
#
#
# Mechanical properties :
#
#
# Convention : Reuss Voigt Hill
#
# Bulk Modulus (GPa) = 31.33233 36.43527 33.88380
# Shear Modulus (GPa) = 17.83749 31.61211 24.72480
#
# Velocity S-wave (km/s) = 2.76525 3.68124 3.25562
# Velocity P-wave (km/s) = 4.86077 5.80412 5.35326
#
# Compressibility (1/GPa) = 0.03191591
#
# Stress axis : x y z
#
# Youngs Moduli (GPa) = 106.16214 73.45227 71.73868
#
# Poissons Ratio (x) = 0.12476 0.04965
# Poissons Ratio (y) = 0.18031 0.00991
# Poissons Ratio (z) = 0.07347 0.01015
#
# Static dielectric constant tensor:
#      x y z
#    x 1.885990 0.000000 -0.040870 
#    y 0.000000 1.935550 0.000000 
#    z -0.040870 0.000000 1.859650 
# 
# From -- ./inp_files/1203.got.cif
#   From: 2010.05.17/outbox.cif.g08.bks.cpg/sg4_1_cif.got.tgz:1203.got - 2010.06.03 18:43:04.
