data_PCOD9118132
_publ_section_title
;
Structure prediction by ZEFSAII (Michael W. Deem and Ramdas Pophale) SiO2 
 PCOD9118132
Probable space group: P 21
;
_chemical_formula_sum "Si O2"
_cell_formula_units_Z 14
_cell_length_a 9.323159
_cell_length_b 8.894079
_cell_length_c 7.023267
_cell_angle_alpha 90.000000
_cell_angle_beta 92.011385
_cell_angle_gamma 90.000000
_cell_volume 582.016892
_symmetry_space_group_name_H-M "P 21"
_symmetry_group_IT_number 4
_symmetry_cell_setting 'monoclinic'
loop_
_space_group_symop_operation_xyz
x,y,z
-x,1/2+y,-z
loop_
_atom_site_type_symbol
_atom_site_label
_atom_site_fract_x
_atom_site_fract_y
_atom_site_fract_z
Si Si1 0.367186 0.390210 0.675848
Si Si2 0.580392 0.655378 0.630159
Si Si3 0.078082 0.954453 0.430493
Si Si4 0.988243 0.138002 0.772390
Si Si5 0.128207 0.612770 0.829877
Si Si6 0.688720 0.655705 0.051486
Si Si7 0.682028 0.377880 0.299799
O O1 0.489499 0.500450 0.602310
O O2 0.338019 0.255187 0.525718
O O3 0.233865 0.493790 0.732453
O O4 0.400600 0.296075 0.868702
O O5 0.445178 0.766437 0.663901
O O6 0.669213 0.644599 0.827652
O O7 0.241561 0.953169 0.512151
O O8 0.052609 0.790542 0.340049
O O9 0.993258 0.006178 0.616626
O O10 0.024255 0.073696 0.272194
O O11 0.145866 0.165797 0.870997
O O12 0.885298 0.099118 0.943787
O O13 0.191141 0.776007 0.785913
O O14 0.634356 0.505865 0.152859
#
# Coordination Sequence:
#
# PCOD9118132 Si02
#       7
#     2   2   2   2   2   2   2
#     4  11  25  47  71 109 143 197 252 299 376 431
#     4  11  25  47  72 101 151 194 248 310 358 439
#     4  11  23  46  69 109 149 189 244 302 374 450
#     4  11  26  43  73 103 145 193 242 305 379 438
#     4  11  25  45  68 110 149 191 249 304 374 442
#     4  11  24  44  72 104 142 189 253 301 370 434
#     4  10  24  46  69 110 145 197 248 301 373 436
#
# _framework density 24.054283999999999
#
# number of rings (size 3 to 8) (size 9 to 14) (size 15 to 20)
#    0.000    1.143    2.857    1.714    4.000    5.714 
#    5.143    0.000    0.000    0.000    0.000    0.000 
#    0.000    0.000    0.000    0.000    0.000    0.000 
#
# Total GULP energy -78273.827438 kJ/mol
# GULP energy per Si atom -5590.987674 kJ/mol
# Density = 2.399954 g / cm^3
# Si number density = 24.054284 Si / 1000 Ang^3
#
#
#
# Elastic Constant Matrix: (Units=GPa)
#
#
# Indices 1 2 3 4 5 6 
#
# 1 64.0155 41.0778 22.4610 0.0000 -5.0449 0.0000
# 2 41.0778 139.8475 53.9788 0.0000 -1.0307 0.0000
# 3 22.4610 53.9788 142.5704 0.0000 10.6163 0.0000
# 4 0.0000 0.0000 0.0000 38.4812 0.0000 4.6565
# 5 -5.0449 -1.0307 10.6163 0.0000 32.5508 0.0000
# 6 0.0000 0.0000 0.0000 4.6565 0.0000 33.0874
#
#
#
# Elastic Compliance Matrix: (Units=1/GPa)
#
#
# Indices 1 2 3 4 5 6 
#
# 1 0.019729 -0.005241 -0.001373 0.000000 0.003339 0.000000
# 2 -0.005241 0.009823 -0.002927 0.000000 0.000454 0.000000
# 3 -0.001373 -0.002927 0.008570 0.000000 -0.003100 0.000000
# 4 0.000000 0.000000 0.000000 0.026437 0.000000 -0.003721
# 5 0.003339 0.000454 -0.003100 0.000000 0.032264 0.000000
# 6 0.000000 0.000000 0.000000 -0.003721 0.000000 0.030747
#
#
# Mechanical properties :
#
#
# Convention : Reuss Voigt Hill
#
# Bulk Modulus (GPa) = 52.51993 64.60764 58.56379
# Shear Modulus (GPa) = 32.68032 36.08493 34.38262
#
# Velocity S-wave (km/s) = 3.68993 3.87737 3.78481
# Velocity P-wave (km/s) = 6.32735 6.85294 6.59538
#
# Compressibility (1/GPa) = 0.01904039
#
# Stress axis : x y z
#
# Youngs Moduli (GPa) = 50.68732 101.79955 116.69262
#
# Poissons Ratio (x) = 0.53349 0.16018
# Poissons Ratio (y) = 0.26563 0.34160
# Poissons Ratio (z) = 0.06958 0.29800
#
# Static dielectric constant tensor:
#      x y z
#    x 1.971340 0.000000 -0.055880 
#    y 0.000000 1.954260 0.000000 
#    z -0.055880 0.000000 1.923280 
# 
# From -- ./inp_files/2566.got.cif
#   From: 2010.05.17/outbox.cif.g08.bks.cpg/sg4_2_cif.got.tgz:2566.got - 2010.06.03 18:43:04.
