data_PCOD9118705
_publ_section_title
;
Structure prediction by ZEFSAII (Michael W. Deem and Ramdas Pophale) SiO2 
 PCOD9118705
Probable space group: P 21
;
_chemical_formula_sum "Si O2"
_cell_formula_units_Z 14
_cell_length_a 9.270736
_cell_length_b 8.569281
_cell_length_c 9.240671
_cell_angle_alpha 90.000000
_cell_angle_beta 50.804690
_cell_angle_gamma 90.000000
_cell_volume 568.933742
_symmetry_space_group_name_H-M "P 21"
_symmetry_group_IT_number 4
_symmetry_cell_setting 'monoclinic'
loop_
_space_group_symop_operation_xyz
x,y,z
-x,1/2+y,-z
loop_
_atom_site_type_symbol
_atom_site_label
_atom_site_fract_x
_atom_site_fract_y
_atom_site_fract_z
Si Si1 0.640731 0.697530 0.007883
Si Si2 0.119407 0.094757 0.411830
Si Si3 0.782911 0.978777 0.109070
Si Si4 0.772031 0.781453 0.389603
Si Si5 0.391429 0.746767 0.631320
Si Si6 0.740517 0.242258 0.610082
Si Si7 0.816585 0.524366 0.156429
O O1 0.712988 0.860548 0.031724
O O2 0.417099 0.699687 0.170307
O O3 0.738391 0.571170 0.051228
O O4 0.727912 0.662088 0.796978
O O5 0.115429 0.212653 0.550821
O O6 0.908592 0.117164 0.488135
O O7 0.176297 0.917265 0.416050
O O8 0.848071 0.890727 0.215881
O O9 0.621758 0.091359 0.265648
O O10 0.969978 0.064977 0.945478
O O11 0.571790 0.845231 0.564978
O O12 0.706660 0.626536 0.343379
O O13 0.365959 0.741050 0.475529
O O14 0.211772 0.845238 0.793351
#
# Coordination Sequence:
#
# PCOD9118705 Si02
#       7
#     2   2   2   2   2   2   2
#     4  11  27  50  72 111 153 197 245 308 383 456
#     4  12  29  49  72 113 154 200 250 314 387 451
#     4  11  23  43  75 107 141 187 252 307 364 445
#     4  11  24  44  71 104 140 193 245 300 376 436
#     4  12  22  45  76 102 141 193 247 311 364 446
#     4  12  27  50  75 106 159 202 251 313 383 454
#     4  11  22  43  73 105 138 188 248 305 365 440
#
# _framework density 24.607434000000001
#
# number of rings (size 3 to 8) (size 9 to 14) (size 15 to 20)
#    0.000    0.571    4.286    5.143    4.000    2.286 
#    2.571    0.000    0.000    0.000    0.000    0.000 
#    0.000    0.000    0.000    0.000    0.000    0.000 
#
# Total GULP energy -78257.857510 kJ/mol
# GULP energy per Si atom -5589.846965 kJ/mol
# Density = 2.455143 g / cm^3
# Si number density = 24.607434 Si / 1000 Ang^3
#
#
#
# Elastic Constant Matrix: (Units=GPa)
#
#
# Indices 1 2 3 4 5 6 
#
# 1 72.0826 4.4569 8.3556 0.0000 -16.2500 0.0000
# 2 4.4569 62.0819 24.8860 0.0000 1.5235 0.0000
# 3 8.3556 24.8860 69.3432 0.0000 -8.4721 0.0000
# 4 0.0000 0.0000 0.0000 29.1668 0.0000 -5.1251
# 5 -16.2500 1.5235 -8.4721 0.0000 48.6716 0.0000
# 6 0.0000 0.0000 0.0000 -5.1251 0.0000 36.2198
#
#
#
# Elastic Compliance Matrix: (Units=1/GPa)
#
#
# Indices 1 2 3 4 5 6 
#
# 1 0.015141 -0.000838 -0.000923 0.000000 0.004921 0.000000
# 2 -0.000838 0.019017 -0.006979 0.000000 -0.002090 0.000000
# 3 -0.000923 -0.006979 0.017396 0.000000 0.002938 0.000000
# 4 0.000000 0.000000 0.000000 0.035160 0.000000 0.004975
# 5 0.004921 -0.002090 0.002938 0.000000 0.022766 0.000000
# 6 0.000000 0.000000 0.000000 0.004975 0.000000 0.028313
#
#
# Mechanical properties :
#
#
# Convention : Reuss Voigt Hill
#
# Bulk Modulus (GPa) = 29.34742 30.98941 30.16842
# Shear Modulus (GPa) = 30.00666 33.86559 31.93613
#
# Velocity S-wave (km/s) = 3.49580 3.71379 3.60644
# Velocity P-wave (km/s) = 5.31472 5.56871 5.44320
#
# Compressibility (1/GPa) = 0.03407454
#
# Stress axis : x y z
#
# Youngs Moduli (GPa) = 66.04571 52.58504 57.48491
#
# Poissons Ratio (x) = 0.04406 0.05303
# Poissons Ratio (y) = 0.05534 0.40119
# Poissons Ratio (z) = 0.06093 0.36700
#
# Static dielectric constant tensor:
#      x y z
#    x 1.895470 0.000000 -0.012350 
#    y 0.000000 1.931800 0.000000 
#    z -0.012350 0.000000 1.902690 
# 
# From -- ./inp_files/5235.got.cif
#   From: 2010.05.17/outbox.cif.g08.bks.cpg/sg4_3_cif.got.tgz:5235.got - 2010.06.03 18:43:04.
