data_PCOD9118247
_publ_section_title
;
Structure prediction by ZEFSAII (Michael W. Deem and Ramdas Pophale) SiO2 
 PCOD9118247
Probable space group: P 21
;
_chemical_formula_sum "Si O2"
_cell_formula_units_Z 14
_cell_length_a 8.283778
_cell_length_b 6.959312
_cell_length_c 9.713359
_cell_angle_alpha 90.000000
_cell_angle_beta 65.674861
_cell_angle_gamma 90.000000
_cell_volume 510.256678
_symmetry_space_group_name_H-M "P 21"
_symmetry_group_IT_number 4
_symmetry_cell_setting 'monoclinic'
loop_
_space_group_symop_operation_xyz
x,y,z
-x,1/2+y,-z
loop_
_atom_site_type_symbol
_atom_site_label
_atom_site_fract_x
_atom_site_fract_y
_atom_site_fract_z
Si Si1 0.030696 0.335980 0.199170
Si Si2 0.220100 0.126407 0.524919
Si Si3 0.313115 0.089684 0.037597
Si Si4 0.462191 0.065522 0.708673
Si Si5 0.471727 0.618370 0.793224
Si Si6 0.144897 0.574106 0.515704
Si Si7 0.119702 0.698093 0.022758
O O1 0.217888 0.244402 0.170060
O O2 0.971016 0.562791 0.476971
O O3 0.898523 0.227800 0.348450
O O4 0.013326 0.259965 0.049121
O O5 0.324695 0.077068 0.630797
O O6 0.374754 0.054793 0.364634
O O7 0.185685 0.356407 0.548751
O O8 0.957241 0.062444 0.831387
O O9 0.482274 0.049626 0.069880
O O10 0.200818 0.893538 0.058234
O O11 0.376959 0.167182 0.869474
O O12 0.663159 0.130472 0.612237
O O13 0.470655 0.845695 0.756506
O O14 0.261731 0.586603 0.876039
#
# Coordination Sequence:
#
# PCOD9118247 Si02
#       7
#     2   2   2   2   2   2   2
#     4  12  25  50  79 124 162 217 285 346 423 502
#     4  11  25  52  82 120 175 222 286 349 431 511
#     4  11  25  51  78 122 164 212 282 343 421 501
#     4  10  26  52  82 120 169 226 280 356 425 510
#     4  10  24  52  78 121 163 220 280 343 432 502
#     4  11  27  52  84 120 170 226 287 351 429 513
#     4  11  26  45  81 121 167 217 274 358 421 501
#
# _framework density 27.437173999999999
#
# number of rings (size 3 to 8) (size 9 to 14) (size 15 to 20)
#    0.000    1.143    2.857    0.857    6.000    4.571 
#   12.857    0.000    0.000    0.000    0.000    0.000 
#    0.000    0.000    0.000    0.000    0.000    0.000 
#
# Total GULP energy -78212.308971 kJ/mol
# GULP energy per Si atom -5586.593498 kJ/mol
# Density = 2.737473 g / cm^3
# Si number density = 27.437174 Si / 1000 Ang^3
#
#
#
# Elastic Constant Matrix: (Units=GPa)
#
#
# Indices 1 2 3 4 5 6 
#
# 1 132.1941 7.1885 72.2675 0.0000 -13.5033 0.0000
# 2 7.1885 111.7548 17.8633 0.0000 -1.0789 0.0000
# 3 72.2675 17.8633 175.2206 0.0000 -10.0094 0.0000
# 4 0.0000 0.0000 0.0000 37.1026 0.0000 4.4074
# 5 -13.5033 -1.0789 -10.0094 0.0000 69.6833 0.0000
# 6 0.0000 0.0000 0.0000 4.4074 0.0000 48.0873
#
#
#
# Elastic Compliance Matrix: (Units=1/GPa)
#
#
# Indices 1 2 3 4 5 6 
#
# 1 0.009890 0.000017 -0.004004 0.000000 0.001342 0.000000
# 2 0.000017 0.009096 -0.000934 0.000000 0.000010 0.000000
# 3 -0.004004 -0.000934 0.007470 0.000000 0.000283 0.000000
# 4 0.000000 0.000000 0.000000 0.027249 0.000000 -0.002497
# 5 0.001342 0.000010 0.000283 0.000000 0.014651 0.000000
# 6 0.000000 0.000000 0.000000 -0.002497 0.000000 0.021024
#
#
# Mechanical properties :
#
#
# Convention : Reuss Voigt Hill
#
# Bulk Modulus (GPa) = 60.18960 68.20091 64.19526
# Shear Modulus (GPa) = 47.72801 52.43131 50.07966
#
# Velocity S-wave (km/s) = 4.17530 4.37619 4.27693
# Velocity P-wave (km/s) = 6.72526 7.10252 6.91646
#
# Compressibility (1/GPa) = 0.01661417
#
# Stress axis : x y z
#
# Youngs Moduli (GPa) = 101.11621 109.93331 133.87248
#
# Poissons Ratio (x) = -0.00185 0.53602
# Poissons Ratio (y) = -0.00170 0.12500
# Poissons Ratio (z) = 0.40486 0.10265
#
# Static dielectric constant tensor:
#      x y z
#    x 2.320290 0.000000 -0.033700 
#    y 0.000000 2.430650 0.000000 
#    z -0.033700 0.000000 2.179100 
# 
# From -- ./inp_files/5264.got.cif
#   From: 2010.05.17/outbox.cif.g08.bks.cpg/sg4_3_cif.got.tgz:5264.got - 2010.06.03 18:43:04.
