data_PCOD9118878
_publ_section_title
;
Structure prediction by ZEFSAII (Michael W. Deem and Ramdas Pophale) SiO2 
 PCOD9118878
Probable space group: P 21
;
_chemical_formula_sum "Si O2"
_cell_formula_units_Z 12
_cell_length_a 11.627819
_cell_length_b 5.285638
_cell_length_c 19.313354
_cell_angle_alpha 90.000000
_cell_angle_beta 157.480148
_cell_angle_gamma 90.000000
_cell_volume 454.627961
_symmetry_space_group_name_H-M "P 21"
_symmetry_group_IT_number 4
_symmetry_cell_setting 'monoclinic'
loop_
_space_group_symop_operation_xyz
x,y,z
-x,1/2+y,-z
loop_
_atom_site_type_symbol
_atom_site_label
_atom_site_fract_x
_atom_site_fract_y
_atom_site_fract_z
Si Si1 0.798155 0.669900 0.099797
Si Si2 0.242015 0.053529 0.288504
Si Si3 0.120838 0.745061 0.029658
Si Si4 0.223868 0.416394 0.770999
Si Si5 0.812487 0.630100 0.377120
Si Si6 0.201343 0.287420 0.409224
O O1 0.713015 0.869243 0.112927
O O2 0.953664 0.451485 0.231506
O O3 0.504222 0.573101 0.898580
O O4 0.025317 0.814040 0.176847
O O5 0.335360 0.132669 0.418208
O O6 0.546651 0.970734 0.420993
O O7 0.046744 0.253865 0.138208
O O8 0.473785 0.676115 0.217202
O O9 0.955881 0.507620 0.975356
O O10 0.204554 0.165213 0.715765
O O11 0.929098 0.589171 0.609174
O O12 0.970529 0.366040 0.482343
#
# Coordination Sequence:
#
# PCOD9118878 Si02
#       6
#     2   2   2   2   2   2
#     4  11  23  43  72 111 147 196 247 326 399 459
#     4  11  26  45  75 108 157 195 263 321 397 470
#     4  12  31  54  83 116 160 219 271 329 394 476
#     4  11  26  43  76 111 150 198 264 323 399 468
#     4  12  31  55  82 114 160 215 273 333 392 475
#     4  11  23  44  72 112 146 199 248 328 395 466
#
# _framework density 26.395208
#
# number of rings (size 3 to 8) (size 9 to 14) (size 15 to 20)
#    0.000    0.667    3.333    2.000   14.000    1.333 
#    0.000    0.000    0.000    0.000    0.000    0.000 
#    0.000    0.000    0.000    0.000    0.000    0.000 
#
# Total GULP energy -67291.610842 kJ/mol
# GULP energy per Si atom -5607.634237 kJ/mol
# Density = 2.633513 g / cm^3
# Si number density = 26.395208 Si / 1000 Ang^3
#
#
#
# Elastic Constant Matrix: (Units=GPa)
#
#
# Indices 1 2 3 4 5 6 
#
# 1 71.8039 16.5722 29.9331 0.0000 2.2758 0.0000
# 2 16.5722 101.8904 11.5727 0.0000 4.7071 0.0000
# 3 29.9331 11.5727 112.5438 0.0000 15.6684 0.0000
# 4 0.0000 0.0000 0.0000 52.7013 0.0000 0.8506
# 5 2.2758 4.7071 15.6684 0.0000 42.4899 0.0000
# 6 0.0000 0.0000 0.0000 0.8506 0.0000 42.5599
#
#
#
# Elastic Compliance Matrix: (Units=1/GPa)
#
#
# Indices 1 2 3 4 5 6 
#
# 1 0.016155 -0.002193 -0.004200 0.000000 0.000927 0.000000
# 2 -0.002193 0.010252 -0.000347 0.000000 -0.000890 0.000000
# 3 -0.004200 -0.000347 0.010543 0.000000 -0.003624 0.000000
# 4 0.000000 0.000000 0.000000 0.018981 0.000000 -0.000379
# 5 0.000927 -0.000890 -0.003624 0.000000 0.024920 0.000000
# 6 0.000000 0.000000 0.000000 -0.000379 0.000000 0.023504
#
#
# Mechanical properties :
#
#
# Convention : Reuss Voigt Hill
#
# Bulk Modulus (GPa) = 42.61006 44.71046 43.66026
# Shear Modulus (GPa) = 39.79064 42.76089 41.27577
#
# Velocity S-wave (km/s) = 3.88686 4.02932 3.95873
# Velocity P-wave (km/s) = 6.02675 6.21473 6.12146
#
# Compressibility (1/GPa) = 0.02346864
#
# Stress axis : x y z
#
# Youngs Moduli (GPa) = 61.90203 97.54455 94.85179
#
# Poissons Ratio (x) = 0.21394 0.39838
# Poissons Ratio (y) = 0.13577 0.03290
# Poissons Ratio (z) = 0.25999 0.03384
#
# Static dielectric constant tensor:
#      x y z
#    x 2.116600 0.000000 -0.038000 
#    y 0.000000 2.069200 0.000000 
#    z -0.038000 0.000000 2.054740 
# 
# From -- ./inp_files/8784.got.cif
#   From: 2010.05.17/outbox.cif.g08.bks.cpg/sg4_5_cif.got.tgz:8784.got - 2010.06.03 18:43:04.
