data_PCOD9118371
_publ_section_title
;
Structure prediction by ZEFSAII (Michael W. Deem and Ramdas Pophale) SiO2 
 PCOD9118371
Probable space group: P 21
;
_chemical_formula_sum "Si O2"
_cell_formula_units_Z 14
_cell_length_a 4.871612
_cell_length_b 8.923514
_cell_length_c 12.778172
_cell_angle_alpha 90.000000
_cell_angle_beta 76.727041
_cell_angle_gamma 90.000000
_cell_volume 540.652734
_symmetry_space_group_name_H-M "P 21"
_symmetry_group_IT_number 4
_symmetry_cell_setting 'monoclinic'
loop_
_space_group_symop_operation_xyz
x,y,z
-x,1/2+y,-z
loop_
_atom_site_type_symbol
_atom_site_label
_atom_site_fract_x
_atom_site_fract_y
_atom_site_fract_z
Si Si1 0.524177 0.928850 0.741334
Si Si2 0.541348 0.700046 0.559381
Si Si3 0.000907 0.523890 0.641621
Si Si4 0.810480 0.327013 0.043840
Si Si5 0.269842 0.181967 0.132178
Si Si6 0.795683 0.975661 0.160562
Si Si7 0.574925 0.258530 0.667603
O O1 0.446603 0.838046 0.641998
O O2 0.274838 0.931800 0.849576
O O3 0.741362 0.817468 0.780315
O O4 0.634181 0.092573 0.705285
O O5 0.321294 0.563147 0.589302
O O6 0.150185 0.865371 0.359601
O O7 0.542984 0.740723 0.438957
O O8 0.342337 0.340140 0.759390
O O9 0.828175 0.636812 0.583154
O O10 0.514761 0.064926 0.153050
O O11 0.002243 0.195929 0.076087
O O12 0.992013 0.405397 0.940386
O O13 0.002396 0.057552 0.231648
O O14 0.512327 0.264943 0.029984
#
# Coordination Sequence:
#
# PCOD9118371 Si02
#       7
#     2   2   2   2   2   2   2
#     4  10  26  52  80 116 164 212 278 323 414 475
#     4  12  27  55  80 112 164 220 269 325 414 492
#     4  12  27  51  79 116 157 215 263 330 412 481
#     4  10  26  45  81 111 160 211 269 323 401 485
#     4  10  25  50  77 114 161 228 250 328 413 494
#     4  12  27  49  82 122 167 204 280 329 421 474
#     4  12  30  50  83 131 157 212 277 356 387 489
#
# _framework density 25.894628000000001
#
# number of rings (size 3 to 8) (size 9 to 14) (size 15 to 20)
#    0.857    0.000    2.857    1.714    8.000    1.143 
#    0.000    0.000    0.000    0.000    0.000    0.000 
#    0.000    0.000    0.000    0.000    0.000    0.000 
#
# Total GULP energy -78270.071449 kJ/mol
# GULP energy per Si atom -5590.719389 kJ/mol
# Density = 2.583569 g / cm^3
# Si number density = 25.894628 Si / 1000 Ang^3
#
#
#
# Elastic Constant Matrix: (Units=GPa)
#
#
# Indices 1 2 3 4 5 6 
#
# 1 109.6774 1.2994 -3.8927 0.0000 -15.3488 0.0000
# 2 1.2994 134.6821 24.8085 0.0000 1.7923 0.0000
# 3 -3.8927 24.8085 89.5588 0.0000 7.4365 0.0000
# 4 0.0000 0.0000 0.0000 27.7497 0.0000 5.5813
# 5 -15.3488 1.7923 7.4365 0.0000 33.0757 0.0000
# 6 0.0000 0.0000 0.0000 5.5813 0.0000 39.2212
#
#
#
# Elastic Compliance Matrix: (Units=1/GPa)
#
#
# Indices 1 2 3 4 5 6 
#
# 1 0.009755 -0.000172 0.000097 0.000000 0.004514 0.000000
# 2 -0.000172 0.007827 -0.002174 0.000000 -0.000015 0.000000
# 3 0.000097 -0.002174 0.011983 0.000000 -0.002531 0.000000
# 4 0.000000 0.000000 0.000000 0.037098 0.000000 -0.005279
# 5 0.004514 -0.000015 -0.002531 0.000000 0.032898 0.000000
# 6 0.000000 0.000000 0.000000 -0.005279 0.000000 0.026248
#
#
# Mechanical properties :
#
#
# Convention : Reuss Voigt Hill
#
# Bulk Modulus (GPa) = 39.89560 42.03874 40.96717
# Shear Modulus (GPa) = 36.05847 40.78952 38.42400
#
# Velocity S-wave (km/s) = 3.73568 3.97320 3.85627
# Velocity P-wave (km/s) = 5.83502 6.10886 5.97351
#
# Compressibility (1/GPa) = 0.02506542
#
# Stress axis : x y z
#
# Youngs Moduli (GPa) = 102.51279 127.75824 83.45447
#
# Poissons Ratio (x) = 0.02198 -0.00808
# Poissons Ratio (y) = 0.01763 0.18147
# Poissons Ratio (z) = -0.00992 0.27780
#
# Static dielectric constant tensor:
#      x y z
#    x 2.008770 0.000000 -0.050090 
#    y 0.000000 2.177620 0.000000 
#    z -0.050090 0.000000 2.155060 
# 
# From -- ./inp_files/14689.got.cif
#   From: 2010.05.17/outbox.cif.g08.bks.cpg/sg4_8_cif.got.tgz:14689.got - 2010.06.03 18:43:04.
