data_PCOD9118731
_publ_section_title
;
Structure prediction by ZEFSAII (Michael W. Deem and Ramdas Pophale) SiO2 
 PCOD9118731
Probable space group: P 21
;
_chemical_formula_sum "Si O2"
_cell_formula_units_Z 16
_cell_length_a 5.745502
_cell_length_b 13.798787
_cell_length_c 9.270378
_cell_angle_alpha 90.000000
_cell_angle_beta 126.073886
_cell_angle_gamma 90.000000
_cell_volume 594.041148
_symmetry_space_group_name_H-M "P 21"
_symmetry_group_IT_number 4
_symmetry_cell_setting 'monoclinic'
loop_
_space_group_symop_operation_xyz
x,y,z
-x,1/2+y,-z
loop_
_atom_site_type_symbol
_atom_site_label
_atom_site_fract_x
_atom_site_fract_y
_atom_site_fract_z
Si Si1 0.329660 0.941950 0.646462
Si Si2 0.101964 0.190062 0.330379
Si Si3 0.108984 0.412045 0.008677
Si Si4 0.694435 0.262029 0.953323
Si Si5 0.207203 0.407673 0.730261
Si Si6 0.415255 0.640871 0.332584
Si Si7 0.146703 0.064075 0.855071
Si Si8 0.464170 0.598898 0.752692
O O1 0.596761 0.879901 0.803109
O O2 0.080059 0.890543 0.465966
O O3 0.222646 0.994878 0.751907
O O4 0.444756 0.034649 0.597218
O O5 0.360034 0.220618 0.530786
O O6 0.309404 0.138495 0.283395
O O7 0.863028 0.138057 0.345552
O O8 0.893808 0.260652 0.166295
O O9 0.982337 0.491666 0.070659
O O10 0.395906 0.317569 0.850644
O O11 0.146324 0.456737 0.863926
O O12 0.892447 0.323382 0.915569
O O13 0.642745 0.160365 0.856698
O O14 0.404694 0.483892 0.714882
O O15 0.103764 0.635571 0.289299
O O16 0.387898 0.117222 0.037173
#
# Coordination Sequence:
#
# PCOD9118731 Si02
#       8
#     2   2   2   2   2   2   2   2
#     4  11  24  45  75 107 140 197 262 312 371 471
#     4  12  28  49  76 111 150 203 253 322 378 457
#     4  11  25  45  68 106 148 196 246 315 385 456
#     4  12  28  45  69 107 155 196 248 322 396 448
#     4  12  26  45  76 108 147 202 257 317 386 451
#     4  11  26  44  72 108 148 196 256 312 383 455
#     4  11  22  44  76 105 144 193 257 308 376 460
#     4  12  23  49  80 104 148 199 261 306 379 456
#
# _framework density 26.934159999999999
#
# number of rings (size 3 to 8) (size 9 to 14) (size 15 to 20)
#    0.000    0.500    5.000    2.250    1.750    6.000 
#    0.000    0.000    0.000    0.000    0.000    0.000 
#    0.000    0.000    0.000    0.000    0.000    0.000 
#
# Total GULP energy -89493.273039 kJ/mol
# GULP energy per Si atom -5593.329565 kJ/mol
# Density = 2.687286 g / cm^3
# Si number density = 26.934160 Si / 1000 Ang^3
#
#
#
# Elastic Constant Matrix: (Units=GPa)
#
#
# Indices 1 2 3 4 5 6 
#
# 1 108.6771 19.2212 62.3702 0.0000 12.5024 0.0000
# 2 19.2212 47.2007 4.0405 0.0000 4.7743 0.0000
# 3 62.3702 4.0405 171.3892 0.0000 28.5858 0.0000
# 4 0.0000 0.0000 0.0000 38.9023 0.0000 12.5347
# 5 12.5024 4.7743 28.5858 0.0000 66.3576 0.0000
# 6 0.0000 0.0000 0.0000 12.5347 0.0000 37.7068
#
#
#
# Elastic Compliance Matrix: (Units=1/GPa)
#
#
# Indices 1 2 3 4 5 6 
#
# 1 0.012613 -0.004743 -0.004459 0.000000 -0.000114 0.000000
# 2 -0.004743 0.023136 0.001410 0.000000 -0.001379 0.000000
# 3 -0.004459 0.001410 0.007866 0.000000 -0.002650 0.000000
# 4 0.000000 0.000000 0.000000 0.028789 0.000000 -0.009570
# 5 -0.000114 -0.001379 -0.002650 0.000000 0.016332 0.000000
# 6 0.000000 0.000000 0.000000 -0.009570 0.000000 0.029702
#
#
# Mechanical properties :
#
#
# Convention : Reuss Voigt Hill
#
# Bulk Modulus (GPa) = 35.67335 55.39232 45.53284
# Shear Modulus (GPa) = 34.87608 44.70233 39.78921
#
# Velocity S-wave (km/s) = 3.60233 4.07835 3.84771
# Velocity P-wave (km/s) = 5.52953 6.54123 6.05654
#
# Compressibility (1/GPa) = 0.02803213
#
# Stress axis : x y z
#
# Youngs Moduli (GPa) = 79.28592 43.22224 127.12832
#
# Poissons Ratio (x) = 0.20500 0.56686
# Poissons Ratio (y) = 0.37604 -0.17931
# Poissons Ratio (z) = 0.35353 -0.06096
#
# Static dielectric constant tensor:
#      x y z
#    x 2.206620 0.000000 0.034730 
#    y 0.000000 2.147130 0.000000 
#    z 0.034730 0.000000 2.123210 
# 
# From -- ./inp_files/4948.got.cif
#   From: 2010.05.17/outbox.cif.g08.bks.cpg/sg4_3_cif.got.tgz:4948.got - 2010.06.03 18:43:04.
