data_PCOD9118670
_publ_section_title
;
Structure prediction by ZEFSAII (Michael W. Deem and Ramdas Pophale) SiO2 
 PCOD9118670
Probable space group: P 21
;
_chemical_formula_sum "Si O2"
_cell_formula_units_Z 16
_cell_length_a 15.577856
_cell_length_b 5.443818
_cell_length_c 9.716512
_cell_angle_alpha 90.000000
_cell_angle_beta 129.218402
_cell_angle_gamma 90.000000
_cell_volume 638.378819
_symmetry_space_group_name_H-M "P 21"
_symmetry_group_IT_number 4
_symmetry_cell_setting 'monoclinic'
loop_
_space_group_symop_operation_xyz
x,y,z
-x,1/2+y,-z
loop_
_atom_site_type_symbol
_atom_site_label
_atom_site_fract_x
_atom_site_fract_y
_atom_site_fract_z
Si Si1 0.987082 0.021880 0.061458
Si Si2 0.665836 0.632959 0.256173
Si Si3 0.179099 0.798468 0.923981
Si Si4 0.015660 0.690300 0.315751
Si Si5 0.613328 0.139793 0.737911
Si Si6 0.507280 0.777011 0.849970
Si Si7 0.144316 0.431802 0.649744
Si Si8 0.601037 0.893401 0.457468
O O1 0.877798 0.095553 0.034404
O O2 0.032816 0.286285 0.058518
O O3 0.060028 0.878198 0.247643
O O4 0.616892 0.367354 0.237114
O O5 0.774862 0.701248 0.283058
O O6 0.671215 0.754445 0.412666
O O7 0.569916 0.734192 0.056470
O O8 0.188901 0.654688 0.788953
O O9 0.091979 0.024368 0.834801
O O10 0.299132 0.836953 0.112865
O O11 0.112714 0.522197 0.467589
O O12 0.969914 0.849100 0.395912
O O13 0.582254 0.963410 0.835348
O O14 0.661025 0.023656 0.645084
O O15 0.490223 0.217265 0.566034
O O16 0.479302 0.557335 0.719814
#
# Coordination Sequence:
#
# PCOD9118670 Si02
#       8
#     2   2   2   2   2   2   2   2
#     4  11  24  48  73 103 149 195 246 309 370 443
#     4  11  24  40  69 101 139 183 235 295 364 434
#     4  11  24  43  75 106 139 202 244 306 380 450
#     4  11  24  44  72 106 147 195 248 315 377 445
#     4  11  24  43  72  98 142 184 243 292 370 446
#     4  11  22  42  65  98 141 177 230 292 362 429
#     4  11  24  43  69 107 143 186 249 308 377 448
#     4  11  24  43  65 101 138 184 229 303 354 437
#
# _framework density 25.063489000000001
#
# number of rings (size 3 to 8) (size 9 to 14) (size 15 to 20)
#    0.000    1.000    6.250    0.000    1.750    2.000 
#    0.000    2.500    0.000    0.000    0.000    0.000 
#    0.000    0.000    0.000    0.000    0.000    0.000 
#
# Total GULP energy -89276.796624 kJ/mol
# GULP energy per Si atom -5579.799789 kJ/mol
# Density = 2.500644 g / cm^3
# Si number density = 25.063489 Si / 1000 Ang^3
#
#
#
# Elastic Constant Matrix: (Units=GPa)
#
#
# Indices 1 2 3 4 5 6 
#
# 1 54.5003 18.3826 17.2207 0.0000 -17.5658 0.0000
# 2 18.3826 67.2644 7.6431 0.0000 -12.9246 0.0000
# 3 17.2207 7.6431 72.0947 0.0000 -9.2439 0.0000
# 4 0.0000 0.0000 0.0000 21.8946 0.0000 8.4918
# 5 -17.5658 -12.9246 -9.2439 0.0000 32.6307 0.0000
# 6 0.0000 0.0000 0.0000 8.4918 0.0000 2.2866
#
#
#
# Elastic Compliance Matrix: (Units=1/GPa)
#
#
# Indices 1 2 3 4 5 6 
#
# 1 0.024373 -0.004221 -0.004054 0.000000 0.010300 0.000000
# 2 -0.004221 0.016882 -0.000224 0.000000 0.004351 0.000000
# 3 -0.004054 -0.000224 0.015121 0.000000 0.002013 0.000000
# 4 0.000000 0.000000 0.000000 -0.103721 0.000000 0.385188
# 5 0.010300 0.004351 0.002013 0.000000 0.038484 0.000000
# 6 0.000000 0.000000 0.000000 0.385188 0.000000 -0.993137
#
#
# Mechanical properties :
#
#
# Convention : Reuss Voigt Hill
#
# Bulk Modulus (GPa) = 25.39439 31.15026 28.27232
# Shear Modulus (GPa) = -5.14469 21.40326 8.12928
#
# Velocity S-wave (km/s) = -1.43427 2.92543 1.80292
# Velocity P-wave (km/s) = 2.72235 4.88532 3.95459
#
# Compressibility (1/GPa) = 0.03937877
#
# Stress axis : x y z
#
# Youngs Moduli (GPa) = 41.02915 59.23570 66.13463
#
# Poissons Ratio (x) = 0.25004 0.26808
# Poissons Ratio (y) = 0.17319 0.01479
# Poissons Ratio (z) = 0.16631 0.01324
#
# Static dielectric constant tensor:
#      x y z
#    x 2.027090 0.000000 0.016690 
#    y 0.000000 2.031090 0.000000 
#    z 0.016690 0.000000 2.081780 
# 
# From -- ./inp_files/9515.got.cif
#   From: 2010.05.17/outbox.cif.g08.bks.cpg/sg4_5_cif.got.tgz:9515.got - 2010.06.03 18:43:04.
