data_PCOD9118631
_publ_section_title
;
Structure prediction by ZEFSAII (Michael W. Deem and Ramdas Pophale) SiO2 
 PCOD9118631
Probable space group: P 21
;
_chemical_formula_sum "Si O2"
_cell_formula_units_Z 10
_cell_length_a 14.306604
_cell_length_b 5.144341
_cell_length_c 21.718577
_cell_angle_alpha 90.000000
_cell_angle_beta 161.823823
_cell_angle_gamma 90.000000
_cell_volume 498.618749
_symmetry_space_group_name_H-M "P 21"
_symmetry_group_IT_number 4
_symmetry_cell_setting 'monoclinic'
loop_
_space_group_symop_operation_xyz
x,y,z
-x,1/2+y,-z
loop_
_atom_site_type_symbol
_atom_site_label
_atom_site_fract_x
_atom_site_fract_y
_atom_site_fract_z
Si Si1 0.304230 0.198130 0.196229
Si Si2 0.193363 0.539727 0.023824
Si Si3 0.867624 0.737401 0.447080
Si Si4 0.296877 0.197991 0.524802
Si Si5 0.703373 0.613609 0.614403
O O1 0.239707 0.255271 0.083944
O O2 0.500857 0.444230 0.339113
O O3 0.497109 0.950013 0.335751
O O4 0.000169 0.186135 0.044709
O O5 0.518493 0.664630 0.218515
O O6 0.983629 0.546358 0.833243
O O7 0.927661 0.706419 0.557857
O O8 0.057301 0.525403 0.528339
O O9 0.518117 0.863897 0.523080
O O10 0.190936 0.183413 0.388452
#
# Coordination Sequence:
#
# PCOD9118631 Si02
#       5
#     2   2   2   2   2
#     4  11  22  37  66  98 130 164 211 275 340 381
#     4  11  23  40  67  97 133 166 222 269 329 390
#     4  11  25  42  63  88 126 180 234 265 303 374
#     4  11  22  43  63  97 135 168 209 277 329 398
#     4  12  24  40  65 104 140 166 202 268 361 407
#
# _framework density 20.055402999999998
#
# number of rings (size 3 to 8) (size 9 to 14) (size 15 to 20)
#    0.000    0.800    4.000    4.800    0.000    6.400 
#    0.000    2.000    0.000    0.000    0.000    0.000 
#    0.000    0.000    0.000    0.000    0.000    0.000 
#
# Total GULP energy -55888.559321 kJ/mol
# GULP energy per Si atom -5588.855932 kJ/mol
# Density = 2.000976 g / cm^3
# Si number density = 20.055403 Si / 1000 Ang^3
#
#
#
# Elastic Constant Matrix: (Units=GPa)
#
#
# Indices 1 2 3 4 5 6 
#
# 1 130.4012 8.2878 44.8440 0.0000 -35.4146 0.0000
# 2 8.2878 114.7649 12.7512 0.0000 -9.1528 0.0000
# 3 44.8440 12.7512 84.3201 0.0000 -28.7811 0.0000
# 4 0.0000 0.0000 0.0000 26.2152 0.0000 3.6145
# 5 -35.4146 -9.1528 -28.7811 0.0000 51.0740 0.0000
# 6 0.0000 0.0000 0.0000 3.6145 0.0000 36.7184
#
#
#
# Elastic Compliance Matrix: (Units=1/GPa)
#
#
# Indices 1 2 3 4 5 6 
#
# 1 0.010337 0.000077 -0.003786 0.000000 0.005048 0.000000
# 2 0.000077 0.008907 -0.001021 0.000000 0.001074 0.000000
# 3 -0.003786 -0.001021 0.016181 0.000000 0.006310 0.000000
# 4 0.000000 0.000000 0.000000 0.038671 0.000000 -0.003807
# 5 0.005048 0.001074 0.006310 0.000000 0.026828 0.000000
# 6 0.000000 0.000000 0.000000 -0.003807 0.000000 0.027609
#
#
# Mechanical properties :
#
#
# Convention : Reuss Voigt Hill
#
# Bulk Modulus (GPa) = 38.51467 51.25024 44.88245
# Shear Modulus (GPa) = 34.09522 40.37508 37.23515
#
# Velocity S-wave (km/s) = 4.12764 4.49171 4.31352
# Velocity P-wave (km/s) = 6.47784 7.24641 6.87288
#
# Compressibility (1/GPa) = 0.02596413
#
# Stress axis : x y z
#
# Youngs Moduli (GPa) = 96.74373 112.27083 61.79926
#
# Poissons Ratio (x) = -0.00862 0.23397
# Poissons Ratio (y) = -0.00742 0.06311
# Poissons Ratio (z) = 0.36627 0.11465
#
# Static dielectric constant tensor:
#      x y z
#    x 1.769460 0.000000 -0.017880 
#    y 0.000000 1.762470 0.000000 
#    z -0.017880 0.000000 1.690860 
# 
# From -- ./inp_files/5117.got.cif
#   From: 2010.05.17/outbox.cif.g08.bks.cpg/sg4_3_cif.got.tgz:5117.got - 2010.06.03 18:43:04.
