data_PCOD9118711
_publ_section_title
;
Structure prediction by ZEFSAII (Michael W. Deem and Ramdas Pophale) SiO2 
 PCOD9118711
Probable space group: P 21
;
_chemical_formula_sum "Si O2"
_cell_formula_units_Z 14
_cell_length_a 7.539691
_cell_length_b 6.861166
_cell_length_c 13.127746
_cell_angle_alpha 90.000000
_cell_angle_beta 81.029521
_cell_angle_gamma 90.000000
_cell_volume 670.806015
_symmetry_space_group_name_H-M "P 21"
_symmetry_group_IT_number 4
_symmetry_cell_setting 'monoclinic'
loop_
_space_group_symop_operation_xyz
x,y,z
-x,1/2+y,-z
loop_
_atom_site_type_symbol
_atom_site_label
_atom_site_fract_x
_atom_site_fract_y
_atom_site_fract_z
Si Si1 0.729253 0.139630 0.519246
Si Si2 0.027720 0.721201 0.781897
Si Si3 0.751871 0.889092 0.341276
Si Si4 0.676279 0.518428 0.888618
Si Si5 0.454447 0.699341 0.247821
Si Si6 0.627582 0.339008 0.115013
Si Si7 0.922351 0.494704 0.406685
O O1 0.626562 0.152602 0.634282
O O2 0.778319 0.349304 0.469007
O O3 0.644107 0.008665 0.437781
O O4 0.919189 0.037805 0.528887
O O5 0.096923 0.534869 0.712239
O O6 0.191200 0.785628 0.840244
O O7 0.998723 0.890138 0.701041
O O8 0.848393 0.655321 0.854667
O O9 0.629936 0.826260 0.258244
O O10 0.831889 0.694860 0.382081
O O11 0.670165 0.337722 0.809847
O O12 0.500201 0.652278 0.888896
O O13 0.675126 0.429462 0.001365
O O14 0.516200 0.503046 0.186700
#
# Coordination Sequence:
#
# PCOD9118711 Si02
#       7
#     2   2   2   2   2   2   2
#     4  11  25  39  67 100 138 190 231 285 354 423
#     4  11  26  46  73 103 139 186 234 293 364 420
#     4  11  24  43  67 101 142 181 235 288 351 429
#     4  12  27  48  75 103 141 187 241 296 366 422
#     4  12  26  45  71 100 148 185 236 299 358 422
#     4  12  26  49  72 106 140 183 242 303 354 437
#     4  11  22  44  65  99 142 180 237 288 343 437
#
# _framework density 20.870417
#
# number of rings (size 3 to 8) (size 9 to 14) (size 15 to 20)
#    0.000    0.571    5.714    1.714    4.000    3.429 
#    2.571    0.000    0.000    0.000    0.000    0.000 
#    0.000    0.000    0.000    0.000    0.000    0.000 
#
# Total GULP energy -78332.843791 kJ/mol
# GULP energy per Si atom -5595.203128 kJ/mol
# Density = 2.082291 g / cm^3
# Si number density = 20.870417 Si / 1000 Ang^3
#
#
#
# Elastic Constant Matrix: (Units=GPa)
#
#
# Indices 1 2 3 4 5 6 
#
# 1 59.7218 21.7143 11.1417 0.0000 7.8406 0.0000
# 2 21.7143 115.4961 43.0986 0.0000 8.0458 0.0000
# 3 11.1417 43.0986 105.3619 0.0000 -3.0914 0.0000
# 4 0.0000 0.0000 0.0000 48.2426 0.0000 12.7893
# 5 7.8406 8.0458 -3.0914 0.0000 35.1213 0.0000
# 6 0.0000 0.0000 0.0000 12.7893 0.0000 27.4299
#
#
#
# Elastic Compliance Matrix: (Units=1/GPa)
#
#
# Indices 1 2 3 4 5 6 
#
# 1 0.018421 -0.002894 -0.000868 0.000000 -0.003526 0.000000
# 2 -0.002894 0.010938 -0.004234 0.000000 -0.002232 0.000000
# 3 -0.000868 -0.004234 0.011378 0.000000 0.002165 0.000000
# 4 0.000000 0.000000 0.000000 0.023652 0.000000 -0.011028
# 5 -0.003526 -0.002232 0.002165 0.000000 0.029962 0.000000
# 6 0.000000 0.000000 0.000000 -0.011028 0.000000 0.041598
#
#
# Mechanical properties :
#
#
# Convention : Reuss Voigt Hill
#
# Bulk Modulus (GPa) = 40.40941 48.05434 44.23187
# Shear Modulus (GPa) = 31.21319 35.80044 33.50681
#
# Velocity S-wave (km/s) = 3.87146 4.14619 4.01118
# Velocity P-wave (km/s) = 6.27601 6.78206 6.53394
#
# Compressibility (1/GPa) = 0.02474671
#
# Stress axis : x y z
#
# Youngs Moduli (GPa) = 54.28508 91.42680 87.88790
#
# Poissons Ratio (x) = 0.26459 0.07626
# Poissons Ratio (y) = 0.15710 0.37208
# Poissons Ratio (z) = 0.04710 0.38706
#
# Static dielectric constant tensor:
#      x y z
#    x 1.748530 0.000000 -0.001260 
#    y 0.000000 1.729990 0.000000 
#    z -0.001260 0.000000 1.741070 
# 
# From -- ./inp_files/7068.got.cif
#   From: 2010.05.17/outbox.cif.g08.bks.cpg/sg4_4_cif.got.tgz:7068.got - 2010.06.03 18:43:04.
