data_PCOD9118792
_publ_section_title
;
Structure prediction by ZEFSAII (Michael W. Deem and Ramdas Pophale) SiO2 
 PCOD9118792
Probable space group: P 21
;
_chemical_formula_sum "Si O2"
_cell_formula_units_Z 12
_cell_length_a 12.868765
_cell_length_b 7.747062
_cell_length_c 12.724012
_cell_angle_alpha 90.000000
_cell_angle_beta 157.601751
_cell_angle_gamma 90.000000
_cell_volume 483.360279
_symmetry_space_group_name_H-M "P 21"
_symmetry_group_IT_number 4
_symmetry_cell_setting 'monoclinic'
loop_
_space_group_symop_operation_xyz
x,y,z
-x,1/2+y,-z
loop_
_atom_site_type_symbol
_atom_site_label
_atom_site_fract_x
_atom_site_fract_y
_atom_site_fract_z
Si Si1 0.758214 0.262220 0.670773
Si Si2 0.760098 0.596397 0.787003
Si Si3 0.309302 0.200606 0.516576
Si Si4 0.695305 0.956710 0.314381
Si Si5 0.818984 0.981444 0.073760
Si Si6 0.779672 0.696906 0.209406
O O1 0.696759 0.398912 0.705308
O O2 0.471900 0.191988 0.362509
O O3 0.938693 0.109274 0.886147
O O4 0.970286 0.364413 0.796790
O O5 0.748923 0.688449 0.662227
O O6 0.370114 0.379836 0.631543
O O7 0.558859 0.068108 0.774245
O O8 0.022709 0.134279 0.298087
O O9 0.763353 0.789390 0.306682
O O10 0.937079 0.096656 0.543635
O O11 0.446405 0.054340 0.026547
O O12 0.733439 0.855947 0.086628
#
# Coordination Sequence:
#
# PCOD9118792 Si02
#       6
#     2   2   2   2   2   2
#     4  11  23  40  62  90 125 166 207 255 309 363
#     4  11  23  40  62  90 125 166 207 255 309 363
#     4  11  23  43  64  90 126 166 206 255 309 363
#     4  12  25  43  67  96 125 162 204 254 309 370
#     4  11  23  43  64  90 126 166 206 255 309 363
#     4  12  25  43  67  96 125 162 204 254 309 370
#
# _framework density 24.826201000000001
#
# number of rings (size 3 to 8) (size 9 to 14) (size 15 to 20)
#    0.000    0.667    0.000   10.000    0.000    4.000 
#    0.000    0.000    0.000    0.000    0.000    0.000 
#    0.000    0.000    0.000    0.000    0.000    0.000 
#
# Total GULP energy -67166.740353 kJ/mol
# GULP energy per Si atom -5597.228363 kJ/mol
# Density = 2.476970 g / cm^3
# Si number density = 24.826201 Si / 1000 Ang^3
#
#
#
# Elastic Constant Matrix: (Units=GPa)
#
#
# Indices 1 2 3 4 5 6 
#
# 1 53.8766 -0.9805 5.3843 0.0000 -4.2598 0.0000
# 2 -0.9805 49.1823 1.3734 0.0000 1.7770 0.0000
# 3 5.3843 1.3734 109.4540 0.0000 11.0162 0.0000
# 4 0.0000 0.0000 0.0000 58.8088 0.0000 10.0881
# 5 -4.2598 1.7770 11.0162 0.0000 25.6487 0.0000
# 6 0.0000 0.0000 0.0000 10.0881 0.0000 52.3125
#
#
#
# Elastic Compliance Matrix: (Units=1/GPa)
#
#
# Indices 1 2 3 4 5 6 
#
# 1 0.018989 0.000282 -0.001310 0.000000 0.003697 0.000000
# 2 0.000282 0.020389 -0.000138 0.000000 -0.001306 0.000000
# 3 -0.001310 -0.000138 0.009640 0.000000 -0.004348 0.000000
# 4 0.000000 0.000000 0.000000 0.017586 0.000000 -0.003391
# 5 0.003697 -0.001306 -0.004348 0.000000 0.041561 0.000000
# 6 0.000000 0.000000 0.000000 -0.003391 0.000000 0.019770
#
#
# Mechanical properties :
#
#
# Convention : Reuss Voigt Hill
#
# Bulk Modulus (GPa) = 21.41981 24.89638 23.15810
# Shear Modulus (GPa) = 34.28659 41.13637 37.71148
#
# Velocity S-wave (km/s) = 3.72030 4.07501 3.90169
# Velocity P-wave (km/s) = 5.20584 5.67371 5.44480
#
# Compressibility (1/GPa) = 0.04668576
#
# Stress axis : x y z
#
# Youngs Moduli (GPa) = 52.66138 49.04562 103.73361
#
# Poissons Ratio (x) = -0.01381 0.13586
# Poissons Ratio (y) = -0.01483 0.01434
# Poissons Ratio (z) = 0.06897 0.00678
#
# Static dielectric constant tensor:
#      x y z
#    x 2.092140 0.000000 0.012420 
#    y 0.000000 1.971240 0.000000 
#    z 0.012420 0.000000 1.904890 
# 
# From -- ./inp_files/12163.got.cif
#   From: 2010.05.17/outbox.cif.g08.bks.cpg/sg4_7_cif.got.tgz:12163.got - 2010.06.03 18:43:04.
