data_PCOD9118410
_publ_section_title
;
Structure prediction by ZEFSAII (Michael W. Deem and Ramdas Pophale) SiO2 
 PCOD9118410
Probable space group: P 21
;
_chemical_formula_sum "Si O2"
_cell_formula_units_Z 16
_cell_length_a 7.680964
_cell_length_b 8.692316
_cell_length_c 9.288495
_cell_angle_alpha 90.000000
_cell_angle_beta 83.081446
_cell_angle_gamma 90.000000
_cell_volume 615.634080
_symmetry_space_group_name_H-M "P 21"
_symmetry_group_IT_number 4
_symmetry_cell_setting 'monoclinic'
loop_
_space_group_symop_operation_xyz
x,y,z
-x,1/2+y,-z
loop_
_atom_site_type_symbol
_atom_site_label
_atom_site_fract_x
_atom_site_fract_y
_atom_site_fract_z
Si Si1 0.137427 0.939900 0.767573
Si Si2 0.567868 0.399653 0.644811
Si Si3 0.383929 0.384614 0.102696
Si Si4 0.761833 0.088348 0.305082
Si Si5 0.702049 0.239191 0.912007
Si Si6 0.062167 0.363352 0.937300
Si Si7 0.181996 0.417022 0.411524
Si Si8 0.296003 0.155198 0.568118
O O1 0.205268 0.766091 0.730963
O O2 0.983177 0.961805 0.666125
O O3 0.264380 0.082991 0.727071
O O4 0.053345 0.947636 0.930752
O O5 0.427610 0.522520 0.720516
O O6 0.664969 0.317771 0.763216
O O7 0.459412 0.271113 0.567513
O O8 0.681124 0.504820 0.530010
O O9 0.362740 0.565455 0.077730
O O10 0.235718 0.311819 0.009639
O O11 0.328421 0.369939 0.276622
O O12 0.575622 0.327176 0.038343
O O13 0.774893 0.046014 0.473625
O O14 0.888375 0.978289 0.197417
O O15 0.911861 0.244452 0.906026
O O16 0.152187 0.264434 0.510243
#
# Coordination Sequence:
#
# PCOD9118410 Si02
#       8
#     2   2   2   2   2   2   2   2
#     4  11  25  45  76 106 148 199 248 310 379 443
#     4  11  27  46  74 111 148 201 245 315 373 452
#     4  11  28  52  75 118 147 203 255 310 378 451
#     4  11  24  47  73 109 149 192 250 313 369 452
#     4  12  29  47  84 105 156 201 252 312 380 450
#     4  11  27  48  73 110 150 196 248 308 371 447
#     4  10  26  45  75 107 150 191 254 311 376 448
#     4  11  26  46  72 110 148 195 252 311 376 447
#
# _framework density 25.989462
#
# number of rings (size 3 to 8) (size 9 to 14) (size 15 to 20)
#    0.000    1.000    1.250    2.250   12.250    8.000 
#    0.000    0.000    0.000    0.000    0.000    0.000 
#    0.000    0.000    0.000    0.000    0.000    0.000 
#
# Total GULP energy -89634.232184 kJ/mol
# GULP energy per Si atom -5602.139511 kJ/mol
# Density = 2.593031 g / cm^3
# Si number density = 25.989462 Si / 1000 Ang^3
#
#
#
# Elastic Constant Matrix: (Units=GPa)
#
#
# Indices 1 2 3 4 5 6 
#
# 1 87.3826 18.2016 24.3581 0.0000 2.8808 0.0000
# 2 18.2016 84.1306 36.3844 0.0000 -2.7261 0.0000
# 3 24.3581 36.3844 143.0615 0.0000 1.9664 0.0000
# 4 0.0000 0.0000 0.0000 30.5898 0.0000 -6.0276
# 5 2.8808 -2.7261 1.9664 0.0000 46.0848 0.0000
# 6 0.0000 0.0000 0.0000 -6.0276 0.0000 35.8584
#
#
#
# Elastic Compliance Matrix: (Units=1/GPa)
#
#
# Indices 1 2 3 4 5 6 
#
# 1 0.012330 -0.002013 -0.001576 0.000000 -0.000823 0.000000
# 2 -0.002013 0.013724 -0.003163 0.000000 0.001073 0.000000
# 3 -0.001576 -0.003163 0.008069 0.000000 -0.000433 0.000000
# 4 0.000000 0.000000 0.000000 0.033811 0.000000 0.005683
# 5 -0.000823 0.001073 -0.000433 0.000000 0.021832 0.000000
# 6 0.000000 0.000000 0.000000 0.005683 0.000000 0.028843
#
#
# Mechanical properties :
#
#
# Convention : Reuss Voigt Hill
#
# Bulk Modulus (GPa) = 48.49649 52.49589 50.49619
# Shear Modulus (GPa) = 35.97541 38.21531 37.09536
#
# Velocity S-wave (km/s) = 3.72456 3.83876 3.78209
# Velocity P-wave (km/s) = 6.09894 6.31592 6.20838
#
# Compressibility (1/GPa) = 0.02062005
#
# Stress axis : x y z
#
# Youngs Moduli (GPa) = 81.10560 72.86429 123.93699
#
# Poissons Ratio (x) = 0.14664 0.19534
# Poissons Ratio (y) = 0.16323 0.39195
# Poissons Ratio (z) = 0.12783 0.23043
#
# Static dielectric constant tensor:
#      x y z
#    x 2.087040 0.000000 -0.023810 
#    y 0.000000 2.025540 0.000000 
#    z -0.023810 0.000000 2.127560 
# 
# From -- ./inp_files/5580.got.cif
#   From: 2010.05.17/outbox.cif.g08.bks.cpg/sg4_3_cif.got.tgz:5580.got - 2010.06.03 18:43:04.
