data_PCOD9118221
_publ_section_title
;
Structure prediction by ZEFSAII (Michael W. Deem and Ramdas Pophale) SiO2 
 PCOD9118221
Probable space group: P 21
;
_chemical_formula_sum "Si O2"
_cell_formula_units_Z 16
_cell_length_a 18.780299
_cell_length_b 6.414373
_cell_length_c 5.093110
_cell_angle_alpha 90.000000
_cell_angle_beta 89.929006
_cell_angle_gamma 90.000000
_cell_volume 613.535132
_symmetry_space_group_name_H-M "P 21"
_symmetry_group_IT_number 4
_symmetry_cell_setting 'monoclinic'
loop_
_space_group_symop_operation_xyz
x,y,z
-x,1/2+y,-z
loop_
_atom_site_type_symbol
_atom_site_label
_atom_site_fract_x
_atom_site_fract_y
_atom_site_fract_z
Si Si1 0.882701 0.209550 0.109810
Si Si2 0.747963 0.002911 0.147231
Si Si3 0.784381 0.737029 0.656203
Si Si4 0.612966 0.254824 0.040540
Si Si5 0.351693 0.001976 0.461984
Si Si6 0.029681 0.350227 0.853426
Si Si7 0.080319 0.008869 0.496429
Si Si8 0.514616 0.728450 0.608186
O O1 0.887944 0.291316 0.408415
O O2 0.798687 0.199406 0.061332
O O3 0.953879 0.313152 0.986507
O O4 0.907616 0.980415 0.024477
O O5 0.759971 0.827175 0.931396
O O6 0.666460 0.073644 0.131914
O O7 0.774917 0.912459 0.426956
O O8 0.729896 0.555935 0.576034
O O9 0.862249 0.634004 0.669018
O O10 0.635528 0.442299 0.236256
O O11 0.531368 0.216256 0.124275
O O12 0.625057 0.316904 0.738503
O O13 0.400899 0.197971 0.382081
O O14 0.998762 0.484683 0.612658
O O15 0.068264 0.151098 0.747403
O O16 0.496791 0.479718 0.487916
#
# Coordination Sequence:
#
# PCOD9118221 Si02
#       8
#     2   2   2   2   2   2   2   2
#     4  12  27  44  69  97 138 183 239 302 373 444
#     4  12  28  46  72 104 148 193 245 304 372 447
#     4  12  28  46  72 104 148 193 245 304 372 447
#     4  11  25  47  76 111 153 201 250 305 373 445
#     4  11  25  47  76 111 153 201 250 305 373 445
#     4  12  26  44  68  98 130 184 238 300 370 446
#     4  12  27  44  69  97 138 183 239 302 373 444
#     4  10  24  48  82 120 162 208 260 318 382 456
#
# _framework density 26.078379000000002
#
# number of rings (size 3 to 8) (size 9 to 14) (size 15 to 20)
#    0.000    0.500    3.750    3.000    8.750    7.000 
#    0.000    0.000    0.000    0.000    0.000    0.000 
#    0.000    0.000    0.000    0.000    0.000    0.000 
#
# Total GULP energy -89143.540250 kJ/mol
# GULP energy per Si atom -5571.471266 kJ/mol
# Density = 2.601902 g / cm^3
# Si number density = 26.078379 Si / 1000 Ang^3
#
#
#
# Elastic Constant Matrix: (Units=GPa)
#
#
# Indices 1 2 3 4 5 6 
#
# 1 58.4036 19.5240 1.7718 0.0000 -13.0108 0.0000
# 2 19.5240 81.7275 17.1354 0.0000 -11.6073 0.0000
# 3 1.7718 17.1354 52.7999 0.0000 -11.5817 0.0000
# 4 0.0000 0.0000 0.0000 50.1379 0.0000 6.0768
# 5 -13.0108 -11.6073 -11.5817 0.0000 33.1458 0.0000
# 6 0.0000 0.0000 0.0000 6.0768 0.0000 62.4300
#
#
#
# Elastic Compliance Matrix: (Units=1/GPa)
#
#
# Indices 1 2 3 4 5 6 
#
# 1 0.020077 -0.004254 0.002284 0.000000 0.007189 0.000000
# 2 -0.004254 0.014387 -0.004102 0.000000 0.001935 0.000000
# 3 0.002284 -0.004102 0.021742 0.000000 0.007057 0.000000
# 4 0.000000 0.000000 0.000000 0.020183 0.000000 -0.001965
# 5 0.007189 0.001935 0.007057 0.000000 0.036135 0.000000
# 6 0.000000 0.000000 0.000000 -0.001965 0.000000 0.016209
#
#
# Mechanical properties :
#
#
# Convention : Reuss Voigt Hill
#
# Bulk Modulus (GPa) = 22.69565 29.97705 26.33635
# Shear Modulus (GPa) = 32.14116 39.44273 35.79194
#
# Velocity S-wave (km/s) = 3.51448 3.89327 3.70871
# Velocity P-wave (km/s) = 5.01902 5.63294 5.33481
#
# Compressibility (1/GPa) = 0.04406131
#
# Stress axis : x y z
#
# Youngs Moduli (GPa) = 49.80935 69.50800 45.99410
#
# Poissons Ratio (x) = 0.29568 -0.10504
# Poissons Ratio (y) = 0.21189 0.18866
# Poissons Ratio (z) = -0.11375 0.28511
#
# Static dielectric constant tensor:
#      x y z
#    x 1.961900 0.000000 0.034260 
#    y 0.000000 2.244120 0.000000 
#    z 0.034260 0.000000 2.270300 
# 
# From -- ./inp_files/4306.got.cif
#   From: 2010.05.17/outbox.cif.g08.bks.cpg/sg4_3_cif.got.tgz:4306.got - 2010.06.03 18:43:04.
