data_PCOD9118760
_publ_section_title
;
Structure prediction by ZEFSAII (Michael W. Deem and Ramdas Pophale) SiO2 
 PCOD9118760
Probable space group: P 21
;
_chemical_formula_sum "Si O2"
_cell_formula_units_Z 14
_cell_length_a 8.219099
_cell_length_b 13.730807
_cell_length_c 5.063933
_cell_angle_alpha 90.000000
_cell_angle_beta 85.684060
_cell_angle_gamma 90.000000
_cell_volume 569.868851
_symmetry_space_group_name_H-M "P 21"
_symmetry_group_IT_number 4
_symmetry_cell_setting 'monoclinic'
loop_
_space_group_symop_operation_xyz
x,y,z
-x,1/2+y,-z
loop_
_atom_site_type_symbol
_atom_site_label
_atom_site_fract_x
_atom_site_fract_y
_atom_site_fract_z
Si Si1 0.732543 0.825560 0.128540
Si Si2 0.718337 0.178247 0.578592
Si Si3 0.501390 0.904497 0.568908
Si Si4 0.177973 0.485704 0.267529
Si Si5 0.953456 0.351435 0.646907
Si Si6 0.313275 0.965965 0.086586
Si Si7 0.523089 0.672188 0.900527
O O1 0.602325 0.826462 0.382131
O O2 0.380128 0.947421 0.370621
O O3 0.905918 0.791839 0.216921
O O4 0.771176 0.935661 0.017392
O O5 0.820502 0.278358 0.542445
O O6 0.595143 0.165973 0.342603
O O7 0.853575 0.096967 0.651901
O O8 0.605214 0.183934 0.848907
O O9 0.646871 0.978160 0.611141
O O10 0.652740 0.761373 0.907398
O O11 0.402631 0.900064 0.854718
O O12 0.047395 0.414687 0.416273
O O13 0.869691 0.427459 0.861697
O O14 0.366601 0.077380 0.042329
#
# Coordination Sequence:
#
# PCOD9118760 Si02
#       7
#     2   2   2   2   2   2   2
#     4  11  27  48  77 115 156 208 245 327 388 455
#     4  12  28  49  79 115 148 208 265 317 380 457
#     4  11  22  46  76 103 145 198 260 304 369 441
#     4  11  25  51  75 107 159 201 249 317 393 448
#     4  11  31  45  79 114 162 198 250 323 396 466
#     4  12  24  48  77 114 142 207 254 317 376 450
#     4  12  27  47  81 112 152 202 271 315 364 473
#
# _framework density 24.567053999999999
#
# number of rings (size 3 to 8) (size 9 to 14) (size 15 to 20)
#    0.000    0.571    4.286    0.857   12.000    2.286 
#    0.000    0.000    0.000    0.000    0.000    0.000 
#    0.000    0.000    0.000    0.000    0.000    0.000 
#
# Total GULP energy -78097.946456 kJ/mol
# GULP energy per Si atom -5578.424747 kJ/mol
# Density = 2.451114 g / cm^3
# Si number density = 24.567054 Si / 1000 Ang^3
#
#
#
# Elastic Constant Matrix: (Units=GPa)
#
#
# Indices 1 2 3 4 5 6 
#
# 1 59.9128 30.8855 23.3911 0.0000 3.1385 0.0000
# 2 30.8855 96.9075 26.9040 0.0000 -4.6928 0.0000
# 3 23.3911 26.9040 146.2184 0.0000 -1.0227 0.0000
# 4 0.0000 0.0000 0.0000 26.2865 0.0000 -1.1973
# 5 3.1385 -4.6928 -1.0227 0.0000 44.7055 0.0000
# 6 0.0000 0.0000 0.0000 -1.1973 0.0000 47.8112
#
#
#
# Elastic Compliance Matrix: (Units=1/GPa)
#
#
# Indices 1 2 3 4 5 6 
#
# 1 0.020829 -0.006126 -0.002220 0.000000 -0.002156 0.000000
# 2 -0.006126 0.012731 -0.001350 0.000000 0.001736 0.000000
# 3 -0.002220 -0.001350 0.007444 0.000000 0.000184 0.000000
# 4 0.000000 0.000000 0.000000 0.038086 0.000000 0.000954
# 5 -0.002156 0.001736 0.000184 0.000000 0.022706 0.000000
# 6 0.000000 0.000000 0.000000 0.000954 0.000000 0.020939
#
#
# Mechanical properties :
#
#
# Convention : Reuss Voigt Hill
#
# Bulk Modulus (GPa) = 46.27442 51.71110 48.99276
# Shear Modulus (GPa) = 33.48254 38.55118 36.01686
#
# Velocity S-wave (km/s) = 3.69576 3.96564 3.83307
# Velocity P-wave (km/s) = 6.09002 6.48560 6.29092
#
# Compressibility (1/GPa) = 0.02161021
#
# Stress axis : x y z
#
# Youngs Moduli (GPa) = 48.01040 78.55088 134.33765
#
# Poissons Ratio (x) = 0.48124 0.29821
# Poissons Ratio (y) = 0.29414 0.18138
# Poissons Ratio (z) = 0.10658 0.10606
#
# Static dielectric constant tensor:
#      x y z
#    x 1.974810 0.000000 0.055450 
#    y 0.000000 2.118910 0.000000 
#    z 0.055450 0.000000 1.920810 
# 
# From -- ./inp_files/1913.got.cif
#   From: 2010.05.17/outbox.cif.g08.bks.cpg/sg4_1_cif.got.tgz:1913.got - 2010.06.03 18:43:04.
