data_PCOD9118097
_publ_section_title
;
Structure prediction by ZEFSAII (Michael W. Deem and Ramdas Pophale) SiO2 
 PCOD9118097
Probable space group: P 21
;
_chemical_formula_sum "Si O2"
_cell_formula_units_Z 16
_cell_length_a 12.899310
_cell_length_b 7.640484
_cell_length_c 9.667163
_cell_angle_alpha 90.000000
_cell_angle_beta 134.766508
_cell_angle_gamma 90.000000
_cell_volume 676.447412
_symmetry_space_group_name_H-M "P 21"
_symmetry_group_IT_number 4
_symmetry_cell_setting 'monoclinic'
loop_
_space_group_symop_operation_xyz
x,y,z
-x,1/2+y,-z
loop_
_atom_site_type_symbol
_atom_site_label
_atom_site_fract_x
_atom_site_fract_y
_atom_site_fract_z
Si Si1 0.689632 0.277350 0.101345
Si Si2 0.853153 0.798467 0.182454
Si Si3 0.965250 0.416914 0.907602
Si Si4 0.537819 0.646213 0.892552
Si Si5 0.017847 0.936054 0.574334
Si Si6 0.698621 0.221991 0.794308
Si Si7 0.572375 0.971302 0.466510
Si Si8 0.862004 0.787985 0.690037
O O1 0.575079 0.179742 0.090324
O O2 0.833655 0.332100 0.320498
O O3 0.609167 0.458117 0.986871
O O4 0.728919 0.200174 0.986526
O O5 0.925162 0.617798 0.307982
O O6 0.926592 0.837488 0.104998
O O7 0.910515 0.944180 0.343503
O O8 0.678247 0.774221 0.016084
O O9 0.836629 0.289739 0.837904
O O10 0.898552 0.597010 0.785738
O O11 0.061798 0.428568 0.136669
O O12 0.450624 0.626656 0.666544
O O13 0.931681 0.824088 0.607598
O O14 0.579917 0.374352 0.663795
O O15 0.629837 0.050369 0.662823
O O16 0.691464 0.832288 0.525073
#
# Coordination Sequence:
#
# PCOD9118097 Si02
#       8
#     2   2   2   2   2   2   2   2
#     4  10  24  45  69  98 144 185 239 296 357 430
#     4  11  26  46  74 105 148 190 246 303 363 437
#     4  12  26  47  73 107 147 193 240 309 369 432
#     4  10  26  47  69 103 143 193 237 297 359 429
#     4  11  24  45  69 106 139 191 245 299 363 431
#     4  11  24  46  68 105 144 192 238 304 366 434
#     4  11  26  45  72 105 146 192 243 302 361 449
#     4  12  26  45  74 105 145 190 248 302 370 438
#
# _framework density 23.652984
#
# number of rings (size 3 to 8) (size 9 to 14) (size 15 to 20)
#    0.000    1.000    1.250    3.750   12.250    2.000 
#    2.250    0.000    0.000    0.000    0.000    0.000 
#    0.000    0.000    0.000    0.000    0.000    0.000 
#
# Total GULP energy -89605.360581 kJ/mol
# GULP energy per Si atom -5600.335036 kJ/mol
# Density = 2.359915 g / cm^3
# Si number density = 23.652984 Si / 1000 Ang^3
#
#
#
# Elastic Constant Matrix: (Units=GPa)
#
#
# Indices 1 2 3 4 5 6 
#
# 1 142.8360 30.5856 33.7293 0.0000 -6.9032 0.0000
# 2 30.5856 71.2906 11.2203 0.0000 2.9460 0.0000
# 3 33.7293 11.2203 89.0805 0.0000 -0.7382 0.0000
# 4 0.0000 0.0000 0.0000 39.9951 0.0000 1.4134
# 5 -6.9032 2.9460 -0.7382 0.0000 26.4002 0.0000
# 6 0.0000 0.0000 0.0000 1.4134 0.0000 29.5037
#
#
#
# Elastic Compliance Matrix: (Units=1/GPa)
#
#
# Indices 1 2 3 4 5 6 
#
# 1 0.008486 -0.003308 -0.002776 0.000000 0.002510 0.000000
# 2 -0.003308 0.015672 -0.000743 0.000000 -0.002635 0.000000
# 3 -0.002776 -0.000743 0.012368 0.000000 -0.000297 0.000000
# 4 0.000000 0.000000 0.000000 0.025045 0.000000 -0.001200
# 5 0.002510 -0.002635 -0.000297 0.000000 0.038821 0.000000
# 6 0.000000 0.000000 0.000000 -0.001200 0.000000 0.033951
#
#
# Mechanical properties :
#
#
# Convention : Reuss Voigt Hill
#
# Bulk Modulus (GPa) = 43.72064 50.47529 47.09796
# Shear Modulus (GPa) = 32.12925 34.35793 33.24359
#
# Velocity S-wave (km/s) = 3.68959 3.81541 3.75303
# Velocity P-wave (km/s) = 6.05600 6.38718 6.22379
#
# Compressibility (1/GPa) = 0.02287249
#
# Stress axis : x y z
#
# Youngs Moduli (GPa) = 117.83979 63.80788 80.85387
#
# Poissons Ratio (x) = 0.21105 0.22443
# Poissons Ratio (y) = 0.38977 0.06011
# Poissons Ratio (z) = 0.32709 0.04744
#
# Static dielectric constant tensor:
#      x y z
#    x 1.883760 0.000000 0.012240 
#    y 0.000000 1.948110 0.000000 
#    z 0.012240 0.000000 1.892360 
# 
# From -- ./inp_files/8069.got.cif
#   From: 2010.05.17/outbox.cif.g08.bks.cpg/sg4_5_cif.got.tgz:8069.got - 2010.06.03 18:43:04.
