data_PCOD9118473
_publ_section_title
;
Structure prediction by ZEFSAII (Michael W. Deem and Ramdas Pophale) SiO2 
 PCOD9118473
Probable space group: P 21
;
_chemical_formula_sum "Si O2"
_cell_formula_units_Z 16
_cell_length_a 5.405605
_cell_length_b 12.022874
_cell_length_c 10.154352
_cell_angle_alpha 90.000000
_cell_angle_beta 91.307629
_cell_angle_gamma 90.000000
_cell_volume 659.768693
_symmetry_space_group_name_H-M "P 21"
_symmetry_group_IT_number 4
_symmetry_cell_setting 'monoclinic'
loop_
_space_group_symop_operation_xyz
x,y,z
-x,1/2+y,-z
loop_
_atom_site_type_symbol
_atom_site_label
_atom_site_fract_x
_atom_site_fract_y
_atom_site_fract_z
Si Si1 0.997951 0.744240 0.893474
Si Si2 0.140236 0.380311 0.892857
Si Si3 0.382813 0.856667 0.467128
Si Si4 0.958738 0.542443 0.447004
Si Si5 0.184696 0.690344 0.261134
Si Si6 0.284943 0.214914 0.368520
Si Si7 0.659407 0.031712 0.311712
Si Si8 0.490145 0.209206 0.967522
O O1 0.928827 0.736863 0.740253
O O2 0.972975 0.866798 0.962466
O O3 0.770899 0.677809 0.966515
O O4 0.270222 0.706578 0.937362
O O5 0.168292 0.490214 0.806597
O O6 0.417960 0.334874 0.922318
O O7 0.989831 0.285406 0.807931
O O8 0.279106 0.746640 0.397053
O O9 0.599339 0.825128 0.569593
O O10 0.182527 0.926934 0.543428
O O11 0.472487 0.931897 0.346306
O O12 0.791411 0.639830 0.508445
O O13 0.037887 0.582227 0.305042
O O14 0.177955 0.537937 0.555361
O O15 0.408202 0.657786 0.166680
O O16 0.497171 0.141950 0.300211
#
# Coordination Sequence:
#
# PCOD9118473 Si02
#       8
#     2   2   2   2   2   2   2   2
#     4   9  21  40  63  93 124 179 225 268 335 392
#     4   9  19  37  69  90 125 174 219 273 321 400
#     4  11  22  38  60  98 135 172 217 284 344 408
#     4  11  25  36  64 100 134 174 225 278 348 420
#     4  11  19  38  65  94 132 172 219 274 343 397
#     4  11  25  39  64  95 141 178 219 284 343 403
#     4  11  21  39  62  98 129 173 232 274 337 415
#     4   9  20  37  69  88 122 174 224 271 323 399
#
# _framework density 24.250923
#
# number of rings (size 3 to 8) (size 9 to 14) (size 15 to 20)
#    0.750    1.000    3.750    0.750    1.750    0.000 
#    0.000    2.500    0.000    0.000    0.000    0.000 
#    0.000    0.000    0.000    0.000    0.000    0.000 
#
# Total GULP energy -89286.785645 kJ/mol
# GULP energy per Si atom -5580.424103 kJ/mol
# Density = 2.419573 g / cm^3
# Si number density = 24.250923 Si / 1000 Ang^3
#
#
#
# Elastic Constant Matrix: (Units=GPa)
#
#
# Indices 1 2 3 4 5 6 
#
# 1 110.2837 16.6770 19.1005 0.0000 3.9045 0.0000
# 2 16.6770 30.4865 36.6355 0.0000 -1.7928 0.0000
# 3 19.1005 36.6355 60.2038 0.0000 1.6526 0.0000
# 4 0.0000 0.0000 0.0000 29.1521 0.0000 3.1755
# 5 3.9045 -1.7928 1.6526 0.0000 51.2774 0.0000
# 6 0.0000 0.0000 0.0000 3.1755 0.0000 25.6824
#
#
#
# Elastic Compliance Matrix: (Units=1/GPa)
#
#
# Indices 1 2 3 4 5 6 
#
# 1 0.009942 -0.006477 0.000815 0.000000 -0.001010 0.000000
# 2 -0.006477 0.128598 -0.076404 0.000000 0.007452 0.000000
# 3 0.000815 -0.076404 0.062976 0.000000 -0.004763 0.000000
# 4 0.000000 0.000000 0.000000 0.034771 0.000000 -0.004299
# 5 -0.001010 0.007452 -0.004763 0.000000 0.019993 0.000000
# 6 0.000000 0.000000 0.000000 -0.004299 0.000000 0.039469
#
#
# Mechanical properties :
#
#
# Convention : Reuss Voigt Hill
#
# Bulk Modulus (GPa) = 26.75043 38.42222 32.58632
# Shear Modulus (GPa) = 10.58554 29.79312 20.18933
#
# Velocity S-wave (km/s) = 2.09153 3.50885 2.88847
# Velocity P-wave (km/s) = 4.10941 5.68278 4.95890
#
# Compressibility (1/GPa) = 0.03738258
#
# Stress axis : x y z
#
# Youngs Moduli (GPa) = 100.58771 7.77618 15.87898
#
# Poissons Ratio (x) = 0.05037 -0.01295
# Poissons Ratio (y) = 0.65154 1.21322
# Poissons Ratio (z) = -0.08200 0.59413
#
# Static dielectric constant tensor:
#      x y z
#    x 2.013410 0.000000 -0.043460 
#    y 0.000000 1.946200 0.000000 
#    z -0.043460 0.000000 1.940100 
# 
# From -- ./inp_files/10480.got.cif
#   From: 2010.05.17/outbox.cif.g08.bks.cpg/sg4_6_cif.got.tgz:10480.got - 2010.06.03 18:43:04.
