data_PCOD9118391
_publ_section_title
;
Structure prediction by ZEFSAII (Michael W. Deem and Ramdas Pophale) SiO2 
 PCOD9118391
Probable space group: P 21
;
_chemical_formula_sum "Si O2"
_cell_formula_units_Z 14
_cell_length_a 10.367644
_cell_length_b 6.226640
_cell_length_c 9.072251
_cell_angle_alpha 90.000000
_cell_angle_beta 109.594447
_cell_angle_gamma 90.000000
_cell_volume 551.748633
_symmetry_space_group_name_H-M "P 21"
_symmetry_group_IT_number 4
_symmetry_cell_setting 'monoclinic'
loop_
_space_group_symop_operation_xyz
x,y,z
-x,1/2+y,-z
loop_
_atom_site_type_symbol
_atom_site_label
_atom_site_fract_x
_atom_site_fract_y
_atom_site_fract_z
Si Si1 0.716599 0.655960 0.859056
Si Si2 0.931695 0.541866 0.725259
Si Si3 0.474070 0.435113 0.657301
Si Si4 0.311135 0.399861 0.851093
Si Si5 0.850682 0.572099 0.383751
Si Si6 0.707827 0.258541 0.541303
Si Si7 0.822145 0.282390 0.105467
O O1 0.820148 0.692846 0.764540
O O2 0.568013 0.638409 0.731799
O O3 0.700685 0.808602 0.990956
O O4 0.771751 0.431766 0.954292
O O5 0.951812 0.597943 0.559924
O O6 0.851534 0.310534 0.681901
O O7 0.065859 0.592689 0.872689
O O8 0.440867 0.332579 0.803030
O O9 0.577169 0.304699 0.594911
O O10 0.332353 0.526319 0.536861
O O11 0.190869 0.294058 0.707518
O O12 0.301549 0.654205 0.865681
O O13 0.727378 0.441687 0.421462
O O14 0.887632 0.433217 0.255500
#
# Coordination Sequence:
#
# PCOD9118391 Si02
#       7
#     2   2   2   2   2   2   2
#     4  10  26  43  60 100 133 177 216 269 333 410
#     4   9  22  43  65  92 132 168 223 272 325 390
#     4  11  21  42  67  96 137 167 225 278 335 398
#     4  11  23  39  67  93 128 179 216 269 341 385
#     4   9  21  42  62  99 124 161 231 269 321 387
#     4   9  20  40  66 100 128 170 219 284 330 386
#     4  11  23  43  65  92 136 172 220 273 329 398
#
# _framework density 25.373875999999999
#
# number of rings (size 3 to 8) (size 9 to 14) (size 15 to 20)
#    0.857    1.143    1.429    0.857    6.000    0.000 
#    5.143    1.429    0.000    0.000    0.000    0.000 
#    0.000    0.000    0.000    0.000    0.000    0.000 
#
# Total GULP energy -77957.127886 kJ/mol
# GULP energy per Si atom -5568.366278 kJ/mol
# Density = 2.531612 g / cm^3
# Si number density = 25.373876 Si / 1000 Ang^3
#
#
#
# Elastic Constant Matrix: (Units=GPa)
#
#
# Indices 1 2 3 4 5 6 
#
# 1 55.7733 8.6905 11.8313 0.0000 11.1774 0.0000
# 2 8.6905 44.8284 24.4801 0.0000 -2.9266 0.0000
# 3 11.8313 24.4801 94.5755 0.0000 -1.1484 0.0000
# 4 0.0000 0.0000 0.0000 46.0811 0.0000 1.9695
# 5 11.1774 -2.9266 -1.1484 0.0000 25.4994 0.0000
# 6 0.0000 0.0000 0.0000 1.9695 0.0000 20.6774
#
#
#
# Elastic Compliance Matrix: (Units=1/GPa)
#
#
# Indices 1 2 3 4 5 6 
#
# 1 0.020809 -0.003700 -0.001762 0.000000 -0.009625 0.000000
# 2 -0.003700 0.026822 -0.006426 0.000000 0.004411 0.000000
# 3 -0.001762 -0.006426 0.012465 0.000000 0.000596 0.000000
# 4 0.000000 0.000000 0.000000 0.021790 0.000000 -0.002075
# 5 -0.009625 0.004411 0.000596 0.000000 0.043969 0.000000
# 6 0.000000 0.000000 0.000000 -0.002075 0.000000 0.048560
#
#
# Mechanical properties :
#
#
# Convention : Reuss Voigt Hill
#
# Bulk Modulus (GPa) = 27.53429 31.68678 29.61053
# Shear Modulus (GPa) = 23.77589 28.46327 26.11958
#
# Velocity S-wave (km/s) = 3.06440 3.35289 3.21189
# Velocity P-wave (km/s) = 4.83691 5.24445 5.04480
#
# Compressibility (1/GPa) = 0.03631835
#
# Stress axis : x y z
#
# Youngs Moduli (GPa) = 48.05582 37.28313 80.22698
#
# Poissons Ratio (x) = 0.13795 0.14139
# Poissons Ratio (y) = 0.17781 0.51555
# Poissons Ratio (z) = 0.08469 0.23959
#
# Static dielectric constant tensor:
#      x y z
#    x 2.107980 0.000000 -0.011990 
#    y 0.000000 2.031740 0.000000 
#    z -0.011990 0.000000 1.991540 
# 
# From -- ./inp_files/7394.got.cif
#   From: 2010.05.17/outbox.cif.g08.bks.cpg/sg4_4_cif.got.tgz:7394.got - 2010.06.03 18:43:04.
