data_PCOD9118913
_publ_section_title
;
Structure prediction by ZEFSAII (Michael W. Deem and Ramdas Pophale) SiO2 
 PCOD9118913
Probable space group: P 21
;
_chemical_formula_sum "Si O2"
_cell_formula_units_Z 16
_cell_length_a 20.669247
_cell_length_b 5.793068
_cell_length_c 9.240736
_cell_angle_alpha 90.000000
_cell_angle_beta 139.093543
_cell_angle_gamma 90.000000
_cell_volume 724.545650
_symmetry_space_group_name_H-M "P 21"
_symmetry_group_IT_number 4
_symmetry_cell_setting 'monoclinic'
loop_
_space_group_symop_operation_xyz
x,y,z
-x,1/2+y,-z
loop_
_atom_site_type_symbol
_atom_site_label
_atom_site_fract_x
_atom_site_fract_y
_atom_site_fract_z
Si Si1 0.758942 0.227290 0.232851
Si Si2 0.892874 0.436383 0.225430
Si Si3 0.468569 0.918170 0.516252
Si Si4 0.214684 0.086959 0.481690
Si Si5 0.255714 0.837179 0.270172
Si Si6 0.882662 0.809370 0.427395
Si Si7 0.550796 0.172808 0.899266
Si Si8 0.629746 0.976727 0.332435
O O1 0.852064 0.314453 0.300449
O O2 0.758398 0.357211 0.383593
O O3 0.784420 0.961106 0.277965
O O4 0.649704 0.268325 0.989191
O O5 0.872900 0.694359 0.250928
O O6 0.008128 0.413667 0.390756
O O7 0.828616 0.315958 0.992803
O O8 0.496998 0.662837 0.501745
O O9 0.351489 0.935508 0.348974
O O10 0.518134 0.944343 0.759200
O O11 0.125185 0.177374 0.430328
O O12 0.302941 0.271531 0.618882
O O13 0.204423 0.006538 0.299992
O O14 0.302959 0.624653 0.442119
O O15 0.461685 0.351958 0.743711
O O16 0.581449 0.114694 0.115793
#
# Coordination Sequence:
#
# PCOD9118913 Si02
#       8
#     2   2   2   2   2   2   2   2
#     4  11  23  44  73 108 138 194 247 305 372 458
#     4  11  26  45  77 103 145 192 249 321 384 454
#     4  12  28  46  69 110 156 204 260 312 386 472
#     4  11  23  46  69 106 148 184 255 313 369 463
#     4  12  26  48  69 106 153 195 254 316 392 450
#     4  11  23  48  74 107 143 189 259 310 385 459
#     4  12  23  42  75  99 150 197 249 305 381 454
#     4  12  24  45  70 107 149 201 251 312 379 468
#
# _framework density 22.082803999999999
#
# number of rings (size 3 to 8) (size 9 to 14) (size 15 to 20)
#    0.000    0.500    5.000    3.000    1.750    2.000 
#    4.500    0.000    0.000    0.000    0.000    0.000 
#    0.000    0.000    0.000    0.000    0.000    0.000 
#
# Total GULP energy -89070.083510 kJ/mol
# GULP energy per Si atom -5566.880219 kJ/mol
# Density = 2.203254 g / cm^3
# Si number density = 22.082804 Si / 1000 Ang^3
#
#
#
# Elastic Constant Matrix: (Units=GPa)
#
#
# Indices 1 2 3 4 5 6 
#
# 1 144.8647 47.5445 32.6231 0.0000 10.6829 0.0000
# 2 47.5445 70.4300 25.5708 0.0000 -2.0864 0.0000
# 3 32.6231 25.5708 73.7959 0.0000 -2.6847 0.0000
# 4 0.0000 0.0000 0.0000 20.0514 0.0000 2.0800
# 5 10.6829 -2.0864 -2.6847 0.0000 36.9771 0.0000
# 6 0.0000 0.0000 0.0000 2.0800 0.0000 45.7217
#
#
#
# Elastic Compliance Matrix: (Units=1/GPa)
#
#
# Indices 1 2 3 4 5 6 
#
# 1 0.009539 -0.005675 -0.002368 0.000000 -0.003248 0.000000
# 2 -0.005675 0.019628 -0.004204 0.000000 0.002442 0.000000
# 3 -0.002368 -0.004204 0.016113 0.000000 0.001617 0.000000
# 4 0.000000 0.000000 0.000000 0.050108 0.000000 -0.002280
# 5 -0.003248 0.002442 0.001617 0.000000 0.028237 0.000000
# 6 0.000000 0.000000 0.000000 -0.002280 0.000000 0.021975
#
#
# Mechanical properties :
#
#
# Convention : Reuss Voigt Hill
#
# Bulk Modulus (GPa) = 48.11055 55.61860 51.86457
# Shear Modulus (GPa) = 28.24479 32.77352 30.50915
#
# Velocity S-wave (km/s) = 3.58025 3.85661 3.72099
# Velocity P-wave (km/s) = 6.23896 6.71359 6.48062
#
# Compressibility (1/GPa) = 0.02078546
#
# Stress axis : x y z
#
# Youngs Moduli (GPa) = 104.83807 50.94688 62.06079
#
# Poissons Ratio (x) = 0.28915 0.14698
# Poissons Ratio (y) = 0.59500 0.26088
# Poissons Ratio (z) = 0.24829 0.21416
#
# Static dielectric constant tensor:
#      x y z
#    x 1.832480 0.000000 -0.043080 
#    y 0.000000 2.179340 0.000000 
#    z -0.043080 0.000000 1.798850 
# 
# From -- ./inp_files/9808.got.cif
#   From: 2010.05.17/outbox.cif.g08.bks.cpg/sg4_5_cif.got.tgz:9808.got - 2010.06.03 18:43:04.
