data_PCOD9118086
_publ_section_title
;
Structure prediction by ZEFSAII (Michael W. Deem and Ramdas Pophale) SiO2 
 PCOD9118086
Probable space group: P 21
;
_chemical_formula_sum "Si O2"
_cell_formula_units_Z 16
_cell_length_a 6.418826
_cell_length_b 11.694093
_cell_length_c 9.125112
_cell_angle_alpha 90.000000
_cell_angle_beta 81.344475
_cell_angle_gamma 90.000000
_cell_volume 677.151414
_symmetry_space_group_name_H-M "P 21"
_symmetry_group_IT_number 4
_symmetry_cell_setting 'monoclinic'
loop_
_space_group_symop_operation_xyz
x,y,z
-x,1/2+y,-z
loop_
_atom_site_type_symbol
_atom_site_label
_atom_site_fract_x
_atom_site_fract_y
_atom_site_fract_z
Si Si1 0.759287 0.113220 0.833303
Si Si2 0.437979 0.932028 0.810099
Si Si3 0.215707 0.809015 0.574372
Si Si4 0.911031 0.692175 0.434872
Si Si5 0.392237 0.267551 0.987419
Si Si6 0.881648 0.055376 0.361694
Si Si7 0.094415 0.056363 0.027879
Si Si8 0.407969 0.346372 0.666249
O O1 0.916603 0.180610 0.711374
O O2 0.603746 0.193691 0.940711
O O3 0.602035 0.032731 0.757846
O O4 0.905212 0.045490 0.931906
O O5 0.288759 0.890953 0.695725
O O6 0.578928 0.832253 0.863966
O O7 0.283399 0.975260 0.955740
O O8 0.979314 0.794113 0.539041
O O9 0.359283 0.841914 0.421359
O O10 0.754655 0.176606 0.374947
O O11 0.948887 0.577890 0.525853
O O12 0.697480 0.728620 0.381939
O O13 0.385195 0.346504 0.843622
O O14 0.191888 0.184108 0.008682
O O15 0.010388 0.037801 0.198819
O O16 0.718711 0.952459 0.386801
#
# Coordination Sequence:
#
# PCOD9118086 Si02
#       8
#     2   2   2   2   2   2   2   2
#     4  11  22  45  66 100 136 179 236 274 351 409
#     4  11  26  41  73 101 133 188 224 289 349 401
#     4  10  25  46  64 100 139 171 234 284 330 412
#     4  10  24  45  66  98 134 180 227 282 334 407
#     4  11  24  42  69 100 139 181 225 286 348 406
#     4  10  25  44  66 104 133 182 233 279 342 411
#     4  11  25  45  69 101 145 176 230 289 339 421
#     4  12  23  46  71  96 139 187 223 287 345 399
#
# _framework density 23.628392999999999
#
# number of rings (size 3 to 8) (size 9 to 14) (size 15 to 20)
#    0.750    0.500    2.500    2.250    3.500    6.000 
#    2.250    0.000    0.000    0.000    0.000    0.000 
#    0.000    0.000    0.000    0.000    0.000    0.000 
#
# Total GULP energy -89422.633662 kJ/mol
# GULP energy per Si atom -5588.914604 kJ/mol
# Density = 2.357461 g / cm^3
# Si number density = 23.628393 Si / 1000 Ang^3
#
#
#
# Elastic Constant Matrix: (Units=GPa)
#
#
# Indices 1 2 3 4 5 6 
#
# 1 54.4526 13.6212 14.8056 0.0000 11.4526 0.0000
# 2 13.6212 38.1350 -15.0899 0.0000 -3.8434 0.0000
# 3 14.8056 -15.0899 56.8247 0.0000 1.6707 0.0000
# 4 0.0000 0.0000 0.0000 30.5210 0.0000 9.0988
# 5 11.4526 -3.8434 1.6707 0.0000 35.2471 0.0000
# 6 0.0000 0.0000 0.0000 9.0988 0.0000 30.9771
#
#
#
# Elastic Compliance Matrix: (Units=1/GPa)
#
#
# Indices 1 2 3 4 5 6 
#
# 1 0.027106 -0.014930 -0.010735 0.000000 -0.009927 0.000000
# 2 -0.014930 0.037810 0.013686 0.000000 0.008325 0.000000
# 3 -0.010735 0.013686 0.023916 0.000000 0.003847 0.000000
# 4 0.000000 0.000000 0.000000 0.035909 0.000000 -0.010547
# 5 -0.009927 0.008325 0.003847 0.000000 0.032322 0.000000
# 6 0.000000 0.000000 0.000000 -0.010547 0.000000 0.035380
#
#
# Mechanical properties :
#
#
# Convention : Reuss Voigt Hill
#
# Bulk Modulus (GPa) = 15.41482 19.56512 17.48997
# Shear Modulus (GPa) = 21.00609 28.42075 24.71342
#
# Velocity S-wave (km/s) = 2.98488 3.47193 3.23758
# Velocity P-wave (km/s) = 4.29154 4.93667 4.62537
#
# Compressibility (1/GPa) = 0.06487263
#
# Stress axis : x y z
#
# Youngs Moduli (GPa) = 36.89220 26.44809 41.81267
#
# Poissons Ratio (x) = 0.39487 0.44887
# Poissons Ratio (y) = 0.55081 -0.57224
# Poissons Ratio (z) = 0.39605 -0.36196
#
# Static dielectric constant tensor:
#      x y z
#    x 1.856840 0.000000 0.043980 
#    y 0.000000 1.914150 0.000000 
#    z 0.043980 0.000000 1.873470 
# 
# From -- ./inp_files/4740.got.cif
#   From: 2010.05.17/outbox.cif.g08.bks.cpg/sg4_3_cif.got.tgz:4740.got - 2010.06.03 18:43:04.
