data_PCOD9118421
_publ_section_title
;
Structure prediction by ZEFSAII (Michael W. Deem and Ramdas Pophale) SiO2 
 PCOD9118421
Probable space group: P 21
;
_chemical_formula_sum "Si O2"
_cell_formula_units_Z 14
_cell_length_a 14.451281
_cell_length_b 7.533816
_cell_length_c 14.389011
_cell_angle_alpha 90.000000
_cell_angle_beta 19.396038
_cell_angle_gamma 90.000000
_cell_volume 520.254473
_symmetry_space_group_name_H-M "P 21"
_symmetry_group_IT_number 4
_symmetry_cell_setting 'monoclinic'
loop_
_space_group_symop_operation_xyz
x,y,z
-x,1/2+y,-z
loop_
_atom_site_type_symbol
_atom_site_label
_atom_site_fract_x
_atom_site_fract_y
_atom_site_fract_z
Si Si1 0.057558 0.536070 0.428242
Si Si2 0.368041 0.190592 0.052190
Si Si3 0.774515 0.399653 0.165047
Si Si4 0.466971 0.523366 0.634311
Si Si5 0.782800 0.001316 0.394645
Si Si6 0.177392 0.317577 0.044434
Si Si7 0.122919 0.149565 0.596482
O O1 0.209859 0.357823 0.248955
O O2 0.835578 0.531380 0.722271
O O3 0.877582 0.611082 0.511960
O O4 0.320296 0.657004 0.209021
O O5 0.367572 0.225562 0.942477
O O6 0.690122 0.479141 0.343835
O O7 0.545138 0.478347 0.309739
O O8 0.716695 0.190293 0.222156
O O9 0.073078 0.438394 0.838527
O O10 0.624897 0.584903 0.578019
O O11 0.294245 0.352499 0.831051
O O12 0.893455 0.856569 0.363571
O O13 0.902605 0.195221 0.301175
O O14 0.111964 0.515006 0.144085
#
# Coordination Sequence:
#
# PCOD9118421 Si02
#       7
#     2   2   2   2   2   2   2
#     4  11  26  47  72 107 144 187 240 297 360 430
#     4  11  27  45  74 107 143 190 237 298 363 430
#     4  11  26  45  72 106 142 193 239 297 357 426
#     4  11  25  46  73 104 149 187 245 297 359 428
#     4  11  26  45  70 107 141 190 239 292 361 424
#     4  11  26  45  74 103 146 187 241 297 360 428
#     4  10  26  47  71 102 149 186 239 298 358 424
#
# _framework density 26.909904999999998
#
# number of rings (size 3 to 8) (size 9 to 14) (size 15 to 20)
#    0.000    1.143    1.429    1.714   18.000    0.000 
#    0.000    0.000    0.000    0.000    0.000    0.000 
#    0.000    0.000    0.000    0.000    0.000    0.000 
#
# Total GULP energy -78515.351166 kJ/mol
# GULP energy per Si atom -5608.239369 kJ/mol
# Density = 2.684866 g / cm^3
# Si number density = 26.909905 Si / 1000 Ang^3
#
#
#
# Elastic Constant Matrix: (Units=GPa)
#
#
# Indices 1 2 3 4 5 6 
#
# 1 121.5754 33.9660 14.0447 0.0000 -5.1832 0.0000
# 2 33.9660 93.7198 1.3010 0.0000 -3.8285 0.0000
# 3 14.0447 1.3010 77.0946 0.0000 1.8604 0.0000
# 4 0.0000 0.0000 0.0000 40.7957 0.0000 0.8007
# 5 -5.1832 -3.8285 1.8604 0.0000 37.5324 0.0000
# 6 0.0000 0.0000 0.0000 0.8007 0.0000 52.2328
#
#
#
# Elastic Compliance Matrix: (Units=1/GPa)
#
#
# Indices 1 2 3 4 5 6 
#
# 1 0.009397 -0.003340 -0.001681 0.000000 0.001040 0.000000
# 2 -0.003340 0.011905 0.000390 0.000000 0.000734 0.000000
# 3 -0.001681 0.000390 0.013291 0.000000 -0.000851 0.000000
# 4 0.000000 0.000000 0.000000 0.024520 0.000000 -0.000376
# 5 0.001040 0.000734 -0.000851 0.000000 0.026904 0.000000
# 6 0.000000 0.000000 0.000000 -0.000376 0.000000 0.019151
#
#
# Mechanical properties :
#
#
# Convention : Reuss Voigt Hill
#
# Bulk Modulus (GPa) = 39.47581 43.44593 41.46087
# Shear Modulus (GPa) = 40.69226 42.31737 41.50481
#
# Velocity S-wave (km/s) = 3.89288 3.96985 3.93155
# Velocity P-wave (km/s) = 5.90825 6.09860 6.00418
#
# Compressibility (1/GPa) = 0.02533197
#
# Stress axis : x y z
#
# Youngs Moduli (GPa) = 106.41761 83.99767 75.23770
#
# Poissons Ratio (x) = 0.28054 0.12645
# Poissons Ratio (y) = 0.35542 -0.02933
# Poissons Ratio (z) = 0.17885 -0.03274
#
# Static dielectric constant tensor:
#      x y z
#    x 2.104610 0.000000 0.000130 
#    y 0.000000 2.160740 0.000000 
#    z 0.000130 0.000000 2.050440 
# 
# From -- ./inp_files/13239.got.cif
#   From: 2010.05.17/outbox.cif.g08.bks.cpg/sg4_7_cif.got.tgz:13239.got - 2010.06.03 18:43:04.
