data_PCOD9118839
_publ_section_title
;
Structure prediction by ZEFSAII (Michael W. Deem and Ramdas Pophale) SiO2 
 PCOD9118839
Probable space group: P 21
;
_chemical_formula_sum "Si O2"
_cell_formula_units_Z 16
_cell_length_a 9.041235
_cell_length_b 9.178421
_cell_length_c 9.062338
_cell_angle_alpha 90.000000
_cell_angle_beta 116.605417
_cell_angle_gamma 90.000000
_cell_volume 672.400245
_symmetry_space_group_name_H-M "P 21"
_symmetry_group_IT_number 4
_symmetry_cell_setting 'monoclinic'
loop_
_space_group_symop_operation_xyz
x,y,z
-x,1/2+y,-z
loop_
_atom_site_type_symbol
_atom_site_label
_atom_site_fract_x
_atom_site_fract_y
_atom_site_fract_z
Si Si1 0.391381 0.976040 0.806560
Si Si2 0.941687 0.864040 0.554961
Si Si3 0.919855 0.874822 0.016568
Si Si4 0.938178 0.554462 0.164402
Si Si5 0.586381 0.761237 0.734054
Si Si6 0.419054 0.236617 0.611335
Si Si7 0.890024 0.066027 0.287488
Si Si8 0.484139 0.489258 0.827052
O O1 0.217499 0.026086 0.796995
O O2 0.420371 0.846129 0.705761
O O3 0.462364 0.109544 0.743779
O O4 0.490750 0.929634 0.997710
O O5 0.771807 0.780374 0.446473
O O6 0.996519 0.951661 0.433676
O O7 0.917365 0.993651 0.663106
O O8 0.054448 0.732599 0.667321
O O9 0.955079 0.719306 0.112620
O O10 0.896653 0.002366 0.126336
O O11 0.751335 0.851895 0.846210
O O12 0.057993 0.938453 0.967911
O O13 0.570627 0.711777 0.558107
O O14 0.600257 0.625097 0.849423
O O15 0.517802 0.375559 0.713314
O O16 0.703627 0.045394 0.261219
#
# Coordination Sequence:
#
# PCOD9118839 Si02
#       8
#     2   2   2   2   2   2   2   2
#     4  12  24  46  76 102 143 188 239 293 365 435
#     4  11  23  42  70 100 147 184 243 293 366 419
#     4  12  25  45  72 103 148 186 245 297 361 428
#     4  12  25  47  69 108 143 193 240 302 359 433
#     4  12  24  46  69 105 143 188 237 300 358 433
#     4  11  25  45  69 102 143 184 236 301 356 433
#     4  11  23  43  70 107 140 196 237 303 354 438
#     4  11  23  42  71 103 139 187 243 291 363 423
#
# _framework density 23.795349999999999
#
# number of rings (size 3 to 8) (size 9 to 14) (size 15 to 20)
#    0.000    0.500    3.750    6.000    0.000    0.000 
#    2.250    1.250    0.000    0.000    0.000    0.000 
#    0.000    0.000    0.000    0.000    0.000    0.000 
#
# Total GULP energy -89359.217642 kJ/mol
# GULP energy per Si atom -5584.951103 kJ/mol
# Density = 2.374119 g / cm^3
# Si number density = 23.795350 Si / 1000 Ang^3
#
#
#
# Elastic Constant Matrix: (Units=GPa)
#
#
# Indices 1 2 3 4 5 6 
#
# 1 53.7095 28.5884 13.6650 0.0000 -22.9333 0.0000
# 2 28.5884 90.7422 17.0333 0.0000 -17.8074 0.0000
# 3 13.6650 17.0333 94.3884 0.0000 -20.4240 0.0000
# 4 0.0000 0.0000 0.0000 50.5953 0.0000 -4.6019
# 5 -22.9333 -17.8074 -20.4240 0.0000 36.2802 0.0000
# 6 0.0000 0.0000 0.0000 -4.6019 0.0000 30.4123
#
#
#
# Elastic Compliance Matrix: (Units=1/GPa)
#
#
# Indices 1 2 3 4 5 6 
#
# 1 0.028135 -0.005968 0.000248 0.000000 0.014995 0.000000
# 2 -0.005968 0.013550 -0.001091 0.000000 0.002264 0.000000
# 3 0.000248 -0.001091 0.012154 0.000000 0.006464 0.000000
# 4 0.000000 0.000000 0.000000 0.020041 0.000000 0.003032
# 5 0.014995 0.002264 0.006464 0.000000 0.041792 0.000000
# 6 0.000000 0.000000 0.000000 0.003032 0.000000 0.033340
#
#
# Mechanical properties :
#
#
# Convention : Reuss Voigt Hill
#
# Bulk Modulus (GPa) = 24.86513 39.71258 32.28886
# Shear Modulus (GPa) = 28.40297 35.42777 31.91537
#
# Velocity S-wave (km/s) = 3.45865 3.86275 3.66627
# Velocity P-wave (km/s) = 5.14023 6.05144 5.61435
#
# Compressibility (1/GPa) = 0.04021696
#
# Stress axis : x y z
#
# Youngs Moduli (GPa) = 35.54324 73.80343 82.27683
#
# Poissons Ratio (x) = 0.44045 -0.02044
# Poissons Ratio (y) = 0.21212 0.08979
# Poissons Ratio (z) = -0.00883 0.08054
#
# Static dielectric constant tensor:
#      x y z
#    x 1.930420 0.000000 0.061250 
#    y 0.000000 1.924910 0.000000 
#    z 0.061250 0.000000 1.935930 
# 
# From -- ./inp_files/5493.got.cif
#   From: 2010.05.17/outbox.cif.g08.bks.cpg/sg4_3_cif.got.tgz:5493.got - 2010.06.03 18:43:04.
