data_PCOD9118483
_publ_section_title
;
Structure prediction by ZEFSAII (Michael W. Deem and Ramdas Pophale) SiO2 
 PCOD9118483
Probable space group: P 21
;
_chemical_formula_sum "Si O2"
_cell_formula_units_Z 16
_cell_length_a 13.183212
_cell_length_b 7.646034
_cell_length_c 15.616769
_cell_angle_alpha 90.000000
_cell_angle_beta 154.432746
_cell_angle_gamma 90.000000
_cell_volume 679.360285
_symmetry_space_group_name_H-M "P 21"
_symmetry_group_IT_number 4
_symmetry_cell_setting 'monoclinic'
loop_
_space_group_symop_operation_xyz
x,y,z
-x,1/2+y,-z
loop_
_atom_site_type_symbol
_atom_site_label
_atom_site_fract_x
_atom_site_fract_y
_atom_site_fract_z
Si Si1 0.605287 0.119280 0.070828
Si Si2 0.640857 0.536284 0.278341
Si Si3 0.001213 0.819159 0.007360
Si Si4 0.629600 0.569799 0.729292
Si Si5 0.093199 0.396460 0.567165
Si Si6 0.146158 0.987555 0.780895
Si Si7 0.810297 0.929215 0.677253
Si Si8 0.475216 0.713128 0.316091
O O1 0.724432 0.301988 0.137796
O O2 0.759019 0.009164 0.253657
O O3 0.560472 0.023930 0.945894
O O4 0.347206 0.129348 0.917448
O O5 0.780825 0.715578 0.359750
O O6 0.547636 0.574550 0.301347
O O7 0.832728 0.385896 0.411026
O O8 0.770563 0.733540 0.873665
O O9 0.905822 0.879955 0.842143
O O10 0.164189 0.973615 0.169455
O O11 0.218616 0.680995 0.159666
O O12 0.395950 0.576074 0.493495
O O13 0.564867 0.415811 0.748189
O O14 0.047333 0.491352 0.441408
O O15 0.020984 0.985082 0.775982
O O16 0.680718 0.755896 0.539779
#
# Coordination Sequence:
#
# PCOD9118483 Si02
#       8
#     2   2   2   2   2   2   2   2
#     4  11  22  31  57  81 112 150 195 230 277 328
#     4  11  20  36  56  83 109 153 190 230 276 331
#     4   9  18  35  59  84 111 137 185 231 279 344
#     4   8  20  33  58  87 105 144 181 229 287 331
#     4  11  20  34  56  77 117 144 194 237 268 331
#     4  11  21  36  55  85 110 155 192 231 276 326
#     4   9  18  33  61  81 107 147 185 222 275 346
#     4   8  19  34  58  82 105 146 186 220 276 339
#
# _framework density 23.551566999999999
#
# number of rings (size 3 to 8) (size 9 to 14) (size 15 to 20)
#    1.500    0.500    3.750    0.750    0.000    2.000 
#    0.000    0.000    8.250    7.500    0.000    0.000 
#    0.000    0.000    0.000    0.000    0.000    0.000 
#
# Total GULP energy -89079.957992 kJ/mol
# GULP energy per Si atom -5567.497375 kJ/mol
# Density = 2.349796 g / cm^3
# Si number density = 23.551567 Si / 1000 Ang^3
#
#
#
# Elastic Constant Matrix: (Units=GPa)
#
#
# Indices 1 2 3 4 5 6 
#
# 1 49.4145 16.8794 24.8797 0.0000 0.0079 0.0000
# 2 16.8794 61.4979 22.8942 0.0000 7.1929 0.0000
# 3 24.8797 22.8942 119.7393 0.0000 -10.4993 0.0000
# 4 0.0000 0.0000 0.0000 48.6377 0.0000 11.6255
# 5 0.0079 7.1929 -10.4993 0.0000 32.8028 0.0000
# 6 0.0000 0.0000 0.0000 11.6255 0.0000 34.7321
#
#
#
# Elastic Compliance Matrix: (Units=1/GPa)
#
#
# Indices 1 2 3 4 5 6 
#
# 1 0.023998 -0.005063 -0.004035 0.000000 -0.000187 0.000000
# 2 -0.005063 0.019428 -0.003124 0.000000 -0.005259 0.000000
# 3 -0.004035 -0.003124 0.010132 0.000000 0.003929 0.000000
# 4 0.000000 0.000000 0.000000 0.022348 0.000000 -0.007480
# 5 -0.000187 -0.005259 0.003929 0.000000 0.032896 0.000000
# 6 0.000000 0.000000 0.000000 -0.007480 0.000000 0.031296
#
#
# Mechanical properties :
#
#
# Convention : Reuss Voigt Hill
#
# Bulk Modulus (GPa) = 34.34657 39.99537 37.17097
# Shear Modulus (GPa) = 28.69519 34.30108 31.49814
#
# Velocity S-wave (km/s) = 3.49434 3.82045 3.66103
# Velocity P-wave (km/s) = 5.55840 6.03987 5.80413
#
# Compressibility (1/GPa) = 0.02911499
#
# Stress axis : x y z
#
# Youngs Moduli (GPa) = 41.67043 51.47122 98.70115
#
# Poissons Ratio (x) = 0.26059 0.39823
# Poissons Ratio (y) = 0.21097 0.30833
# Poissons Ratio (z) = 0.16813 0.16079
#
# Static dielectric constant tensor:
#      x y z
#    x 1.878620 0.000000 0.023730 
#    y 0.000000 2.026000 0.000000 
#    z 0.023730 0.000000 1.945440 
# 
# From -- ./inp_files/15249.got.cif
#   From: 2010.05.17/outbox.cif.g08.bks.cpg/sg4_8_cif.got.tgz:15249.got - 2010.06.03 18:43:04.
