data_PCOD9118064
_publ_section_title
;
Structure prediction by ZEFSAII (Michael W. Deem and Ramdas Pophale) SiO2 
 PCOD9118064
Probable space group: P 21
;
_chemical_formula_sum "Si O2"
_cell_formula_units_Z 14
_cell_length_a 10.370125
_cell_length_b 7.336058
_cell_length_c 17.398879
_cell_angle_alpha 90.000000
_cell_angle_beta 24.564494
_cell_angle_gamma 90.000000
_cell_volume 550.257630
_symmetry_space_group_name_H-M "P 21"
_symmetry_group_IT_number 4
_symmetry_cell_setting 'monoclinic'
loop_
_space_group_symop_operation_xyz
x,y,z
-x,1/2+y,-z
loop_
_atom_site_type_symbol
_atom_site_label
_atom_site_fract_x
_atom_site_fract_y
_atom_site_fract_z
Si Si1 0.218673 0.515460 0.089234
Si Si2 0.304173 0.216731 0.409461
Si Si3 0.679582 0.450034 0.474167
Si Si4 0.443634 0.022578 0.626072
Si Si5 0.697114 0.358205 0.054183
Si Si6 0.418230 0.746160 0.192887
Si Si7 0.371878 0.315711 0.756916
O O1 0.296687 0.718066 0.020816
O O2 0.501117 0.381502 0.920387
O O3 0.037948 0.491791 0.268025
O O4 0.919494 0.462376 0.198740
O O5 0.416736 0.019784 0.386087
O O6 0.355116 0.348208 0.454165
O O7 0.478396 0.267348 0.237795
O O8 0.939786 0.212352 0.592811
O O9 0.478455 0.517111 0.513669
O O10 0.580566 0.248011 0.555242
O O11 0.355347 0.092769 0.766047
O O12 0.580417 0.554321 0.092007
O O13 0.043256 0.372023 0.899840
O O14 0.554540 0.846605 0.193933
#
# Coordination Sequence:
#
# PCOD9118064 Si02
#       7
#     2   2   2   2   2   2   2
#     4   9  24  48  69 103 143 182 252 290 363 438
#     4  12  25  45  69 107 149 182 247 298 370 432
#     4  10  24  44  71 102 139 193 234 300 363 433
#     4   9  21  43  69 101 136 186 241 295 349 434
#     4  11  26  45  73 105 144 191 250 298 351 443
#     4  12  27  45  72 110 142 196 234 311 372 418
#     4  11  23  42  71 104 139 188 244 294 356 430
#
# _framework density 25.442627999999999
#
# number of rings (size 3 to 8) (size 9 to 14) (size 15 to 20)
#    0.857    0.571    1.429    2.571   10.000    0.000 
#    2.571    0.000    0.000    0.000    0.000    0.000 
#    0.000    0.000    0.000    0.000    0.000    0.000 
#
# Total GULP energy -78000.812327 kJ/mol
# GULP energy per Si atom -5571.486595 kJ/mol
# Density = 2.538472 g / cm^3
# Si number density = 25.442628 Si / 1000 Ang^3
#
#
#
# Elastic Constant Matrix: (Units=GPa)
#
#
# Indices 1 2 3 4 5 6 
#
# 1 67.5119 24.6896 25.0699 0.0000 12.2177 0.0000
# 2 24.6896 144.0027 60.0769 0.0000 -3.1884 0.0000
# 3 25.0699 60.0769 149.7335 0.0000 21.3811 0.0000
# 4 0.0000 0.0000 0.0000 41.6166 0.0000 12.4732
# 5 12.2177 -3.1884 21.3811 0.0000 29.2184 0.0000
# 6 0.0000 0.0000 0.0000 12.4732 0.0000 2.2405
#
#
#
# Elastic Compliance Matrix: (Units=1/GPa)
#
#
# Indices 1 2 3 4 5 6 
#
# 1 0.017400 -0.002811 -0.000785 0.000000 -0.007008 0.000000
# 2 -0.002811 0.009180 -0.003934 0.000000 0.005056 0.000000
# 3 -0.000785 -0.003934 0.009383 0.000000 -0.006968 0.000000
# 4 0.000000 0.000000 0.000000 -0.035940 0.000000 0.200083
# 5 -0.007008 0.005056 -0.006968 0.000000 0.042806 0.000000
# 6 0.000000 0.000000 0.000000 0.200083 0.000000 -0.667572
#
#
# Mechanical properties :
#
#
# Convention : Reuss Voigt Hill
#
# Bulk Modulus (GPa) = 47.84077 64.54678 56.19377
# Shear Modulus (GPa) = -8.29580 31.37587 11.54004
#
# Velocity S-wave (km/s) = -1.80767 3.51551 2.13203
# Velocity P-wave (km/s) = 3.80622 6.47325 5.30991
#
# Compressibility (1/GPa) = 0.02090267
#
# Stress axis : x y z
#
# Youngs Moduli (GPa) = 57.47154 108.93642 106.57037
#
# Poissons Ratio (x) = 0.30623 0.08362
# Poissons Ratio (y) = 0.16156 0.41930
# Poissons Ratio (z) = 0.04509 0.42861
#
# Static dielectric constant tensor:
#      x y z
#    x 2.165460 0.000000 0.199180 
#    y 0.000000 2.125330 0.000000 
#    z 0.199180 0.000000 2.106550 
# 
# From -- ./inp_files/15700.got.cif
#   From: 2010.05.17/outbox.cif.g08.bks.cpg/sg4_8_cif.got.tgz:15700.got - 2010.06.03 18:43:04.
