data_PCOD9118710
_publ_section_title
;
Structure prediction by ZEFSAII (Michael W. Deem and Ramdas Pophale) SiO2 
 PCOD9118710
Probable space group: P 21
;
_chemical_formula_sum "Si O2"
_cell_formula_units_Z 14
_cell_length_a 6.467540
_cell_length_b 5.624791
_cell_length_c 21.009966
_cell_angle_alpha 90.000000
_cell_angle_beta 47.172965
_cell_angle_gamma 90.000000
_cell_volume 560.553682
_symmetry_space_group_name_H-M "P 21"
_symmetry_group_IT_number 4
_symmetry_cell_setting 'monoclinic'
loop_
_space_group_symop_operation_xyz
x,y,z
-x,1/2+y,-z
loop_
_atom_site_type_symbol
_atom_site_label
_atom_site_fract_x
_atom_site_fract_y
_atom_site_fract_z
Si Si1 0.741045 0.508400 0.118295
Si Si2 0.781705 0.012759 0.585285
Si Si3 0.608410 0.676538 0.731751
Si Si4 0.896150 0.836425 0.343613
Si Si5 0.358056 0.159920 0.477989
Si Si6 0.637647 0.757508 0.003403
Si Si7 0.702017 0.801911 0.254710
O O1 0.492035 0.325144 0.187415
O O2 0.645179 0.649200 0.074645
O O3 0.757835 0.679009 0.176428
O O4 0.039128 0.364407 0.060994
O O5 0.766949 0.827800 0.645946
O O6 0.622141 0.918223 0.556595
O O7 0.595882 0.222489 0.652551
O O8 0.097865 0.042471 0.495362
O O9 0.330090 0.578661 0.754049
O O10 0.808574 0.463827 0.709389
O O11 0.796837 0.668410 0.421544
O O12 0.903296 0.739298 0.270655
O O13 0.647586 0.031863 0.404491
O O14 0.542066 0.506898 0.982172
#
# Coordination Sequence:
#
# PCOD9118710 Si02
#       7
#     2   2   2   2   2   2   2
#     4  11  30  56  86 121 176 208 272 345 424 524
#     4  11  22  44  64  97 146 208 258 341 418 456
#     4  11  25  48  72 108 157 207 258 339 414 497
#     4  12  24  42  70 108 144 212 280 324 410 484
#     4  12  22  40  68 100 150 202 280 344 386 484
#     4  12  30  58  94 138 172 226 282 348 438 536
#     4  11  25  48  72 108 157 207 258 339 414 497
#
# _framework density 24.975307000000001
#
# number of rings (size 3 to 8) (size 9 to 14) (size 15 to 20)
#    0.000    0.571    2.857    4.286    6.000    2.286 
#    0.000    0.000    0.000    0.000    0.000    0.000 
#    0.000    0.000    0.000    0.000    0.000    0.000 
#
# Total GULP energy -77974.520725 kJ/mol
# GULP energy per Si atom -5569.608623 kJ/mol
# Density = 2.491846 g / cm^3
# Si number density = 24.975307 Si / 1000 Ang^3
#
#
#
# Elastic Constant Matrix: (Units=GPa)
#
#
# Indices 1 2 3 4 5 6 
#
# 1 114.9632 57.3163 60.6693 0.0000 19.2231 0.0000
# 2 57.3163 94.2218 55.3661 0.0000 16.6258 0.0000
# 3 60.6693 55.3661 125.0884 0.0000 25.6956 0.0000
# 4 0.0000 0.0000 0.0000 52.5068 0.0000 -0.7380
# 5 19.2231 16.6258 25.6956 0.0000 43.1710 0.0000
# 6 0.0000 0.0000 0.0000 -0.7380 0.0000 61.8431
#
#
#
# Elastic Compliance Matrix: (Units=1/GPa)
#
#
# Indices 1 2 3 4 5 6 
#
# 1 0.013948 -0.005970 -0.003781 0.000000 -0.001661 0.000000
# 2 -0.005970 0.017050 -0.004385 0.000000 -0.001298 0.000000
# 3 -0.003781 -0.004385 0.012619 0.000000 -0.004139 0.000000
# 4 0.000000 0.000000 0.000000 0.019048 0.000000 0.000227
# 5 -0.001661 -0.001298 -0.004139 0.000000 0.026867 0.000000
# 6 0.000000 0.000000 0.000000 0.000227 0.000000 0.016173
#
#
# Mechanical properties :
#
#
# Convention : Reuss Voigt Hill
#
# Bulk Modulus (GPa) = 65.16355 75.66410 70.41383
# Shear Modulus (GPa) = 35.94743 42.23230 39.08986
#
# Velocity S-wave (km/s) = 3.79795 4.11659 3.96048
# Velocity P-wave (km/s) = 6.73650 7.27712 7.01202
#
# Compressibility (1/GPa) = 0.01534600
#
# Stress axis : x y z
#
# Youngs Moduli (GPa) = 71.69496 58.65023 79.24373
#
# Poissons Ratio (x) = 0.35012 0.29966
# Poissons Ratio (y) = 0.42799 0.34746
# Poissons Ratio (z) = 0.27111 0.25716
#
# Static dielectric constant tensor:
#      x y z
#    x 2.112810 0.000000 0.029170 
#    y 0.000000 2.198570 0.000000 
#    z 0.029170 0.000000 1.945790 
# 
# From -- ./inp_files/13180.got.cif
#   From: 2010.05.17/outbox.cif.g08.bks.cpg/sg4_7_cif.got.tgz:13180.got - 2010.06.03 18:43:04.
