data_PCOD9118576
_publ_section_title
;
Structure prediction by ZEFSAII (Michael W. Deem and Ramdas Pophale) SiO2 
 PCOD9118576
Probable space group: P 21
;
_chemical_formula_sum "Si O2"
_cell_formula_units_Z 16
_cell_length_a 12.138800
_cell_length_b 5.668560
_cell_length_c 17.977070
_cell_angle_alpha 90.000000
_cell_angle_beta 149.014967
_cell_angle_gamma 90.000000
_cell_volume 636.821745
_symmetry_space_group_name_H-M "P 21"
_symmetry_group_IT_number 4
_symmetry_cell_setting 'monoclinic'
loop_
_space_group_symop_operation_xyz
x,y,z
-x,1/2+y,-z
loop_
_atom_site_type_symbol
_atom_site_label
_atom_site_fract_x
_atom_site_fract_y
_atom_site_fract_z
Si Si1 0.776760 0.823880 0.813567
Si Si2 0.540731 0.721745 0.368119
Si Si3 0.522305 0.233969 0.845826
Si Si4 0.034111 0.247756 0.561829
Si Si5 0.202383 0.926132 0.271511
Si Si6 0.839434 0.601317 0.992341
Si Si7 0.901967 0.449690 0.628577
Si Si8 0.392689 0.479224 0.964713
O O1 0.861796 0.687055 0.790384
O O2 0.698194 0.720081 0.846624
O O3 0.591007 0.994177 0.680500
O O4 0.998360 0.949815 0.966070
O O5 0.491509 0.723088 0.251927
O O6 0.416915 0.912516 0.345392
O O7 0.787579 0.682790 0.529131
O O8 0.279755 0.287943 0.726849
O O9 0.690590 0.442233 0.957361
O O10 0.590159 0.012274 0.935375
O O11 0.980214 0.486786 0.483132
O O12 0.896253 0.266112 0.557271
O O13 0.227143 0.885765 0.372183
O O14 0.010336 0.758739 0.134155
O O15 0.145415 0.484460 0.796170
O O16 0.498533 0.226378 0.002703
#
# Coordination Sequence:
#
# PCOD9118576 Si02
#       8
#     2   2   2   2   2   2   2   2
#     4  11  21  42  69 107 157 199 262 308 399 472
#     4  11  27  48  74 114 156 210 263 317 402 491
#     4  12  26  49  83 113 153 212 271 333 398 484
#     4  12  30  56  82 117 157 215 276 333 402 483
#     4  11  26  47  71 115 160 204 258 325 404 483
#     4  11  22  40  71 111 150 203 255 329 381 476
#     4  12  29  51  79 117 160 214 257 345 403 479
#     4  12  31  55  83 124 163 209 274 344 411 470
#
# _framework density 25.124770000000002
#
# number of rings (size 3 to 8) (size 9 to 14) (size 15 to 20)
#    0.000    0.500    5.000    1.500    8.750    0.000 
#    6.750    0.000    0.000    0.000    0.000    0.000 
#    0.000    0.000    0.000    0.000    0.000    0.000 
#
# Total GULP energy -89341.689320 kJ/mol
# GULP energy per Si atom -5583.855583 kJ/mol
# Density = 2.506758 g / cm^3
# Si number density = 25.124770 Si / 1000 Ang^3
#
#
#
# Elastic Constant Matrix: (Units=GPa)
#
#
# Indices 1 2 3 4 5 6 
#
# 1 111.9053 16.7024 16.4386 0.0000 -31.3210 0.0000
# 2 16.7024 52.8161 -14.5075 0.0000 -9.2226 0.0000
# 3 16.4386 -14.5075 80.3291 0.0000 0.5571 0.0000
# 4 0.0000 0.0000 0.0000 20.7003 0.0000 6.8599
# 5 -31.3210 -9.2226 0.5571 0.0000 43.0590 0.0000
# 6 0.0000 0.0000 0.0000 6.8599 0.0000 36.0246
#
#
#
# Elastic Compliance Matrix: (Units=1/GPa)
#
#
# Indices 1 2 3 4 5 6 
#
# 1 0.012183 -0.003284 -0.003143 0.000000 0.008199 0.000000
# 2 -0.003284 0.021605 0.004559 0.000000 0.002180 0.000000
# 3 -0.003143 0.004559 0.013926 0.000000 -0.001490 0.000000
# 4 0.000000 0.000000 0.000000 0.051562 0.000000 -0.009819
# 5 0.008199 0.002180 -0.001490 0.000000 0.029674 0.000000
# 6 0.000000 0.000000 0.000000 -0.009819 0.000000 0.029629
#
#
# Mechanical properties :
#
#
# Convention : Reuss Voigt Hill
#
# Bulk Modulus (GPa) = 22.73944 31.36860 27.05402
# Shear Modulus (GPa) = 28.25272 35.05126 31.65199
#
# Velocity S-wave (km/s) = 3.35699 3.73914 3.55321
# Velocity P-wave (km/s) = 4.90878 5.58156 5.25594
#
# Compressibility (1/GPa) = 0.04397645
#
# Stress axis : x y z
#
# Youngs Moduli (GPa) = 82.08271 46.28544 71.80987
#
# Poissons Ratio (x) = 0.15202 0.22571
# Poissons Ratio (y) = 0.26959 -0.32737
# Poissons Ratio (z) = 0.25800 -0.21101
#
# Static dielectric constant tensor:
#      x y z
#    x 2.054130 0.000000 0.001880 
#    y 0.000000 2.186630 0.000000 
#    z 0.001880 0.000000 1.969030 
# 
# From -- ./inp_files/12792.got.cif
#   From: 2010.05.17/outbox.cif.g08.bks.cpg/sg4_7_cif.got.tgz:12792.got - 2010.06.03 18:43:04.
