data_PCOD9118239
_publ_section_title
;
Structure prediction by ZEFSAII (Michael W. Deem and Ramdas Pophale) SiO2 
 PCOD9118239
Probable space group: P 21
;
_chemical_formula_sum "Si O2"
_cell_formula_units_Z 16
_cell_length_a 14.714546
_cell_length_b 6.972044
_cell_length_c 9.924571
_cell_angle_alpha 90.000000
_cell_angle_beta 36.274038
_cell_angle_gamma 90.000000
_cell_volume 602.396003
_symmetry_space_group_name_H-M "P 21"
_symmetry_group_IT_number 4
_symmetry_cell_setting 'monoclinic'
loop_
_space_group_symop_operation_xyz
x,y,z
-x,1/2+y,-z
loop_
_atom_site_type_symbol
_atom_site_label
_atom_site_fract_x
_atom_site_fract_y
_atom_site_fract_z
Si Si1 0.937479 0.948490 0.636468
Si Si2 0.810122 0.242608 0.478893
Si Si3 0.375452 0.226340 0.977726
Si Si4 0.006327 0.829964 0.976797
Si Si5 0.591764 0.906671 0.783723
Si Si6 0.904287 0.351564 0.824151
Si Si7 0.701427 0.569445 0.461502
Si Si8 0.291119 0.195108 0.811324
O O1 0.719536 0.069600 0.650270
O O2 0.802652 0.791692 0.791332
O O3 0.076344 0.866703 0.563609
O O4 0.001658 0.958194 0.407350
O O5 0.901160 0.180943 0.233528
O O6 0.877363 0.145377 0.779969
O O7 0.679975 0.385390 0.578119
O O8 0.393471 0.293674 0.801879
O O9 0.440531 0.009792 0.908041
O O10 0.442271 0.314888 0.033577
O O11 0.124562 0.010306 0.801773
O O12 0.160485 0.332642 0.898431
O O13 0.018788 0.804451 0.122782
O O14 0.666094 0.749604 0.597023
O O15 0.782684 0.511775 0.021557
O O16 0.616256 0.611778 0.424756
#
# Coordination Sequence:
#
# PCOD9118239 Si02
#       8
#     2   2   2   2   2   2   2   2
#     4  12  25  45  76 120 162 202 268 328 399 481
#     4  10  24  50  78 118 154 205 268 330 404 473
#     4  12  30  51  76 112 157 217 268 328 393 486
#     4   9  22  44  77 116 162 199 259 332 415 470
#     4  12  30  51  79 107 163 219 266 327 400 473
#     4  11  26  41  75 124 170 204 249 343 413 473
#     4   9  24  48  77 109 163 210 259 322 404 480
#     4  11  23  50  78 122 159 206 267 336 410 480
#
# _framework density 26.560600999999998
#
# number of rings (size 3 to 8) (size 9 to 14) (size 15 to 20)
#    0.750    0.500    1.250    2.250    8.750    3.000 
#    4.500    0.000    0.000    0.000    0.000    0.000 
#    0.000    0.000    0.000    0.000    0.000    0.000 
#
# Total GULP energy -89202.971078 kJ/mol
# GULP energy per Si atom -5575.185692 kJ/mol
# Density = 2.650015 g / cm^3
# Si number density = 26.560601 Si / 1000 Ang^3
#
#
#
# Elastic Constant Matrix: (Units=GPa)
#
#
# Indices 1 2 3 4 5 6 
#
# 1 159.7789 15.8010 78.1809 0.0000 40.0444 0.0000
# 2 15.8010 95.1104 63.8816 0.0000 6.9525 0.0000
# 3 78.1809 63.8816 164.6552 0.0000 36.6966 0.0000
# 4 0.0000 0.0000 0.0000 44.5989 0.0000 -0.2597
# 5 40.0444 6.9525 36.6966 0.0000 39.8618 0.0000
# 6 0.0000 0.0000 0.0000 -0.2597 0.0000 42.3580
#
#
#
# Elastic Compliance Matrix: (Units=1/GPa)
#
#
# Indices 1 2 3 4 5 6 
#
# 1 0.009502 0.001291 -0.003567 0.000000 -0.006487 0.000000
# 2 0.001291 0.014742 -0.006883 0.000000 0.002468 0.000000
# 3 -0.003567 -0.006883 0.011790 0.000000 -0.006070 0.000000
# 4 0.000000 0.000000 0.000000 0.022423 0.000000 0.000137
# 5 -0.006487 0.002468 -0.006070 0.000000 0.036761 0.000000
# 6 0.000000 0.000000 0.000000 0.000137 0.000000 0.023609
#
#
# Mechanical properties :
#
#
# Convention : Reuss Voigt Hill
#
# Bulk Modulus (GPa) = 56.44066 81.69684 69.06875
# Shear Modulus (GPa) = 34.95292 42.80914 38.88103
#
# Velocity S-wave (km/s) = 3.63156 4.01902 3.83019
# Velocity P-wave (km/s) = 6.23540 7.23617 6.75435
#
# Compressibility (1/GPa) = 0.01771772
#
# Stress axis : x y z
#
# Youngs Moduli (GPa) = 105.23963 67.83378 84.81722
#
# Poissons Ratio (x) = -0.08760 0.30254
# Poissons Ratio (y) = -0.13591 0.58376
# Poissons Ratio (z) = 0.37539 0.46687
#
# Static dielectric constant tensor:
#      x y z
#    x 2.144250 0.000000 -0.041000 
#    y 0.000000 2.459430 0.000000 
#    z -0.041000 0.000000 2.178800 
# 
# From -- ./inp_files/9237.got.cif
#   From: 2010.05.17/outbox.cif.g08.bks.cpg/sg4_5_cif.got.tgz:9237.got - 2010.06.03 18:43:04.
