data_PCOD9118249
_publ_section_title
;
Structure prediction by ZEFSAII (Michael W. Deem and Ramdas Pophale) SiO2 
 PCOD9118249
Probable space group: P 21
;
_chemical_formula_sum "Si O2"
_cell_formula_units_Z 16
_cell_length_a 9.520956
_cell_length_b 5.119627
_cell_length_c 15.272562
_cell_angle_alpha 90.000000
_cell_angle_beta 61.171097
_cell_angle_gamma 90.000000
_cell_volume 652.178362
_symmetry_space_group_name_H-M "P 21"
_symmetry_group_IT_number 4
_symmetry_cell_setting 'monoclinic'
loop_
_space_group_symop_operation_xyz
x,y,z
-x,1/2+y,-z
loop_
_atom_site_type_symbol
_atom_site_label
_atom_site_fract_x
_atom_site_fract_y
_atom_site_fract_z
Si Si1 0.238717 0.998750 0.358802
Si Si2 0.885021 0.109755 0.464994
Si Si3 0.074899 0.723825 0.091668
Si Si4 0.141730 0.728440 0.864851
Si Si5 0.450558 0.215480 0.574246
Si Si6 0.882526 0.595331 0.362654
Si Si7 0.743980 0.153866 0.796175
Si Si8 0.509025 0.899630 0.725571
O O1 0.187762 0.738866 0.427011
O O2 0.277021 0.926945 0.247442
O O3 0.382504 0.172325 0.348286
O O4 0.074434 0.157461 0.408196
O O5 0.828539 0.306732 0.406438
O O6 0.865634 0.811143 0.445022
O O7 0.961653 0.472963 0.137345
O O8 0.231493 0.697366 0.107473
O O9 0.958928 0.976542 0.139500
O O10 0.128540 0.723346 0.974481
O O11 0.329568 0.783427 0.789575
O O12 0.502633 0.981076 0.491108
O O13 0.509671 0.130822 0.653387
O O14 0.260411 0.206686 0.651529
O O15 0.068308 0.586974 0.281663
O O16 0.604833 0.988126 0.786818
#
# Coordination Sequence:
#
# PCOD9118249 Si02
#       8
#     2   2   2   2   2   2   2   2
#     4  11  25  41  65 102 146 188 239 299 374 415
#     4  11  23  41  65  91 133 193 246 285 342 434
#     4  10  24  52  81 113 141 200 244 291 381 475
#     4  10  25  51  84 107 150 192 245 303 371 467
#     4  12  29  46  66  98 142 196 253 303 356 428
#     4  11  24  44  67  93 135 194 243 299 353 428
#     4  11  26  44  73 109 148 187 247 311 374 452
#     4  12  28  47  71 113 151 192 245 325 375 429
#
# _framework density 24.533163999999999
#
# number of rings (size 3 to 8) (size 9 to 14) (size 15 to 20)
#    0.000    1.000    1.250    3.750   10.500    3.000 
#    2.250    0.000    0.000    0.000    0.000    0.000 
#    0.000    0.000    0.000    0.000    0.000    0.000 
#
# Total GULP energy -89233.593115 kJ/mol
# GULP energy per Si atom -5577.099570 kJ/mol
# Density = 2.447733 g / cm^3
# Si number density = 24.533164 Si / 1000 Ang^3
#
#
#
# Elastic Constant Matrix: (Units=GPa)
#
#
# Indices 1 2 3 4 5 6 
#
# 1 114.4603 22.8813 13.4053 0.0000 -12.3977 0.0000
# 2 22.8813 128.2364 19.9921 0.0000 -4.3237 0.0000
# 3 13.4053 19.9921 51.6065 0.0000 -8.4550 0.0000
# 4 0.0000 0.0000 0.0000 17.7550 0.0000 -5.1079
# 5 -12.3977 -4.3237 -8.4550 0.0000 44.5748 0.0000
# 6 0.0000 0.0000 0.0000 -5.1079 0.0000 19.2849
#
#
#
# Elastic Compliance Matrix: (Units=1/GPa)
#
#
# Indices 1 2 3 4 5 6 
#
# 1 0.009430 -0.001365 -0.001561 0.000000 0.002194 0.000000
# 2 -0.001365 0.008499 -0.002957 0.000000 -0.000116 0.000000
# 3 -0.001561 -0.002957 0.021478 0.000000 0.003353 0.000000
# 4 0.000000 0.000000 0.000000 0.060968 0.000000 0.016148
# 5 0.002194 -0.000116 0.003353 0.000000 0.023669 0.000000
# 6 0.000000 0.000000 0.000000 0.016148 0.000000 0.056131
#
#
# Mechanical properties :
#
#
# Convention : Reuss Voigt Hill
#
# Bulk Modulus (GPa) = 36.17924 45.20674 40.69299
# Shear Modulus (GPa) = 24.85652 32.19126 28.52389
#
# Velocity S-wave (km/s) = 3.18650 3.62629 3.41349
# Velocity P-wave (km/s) = 5.32142 6.00001 5.67087
#
# Compressibility (1/GPa) = 0.02764016
#
# Stress axis : x y z
#
# Youngs Moduli (GPa) = 106.04360 117.66448 46.55990
#
# Poissons Ratio (x) = 0.16064 0.07269
# Poissons Ratio (y) = 0.14478 0.13767
# Poissons Ratio (z) = 0.16555 0.34791
#
# Static dielectric constant tensor:
#      x y z
#    x 2.106020 0.000000 0.094400 
#    y 0.000000 1.963800 0.000000 
#    z 0.094400 0.000000 2.033220 
# 
# From -- ./inp_files/14798.got.cif
#   From: 2010.05.17/outbox.cif.g08.bks.cpg/sg4_8_cif.got.tgz:14798.got - 2010.06.03 18:43:04.
