data_PCOD9118384
_publ_section_title
;
Structure prediction by ZEFSAII (Michael W. Deem and Ramdas Pophale) SiO2 
 PCOD9118384
Probable space group: P 21
;
_chemical_formula_sum "Si O2"
_cell_formula_units_Z 16
_cell_length_a 21.999566
_cell_length_b 6.517680
_cell_length_c 13.566421
_cell_angle_alpha 90.000000
_cell_angle_beta 158.358146
_cell_angle_gamma 90.000000
_cell_volume 717.410361
_symmetry_space_group_name_H-M "P 21"
_symmetry_group_IT_number 4
_symmetry_cell_setting 'monoclinic'
loop_
_space_group_symop_operation_xyz
x,y,z
-x,1/2+y,-z
loop_
_atom_site_type_symbol
_atom_site_label
_atom_site_fract_x
_atom_site_fract_y
_atom_site_fract_z
Si Si1 0.479151 0.732610 0.377341
Si Si2 0.116120 0.790157 0.792863
Si Si3 0.851642 0.450435 0.377071
Si Si4 0.837539 0.869475 0.662479
Si Si5 0.504093 0.034004 0.233076
Si Si6 0.619906 0.323502 0.554169
Si Si7 0.007974 0.154492 0.759369
Si Si8 0.069344 0.524458 0.983591
O O1 0.615399 0.568153 0.551782
O O2 0.480952 0.774126 0.496784
O O3 0.498590 0.921712 0.332067
O O4 0.288998 0.670468 0.066523
O O5 0.094409 0.876313 0.650282
O O6 0.965534 0.637466 0.584646
O O7 0.117199 0.988867 0.865287
O O8 0.880165 0.258298 0.491061
O O9 0.664914 0.519270 0.079670
O O10 0.894897 0.642631 0.717502
O O11 0.646395 0.922029 0.386870
O O12 0.914238 0.029062 0.701675
O O13 0.912969 0.918483 0.883680
O O14 0.545642 0.259533 0.336200
O O15 0.792475 0.202171 0.818877
O O16 0.094482 0.348877 0.940787
#
# Coordination Sequence:
#
# PCOD9118384 Si02
#       8
#     2   2   2   2   2   2   2   2
#     4  11  23  40  66 104 139 180 225 289 361 424
#     4  11  25  44  74 103 140 186 241 294 350 438
#     4  11  24  46  69 103 140 188 236 295 354 426
#     4  11  24  46  69 103 140 188 236 295 354 426
#     4  10  26  42  66 104 142 180 234 300 348 410
#     4  11  23  40  66 104 139 180 225 289 361 424
#     4  12  24  46  74 102 138 194 238 292 362 418
#     4  11  25  44  74 103 140 186 241 294 350 438
#
# _framework density 22.302439
#
# number of rings (size 3 to 8) (size 9 to 14) (size 15 to 20)
#    0.000    1.000    3.750    2.250    3.500    4.000 
#    6.750    0.000    0.000    0.000    0.000    0.000 
#    0.000    0.000    0.000    0.000    0.000    0.000 
#
# Total GULP energy -89468.254968 kJ/mol
# GULP energy per Si atom -5591.765936 kJ/mol
# Density = 2.225168 g / cm^3
# Si number density = 22.302439 Si / 1000 Ang^3
#
#
#
# Elastic Constant Matrix: (Units=GPa)
#
#
# Indices 1 2 3 4 5 6 
#
# 1 84.7256 22.5880 17.1823 0.0000 -10.6632 0.0000
# 2 22.5880 78.5786 38.8178 0.0000 -8.1386 0.0000
# 3 17.1823 38.8178 87.3950 0.0000 2.0258 0.0000
# 4 0.0000 0.0000 0.0000 30.9646 0.0000 -4.3128
# 5 -10.6632 -8.1386 2.0258 0.0000 31.8278 0.0000
# 6 0.0000 0.0000 0.0000 -4.3128 0.0000 43.5385
#
#
#
# Elastic Compliance Matrix: (Units=1/GPa)
#
#
# Indices 1 2 3 4 5 6 
#
# 1 0.013311 -0.002675 -0.001519 0.000000 0.003872 0.000000
# 2 -0.002675 0.017554 -0.007365 0.000000 0.004061 0.000000
# 3 -0.001519 -0.007365 0.015090 0.000000 -0.003353 0.000000
# 4 0.000000 0.000000 0.000000 0.032747 0.000000 0.003244
# 5 0.003872 0.004061 -0.003353 0.000000 0.033968 0.000000
# 6 0.000000 0.000000 0.000000 0.003244 0.000000 0.023289
#
#
# Mechanical properties :
#
#
# Convention : Reuss Voigt Hill
#
# Bulk Modulus (GPa) = 43.78757 45.31951 44.55354
# Shear Modulus (GPa) = 29.99574 32.74024 31.36799
#
# Velocity S-wave (km/s) = 3.67134 3.83562 3.75438
# Velocity P-wave (km/s) = 6.13578 6.32302 6.23010
#
# Compressibility (1/GPa) = 0.02283753
#
# Stress axis : x y z
#
# Youngs Moduli (GPa) = 75.12390 56.96664 66.26937
#
# Poissons Ratio (x) = 0.15240 0.10064
# Poissons Ratio (y) = 0.20097 0.48808
# Poissons Ratio (z) = 0.11408 0.41957
#
# Static dielectric constant tensor:
#      x y z
#    x 1.808900 0.000000 0.009480 
#    y 0.000000 1.861720 0.000000 
#    z 0.009480 0.000000 1.837550 
# 
# From -- ./inp_files/14537.got.cif
#   From: 2010.05.17/outbox.cif.g08.bks.cpg/sg4_8_cif.got.tgz:14537.got - 2010.06.03 18:43:04.
