data_PCOD9118060
_publ_section_title
;
Structure prediction by ZEFSAII (Michael W. Deem and Ramdas Pophale) SiO2 
 PCOD9118060
Probable space group: P 21
;
_chemical_formula_sum "Si O2"
_cell_formula_units_Z 16
_cell_length_a 10.726461
_cell_length_b 8.040208
_cell_length_c 13.552460
_cell_angle_alpha 90.000000
_cell_angle_beta 33.716465
_cell_angle_gamma 90.000000
_cell_volume 648.784073
_symmetry_space_group_name_H-M "P 21"
_symmetry_group_IT_number 4
_symmetry_cell_setting 'monoclinic'
loop_
_space_group_symop_operation_xyz
x,y,z
-x,1/2+y,-z
loop_
_atom_site_type_symbol
_atom_site_label
_atom_site_fract_x
_atom_site_fract_y
_atom_site_fract_z
Si Si1 0.085106 0.648080 0.557932
Si Si2 0.592388 0.578716 0.711324
Si Si3 0.377260 0.475014 0.508068
Si Si4 0.792623 0.069346 0.185634
Si Si5 0.059127 0.156737 0.683234
Si Si6 0.731545 0.908831 0.732265
Si Si7 0.685139 0.395033 0.847084
Si Si8 0.890307 0.416660 0.163431
O O1 0.279118 0.629302 0.510899
O O2 0.191065 0.558680 0.390712
O O3 0.955305 0.818376 0.625578
O O4 0.879110 0.532742 0.730639
O O5 0.353841 0.592823 0.815770
O O6 0.786012 0.572461 0.501744
O O7 0.632460 0.758679 0.732462
O O8 0.612051 0.431549 0.780508
O O9 0.383342 0.506752 0.619520
O O10 0.209441 0.319403 0.608946
O O11 0.628332 0.439299 0.312289
O O12 0.914864 0.220426 0.160904
O O13 0.981842 0.948378 0.022723
O O14 0.041994 0.035481 0.789690
O O15 0.822204 0.228916 0.794110
O O16 0.534407 0.932235 0.942489
#
# Coordination Sequence:
#
# PCOD9118060 Si02
#       8
#     2   2   2   2   2   2   2   2
#     4  10  24  44  70 102 143 191 245 313 373 456
#     4  11  22  47  76 103 147 198 251 315 380 454
#     4  11  22  47  72 108 146 196 249 318 382 446
#     4  12  26  44  72 117 147 202 256 304 393 448
#     4  11  22  49  78 104 151 200 257 323 383 453
#     4  11  22  46  70 105 140 192 250 309 386 442
#     4  10  24  44  73 107 144 198 254 314 379 460
#     4  12  24  45  75 108 154 201 250 318 372 465
#
# _framework density 24.661515999999999
#
# number of rings (size 3 to 8) (size 9 to 14) (size 15 to 20)
#    0.000    1.000    5.000    1.500    0.000    6.000 
#    9.000    1.250    0.000    0.000    0.000    0.000 
#    0.000    0.000    0.000    0.000    0.000    0.000 
#
# Total GULP energy -89376.422200 kJ/mol
# GULP energy per Si atom -5586.026388 kJ/mol
# Density = 2.460539 g / cm^3
# Si number density = 24.661516 Si / 1000 Ang^3
#
#
#
# Elastic Constant Matrix: (Units=GPa)
#
#
# Indices 1 2 3 4 5 6 
#
# 1 80.7478 23.3709 6.4671 0.0000 18.0034 0.0000
# 2 23.3709 26.9909 5.5746 0.0000 -27.8527 0.0000
# 3 6.4671 5.5746 121.0247 0.0000 -3.6876 0.0000
# 4 0.0000 0.0000 0.0000 25.4074 0.0000 6.6069
# 5 18.0034 -27.8527 -3.6876 0.0000 -12.5908 0.0000
# 6 0.0000 0.0000 0.0000 6.6069 0.0000 14.3938
#
#
#
# Elastic Compliance Matrix: (Units=1/GPa)
#
#
# Indices 1 2 3 4 5 6 
#
# 1 0.009679 0.001844 -0.000302 0.000000 0.009848 0.000000
# 2 0.001844 0.011838 -0.001349 0.000000 -0.023154 0.000000
# 3 -0.000302 -0.001349 0.008344 0.000000 0.000109 0.000000
# 4 0.000000 0.000000 0.000000 0.044693 0.000000 -0.020515
# 5 0.009848 -0.023154 0.000109 0.000000 -0.014152 0.000000
# 6 0.000000 0.000000 0.000000 -0.020515 0.000000 0.078891
#
#
# Mechanical properties :
#
#
# Convention : Reuss Voigt Hill
#
# Bulk Modulus (GPa) = 33.06138 33.28762 33.17450
# Shear Modulus (GPa) = 33.55956 18.33212 25.94584
#
# Velocity S-wave (km/s) = 3.69291 2.72940 3.24709
# Velocity P-wave (km/s) = 5.62305 4.84355 5.24779
#
# Compressibility (1/GPa) = 0.03024677
#
# Stress axis : x y z
#
# Youngs Moduli (GPa) = 103.31774 84.47611 119.84090
#
# Poissons Ratio (x) = -0.15580 0.03620
# Poissons Ratio (y) = -0.19055 0.16171
# Poissons Ratio (z) = 0.03121 0.11399
#
# Static dielectric constant tensor:
#      x y z
#    x 2.036100 0.000000 0.028460 
#    y 0.000000 2.061690 0.000000 
#    z 0.028460 0.000000 2.040710 
# 
# From -- ./inp_files/13946.got.cif
#   From: 2010.05.17/outbox.cif.g08.bks.cpg/sg4_7_cif.got.tgz:13946.got - 2010.06.03 18:43:04.
