data_PCOD9118234
_publ_section_title
;
Structure prediction by ZEFSAII (Michael W. Deem and Ramdas Pophale) SiO2 
 PCOD9118234
Probable space group: P 21
;
_chemical_formula_sum "Si O2"
_cell_formula_units_Z 16
_cell_length_a 14.672186
_cell_length_b 5.805528
_cell_length_c 9.131271
_cell_angle_alpha 90.000000
_cell_angle_beta 124.067871
_cell_angle_gamma 90.000000
_cell_volume 644.309518
_symmetry_space_group_name_H-M "P 21"
_symmetry_group_IT_number 4
_symmetry_cell_setting 'monoclinic'
loop_
_space_group_symop_operation_xyz
x,y,z
-x,1/2+y,-z
loop_
_atom_site_type_symbol
_atom_site_label
_atom_site_fract_x
_atom_site_fract_y
_atom_site_fract_z
Si Si1 0.751515 0.912990 0.126339
Si Si2 0.398162 0.047206 0.089367
Si Si3 0.558956 0.298370 0.585972
Si Si4 0.618931 0.216708 0.188808
Si Si5 0.078228 0.744043 0.853560
Si Si6 0.761393 0.367367 0.557786
Si Si7 0.855808 0.784447 0.523478
Si Si8 0.051273 0.621349 0.163022
O O1 0.830201 0.834553 0.330704
O O2 0.640042 0.000480 0.104029
O O3 0.810930 0.128794 0.103058
O O4 0.706249 0.712391 0.980783
O O5 0.512829 0.186152 0.192941
O O6 0.413654 0.845800 0.220125
O O7 0.385964 0.937991 0.917870
O O8 0.493917 0.540908 0.482812
O O9 0.674229 0.313756 0.603488
O O10 0.726832 0.218158 0.386940
O O11 0.984105 0.701027 0.646257
O O12 0.055164 0.629881 0.992381
O O13 0.062901 0.018442 0.877878
O O14 0.757392 0.620442 0.486723
O O15 0.886536 0.346117 0.724345
O O16 0.866714 0.946741 0.678443
#
# Coordination Sequence:
#
# PCOD9118234 Si02
#       8
#     2   2   2   2   2   2   2   2
#     4  12  26  49  75 114 150 199 263 325 390 474
#     4  12  28  46  76 110 163 206 263 321 396 464
#     4  12  32  49  79 119 161 213 269 332 385 476
#     4  12  25  47  74 107 156 208 253 322 392 473
#     4  10  25  48  75 105 149 191 258 322 389 469
#     4  12  25  48  78 106 154 210 259 319 402 474
#     4  10  25  47  73 104 148 200 248 322 398 463
#     4  10  24  50  74 105 149 199 249 329 396 473
#
# _framework density 24.832785000000001
#
# number of rings (size 3 to 8) (size 9 to 14) (size 15 to 20)
#    0.750    0.000    5.000    0.750   10.500    1.000 
#    6.750    0.000    0.000    0.000    0.000    0.000 
#    0.000    0.000    0.000    0.000    0.000    0.000 
#
# Total GULP energy -89124.858808 kJ/mol
# GULP energy per Si atom -5570.303675 kJ/mol
# Density = 2.477626 g / cm^3
# Si number density = 24.832785 Si / 1000 Ang^3
#
#
#
# Elastic Constant Matrix: (Units=GPa)
#
#
# Indices 1 2 3 4 5 6 
#
# 1 67.1488 19.8308 13.1154 0.0000 7.9950 0.0000
# 2 19.8308 49.3464 23.0683 0.0000 11.1431 0.0000
# 3 13.1154 23.0683 124.9435 0.0000 17.9994 0.0000
# 4 0.0000 0.0000 0.0000 51.5588 0.0000 3.6686
# 5 7.9950 11.1431 17.9994 0.0000 29.0533 0.0000
# 6 0.0000 0.0000 0.0000 3.6686 0.0000 41.0449
#
#
#
# Elastic Compliance Matrix: (Units=1/GPa)
#
#
# Indices 1 2 3 4 5 6 
#
# 1 0.017044 -0.006218 -0.000339 0.000000 -0.002095 0.000000
# 2 -0.006218 0.025646 -0.003197 0.000000 -0.006144 0.000000
# 3 -0.000339 -0.003197 0.009266 0.000000 -0.004421 0.000000
# 4 0.000000 0.000000 0.000000 0.019519 0.000000 -0.001745
# 5 -0.002095 -0.006144 -0.004421 0.000000 0.040092 0.000000
# 6 0.000000 0.000000 0.000000 -0.001745 0.000000 0.024519
#
#
# Mechanical properties :
#
#
# Convention : Reuss Voigt Hill
#
# Bulk Modulus (GPa) = 30.81850 39.27420 35.04635
# Shear Modulus (GPa) = 30.04594 36.69299 33.36946
#
# Velocity S-wave (km/s) = 3.48218 3.84813 3.66972
# Velocity P-wave (km/s) = 5.34834 5.96607 5.66563
#
# Compressibility (1/GPa) = 0.03244804
#
# Stress axis : x y z
#
# Youngs Moduli (GPa) = 58.67059 38.99283 107.91622
#
# Poissons Ratio (x) = 0.24245 0.03662
# Poissons Ratio (y) = 0.36480 0.34502
# Poissons Ratio (z) = 0.01991 0.12466
#
# Static dielectric constant tensor:
#      x y z
#    x 1.973500 0.000000 0.049450 
#    y 0.000000 2.197850 0.000000 
#    z 0.049450 0.000000 1.936870 
# 
# From -- ./inp_files/9434.got.cif
#   From: 2010.05.17/outbox.cif.g08.bks.cpg/sg4_5_cif.got.tgz:9434.got - 2010.06.03 18:43:04.
