data_PCOD9118555
_publ_section_title
;
Structure prediction by ZEFSAII (Michael W. Deem and Ramdas Pophale) SiO2 
 PCOD9118555
Probable space group: P 21
;
_chemical_formula_sum "Si O2"
_cell_formula_units_Z 16
_cell_length_a 7.765824
_cell_length_b 17.659036
_cell_length_c 7.670557
_cell_angle_alpha 90.000000
_cell_angle_beta 142.706048
_cell_angle_gamma 90.000000
_cell_volume 637.361115
_symmetry_space_group_name_H-M "P 21"
_symmetry_group_IT_number 4
_symmetry_cell_setting 'monoclinic'
loop_
_space_group_symop_operation_xyz
x,y,z
-x,1/2+y,-z
loop_
_atom_site_type_symbol
_atom_site_label
_atom_site_fract_x
_atom_site_fract_y
_atom_site_fract_z
Si Si1 0.298979 0.335050 0.095313
Si Si2 0.574657 0.919858 0.278937
Si Si3 0.196586 0.915464 0.671943
Si Si4 0.816266 0.544383 0.619146
Si Si5 0.769947 0.997047 0.772267
Si Si6 0.771339 0.236724 0.608045
Si Si7 0.354300 0.754831 0.115241
Si Si8 0.960058 0.688958 0.522463
O O1 0.551271 0.356556 0.165916
O O2 0.253961 0.411229 0.169503
O O3 0.999575 0.305786 0.785049
O O4 0.450803 0.265700 0.316746
O O5 0.352813 0.955670 0.962385
O O6 0.413781 0.843206 0.211997
O O7 0.684594 0.981531 0.505353
O O8 0.878874 0.890486 0.455611
O O9 0.151299 0.969214 0.470511
O O10 0.945969 0.530041 0.914616
O O11 0.962913 0.610260 0.628908
O O12 0.478853 0.551029 0.357605
O O13 0.760386 0.214606 0.801800
O O14 0.888616 0.185239 0.544785
O O15 0.634767 0.716594 0.260296
O O16 0.121351 0.747124 0.778696
#
# Coordination Sequence:
#
# PCOD9118555 Si02
#       8
#     2   2   2   2   2   2   2   2
#     4  11  21  40  67  98 134 169 214 281 362 408
#     4  12  23  41  68 111 138 164 232 303 359 421
#     4  11  23  40  69 102 137 181 227 285 356 422
#     4  11  25  47  65  94 135 193 236 272 347 429
#     4  11  23  41  70  96 139 176 217 292 357 408
#     4  12  24  43  69 104 137 181 226 288 349 417
#     4  12  26  44  73 109 137 182 234 295 354 422
#     4  12  27  48  69  96 143 192 238 284 340 419
#
# _framework density 25.103508000000001
#
# number of rings (size 3 to 8) (size 9 to 14) (size 15 to 20)
#    0.000    0.500    1.250    9.750    1.750    0.000 
#    6.750    0.000    0.000    0.000    0.000    0.000 
#    0.000    0.000    0.000    0.000    0.000    0.000 
#
# Total GULP energy -89456.533464 kJ/mol
# GULP energy per Si atom -5591.033342 kJ/mol
# Density = 2.504637 g / cm^3
# Si number density = 25.103508 Si / 1000 Ang^3
#
#
#
# Elastic Constant Matrix: (Units=GPa)
#
#
# Indices 1 2 3 4 5 6 
#
# 1 78.0098 -4.7034 13.8802 0.0000 2.7989 0.0000
# 2 -4.7034 32.7050 3.5042 0.0000 13.1666 0.0000
# 3 13.8802 3.5042 152.0390 0.0000 9.5019 0.0000
# 4 0.0000 0.0000 0.0000 15.3099 0.0000 7.9918
# 5 2.7989 13.1666 9.5019 0.0000 39.4063 0.0000
# 6 0.0000 0.0000 0.0000 7.9918 0.0000 16.1066
#
#
#
# Elastic Compliance Matrix: (Units=1/GPa)
#
#
# Indices 1 2 3 4 5 6 
#
# 1 0.013243 0.002652 -0.001174 0.000000 -0.001544 0.000000
# 2 0.002652 0.035860 -0.000313 0.000000 -0.012095 0.000000
# 3 -0.001174 -0.000313 0.006782 0.000000 -0.001448 0.000000
# 4 0.000000 0.000000 0.000000 0.088148 0.000000 -0.043737
# 5 -0.001544 -0.012095 -0.001448 0.000000 0.029876 0.000000
# 6 0.000000 0.000000 0.000000 -0.043737 0.000000 0.083788
#
#
# Mechanical properties :
#
#
# Convention : Reuss Voigt Hill
#
# Bulk Modulus (GPa) = 17.17736 32.01285 24.59510
# Shear Modulus (GPa) = 18.19690 30.83610 24.51650
#
# Velocity S-wave (km/s) = 2.69527 3.50860 3.12848
# Velocity P-wave (km/s) = 4.06736 5.40312 4.78211
#
# Compressibility (1/GPa) = 0.05821618
#
# Stress axis : x y z
#
# Youngs Moduli (GPa) = 75.51164 27.88592 147.44748
#
# Poissons Ratio (x) = -0.07395 0.17305
# Poissons Ratio (y) = -0.20023 0.04611
# Poissons Ratio (z) = 0.08862 0.00872
#
# Static dielectric constant tensor:
#      x y z
#    x 2.089370 0.000000 -0.080410 
#    y 0.000000 2.034600 0.000000 
#    z -0.080410 0.000000 1.939880 
# 
# From -- ./inp_files/6982.got.cif
#   From: 2010.05.17/outbox.cif.g08.bks.cpg/sg4_4_cif.got.tgz:6982.got - 2010.06.03 18:43:04.
