data_PCOD9118971
_publ_section_title
;
Structure prediction by ZEFSAII (Michael W. Deem and Ramdas Pophale) SiO2 
 PCOD9118971
Probable space group: P 21
;
_chemical_formula_sum "Si O2"
_cell_formula_units_Z 14
_cell_length_a 10.674116
_cell_length_b 9.884013
_cell_length_c 5.325006
_cell_angle_alpha 90.000000
_cell_angle_beta 75.792529
_cell_angle_gamma 90.000000
_cell_volume 544.620928
_symmetry_space_group_name_H-M "P 21"
_symmetry_group_IT_number 4
_symmetry_cell_setting 'monoclinic'
loop_
_space_group_symop_operation_xyz
x,y,z
-x,1/2+y,-z
loop_
_atom_site_type_symbol
_atom_site_label
_atom_site_fract_x
_atom_site_fract_y
_atom_site_fract_z
Si Si1 0.703170 0.611180 0.060212
Si Si2 0.704781 0.335535 0.864152
Si Si3 0.862196 0.664276 0.471851
Si Si4 0.521481 0.829140 0.371464
Si Si5 0.993557 0.375647 0.876070
Si Si6 0.633583 0.126831 0.280550
Si Si7 0.916693 0.148787 0.292880
O O1 0.648027 0.459910 0.059842
O O2 0.779609 0.647689 0.766180
O O3 0.791261 0.601232 0.267309
O O4 0.602288 0.731007 0.149136
O O5 0.621981 0.356428 0.659048
O O6 0.857518 0.365990 0.792527
O O7 0.681449 0.187367 0.991007
O O8 0.892905 0.813601 0.350855
O O9 0.004955 0.619339 0.491636
O O10 0.490108 0.723289 0.608235
O O11 0.591890 0.972702 0.344691
O O12 0.038710 0.526171 0.907709
O O13 0.967689 0.285409 0.135111
O O14 0.763157 0.149186 0.382845
#
# Coordination Sequence:
#
# PCOD9118971 Si02
#       7
#     2   2   2   2   2   2   2
#     4  12  28  49  83 109 156 204 262 305 400 440
#     4  11  25  48  76 110 148 209 251 329 372 469
#     4  12  25  49  76 119 151 204 246 325 381 468
#     4  12  27  50  72 113 153 210 256 327 366 473
#     4  11  23  46  76 113 157 193 260 313 398 444
#     4  11  27  46  78 109 154 199 271 305 398 445
#     4  11  25  48  77 117 151 205 252 330 375 477
#
# _framework density 25.705956
#
# number of rings (size 3 to 8) (size 9 to 14) (size 15 to 20)
#    0.000    0.571    2.857    3.429    6.000    3.429 
#    7.714    0.000    0.000    0.000    0.000    0.000 
#    0.000    0.000    0.000    0.000    0.000    0.000 
#
# Total GULP energy -78247.797148 kJ/mol
# GULP energy per Si atom -5589.128368 kJ/mol
# Density = 2.564745 g / cm^3
# Si number density = 25.705956 Si / 1000 Ang^3
#
#
#
# Elastic Constant Matrix: (Units=GPa)
#
#
# Indices 1 2 3 4 5 6 
#
# 1 92.0678 35.1457 33.9885 0.0000 7.3660 0.0000
# 2 35.1457 159.9666 32.1697 0.0000 -21.6404 0.0000
# 3 33.9885 32.1697 115.5709 0.0000 -7.0879 0.0000
# 4 0.0000 0.0000 0.0000 41.8712 0.0000 -15.9418
# 5 7.3660 -21.6404 -7.0879 0.0000 44.7725 0.0000
# 6 0.0000 0.0000 0.0000 -15.9418 0.0000 41.0672
#
#
#
# Elastic Compliance Matrix: (Units=1/GPa)
#
#
# Indices 1 2 3 4 5 6 
#
# 1 0.013553 -0.002846 -0.003448 0.000000 -0.004151 0.000000
# 2 -0.002846 0.007626 -0.001041 0.000000 0.003989 0.000000
# 3 -0.003448 -0.001041 0.010058 0.000000 0.001656 0.000000
# 4 0.000000 0.000000 0.000000 0.028025 0.000000 0.010879
# 5 -0.004151 0.003989 0.001656 0.000000 0.025208 0.000000
# 6 0.000000 0.000000 0.000000 0.010879 0.000000 0.028573
#
#
# Mechanical properties :
#
#
# Convention : Reuss Voigt Hill
#
# Bulk Modulus (GPa) = 60.36270 63.35702 61.85986
# Shear Modulus (GPa) = 37.52750 43.29562 40.41156
#
# Velocity S-wave (km/s) = 3.82498 4.10843 3.96924
# Velocity P-wave (km/s) = 6.56051 6.87066 6.71737
#
# Compressibility (1/GPa) = 0.01656652
#
# Stress axis : x y z
#
# Youngs Moduli (GPa) = 73.78427 131.13797 99.42164
#
# Poissons Ratio (x) = 0.37319 0.34283
# Poissons Ratio (y) = 0.20998 0.10350
# Poissons Ratio (z) = 0.25443 0.13652
#
# Static dielectric constant tensor:
#      x y z
#    x 2.025240 0.000000 -0.007560 
#    y 0.000000 2.089040 0.000000 
#    z -0.007560 0.000000 2.127300 
# 
# From -- ./inp_files/2400.got.cif
#   From: 2010.05.17/outbox.cif.g08.bks.cpg/sg4_2_cif.got.tgz:2400.got - 2010.06.03 18:43:04.
