data_PCOD9118536
_publ_section_title
;
Structure prediction by ZEFSAII (Michael W. Deem and Ramdas Pophale) SiO2 
 PCOD9118536
Probable space group: P 21
;
_chemical_formula_sum "Si O2"
_cell_formula_units_Z 16
_cell_length_a 11.395833
_cell_length_b 8.362584
_cell_length_c 12.151369
_cell_angle_alpha 90.000000
_cell_angle_beta 146.084244
_cell_angle_gamma 90.000000
_cell_volume 646.137913
_symmetry_space_group_name_H-M "P 21"
_symmetry_group_IT_number 4
_symmetry_cell_setting 'monoclinic'
loop_
_space_group_symop_operation_xyz
x,y,z
-x,1/2+y,-z
loop_
_atom_site_type_symbol
_atom_site_label
_atom_site_fract_x
_atom_site_fract_y
_atom_site_fract_z
Si Si1 0.512577 0.255660 0.985692
Si Si2 0.552730 0.083691 0.788210
Si Si3 0.816501 0.530844 0.986502
Si Si4 0.763250 0.315643 0.375368
Si Si5 0.806084 0.528919 0.226056
Si Si6 0.056511 0.698626 0.002458
Si Si7 0.630021 0.784436 0.553066
Si Si8 0.621165 0.136703 0.451289
O O1 0.572028 0.190019 0.912862
O O2 0.269901 0.209759 0.815793
O O3 0.669892 0.204806 0.206387
O O4 0.572953 0.441964 0.040720
O O5 0.429896 0.182204 0.600048
O O6 0.420801 0.928692 0.717482
O O7 0.785134 0.063843 0.919626
O O8 0.875713 0.493076 0.157654
O O9 0.832437 0.369341 0.926939
O O10 0.583664 0.600659 0.786136
O O11 0.982427 0.655176 0.065990
O O12 0.901256 0.441056 0.407967
O O13 0.804167 0.202850 0.512266
O O14 0.844603 0.712582 0.767834
O O15 0.457033 0.758601 0.514683
O O16 0.656953 0.968013 0.539747
#
# Coordination Sequence:
#
# PCOD9118536 Si02
#       8
#     2   2   2   2   2   2   2   2
#     4   9  17  31  63  91 112 163 211 259 311 372
#     4  11  21  41  62  90 130 165 207 267 319 375
#     4  11  21  37  59  88 126 161 207 255 309 377
#     4   9  20  33  67  93 118 165 219 255 321 376
#     4   9  16  32  55  91 114 152 214 255 301 371
#     4  11  25  37  60  92 124 169 203 257 319 379
#     4  11  25  37  62  91 130 168 211 255 321 386
#     4  11  21  40  60  92 128 163 220 255 311 390
#
# _framework density 24.762515
#
# number of rings (size 3 to 8) (size 9 to 14) (size 15 to 20)
#    0.750    1.000    3.750    0.750    5.250    0.000 
#    0.000    0.000    0.000   13.500    0.000    0.000 
#    0.000    0.000    0.000    0.000    0.000    0.000 
#
# Total GULP energy -89268.250851 kJ/mol
# GULP energy per Si atom -5579.265678 kJ/mol
# Density = 2.470615 g / cm^3
# Si number density = 24.762515 Si / 1000 Ang^3
#
#
#
# Elastic Constant Matrix: (Units=GPa)
#
#
# Indices 1 2 3 4 5 6 
#
# 1 117.2742 14.0781 34.3918 0.0000 -36.2178 0.0000
# 2 14.0781 57.1317 30.4056 0.0000 -21.6436 0.0000
# 3 34.3918 30.4056 77.7992 0.0000 -19.6115 0.0000
# 4 0.0000 0.0000 0.0000 34.4213 0.0000 -13.1759
# 5 -36.2178 -21.6436 -19.6115 0.0000 41.8772 0.0000
# 6 0.0000 0.0000 0.0000 -13.1759 0.0000 38.9191
#
#
#
# Elastic Compliance Matrix: (Units=1/GPa)
#
#
# Indices 1 2 3 4 5 6 
#
# 1 0.012638 0.003096 -0.004125 0.000000 0.010599 0.000000
# 2 0.003096 0.025785 -0.008404 0.000000 0.012069 0.000000
# 3 -0.004125 -0.008404 0.018105 0.000000 0.000567 0.000000
# 4 0.000000 0.000000 0.000000 0.033377 0.000000 0.011300
# 5 0.010599 0.012069 0.000567 0.000000 0.039549 0.000000
# 6 0.000000 0.000000 0.000000 0.011300 0.000000 0.029520
#
#
# Mechanical properties :
#
#
# Convention : Reuss Voigt Hill
#
# Bulk Modulus (GPa) = 26.55152 45.55070 36.05111
# Shear Modulus (GPa) = 26.26135 34.59882 30.43009
#
# Velocity S-wave (km/s) = 3.26011 3.74200 3.50934
# Velocity P-wave (km/s) = 4.99167 6.09139 5.56875
#
# Compressibility (1/GPa) = 0.03766262
#
# Stress axis : x y z
#
# Youngs Moduli (GPa) = 79.12439 38.78206 55.23433
#
# Poissons Ratio (x) = -0.12009 0.22786
# Poissons Ratio (y) = -0.24500 0.46418
# Poissons Ratio (z) = 0.32641 0.32592
#
# Static dielectric constant tensor:
#      x y z
#    x 2.041910 0.000000 0.070620 
#    y 0.000000 2.026150 0.000000 
#    z 0.070620 0.000000 2.000840 
# 
# From -- ./inp_files/12141.got.cif
#   From: 2010.05.17/outbox.cif.g08.bks.cpg/sg4_7_cif.got.tgz:12141.got - 2010.06.03 18:43:04.
