data_PCOD9118172
_publ_section_title
;
Structure prediction by ZEFSAII (Michael W. Deem and Ramdas Pophale) SiO2 
 PCOD9118172
Probable space group: P 21
;
_chemical_formula_sum "Si O2"
_cell_formula_units_Z 16
_cell_length_a 5.719761
_cell_length_b 22.650618
_cell_length_c 4.884625
_cell_angle_alpha 90.000000
_cell_angle_beta 101.550005
_cell_angle_gamma 90.000000
_cell_volume 620.018411
_symmetry_space_group_name_H-M "P 21"
_symmetry_group_IT_number 4
_symmetry_cell_setting 'monoclinic'
loop_
_space_group_symop_operation_xyz
x,y,z
-x,1/2+y,-z
loop_
_atom_site_type_symbol
_atom_site_label
_atom_site_fract_x
_atom_site_fract_y
_atom_site_fract_z
Si Si1 0.002884 0.761490 0.651019
Si Si2 0.116171 0.555990 0.980536
Si Si3 0.248512 0.480611 0.504767
Si Si4 0.480026 0.662434 0.042646
Si Si5 0.956078 0.384329 0.137449
Si Si6 0.213410 0.141875 0.378437
Si Si7 0.324720 0.909242 0.411864
Si Si8 0.450711 0.780987 0.341397
O O1 0.011881 0.813966 0.876809
O O2 0.228039 0.771132 0.501043
O O3 0.983000 0.692855 0.718611
O O4 0.730935 0.771455 0.477448
O O5 0.220536 0.507823 0.796930
O O6 0.884576 0.582402 0.777450
O O7 0.110245 0.525630 0.273581
O O8 0.292738 0.611371 0.058041
O O9 0.530435 0.469316 0.550932
O O10 0.159212 0.417743 0.357875
O O11 0.708550 0.644376 0.287807
O O12 0.414009 0.729547 0.108043
O O13 0.556554 0.659899 0.745441
O O14 0.734772 0.394505 0.290515
O O15 0.909120 0.413153 0.834065
O O16 0.440296 0.851550 0.294415
#
# Coordination Sequence:
#
# PCOD9118172 Si02
#       8
#     2   2   2   2   2   2   2   2
#     4  10  24  46  77 114 155 192 248 313 380 449
#     4  12  28  44  76  98 152 190 252 302 368 448
#     4  12  26  48  68 108 140 196 248 304 366 452
#     4  11  27  46  72 109 146 195 245 307 376 443
#     4  11  25  45  72 105 144 191 242 308 375 440
#     4  11  27  46  72 109 146 195 245 307 376 443
#     4  11  25  45  72 105 144 191 242 308 375 440
#     4  10  24  46  77 114 155 192 248 313 380 449
#
# _framework density 25.805686000000001
#
# number of rings (size 3 to 8) (size 9 to 14) (size 15 to 20)
#    0.000    1.000    1.250    3.000   10.500   10.000 
#    2.250    0.000    0.000    0.000    0.000    0.000 
#    0.000    0.000    0.000    0.000    0.000    0.000 
#
# Total GULP energy -89382.140154 kJ/mol
# GULP energy per Si atom -5586.383760 kJ/mol
# Density = 2.574695 g / cm^3
# Si number density = 25.805686 Si / 1000 Ang^3
#
#
#
# Elastic Constant Matrix: (Units=GPa)
#
#
# Indices 1 2 3 4 5 6 
#
# 1 63.3674 23.7994 5.5197 0.0000 9.3796 0.0000
# 2 23.7994 101.0709 6.6715 0.0000 20.3413 0.0000
# 3 5.5197 6.6715 91.1960 0.0000 7.1558 0.0000
# 4 0.0000 0.0000 0.0000 47.1949 0.0000 11.7173
# 5 9.3796 20.3413 7.1558 0.0000 33.9184 0.0000
# 6 0.0000 0.0000 0.0000 11.7173 0.0000 43.5043
#
#
#
# Elastic Compliance Matrix: (Units=1/GPa)
#
#
# Indices 1 2 3 4 5 6 
#
# 1 0.017558 -0.003575 -0.000598 0.000000 -0.002585 0.000000
# 2 -0.003575 0.011988 -0.000177 0.000000 -0.006163 0.000000
# 3 -0.000598 -0.000177 0.011178 0.000000 -0.002087 0.000000
# 4 0.000000 0.000000 0.000000 0.022707 0.000000 -0.006116
# 5 -0.002585 -0.006163 -0.002087 0.000000 0.034334 0.000000
# 6 0.000000 0.000000 0.000000 -0.006116 0.000000 0.024633
#
#
# Mechanical properties :
#
#
# Convention : Reuss Voigt Hill
#
# Bulk Modulus (GPa) = 31.22604 36.40171 33.81387
# Shear Modulus (GPa) = 35.26736 39.56643 37.41689
#
# Velocity S-wave (km/s) = 3.70083 3.91991 3.81195
# Velocity P-wave (km/s) = 5.51256 5.88425 5.70143
#
# Compressibility (1/GPa) = 0.03202456
#
# Stress axis : x y z
#
# Youngs Moduli (GPa) = 56.95289 83.41735 89.45909
#
# Poissons Ratio (x) = 0.29819 0.05353
# Poissons Ratio (y) = 0.20359 0.01583
# Poissons Ratio (z) = 0.03408 0.01476
#
# Static dielectric constant tensor:
#      x y z
#    x 2.093420 0.000000 0.088610 
#    y 0.000000 2.069470 0.000000 
#    z 0.088610 0.000000 1.995430 
# 
# From -- ./inp_files/740.got.cif
#   From: 2010.05.17/outbox.cif.g08.bks.cpg/sg4_1_cif.got.tgz:740.got - 2010.06.03 18:43:04.
