data_PCOD9118047
_publ_section_title
;
Structure prediction by ZEFSAII (Michael W. Deem and Ramdas Pophale) SiO2 
 PCOD9118047
Probable space group: P 21
;
_chemical_formula_sum "Si O2"
_cell_formula_units_Z 14
_cell_length_a 12.236759
_cell_length_b 5.635869
_cell_length_c 9.497707
_cell_angle_alpha 90.000000
_cell_angle_beta 80.360541
_cell_angle_gamma 90.000000
_cell_volume 645.759107
_symmetry_space_group_name_H-M "P 21"
_symmetry_group_IT_number 4
_symmetry_cell_setting 'monoclinic'
loop_
_space_group_symop_operation_xyz
x,y,z
-x,1/2+y,-z
loop_
_atom_site_type_symbol
_atom_site_label
_atom_site_fract_x
_atom_site_fract_y
_atom_site_fract_z
Si Si1 0.763595 0.024030 0.129595
Si Si2 0.992403 0.831999 0.087690
Si Si3 0.406672 0.317465 0.635243
Si Si4 0.183018 0.577630 0.196167
Si Si5 0.001208 0.402428 0.419606
Si Si6 0.224919 0.918882 0.679013
Si Si7 0.650539 0.144089 0.590563
O O1 0.791886 0.291091 0.168440
O O2 0.647744 0.981466 0.232504
O O3 0.767610 0.990805 0.962486
O O4 0.865884 0.869856 0.169582
O O5 0.092859 0.782859 0.174906
O O6 0.990946 0.585631 0.996748
O O7 0.536141 0.285199 0.630461
O O8 0.387982 0.402081 0.478271
O O9 0.327927 0.092514 0.669440
O O10 0.107670 0.388336 0.295214
O O11 0.281564 0.639774 0.280534
O O12 0.981015 0.137411 0.485927
O O13 0.895081 0.482365 0.352900
O O14 0.268051 0.745104 0.545927
#
# Coordination Sequence:
#
# PCOD9118047 Si02
#       7
#     2   2   2   2   2   2   2
#     4  10  26  43  68 105 140 189 232 293 365 433
#     4  10  24  44  68 102 153 192 225 280 367 438
#     4  11  23  46  72  95 135 192 242 297 359 425
#     4  11  25  45  70 107 145 180 240 298 361 427
#     4  12  27  45  70 109 143 184 237 298 352 430
#     4  11  24  44  71  96 136 187 234 287 362 431
#     4  11  23  47  71 100 134 184 246 295 354 422
#
# _framework density 21.679911000000001
#
# number of rings (size 3 to 8) (size 9 to 14) (size 15 to 20)
#    0.000    1.143    2.857    1.714   16.000    0.000 
#    7.714    0.000    0.000    0.000    0.000    0.000 
#    0.000    0.000    0.000    0.000    0.000    0.000 
#
# Total GULP energy -78066.692726 kJ/mol
# GULP energy per Si atom -5576.192338 kJ/mol
# Density = 2.163057 g / cm^3
# Si number density = 21.679911 Si / 1000 Ang^3
#
#
#
# Elastic Constant Matrix: (Units=GPa)
#
#
# Indices 1 2 3 4 5 6 
#
# 1 156.6393 20.4041 48.8386 0.0000 18.2418 0.0000
# 2 20.4041 63.9814 26.8339 0.0000 -0.2703 0.0000
# 3 48.8386 26.8339 117.3249 0.0000 8.1925 0.0000
# 4 0.0000 0.0000 0.0000 30.5474 0.0000 -9.8265
# 5 18.2418 -0.2703 8.1925 0.0000 38.2640 0.0000
# 6 0.0000 0.0000 0.0000 -9.8265 0.0000 33.0955
#
#
#
# Elastic Compliance Matrix: (Units=1/GPa)
#
#
# Indices 1 2 3 4 5 6 
#
# 1 0.007769 -0.001356 -0.002705 0.000000 -0.003134 0.000000
# 2 -0.001356 0.017561 -0.003559 0.000000 0.001533 0.000000
# 3 -0.002705 -0.003559 0.010532 0.000000 -0.000991 0.000000
# 4 0.000000 0.000000 0.000000 0.036193 0.000000 0.010746
# 5 -0.003134 0.001533 -0.000991 0.000000 0.027851 0.000000
# 6 0.000000 0.000000 0.000000 0.010746 0.000000 0.033406
#
#
# Mechanical properties :
#
#
# Convention : Reuss Voigt Hill
#
# Bulk Modulus (GPa) = 48.49124 58.89988 53.69556
# Shear Modulus (GPa) = 32.16923 36.50597 34.33760
#
# Velocity S-wave (km/s) = 3.85623 4.10794 3.98407
# Velocity P-wave (km/s) = 6.49944 7.05175 6.78122
#
# Compressibility (1/GPa) = 0.02062228
#
# Stress axis : x y z
#
# Youngs Moduli (GPa) = 128.71370 56.94375 94.94439
#
# Poissons Ratio (x) = 0.07724 0.25682
# Poissons Ratio (y) = 0.17459 0.33790
# Poissons Ratio (z) = 0.34817 0.20266
#
# Static dielectric constant tensor:
#      x y z
#    x 1.791130 0.000000 -0.023210 
#    y 0.000000 1.942280 0.000000 
#    z -0.023210 0.000000 1.856700 
# 
# From -- ./inp_files/7351.got.cif
#   From: 2010.05.17/outbox.cif.g08.bks.cpg/sg4_4_cif.got.tgz:7351.got - 2010.06.03 18:43:04.
