data_PCOD9118859
_publ_section_title
;
Structure prediction by ZEFSAII (Michael W. Deem and Ramdas Pophale) SiO2 
 PCOD9118859
Probable space group: P 21
;
_chemical_formula_sum "Si O2"
_cell_formula_units_Z 16
_cell_length_a 5.442116
_cell_length_b 11.514172
_cell_length_c 11.248194
_cell_angle_alpha 90.000000
_cell_angle_beta 114.416284
_cell_angle_gamma 90.000000
_cell_volume 641.792797
_symmetry_space_group_name_H-M "P 21"
_symmetry_group_IT_number 4
_symmetry_cell_setting 'monoclinic'
loop_
_space_group_symop_operation_xyz
x,y,z
-x,1/2+y,-z
loop_
_atom_site_type_symbol
_atom_site_label
_atom_site_fract_x
_atom_site_fract_y
_atom_site_fract_z
Si Si1 0.105387 0.448900 0.545396
Si Si2 0.594053 0.371078 0.191199
Si Si3 0.723636 0.544889 0.027234
Si Si4 0.469914 0.503070 0.392425
Si Si5 0.261914 0.274646 0.905374
Si Si6 0.834513 0.455978 0.799649
Si Si7 0.433512 0.255156 0.684361
Si Si8 0.804790 0.123192 0.226214
O O1 0.251445 0.475673 0.449550
O O2 0.153027 0.312023 0.584403
O O3 0.229860 0.541576 0.665440
O O4 0.785001 0.473920 0.484349
O O5 0.737905 0.477778 0.153613
O O6 0.429598 0.422546 0.268111
O O7 0.774326 0.257843 0.253606
O O8 0.409142 0.326323 0.047375
O O9 0.895084 0.662228 0.078269
O O10 0.810886 0.464200 0.936575
O O11 0.428045 0.590505 0.919223
O O12 0.472867 0.640146 0.362385
O O13 0.428328 0.231698 0.824768
O O14 0.096547 0.381330 0.822897
O O15 0.613075 0.370563 0.703336
O O16 0.903503 0.584529 0.767616
#
# Coordination Sequence:
#
# PCOD9118859 Si02
#       8
#     2   2   2   2   2   2   2   2
#     4  12  28  53  74 111 150 207 265 319 379 455
#     4  11  24  48  68 115 155 191 258 320 397 458
#     4  11  23  43  67 112 148 193 245 323 391 461
#     4  12  32  49  80 111 157 204 260 320 382 464
#     4  11  24  43  74 106 154 185 253 323 390 469
#     4  12  22  42  76 110 140 210 244 318 392 476
#     4  12  26  49  79 106 149 202 263 317 395 464
#     4  11  25  45  74 105 151 198 260 318 386 459
#
# _framework density 24.930164999999999
#
# number of rings (size 3 to 8) (size 9 to 14) (size 15 to 20)
#    0.000    0.500    6.250    0.750    7.000    2.000 
#    2.250    0.000    0.000    0.000    0.000    0.000 
#    0.000    0.000    0.000    0.000    0.000    0.000 
#
# Total GULP energy -89387.779982 kJ/mol
# GULP energy per Si atom -5586.736249 kJ/mol
# Density = 2.487342 g / cm^3
# Si number density = 24.930165 Si / 1000 Ang^3
#
#
#
# Elastic Constant Matrix: (Units=GPa)
#
#
# Indices 1 2 3 4 5 6 
#
# 1 70.3877 16.1580 30.7490 0.0000 -12.5857 0.0000
# 2 16.1580 117.7316 18.1284 0.0000 -10.9916 0.0000
# 3 30.7490 18.1284 103.4617 0.0000 -29.2227 0.0000
# 4 0.0000 0.0000 0.0000 26.5481 0.0000 -9.0483
# 5 -12.5857 -10.9916 -29.2227 0.0000 30.6691 0.0000
# 6 0.0000 0.0000 0.0000 -9.0483 0.0000 23.1731
#
#
#
# Elastic Compliance Matrix: (Units=1/GPa)
#
#
# Indices 1 2 3 4 5 6 
#
# 1 0.016742 -0.001444 -0.004007 0.000000 0.002535 0.000000
# 2 -0.001444 0.008973 -0.000550 0.000000 0.002099 0.000000
# 3 -0.004007 -0.000550 0.014274 0.000000 0.011759 0.000000
# 4 0.000000 0.000000 0.000000 0.043450 0.000000 0.016966
# 5 0.002535 0.002099 0.011759 0.000000 0.045604 0.000000
# 6 0.000000 0.000000 0.000000 0.016966 0.000000 0.049778
#
#
# Mechanical properties :
#
#
# Convention : Reuss Voigt Hill
#
# Bulk Modulus (GPa) = 35.73083 46.85020 41.29051
# Shear Modulus (GPa) = 24.98109 31.18111 28.08110
#
# Velocity S-wave (km/s) = 3.16894 3.54041 3.35981
# Velocity P-wave (km/s) = 5.26812 5.96205 5.62579
#
# Compressibility (1/GPa) = 0.02798704
#
# Stress axis : x y z
#
# Youngs Moduli (GPa) = 59.72942 111.44835 70.05719
#
# Poissons Ratio (x) = 0.16095 0.28070
# Poissons Ratio (y) = 0.08626 0.03854
# Poissons Ratio (z) = 0.23932 0.06131
#
# Static dielectric constant tensor:
#      x y z
#    x 2.102760 0.000000 0.139520 
#    y 0.000000 1.980360 0.000000 
#    z 0.139520 0.000000 2.071340 
# 
# From -- ./inp_files/10376.got.cif
#   From: 2010.05.17/outbox.cif.g08.bks.cpg/sg4_6_cif.got.tgz:10376.got - 2010.06.03 18:43:04.
