data_PCOD9118836
_publ_section_title
;
Structure prediction by ZEFSAII (Michael W. Deem and Ramdas Pophale) SiO2 
 PCOD9118836
Probable space group: P 21
;
_chemical_formula_sum "Si O2"
_cell_formula_units_Z 12
_cell_length_a 4.912974
_cell_length_b 11.355537
_cell_length_c 8.538443
_cell_angle_alpha 90.000000
_cell_angle_beta 98.621169
_cell_angle_gamma 90.000000
_cell_volume 470.972802
_symmetry_space_group_name_H-M "P 21"
_symmetry_group_IT_number 4
_symmetry_cell_setting 'monoclinic'
loop_
_space_group_symop_operation_xyz
x,y,z
-x,1/2+y,-z
loop_
_atom_site_type_symbol
_atom_site_label
_atom_site_fract_x
_atom_site_fract_y
_atom_site_fract_z
Si Si1 0.078827 0.147530 0.525502
Si Si2 0.908294 0.346463 0.842553
Si Si3 0.537656 0.868578 0.440725
Si Si4 0.448112 0.197139 0.948802
Si Si5 0.414288 0.532480 0.327434
Si Si6 0.226916 0.563429 0.776681
O O1 0.312920 0.047599 0.541545
O O2 0.272095 0.256729 0.581594
O O3 0.850140 0.099938 0.626882
O O4 0.943556 0.154011 0.344147
O O5 0.763924 0.341312 0.656799
O O6 0.656540 0.305597 0.930757
O O7 0.036509 0.477753 0.868118
O O8 0.853049 0.752578 0.095268
O O9 0.612415 0.895727 0.629651
O O10 0.652784 0.970906 0.337882
O O11 0.507371 0.092119 0.828034
O O12 0.537705 0.134569 0.115379
#
# Coordination Sequence:
#
# PCOD9118836 Si02
#       6
#     2   2   2   2   2   2
#     4  11  24  43  75 102 136 195 238 290 351 421
#     4  12  24  46  72 101 142 192 229 299 355 420
#     4  11  24  46  75 102 146 186 247 293 351 425
#     4  12  27  43  75 105 148 185 239 296 366 420
#     4  11  23  42  69 107 136 187 239 289 353 423
#     4  11  26  48  74 107 144 191 238 295 362 425
#
# _framework density 25.479175000000001
#
# number of rings (size 3 to 8) (size 9 to 14) (size 15 to 20)
#    0.000    0.667    5.000    2.000    2.333    1.333 
#    0.000    3.333    0.000    0.000    0.000    0.000 
#    0.000    0.000    0.000    0.000    0.000    0.000 
#
# Total GULP energy -67007.659075 kJ/mol
# GULP energy per Si atom -5583.971590 kJ/mol
# Density = 2.542118 g / cm^3
# Si number density = 25.479175 Si / 1000 Ang^3
#
#
#
# Elastic Constant Matrix: (Units=GPa)
#
#
# Indices 1 2 3 4 5 6 
#
# 1 157.9344 15.2411 16.3447 0.0000 33.8521 0.0000
# 2 15.2411 31.5354 20.7369 0.0000 26.2933 0.0000
# 3 16.3447 20.7369 62.7052 0.0000 36.7026 0.0000
# 4 0.0000 0.0000 0.0000 50.8556 0.0000 20.8676
# 5 33.8521 26.2933 36.7026 0.0000 37.8393 0.0000
# 6 0.0000 0.0000 0.0000 20.8676 0.0000 32.4047
#
#
#
# Elastic Compliance Matrix: (Units=1/GPa)
#
#
# Indices 1 2 3 4 5 6 
#
# 1 0.009298 0.008366 0.007128 0.000000 -0.021045 0.000000
# 2 0.008366 0.087999 0.020565 0.000000 -0.088579 0.000000
# 3 0.007128 0.020565 0.044846 0.000000 -0.064165 0.000000
# 4 0.000000 0.000000 0.000000 0.026725 0.000000 -0.017210
# 5 -0.021045 -0.088579 -0.064165 0.000000 0.169043 0.000000
# 6 0.000000 0.000000 0.000000 -0.017210 0.000000 0.041943
#
#
# Mechanical properties :
#
#
# Convention : Reuss Voigt Hill
#
# Bulk Modulus (GPa) = 4.66725 39.64670 22.15697
# Shear Modulus (GPa) = 13.18714 37.54340 25.36527
#
# Velocity S-wave (km/s) = 2.27747 3.84278 3.15862
# Velocity P-wave (km/s) = 2.95831 5.93999 4.69228
#
# Compressibility (1/GPa) = 0.21425909
#
# Stress axis : x y z
#
# Youngs Moduli (GPa) = 107.55567 11.36373 22.29852
#
# Poissons Ratio (x) = -0.09507 -0.15894
# Poissons Ratio (y) = -0.89980 -0.45856
# Poissons Ratio (z) = -0.76662 -0.23369
#
# Static dielectric constant tensor:
#      x y z
#    x 2.060940 0.000000 -0.052980 
#    y 0.000000 2.246120 0.000000 
#    z -0.052980 0.000000 2.090800 
# 
# From -- ./inp_files/4638.got.cif
#   From: 2010.05.17/outbox.cif.g08.bks.cpg/sg4_3_cif.got.tgz:4638.got - 2010.06.03 18:43:04.
