data_PCOD9118748
_publ_section_title
;
Structure prediction by ZEFSAII (Michael W. Deem and Ramdas Pophale) SiO2 
 PCOD9118748
Probable space group: P 21
;
_chemical_formula_sum "Si O2"
_cell_formula_units_Z 16
_cell_length_a 12.390219
_cell_length_b 5.543461
_cell_length_c 15.560705
_cell_angle_alpha 90.000000
_cell_angle_beta 37.369215
_cell_angle_gamma 90.000000
_cell_volume 648.696249
_symmetry_space_group_name_H-M "P 21"
_symmetry_group_IT_number 4
_symmetry_cell_setting 'monoclinic'
loop_
_space_group_symop_operation_xyz
x,y,z
-x,1/2+y,-z
loop_
_atom_site_type_symbol
_atom_site_label
_atom_site_fract_x
_atom_site_fract_y
_atom_site_fract_z
Si Si1 0.234425 0.734040 0.093822
Si Si2 0.933856 0.517800 0.402416
Si Si3 0.978370 0.355631 0.925116
Si Si4 0.359495 0.374969 0.424802
Si Si5 0.144455 0.667952 0.686587
Si Si6 0.248600 0.982161 0.771096
Si Si7 0.385253 0.032074 0.137412
Si Si8 0.248706 0.533985 0.311536
O O1 0.060122 0.681763 0.261520
O O2 0.163889 0.706704 0.041319
O O3 0.312953 0.979701 0.086555
O O4 0.401179 0.555492 0.999448
O O5 0.037356 0.523861 0.426141
O O6 0.734171 0.616833 0.530714
O O7 0.939699 0.271947 0.346511
O O8 0.999914 0.576048 0.845539
O O9 0.901700 0.388934 0.067544
O O10 0.178866 0.254419 0.805222
O O11 0.280019 0.473229 0.564201
O O12 0.568178 0.410876 0.301184
O O13 0.296218 0.520221 0.380961
O O14 0.243542 0.870183 0.679547
O O15 0.319633 0.284010 0.222002
O O16 0.325235 0.786886 0.225520
#
# Coordination Sequence:
#
# PCOD9118748 Si02
#       8
#     2   2   2   2   2   2   2   2
#     4  11  22  45  76 112 157 203 263 321 401 462
#     4  11  26  45  76 110 150 206 255 318 392 479
#     4  12  25  50  75 111 146 206 263 327 393 459
#     4  12  30  48  77 114 156 209 259 325 393 481
#     4  12  26  48  78 108 150 202 261 321 388 474
#     4  12  28  49  77 111 152 203 267 325 389 464
#     4  11  25  46  76 122 162 209 262 334 390 480
#     4  11  28  49  77 116 165 208 268 321 404 473
#
# _framework density 24.664857000000001
#
# number of rings (size 3 to 8) (size 9 to 14) (size 15 to 20)
#    0.000    0.500    3.750    3.000    8.750    3.000 
#    0.000    0.000    0.000    0.000    0.000    0.000 
#    0.000    0.000    0.000    0.000    0.000    0.000 
#
# Total GULP energy -89367.605715 kJ/mol
# GULP energy per Si atom -5585.475357 kJ/mol
# Density = 2.460872 g / cm^3
# Si number density = 24.664857 Si / 1000 Ang^3
#
#
#
# Elastic Constant Matrix: (Units=GPa)
#
#
# Indices 1 2 3 4 5 6 
#
# 1 86.9738 25.5301 40.4052 0.0000 -17.9464 0.0000
# 2 25.5301 100.0376 46.7251 0.0000 -2.8146 0.0000
# 3 40.4052 46.7251 89.2709 0.0000 -1.4465 0.0000
# 4 0.0000 0.0000 0.0000 46.8544 0.0000 11.0815
# 5 -17.9464 -2.8146 -1.4465 0.0000 41.8949 0.0000
# 6 0.0000 0.0000 0.0000 11.0815 0.0000 35.2118
#
#
#
# Elastic Compliance Matrix: (Units=1/GPa)
#
#
# Indices 1 2 3 4 5 6 
#
# 1 0.016292 -0.000762 -0.006867 0.000000 0.006691 0.000000
# 2 -0.000762 0.013284 -0.006603 0.000000 0.000338 0.000000
# 3 -0.006867 -0.006603 0.017721 0.000000 -0.002773 0.000000
# 4 0.000000 0.000000 0.000000 0.023059 0.000000 -0.007257
# 5 0.006691 0.000338 -0.002773 0.000000 0.026662 0.000000
# 6 0.000000 0.000000 0.000000 -0.007257 0.000000 0.030683
#
#
# Mechanical properties :
#
#
# Convention : Reuss Voigt Hill
#
# Bulk Modulus (GPa) = 53.09553 55.73370 54.41462
# Shear Modulus (GPa) = 30.78012 35.70035 33.24024
#
# Velocity S-wave (km/s) = 3.53644 3.80862 3.67505
# Velocity P-wave (km/s) = 6.18456 6.47968 6.33384
#
# Compressibility (1/GPa) = 0.01883398
#
# Stress axis : x y z
#
# Youngs Moduli (GPa) = 61.37960 75.27743 56.43138
#
# Poissons Ratio (x) = 0.05739 0.38749
# Poissons Ratio (y) = 0.04679 0.37259
# Poissons Ratio (z) = 0.42147 0.49702
#
# Static dielectric constant tensor:
#      x y z
#    x 1.971050 0.000000 -0.014180 
#    y 0.000000 2.127430 0.000000 
#    z -0.014180 0.000000 1.967330 
# 
# From -- ./inp_files/13827.got.cif
#   From: 2010.05.17/outbox.cif.g08.bks.cpg/sg4_7_cif.got.tgz:13827.got - 2010.06.03 18:43:04.
