data_PCOD9118055
_publ_section_title
;
Structure prediction by ZEFSAII (Michael W. Deem and Ramdas Pophale) SiO2 
 PCOD9118055
Probable space group: P 21
;
_chemical_formula_sum "Si O2"
_cell_formula_units_Z 16
_cell_length_a 11.627859
_cell_length_b 9.129701
_cell_length_c 8.243767
_cell_angle_alpha 90.000000
_cell_angle_beta 48.900012
_cell_angle_gamma 90.000000
_cell_volume 659.480399
_symmetry_space_group_name_H-M "P 21"
_symmetry_group_IT_number 4
_symmetry_cell_setting 'monoclinic'
loop_
_space_group_symop_operation_xyz
x,y,z
-x,1/2+y,-z
loop_
_atom_site_type_symbol
_atom_site_label
_atom_site_fract_x
_atom_site_fract_y
_atom_site_fract_z
Si Si1 0.896632 0.410800 0.571897
Si Si2 0.773597 0.652007 0.452480
Si Si3 0.253762 0.411599 0.318772
Si Si4 0.733739 0.853102 0.053516
Si Si5 0.763781 0.184544 0.451471
Si Si6 0.742231 0.497736 0.040166
Si Si7 0.448263 0.922434 0.507925
Si Si8 0.990925 0.313776 0.004241
O O1 0.871608 0.541734 0.469571
O O2 0.849178 0.266181 0.520293
O O3 0.068732 0.404047 0.475233
O O4 0.781598 0.439891 0.826375
O O5 0.693933 0.760659 0.651463
O O6 0.646469 0.560975 0.473666
O O7 0.888589 0.741212 0.230129
O O8 0.287124 0.536282 0.418215
O O9 0.307233 0.421205 0.083135
O O10 0.729954 0.674535 0.046932
O O11 0.621793 0.917761 0.293250
O O12 0.905336 0.884628 0.951654
O O13 0.624733 0.281854 0.514627
O O14 0.883589 0.193436 0.192037
O O15 0.595570 0.427477 0.263360
O O16 0.881320 0.432312 0.021256
#
# Coordination Sequence:
#
# PCOD9118055 Si02
#       8
#     2   2   2   2   2   2   2   2
#     4  11  21  41  72 108 140 184 243 313 366 427
#     4  11  23  41  72 103 143 190 242 300 373 431
#     4  12  23  39  71 109 141 189 243 313 364 425
#     4  12  25  48  71 106 151 194 244 299 374 453
#     4  10  24  44  69 111 144 184 251 302 366 431
#     4  11  23  47  75 104 144 190 247 311 362 431
#     4  10  26  49  68 101 150 198 236 295 368 451
#     4  11  23  43  76 108 143 191 246 315 361 433
#
# _framework density 24.261526
#
# number of rings (size 3 to 8) (size 9 to 14) (size 15 to 20)
#    0.000    1.000    5.000    1.500    0.000    1.000 
#    4.500    0.000    0.000    0.000    0.000    0.000 
#    0.000    0.000    0.000    0.000    0.000    0.000 
#
# Total GULP energy -89630.991428 kJ/mol
# GULP energy per Si atom -5601.936964 kJ/mol
# Density = 2.420631 g / cm^3
# Si number density = 24.261526 Si / 1000 Ang^3
#
#
#
# Elastic Constant Matrix: (Units=GPa)
#
#
# Indices 1 2 3 4 5 6 
#
# 1 71.7934 21.3651 27.4477 0.0000 -7.0045 0.0000
# 2 21.3651 74.5413 15.5977 0.0000 -7.0892 0.0000
# 3 27.4477 15.5977 148.3218 0.0000 7.4140 0.0000
# 4 0.0000 0.0000 0.0000 37.9600 0.0000 5.5087
# 5 -7.0045 -7.0892 7.4140 0.0000 31.5667 0.0000
# 6 0.0000 0.0000 0.0000 5.5087 0.0000 12.2618
#
#
#
# Elastic Compliance Matrix: (Units=1/GPa)
#
#
# Indices 1 2 3 4 5 6 
#
# 1 0.016478 -0.003803 -0.002823 0.000000 0.003465 0.000000
# 2 -0.003803 0.014979 -0.001009 0.000000 0.002757 0.000000
# 3 -0.002823 -0.001009 0.007501 0.000000 -0.002615 0.000000
# 4 0.000000 0.000000 0.000000 0.028181 0.000000 -0.012660
# 5 0.003465 0.002757 -0.002615 0.000000 0.033681 0.000000
# 6 0.000000 0.000000 0.000000 -0.012660 0.000000 0.087242
#
#
# Mechanical properties :
#
#
# Convention : Reuss Voigt Hill
#
# Bulk Modulus (GPa) = 42.21444 47.05305 44.63374
# Shear Modulus (GPa) = 23.67125 31.70744 27.68935
#
# Velocity S-wave (km/s) = 3.12696 3.61903 3.38196
# Velocity P-wave (km/s) = 5.52039 6.07449 5.80405
#
# Compressibility (1/GPa) = 0.02368858
#
# Stress axis : x y z
#
# Youngs Moduli (GPa) = 60.68807 66.76135 133.31066
#
# Poissons Ratio (x) = 0.25387 0.37628
# Poissons Ratio (y) = 0.23078 0.13455
# Poissons Ratio (z) = 0.17130 0.06738
#
# Static dielectric constant tensor:
#      x y z
#    x 1.912580 0.000000 0.021880 
#    y 0.000000 1.966800 0.000000 
#    z 0.021880 0.000000 1.950490 
# 
# From -- ./inp_files/9141.got.cif
#   From: 2010.05.17/outbox.cif.g08.bks.cpg/sg4_5_cif.got.tgz:9141.got - 2010.06.03 18:43:04.
