data_PCOD9118353
_publ_section_title
;
Structure prediction by ZEFSAII (Michael W. Deem and Ramdas Pophale) SiO2 
 PCOD9118353
Probable space group: P 21
;
_chemical_formula_sum "Si O2"
_cell_formula_units_Z 14
_cell_length_a 8.778957
_cell_length_b 5.261405
_cell_length_c 12.513092
_cell_angle_alpha 90.000000
_cell_angle_beta 82.443221
_cell_angle_gamma 90.000000
_cell_volume 572.955617
_symmetry_space_group_name_H-M "P 21"
_symmetry_group_IT_number 4
_symmetry_cell_setting 'monoclinic'
loop_
_space_group_symop_operation_xyz
x,y,z
-x,1/2+y,-z
loop_
_atom_site_type_symbol
_atom_site_label
_atom_site_fract_x
_atom_site_fract_y
_atom_site_fract_z
Si Si1 0.383036 0.306150 0.895453
Si Si2 0.255544 0.996235 0.721304
Si Si3 0.061913 0.688364 0.218466
Si Si4 0.600347 0.623651 0.506223
Si Si5 0.291005 0.813758 0.018836
Si Si6 0.182008 0.387165 0.386081
Si Si7 0.124435 0.588826 0.619731
O O1 0.368485 0.163675 0.782685
O O2 0.557993 0.300182 0.919817
O O3 0.316943 0.589078 0.927643
O O4 0.292034 0.099333 0.974913
O O5 0.275013 0.116485 0.601413
O O6 0.087941 0.018583 0.790330
O O7 0.255316 0.700136 0.687049
O O8 0.140869 0.774091 0.103471
O O9 0.190810 0.547446 0.277887
O O10 0.981996 0.896577 0.302640
O O11 0.510156 0.361082 0.506220
O O12 0.690669 0.670449 0.608741
O O13 0.193248 0.534562 0.496827
O O14 0.007007 0.293621 0.398962
#
# Coordination Sequence:
#
# PCOD9118353 Si02
#       7
#     2   2   2   2   2   2   2
#     4  10  25  49  72  97 142 181 232 301 353 433
#     4  11  26  44  69 105 142 186 238 299 356 415
#     4  11  25  41  72 104 137 189 237 294 356 419
#     4  12  28  44  66 106 148 193 238 285 351 431
#     4  10  25  48  72 103 132 185 239 287 369 423
#     4  11  22  41  65  99 148 185 233 287 346 427
#     4  11  21  41  70 102 143 193 231 293 357 422
#
# _framework density 24.434702999999999
#
# number of rings (size 3 to 8) (size 9 to 14) (size 15 to 20)
#    0.000    1.143    2.857    1.714   10.000    1.143 
#    2.571    0.000    0.000    0.000    0.000    0.000 
#    0.000    0.000    0.000    0.000    0.000    0.000 
#
# Total GULP energy -78110.519686 kJ/mol
# GULP energy per Si atom -5579.322835 kJ/mol
# Density = 2.437909 g / cm^3
# Si number density = 24.434703 Si / 1000 Ang^3
#
#
#
# Elastic Constant Matrix: (Units=GPa)
#
#
# Indices 1 2 3 4 5 6 
#
# 1 68.8206 11.4408 6.9646 0.0000 -2.7670 0.0000
# 2 11.4408 42.9175 -17.1112 0.0000 -2.7420 0.0000
# 3 6.9646 -17.1112 22.0977 0.0000 4.2303 0.0000
# 4 0.0000 0.0000 0.0000 24.3350 0.0000 -0.5406
# 5 -2.7670 -2.7420 4.2303 0.0000 43.3336 0.0000
# 6 0.0000 0.0000 0.0000 -0.5406 0.0000 30.6078
#
#
#
# Elastic Compliance Matrix: (Units=1/GPa)
#
#
# Indices 1 2 3 4 5 6 
#
# 1 0.017662 -0.010055 -0.013703 0.000000 0.001829 0.000000
# 2 -0.010055 0.039438 0.033988 0.000000 -0.001464 0.000000
# 3 -0.013703 0.033988 0.077087 0.000000 -0.006250 0.000000
# 4 0.000000 0.000000 0.000000 0.041109 0.000000 0.000726
# 5 0.001829 -0.001464 -0.006250 0.000000 0.023711 0.000000
# 6 0.000000 0.000000 0.000000 0.000726 0.000000 0.032684
#
#
# Mechanical properties :
#
#
# Convention : Reuss Voigt Hill
#
# Bulk Modulus (GPa) = 6.46626 15.15824 10.81225
# Shear Modulus (GPa) = 19.02732 28.49139 23.75936
#
# Velocity S-wave (km/s) = 2.79355 3.41841 3.12165
# Velocity P-wave (km/s) = 3.61349 4.66881 4.17463
#
# Compressibility (1/GPa) = 0.15464880
#
# Stress axis : x y z
#
# Youngs Moduli (GPa) = 56.61788 25.35606 12.97239
#
# Poissons Ratio (x) = 0.25495 0.17776
# Poissons Ratio (y) = 0.56927 -0.44091
# Poissons Ratio (z) = 0.77581 -0.86180
#
# Static dielectric constant tensor:
#      x y z
#    x 1.956250 0.000000 0.062110 
#    y 0.000000 2.213010 0.000000 
#    z 0.062110 0.000000 1.978560 
# 
# From -- ./inp_files/7222.got.cif
#   From: 2010.05.17/outbox.cif.g08.bks.cpg/sg4_4_cif.got.tgz:7222.got - 2010.06.03 18:43:04.
