data_PCOD9118494
_publ_section_title
;
Structure prediction by ZEFSAII (Michael W. Deem and Ramdas Pophale) SiO2 
 PCOD9118494
Probable space group: P 21
;
_chemical_formula_sum "Si O2"
_cell_formula_units_Z 16
_cell_length_a 4.817649
_cell_length_b 22.647262
_cell_length_c 5.010092
_cell_angle_alpha 90.000000
_cell_angle_beta 95.153260
_cell_angle_gamma 90.000000
_cell_volume 544.424406
_symmetry_space_group_name_H-M "P 21"
_symmetry_group_IT_number 4
_symmetry_cell_setting 'monoclinic'
loop_
_space_group_symop_operation_xyz
x,y,z
-x,1/2+y,-z
loop_
_atom_site_type_symbol
_atom_site_label
_atom_site_fract_x
_atom_site_fract_y
_atom_site_fract_z
Si Si1 0.343440 0.413230 0.376303
Si Si2 0.402991 0.530299 0.157043
Si Si3 0.752683 0.602271 0.762455
Si Si4 0.220327 0.876958 0.952466
Si Si5 0.760052 0.712371 0.620874
Si Si6 0.055084 0.759915 0.164539
Si Si7 0.853409 0.138630 0.691277
Si Si8 0.946323 0.480162 0.752680
O O1 0.516029 0.472967 0.314103
O O2 0.583456 0.368385 0.288409
O O3 0.159068 0.438071 0.606482
O O4 0.091286 0.386784 0.176524
O O5 0.365645 0.586627 0.344209
O O6 0.549324 0.557317 0.914984
O O7 0.112644 0.502735 0.030229
O O8 0.545464 0.665037 0.724909
O O9 0.890311 0.543846 0.612614
O O10 0.958460 0.622657 0.034205
O O11 0.219719 0.819244 0.135748
O O12 0.279776 0.932817 0.153304
O O13 0.823272 0.754992 0.378694
O O14 0.931686 0.651097 0.535272
O O15 0.900791 0.745464 0.876555
O O16 0.255696 0.704894 0.259181
#
# Coordination Sequence:
#
# PCOD9118494 Si02
#       8
#     2   2   2   2   2   2   2   2
#     4  11  25  42  68  99 135 184 232 288 360 416
#     4  11  20  38  63  98 132 175 227 283 364 419
#     4   9  19  38  63  92 135 164 231 279 362 411
#     4  11  26  44  69  95 140 186 239 291 346 428
#     4   8  19  39  68  93 132 181 224 303 345 423
#     4   9  20  43  67  93 139 181 244 286 357 415
#     4   8  20  36  64  93 133 178 222 300 346 427
#     4  11  23  38  64  97 138 175 229 290 348 427
#
# _framework density 29.388839000000001
#
# number of rings (size 3 to 8) (size 9 to 14) (size 15 to 20)
#    1.500    0.500    2.500    0.750    3.500    0.000 
#    6.750    0.000    5.500    0.000    0.000    0.000 
#    0.000    0.000    0.000    0.000    0.000    0.000 
#
# Total GULP energy -89161.013718 kJ/mol
# GULP energy per Si atom -5572.563357 kJ/mol
# Density = 2.932195 g / cm^3
# Si number density = 29.388839 Si / 1000 Ang^3
#
#
#
# Elastic Constant Matrix: (Units=GPa)
#
#
# Indices 1 2 3 4 5 6 
#
# 1 68.0896 4.1448 1.5991 0.0000 -19.1750 0.0000
# 2 4.1448 110.7932 25.4534 0.0000 6.9815 0.0000
# 3 1.5991 25.4534 159.9251 0.0000 -23.3932 0.0000
# 4 0.0000 0.0000 0.0000 45.2063 0.0000 -4.8187
# 5 -19.1750 6.9815 -23.3932 0.0000 40.3476 0.0000
# 6 0.0000 0.0000 0.0000 -4.8187 0.0000 36.2685
#
#
#
# Elastic Compliance Matrix: (Units=1/GPa)
#
#
# Indices 1 2 3 4 5 6 
#
# 1 0.017389 -0.001574 0.001448 0.000000 0.009376 0.000000
# 2 -0.001574 0.009791 -0.002076 0.000000 -0.003646 0.000000
# 3 0.001448 -0.002076 0.007345 0.000000 0.005306 0.000000
# 4 0.000000 0.000000 0.000000 0.022439 0.000000 0.002981
# 5 0.009376 -0.003646 0.005306 0.000000 0.032948 0.000000
# 6 0.000000 0.000000 0.000000 0.002981 0.000000 0.027968
#
#
# Mechanical properties :
#
#
# Convention : Reuss Voigt Hill
#
# Bulk Modulus (GPa) = 33.19901 44.57805 38.88853
# Shear Modulus (GPa) = 37.78613 44.87185 41.32899
#
# Velocity S-wave (km/s) = 3.58960 3.91171 3.75411
# Velocity P-wave (km/s) = 5.33866 5.96685 5.66147
#
# Compressibility (1/GPa) = 0.03012138
#
# Stress axis : x y z
#
# Youngs Moduli (GPa) = 57.50862 102.13074 136.14731
#
# Poissons Ratio (x) = 0.16075 -0.19716
# Poissons Ratio (y) = 0.09052 0.28263
# Poissons Ratio (z) = -0.08328 0.21202
#
# Static dielectric constant tensor:
#      x y z
#    x 2.562570 0.000000 0.139350 
#    y 0.000000 2.358380 0.000000 
#    z 0.139350 0.000000 2.490160 
# 
# From -- ./inp_files/751.got.cif
#   From: 2010.05.17/outbox.cif.g08.bks.cpg/sg4_1_cif.got.tgz:751.got - 2010.06.03 18:43:04.
