data_PCOD9118026
_publ_section_title
;
Structure prediction by ZEFSAII (Michael W. Deem and Ramdas Pophale) SiO2 
 PCOD9118026
Probable space group: P 21
;
_chemical_formula_sum "Si O2"
_cell_formula_units_Z 14
_cell_length_a 9.728060
_cell_length_b 9.123953
_cell_length_c 9.457009
_cell_angle_alpha 90.000000
_cell_angle_beta 134.184505
_cell_angle_gamma 90.000000
_cell_volume 601.924850
_symmetry_space_group_name_H-M "P 21"
_symmetry_group_IT_number 4
_symmetry_cell_setting 'monoclinic'
loop_
_space_group_symop_operation_xyz
x,y,z
-x,1/2+y,-z
loop_
_atom_site_type_symbol
_atom_site_label
_atom_site_fract_x
_atom_site_fract_y
_atom_site_fract_z
Si Si1 0.146481 0.969420 0.271120
Si Si2 0.649803 0.934707 0.310421
Si Si3 0.930724 0.185695 0.632248
Si Si4 0.259525 0.561063 0.903169
Si Si5 0.803464 0.344292 0.282223
Si Si6 0.396292 0.094918 0.667398
Si Si7 0.207054 0.010387 0.995387
O O1 0.170785 0.801125 0.336781
O O2 0.334055 0.046465 0.467609
O O3 0.120345 0.988894 0.086883
O O4 0.962913 0.040455 0.219214
O O5 0.650685 0.766056 0.356651
O O6 0.801801 0.043539 0.497500
O O7 0.434304 0.996613 0.174644
O O8 0.685375 0.936027 0.167426
O O9 0.950638 0.272476 0.498082
O O10 0.124563 0.150800 0.855191
O O11 0.384238 0.568518 0.133065
O O12 0.320350 0.703110 0.851963
O O13 0.714384 0.484269 0.300537
O O14 0.863357 0.390069 0.168531
#
# Coordination Sequence:
#
# PCOD9118026 Si02
#       7
#     2   2   2   2   2   2   2
#     4  11  30  43  71 105 149 193 233 298 370 425
#     4  11  26  42  79 105 137 191 247 297 354 427
#     4  10  28  46  71 106 147 185 246 292 361 430
#     4  11  23  44  71 103 140 190 239 302 356 428
#     4  10  24  43  74 103 134 184 244 289 356 424
#     4  11  23  45  75 105 140 185 246 300 357 431
#     4  12  26  47  71 107 147 184 239 300 362 425
#
# _framework density 23.258717999999998
#
# number of rings (size 3 to 8) (size 9 to 14) (size 15 to 20)
#    0.000    1.143    2.857    0.000   14.000    5.714 
#    0.000    0.000    0.000    0.000    0.000    0.000 
#    0.000    0.000    0.000    0.000    0.000    0.000 
#
# Total GULP energy -78118.824479 kJ/mol
# GULP energy per Si atom -5579.916034 kJ/mol
# Density = 2.320578 g / cm^3
# Si number density = 23.258718 Si / 1000 Ang^3
#
#
#
# Elastic Constant Matrix: (Units=GPa)
#
#
# Indices 1 2 3 4 5 6 
#
# 1 51.0122 10.9178 27.3988 0.0000 -0.7907 0.0000
# 2 10.9178 120.8420 57.0137 0.0000 7.6617 0.0000
# 3 27.3988 57.0137 145.4174 0.0000 -3.9432 0.0000
# 4 0.0000 0.0000 0.0000 46.3084 0.0000 8.8290
# 5 -0.7907 7.6617 -3.9432 0.0000 49.1263 0.0000
# 6 0.0000 0.0000 0.0000 8.8290 0.0000 11.2516
#
#
#
# Elastic Compliance Matrix: (Units=1/GPa)
#
#
# Indices 1 2 3 4 5 6 
#
# 1 0.021811 -0.000042 -0.004092 0.000000 0.000029 0.000000
# 2 -0.000042 0.010335 -0.004097 0.000000 -0.001941 0.000000
# 3 -0.004092 -0.004097 0.009290 0.000000 0.001319 0.000000
# 4 0.000000 0.000000 0.000000 0.025393 0.000000 -0.019926
# 5 0.000029 -0.001941 0.001319 0.000000 0.020765 0.000000
# 6 0.000000 0.000000 0.000000 -0.019926 0.000000 0.104511
#
#
# Mechanical properties :
#
#
# Convention : Reuss Voigt Hill
#
# Bulk Modulus (GPa) = 40.04197 56.43692 48.23944
# Shear Modulus (GPa) = 23.05305 36.13335 29.59320
#
# Velocity S-wave (km/s) = 3.15168 3.94577 3.57087
# Velocity P-wave (km/s) = 5.52244 6.71389 6.14710
#
# Compressibility (1/GPa) = 0.02497380
#
# Stress axis : x y z
#
# Youngs Moduli (GPa) = 45.84944 96.75838 107.64469
#
# Poissons Ratio (x) = 0.00403 0.44052
# Poissons Ratio (y) = 0.00191 0.44100
# Poissons Ratio (z) = 0.18763 0.39640
#
# Static dielectric constant tensor:
#      x y z
#    x 1.885120 0.000000 0.037960 
#    y 0.000000 2.086530 0.000000 
#    z 0.037960 0.000000 1.861970 
# 
# From -- ./inp_files/8042.got.cif
#   From: 2010.05.17/outbox.cif.g08.bks.cpg/sg4_5_cif.got.tgz:8042.got - 2010.06.03 18:43:04.
