data_PCOD9118141
_publ_section_title
;
Structure prediction by ZEFSAII (Michael W. Deem and Ramdas Pophale) SiO2 
 PCOD9118141
Probable space group: P 21
;
_chemical_formula_sum "Si O2"
_cell_formula_units_Z 14
_cell_length_a 7.233772
_cell_length_b 15.295338
_cell_length_c 4.991274
_cell_angle_alpha 90.000000
_cell_angle_beta 66.608360
_cell_angle_gamma 90.000000
_cell_volume 506.861500
_symmetry_space_group_name_H-M "P 21"
_symmetry_group_IT_number 4
_symmetry_cell_setting 'monoclinic'
loop_
_space_group_symop_operation_xyz
x,y,z
-x,1/2+y,-z
loop_
_atom_site_type_symbol
_atom_site_label
_atom_site_fract_x
_atom_site_fract_y
_atom_site_fract_z
Si Si1 0.141423 0.114540 0.526973
Si Si2 0.076991 0.870107 0.965797
Si Si3 0.464841 0.603351 0.328696
Si Si4 0.380934 0.792053 0.448943
Si Si5 0.761595 0.796933 0.568980
Si Si6 0.065425 0.555401 0.868246
Si Si7 0.497601 0.930507 0.995760
O O1 0.336307 0.094204 0.598827
O O2 0.167402 0.205512 0.354227
O O3 0.073731 0.053734 0.321104
O O4 0.979034 0.120831 0.860938
O O5 0.292429 0.894118 0.975589
O O6 0.921392 0.822227 0.249590
O O7 0.975790 0.962881 0.968200
O O8 0.155076 0.811538 0.674213
O O9 0.409802 0.702431 0.263467
O O10 0.281595 0.573346 0.621403
O O11 0.483528 0.532208 0.080767
O O12 0.543544 0.769511 0.579513
O O13 0.464347 0.886143 0.301508
O O14 0.696680 0.880524 0.774827
#
# Coordination Sequence:
#
# PCOD9118141 Si02
#       7
#     2   2   2   2   2   2   2
#     4  11  28  48  77 114 156 203 262 322 393 475
#     4  11  24  45  68 108 146 197 259 324 385 469
#     4  11  25  52  75 113 160 207 262 330 396 470
#     4  10  26  46  74 108 155 207 260 326 397 464
#     4  10  24  46  71 106 153 198 256 319 394 469
#     4  12  27  47  78 114 149 211 257 325 395 472
#     4  11  24  44  73 109 149 203 256 324 386 463
#
# _framework density 27.620956
#
# number of rings (size 3 to 8) (size 9 to 14) (size 15 to 20)
#    0.000    1.143    2.857    0.857    8.000    3.429 
#    0.000    0.000    0.000    0.000    0.000    0.000 
#    0.000    0.000    0.000    0.000    0.000    0.000 
#
# Total GULP energy -78312.966980 kJ/mol
# GULP energy per Si atom -5593.783356 kJ/mol
# Density = 2.755809 g / cm^3
# Si number density = 27.620956 Si / 1000 Ang^3
#
#
#
# Elastic Constant Matrix: (Units=GPa)
#
#
# Indices 1 2 3 4 5 6 
#
# 1 70.2252 50.4486 50.8353 0.0000 -0.0235 0.0000
# 2 50.4486 78.0019 9.8879 0.0000 -9.5259 0.0000
# 3 50.8353 9.8879 135.9977 0.0000 -31.8313 0.0000
# 4 0.0000 0.0000 0.0000 33.0230 0.0000 -1.6854
# 5 -0.0235 -9.5259 -31.8313 0.0000 54.2520 0.0000
# 6 0.0000 0.0000 0.0000 -1.6854 0.0000 26.6681
#
#
#
# Elastic Compliance Matrix: (Units=1/GPa)
#
#
# Indices 1 2 3 4 5 6 
#
# 1 0.058057 -0.037029 -0.023793 0.000000 -0.020436 0.000000
# 2 -0.037029 0.036745 0.014694 0.000000 0.015057 0.000000
# 3 -0.023793 0.014694 0.018292 0.000000 0.013302 0.000000
# 4 0.000000 0.000000 0.000000 0.030380 0.000000 0.001920
# 5 -0.020436 0.015057 0.013302 0.000000 0.028872 0.000000
# 6 0.000000 0.000000 0.000000 0.001920 0.000000 0.037619
#
#
# Mechanical properties :
#
#
# Convention : Reuss Voigt Hill
#
# Bulk Modulus (GPa) = 47.98697 56.28539 52.13618
# Shear Modulus (GPa) = 16.17252 34.32548 25.24900
#
# Velocity S-wave (km/s) = 2.42237 3.52907 3.02673
# Velocity P-wave (km/s) = 5.02344 6.08504 5.57955
#
# Compressibility (1/GPa) = 0.02083899
#
# Stress axis : x y z
#
# Youngs Moduli (GPa) = 17.22444 27.21450 54.66959
#
# Poissons Ratio (x) = 1.00772 1.30073
# Poissons Ratio (y) = 0.63780 -0.80330
# Poissons Ratio (z) = 0.40981 -0.39988
#
# Static dielectric constant tensor:
#      x y z
#    x 2.163030 0.000000 0.032590 
#    y 0.000000 2.295950 0.000000 
#    z 0.032590 0.000000 2.157360 
# 
# From -- ./inp_files/1470.got.cif
#   From: 2010.05.17/outbox.cif.g08.bks.cpg/sg4_1_cif.got.tgz:1470.got - 2010.06.03 18:43:04.
