data_PCOD9118111
_publ_section_title
;
Structure prediction by ZEFSAII (Michael W. Deem and Ramdas Pophale) SiO2 
 PCOD9118111
Probable space group: P 21
;
_chemical_formula_sum "Si O2"
_cell_formula_units_Z 16
_cell_length_a 9.216820
_cell_length_b 7.782944
_cell_length_c 18.694032
_cell_angle_alpha 90.000000
_cell_angle_beta 30.735324
_cell_angle_gamma 90.000000
_cell_volume 685.347571
_symmetry_space_group_name_H-M "P 21"
_symmetry_group_IT_number 4
_symmetry_cell_setting 'monoclinic'
loop_
_space_group_symop_operation_xyz
x,y,z
-x,1/2+y,-z
loop_
_atom_site_type_symbol
_atom_site_label
_atom_site_fract_x
_atom_site_fract_y
_atom_site_fract_z
Si Si1 0.856967 0.412980 0.452716
Si Si2 0.123290 0.408629 0.606329
Si Si3 0.009367 0.268874 0.100971
Si Si4 0.423786 0.941263 0.084686
Si Si5 0.373495 0.634293 0.609148
Si Si6 0.164510 0.734039 0.395187
Si Si7 0.601996 0.836531 0.857328
Si Si8 0.724115 0.537843 0.124290
O O1 0.540910 0.464472 0.564723
O O2 0.874933 0.267854 0.504928
O O3 0.980637 0.577407 0.443273
O O4 0.072908 0.388234 0.295757
O O5 0.247760 0.585471 0.585088
O O6 0.386396 0.279421 0.494184
O O7 0.879028 0.359714 0.767102
O O8 0.952953 0.391041 0.603944
O O9 0.859147 0.189392 0.234141
O O10 0.841789 0.434527 0.142089
O O11 0.323021 0.332299 0.988335
O O12 0.038867 0.130499 0.024640
O O13 0.424231 0.134649 0.115192
O O14 0.478498 0.937893 0.977260
O O15 0.490363 0.681118 0.243627
O O16 0.432431 0.898107 0.859552
#
# Coordination Sequence:
#
# PCOD9118111 Si02
#       8
#     2   2   2   2   2   2   2   2
#     4  10  26  44  71 109 146 190 247 306 383 446
#     4  11  26  48  72 110 145 200 247 313 374 453
#     4  12  27  48  72 112 149 199 250 316 378 455
#     4  12  26  47  77 105 152 201 253 310 387 444
#     4  11  28  46  73 109 153 190 257 311 377 450
#     4  10  24  45  73 102 148 195 241 306 377 455
#     4  11  26  45  76 107 146 200 253 312 373 458
#     4  11  25  47  72 110 145 193 256 306 381 445
#
# _framework density 23.34582
#
# number of rings (size 3 to 8) (size 9 to 14) (size 15 to 20)
#    0.000    1.000    1.250    3.000   17.500    0.000 
#    2.250    0.000    0.000    0.000    0.000    0.000 
#    0.000    0.000    0.000    0.000    0.000    0.000 
#
# Total GULP energy -89564.876340 kJ/mol
# GULP energy per Si atom -5597.804771 kJ/mol
# Density = 2.329268 g / cm^3
# Si number density = 23.345820 Si / 1000 Ang^3
#
#
#
# Elastic Constant Matrix: (Units=GPa)
#
#
# Indices 1 2 3 4 5 6 
#
# 1 46.6162 1.3577 19.6131 0.0000 7.2458 0.0000
# 2 1.3577 80.8401 35.6019 0.0000 1.7633 0.0000
# 3 19.6131 35.6019 122.0643 0.0000 3.3017 0.0000
# 4 0.0000 0.0000 0.0000 37.0222 0.0000 5.6090
# 5 7.2458 1.7633 3.3017 0.0000 35.9793 0.0000
# 6 0.0000 0.0000 0.0000 5.6090 0.0000 51.7817
#
#
#
# Elastic Compliance Matrix: (Units=1/GPa)
#
#
# Indices 1 2 3 4 5 6 
#
# 1 0.023855 0.001528 -0.004157 0.000000 -0.004498 0.000000
# 2 0.001528 0.014295 -0.004398 0.000000 -0.000605 0.000000
# 3 -0.004157 -0.004398 0.010140 0.000000 0.000122 0.000000
# 4 0.000000 0.000000 0.000000 0.027461 0.000000 -0.002975
# 5 -0.004498 -0.000605 0.000122 0.000000 0.028718 0.000000
# 6 0.000000 0.000000 0.000000 -0.002975 0.000000 0.019634
#
#
# Mechanical properties :
#
#
# Convention : Reuss Voigt Hill
#
# Bulk Modulus (GPa) = 29.20961 40.29623 34.75292
# Shear Modulus (GPa) = 33.42919 37.81984 35.62452
#
# Velocity S-wave (km/s) = 3.78817 4.02927 3.91058
# Velocity P-wave (km/s) = 5.62783 6.24057 5.94210
#
# Compressibility (1/GPa) = 0.03423531
#
# Stress axis : x y z
#
# Youngs Moduli (GPa) = 41.91930 69.95607 98.62005
#
# Poissons Ratio (x) = -0.10691 0.40997
# Poissons Ratio (y) = -0.06406 0.43378
# Poissons Ratio (z) = 0.17426 0.30770
#
# Static dielectric constant tensor:
#      x y z
#    x 1.875720 0.000000 -0.010090 
#    y 0.000000 1.937500 0.000000 
#    z -0.010090 0.000000 1.837260 
# 
# From -- ./inp_files/14935.got.cif
#   From: 2010.05.17/outbox.cif.g08.bks.cpg/sg4_8_cif.got.tgz:14935.got - 2010.06.03 18:43:04.
