data_PCOD9118177
_publ_section_title
;
Structure prediction by ZEFSAII (Michael W. Deem and Ramdas Pophale) SiO2 
 PCOD9118177
Probable space group: P 21
;
_chemical_formula_sum "Si O2"
_cell_formula_units_Z 16
_cell_length_a 5.349274
_cell_length_b 13.634251
_cell_length_c 8.661471
_cell_angle_alpha 90.000000
_cell_angle_beta 79.390679
_cell_angle_gamma 90.000000
_cell_volume 620.911223
_symmetry_space_group_name_H-M "P 21"
_symmetry_group_IT_number 4
_symmetry_cell_setting 'monoclinic'
loop_
_space_group_symop_operation_xyz
x,y,z
-x,1/2+y,-z
loop_
_atom_site_type_symbol
_atom_site_label
_atom_site_fract_x
_atom_site_fract_y
_atom_site_fract_z
Si Si1 0.600057 0.583900 0.650155
Si Si2 0.014268 0.663834 0.046736
Si Si3 0.874331 0.965671 0.406085
Si Si4 0.359488 0.796833 0.149447
Si Si5 0.726564 0.750197 0.849192
Si Si6 0.720874 0.942551 0.754183
Si Si7 0.166337 0.956832 0.950547
Si Si8 0.686080 0.746748 0.369475
O O1 0.342341 0.520763 0.669505
O O2 0.603892 0.651085 0.802387
O O3 0.639790 0.662871 0.504097
O O4 0.843544 0.511507 0.633537
O O5 0.954350 0.558818 0.988474
O O6 0.816347 0.691515 0.207221
O O7 0.264577 0.689057 0.110577
O O8 0.999954 0.727274 0.890873
O O9 0.783258 0.994694 0.589573
O O10 0.847249 0.846755 0.388100
O O11 0.430897 0.792398 0.319450
O O12 0.601638 0.805254 0.009713
O O13 0.179439 0.878527 0.088950
O O14 0.686680 0.827381 0.719513
O O15 0.453952 0.974073 0.858137
O O16 0.973178 0.936537 0.830996
#
# Coordination Sequence:
#
# PCOD9118177 Si02
#       8
#     2   2   2   2   2   2   2   2
#     4  12  29  49  76 112 143 201 249 304 374 449
#     4  11  24  44  73 105 145 192 240 308 368 437
#     4  12  28  46  77 108 152 192 252 305 375 437
#     4  10  25  47  73 108 148 197 243 313 374 438
#     4  10  24  47  69 100 143 187 244 293 366 430
#     4  11  22  48  68 103 139 197 233 299 354 443
#     4  11  25  42  77 101 146 189 253 287 371 447
#     4  11  27  49  73 111 154 193 246 321 372 441
#
# _framework density 25.768581000000001
#
# number of rings (size 3 to 8) (size 9 to 14) (size 15 to 20)
#    0.000    1.000    2.500    2.250   12.250    0.000 
#    0.000    0.000    0.000    0.000    0.000    0.000 
#    0.000    0.000    0.000    0.000    0.000    0.000 
#
# Total GULP energy -89197.994100 kJ/mol
# GULP energy per Si atom -5574.874631 kJ/mol
# Density = 2.570993 g / cm^3
# Si number density = 25.768581 Si / 1000 Ang^3
#
#
#
# Elastic Constant Matrix: (Units=GPa)
#
#
# Indices 1 2 3 4 5 6 
#
# 1 111.3212 54.6669 11.1634 0.0000 20.7850 0.0000
# 2 54.6669 122.0987 30.2804 0.0000 18.6423 0.0000
# 3 11.1634 30.2804 58.6781 0.0000 7.1941 0.0000
# 4 0.0000 0.0000 0.0000 43.7970 0.0000 11.5731
# 5 20.7850 18.6423 7.1941 0.0000 35.7055 0.0000
# 6 0.0000 0.0000 0.0000 11.5731 0.0000 38.4314
#
#
#
# Elastic Compliance Matrix: (Units=1/GPa)
#
#
# Indices 1 2 3 4 5 6 
#
# 1 0.012208 -0.004951 0.000807 0.000000 -0.004684 0.000000
# 2 -0.004951 0.012000 -0.004959 0.000000 -0.002385 0.000000
# 3 0.000807 -0.004959 0.019674 0.000000 -0.001845 0.000000
# 4 0.000000 0.000000 0.000000 0.024807 0.000000 -0.007470
# 5 -0.004684 -0.002385 -0.001845 0.000000 0.032350 0.000000
# 6 0.000000 0.000000 0.000000 -0.007470 0.000000 0.028270
#
#
# Mechanical properties :
#
#
# Convention : Reuss Voigt Hill
#
# Bulk Modulus (GPa) = 38.94584 53.81325 46.37955
# Shear Modulus (GPa) = 32.03631 36.65261 34.34446
#
# Velocity S-wave (km/s) = 3.52977 3.77553 3.65472
# Velocity P-wave (km/s) = 5.63550 6.31940 5.98722
#
# Compressibility (1/GPa) = 0.02567668
#
# Stress axis : x y z
#
# Youngs Moduli (GPa) = 81.91454 83.33042 50.82940
#
# Poissons Ratio (x) = 0.41254 -0.04099
# Poissons Ratio (y) = 0.40553 0.25204
# Poissons Ratio (z) = -0.06606 0.41320
#
# Static dielectric constant tensor:
#      x y z
#    x 2.077870 0.000000 0.002400 
#    y 0.000000 2.223120 0.000000 
#    z 0.002400 0.000000 2.004310 
# 
# From -- ./inp_files/4689.got.cif
#   From: 2010.05.17/outbox.cif.g08.bks.cpg/sg4_3_cif.got.tgz:4689.got - 2010.06.03 18:43:04.
