data_PCOD9118411
_publ_section_title
;
Structure prediction by ZEFSAII (Michael W. Deem and Ramdas Pophale) SiO2 
 PCOD9118411
Probable space group: P 21
;
_chemical_formula_sum "Si O2"
_cell_formula_units_Z 16
_cell_length_a 9.370383
_cell_length_b 4.952393
_cell_length_c 14.883162
_cell_angle_alpha 90.000000
_cell_angle_beta 57.590509
_cell_angle_gamma 90.000000
_cell_volume 583.086710
_symmetry_space_group_name_H-M "P 21"
_symmetry_group_IT_number 4
_symmetry_cell_setting 'monoclinic'
loop_
_space_group_symop_operation_xyz
x,y,z
-x,1/2+y,-z
loop_
_atom_site_type_symbol
_atom_site_label
_atom_site_fract_x
_atom_site_fract_y
_atom_site_fract_z
Si Si1 0.913052 0.482240 0.801937
Si Si2 0.941754 0.150118 0.072901
Si Si3 0.542046 0.255278 0.931464
Si Si4 0.978418 0.307866 0.392688
Si Si5 0.727999 0.630670 0.602004
Si Si6 0.604625 0.959025 0.473680
Si Si7 0.817759 0.618526 0.279249
Si Si8 0.599583 0.808383 0.212783
O O1 0.718988 0.410704 0.859908
O O2 0.973348 0.694032 0.857162
O O3 0.983362 0.531099 0.677059
O O4 0.007751 0.231690 0.814664
O O5 0.756736 0.013490 0.144171
O O6 0.054233 0.931103 0.981245
O O7 0.458159 0.198811 0.864038
O O8 0.435042 0.475116 0.023848
O O9 0.865660 0.414077 0.514990
O O10 0.880862 0.456477 0.344435
O O11 0.171092 0.327126 0.363042
O O12 0.676690 0.836462 0.540056
O O13 0.564212 0.469311 0.692638
O O14 0.442703 0.769438 0.509249
O O15 0.722623 0.884888 0.351827
O O16 0.676506 0.567882 0.251047
#
# Coordination Sequence:
#
# PCOD9118411 Si02
#       8
#     2   2   2   2   2   2   2   2
#     4  11  26  47  78 110 161 212 267 346 439 494
#     4  11  26  49  78 115 160 213 280 351 431 502
#     4  12  28  52  80 119 162 213 283 359 423 507
#     4  11  27  48  75 116 165 221 274 352 411 526
#     4  11  26  47  78 118 164 224 282 340 428 512
#     4  11  25  46  71 110 161 208 268 337 395 486
#     4  10  26  45  75 110 159 211 275 336 423 496
#     4  11  24  50  79 120 156 222 277 351 422 519
#
# _framework density 27.440173000000001
#
# number of rings (size 3 to 8) (size 9 to 14) (size 15 to 20)
#    0.000    1.000    2.500    1.500   12.250    0.000 
#    6.750    0.000    0.000    0.000    0.000    0.000 
#    0.000    0.000    0.000    0.000    0.000    0.000 
#
# Total GULP energy -89341.403239 kJ/mol
# GULP energy per Si atom -5583.837702 kJ/mol
# Density = 2.737772 g / cm^3
# Si number density = 27.440173 Si / 1000 Ang^3
#
#
#
# Elastic Constant Matrix: (Units=GPa)
#
#
# Indices 1 2 3 4 5 6 
#
# 1 157.1193 27.2413 36.1922 0.0000 27.0652 0.0000
# 2 27.2413 98.3940 18.1617 0.0000 1.6010 0.0000
# 3 36.1922 18.1617 95.1419 0.0000 7.3322 0.0000
# 4 0.0000 0.0000 0.0000 35.7542 0.0000 18.2503
# 5 27.0652 1.6010 7.3322 0.0000 60.4801 0.0000
# 6 0.0000 0.0000 0.0000 18.2503 0.0000 1.3824
#
#
#
# Elastic Compliance Matrix: (Units=1/GPa)
#
#
# Indices 1 2 3 4 5 6 
#
# 1 0.007740 -0.001651 -0.002388 0.000000 -0.003131 0.000000
# 2 -0.001651 0.010887 -0.001499 0.000000 0.000632 0.000000
# 3 -0.002388 -0.001499 0.011729 0.000000 -0.000314 0.000000
# 4 0.000000 0.000000 0.000000 -0.004874 0.000000 0.064342
# 5 -0.003131 0.000632 -0.000314 0.000000 0.017957 0.000000
# 6 0.000000 0.000000 0.000000 0.064342 0.000000 -0.126052
#
#
# Mechanical properties :
#
#
# Convention : Reuss Voigt Hill
#
# Bulk Modulus (GPa) = 51.86639 57.09397 54.48018
# Shear Modulus (GPa) = -76.79236 37.46067 -19.66584
#
# Velocity S-wave (km/s) = -5.29586 3.69884 -2.67999
# Velocity P-wave (km/s) = 4.29560 6.25250 3.21260
#
# Compressibility (1/GPa) = 0.01928031
#
# Stress axis : x y z
#
# Youngs Moduli (GPa) = 129.19547 91.85482 85.25678
#
# Poissons Ratio (x) = 0.15167 0.20359
# Poissons Ratio (y) = 0.21333 0.12778
# Poissons Ratio (z) = 0.30851 0.13767
#
# Static dielectric constant tensor:
#      x y z
#    x 2.174150 0.000000 0.023790 
#    y 0.000000 2.231710 0.000000 
#    z 0.023790 0.000000 2.254020 
# 
# From -- ./inp_files/13545.got.cif
#   From: 2010.05.17/outbox.cif.g08.bks.cpg/sg4_7_cif.got.tgz:13545.got - 2010.06.03 18:43:04.
