data_PCOD9118174
_publ_section_title
;
Structure prediction by ZEFSAII (Michael W. Deem and Ramdas Pophale) SiO2 
 PCOD9118174
Probable space group: P 21
;
_chemical_formula_sum "Si O2"
_cell_formula_units_Z 14
_cell_length_a 9.167842
_cell_length_b 10.061793
_cell_length_c 7.338874
_cell_angle_alpha 90.000000
_cell_angle_beta 127.118925
_cell_angle_gamma 90.000000
_cell_volume 539.808598
_symmetry_space_group_name_H-M "P 21"
_symmetry_group_IT_number 4
_symmetry_cell_setting 'monoclinic'
loop_
_space_group_symop_operation_xyz
x,y,z
-x,1/2+y,-z
loop_
_atom_site_type_symbol
_atom_site_label
_atom_site_fract_x
_atom_site_fract_y
_atom_site_fract_z
Si Si1 0.310185 0.443980 0.127759
Si Si2 0.136693 0.043187 0.094716
Si Si3 0.826038 0.868922 0.365025
Si Si4 0.847027 0.105191 0.651758
Si Si5 0.479589 0.180908 0.306694
Si Si6 0.915219 0.264184 0.145743
Si Si7 0.498956 0.671682 0.107539
O O1 0.189503 0.405325 0.859674
O O2 0.216960 0.529929 0.212989
O O3 0.366278 0.310195 0.267401
O O4 0.485188 0.525149 0.183453
O O5 0.354837 0.059976 0.285278
O O6 0.040571 0.139308 0.174191
O O7 0.060606 0.120800 0.852594
O O8 0.088909 0.889491 0.001143
O O9 0.657331 0.771864 0.287484
O O10 0.004894 0.807081 0.596430
O O11 0.811790 0.009017 0.457398
O O12 0.687888 0.211362 0.518461
O O13 0.478305 0.161552 0.090214
O O14 0.704086 0.226492 0.007853
#
# Coordination Sequence:
#
# PCOD9118174 Si02
#       7
#     2   2   2   2   2   2   2
#     4  11  24  44  69 103 142 185 243 298 350 437
#     4  11  25  43  72 110 141 190 246 299 352 447
#     4  10  24  47  67 101 144 186 238 302 357 427
#     4  11  23  44  70 100 144 183 236 301 360 421
#     4  11  25  43  72 101 141 194 239 297 365 423
#     4  11  25  46  74 105 150 190 241 303 368 423
#     4  11  24  47  70 104 144 190 243 300 356 440
#
# _framework density 25.935119
#
# number of rings (size 3 to 8) (size 9 to 14) (size 15 to 20)
#    0.000    1.143    2.857    2.571    6.000    3.429 
#    0.000    2.857    0.000    0.000    0.000    0.000 
#    0.000    0.000    0.000    0.000    0.000    0.000 
#
# Total GULP energy -78149.053920 kJ/mol
# GULP energy per Si atom -5582.075280 kJ/mol
# Density = 2.587609 g / cm^3
# Si number density = 25.935119 Si / 1000 Ang^3
#
#
#
# Elastic Constant Matrix: (Units=GPa)
#
#
# Indices 1 2 3 4 5 6 
#
# 1 85.9388 23.8570 6.6692 0.0000 4.1160 0.0000
# 2 23.8570 58.6998 6.5753 0.0000 -1.4092 0.0000
# 3 6.6692 6.5753 101.9603 0.0000 3.7114 0.0000
# 4 0.0000 0.0000 0.0000 39.4397 0.0000 -1.9922
# 5 4.1160 -1.4092 3.7114 0.0000 44.5634 0.0000
# 6 0.0000 0.0000 0.0000 -1.9922 0.0000 31.9413
#
#
#
# Elastic Compliance Matrix: (Units=1/GPa)
#
#
# Indices 1 2 3 4 5 6 
#
# 1 0.013224 -0.005354 -0.000470 0.000000 -0.001352 0.000000
# 2 -0.005354 0.019346 -0.000940 0.000000 0.001185 0.000000
# 3 -0.000470 -0.000940 0.009929 0.000000 -0.000813 0.000000
# 4 0.000000 0.000000 0.000000 0.025435 0.000000 0.001586
# 5 -0.001352 0.001185 -0.000813 0.000000 0.022670 0.000000
# 6 0.000000 0.000000 0.000000 0.001586 0.000000 0.031406
#
#
# Mechanical properties :
#
#
# Convention : Reuss Voigt Hill
#
# Bulk Modulus (GPa) = 34.52095 35.64463 35.08279
# Shear Modulus (GPa) = 34.43619 37.15539 35.79579
#
# Velocity S-wave (km/s) = 3.64783 3.78911 3.71914
# Velocity P-wave (km/s) = 5.57509 5.73732 5.65678
#
# Compressibility (1/GPa) = 0.02896792
#
# Stress axis : x y z
#
# Youngs Moduli (GPa) = 75.62131 51.69114 100.71749
#
# Poissons Ratio (x) = 0.27676 0.04739
# Poissons Ratio (y) = 0.40489 0.09472
# Poissons Ratio (z) = 0.03558 0.04861
#
# Static dielectric constant tensor:
#      x y z
#    x 2.166860 0.000000 0.158830 
#    y 0.000000 2.138760 0.000000 
#    z 0.158830 0.000000 2.225730 
# 
# From -- ./inp_files/8238.got.cif
#   From: 2010.05.17/outbox.cif.g08.bks.cpg/sg4_5_cif.got.tgz:8238.got - 2010.06.03 18:43:04.
