data_PCOD9118426
_publ_section_title
;
Structure prediction by ZEFSAII (Michael W. Deem and Ramdas Pophale) SiO2 
 PCOD9118426
Probable space group: P 21
;
_chemical_formula_sum "Si O2"
_cell_formula_units_Z 16
_cell_length_a 9.560219
_cell_length_b 11.527311
_cell_length_c 5.521278
_cell_angle_alpha 90.000000
_cell_angle_beta 106.537397
_cell_angle_gamma 90.000000
_cell_volume 583.295148
_symmetry_space_group_name_H-M "P 21"
_symmetry_group_IT_number 4
_symmetry_cell_setting 'monoclinic'
loop_
_space_group_symop_operation_xyz
x,y,z
-x,1/2+y,-z
loop_
_atom_site_type_symbol
_atom_site_label
_atom_site_fract_x
_atom_site_fract_y
_atom_site_fract_z
Si Si1 0.998450 0.696790 0.193388
Si Si2 0.324167 0.152371 0.763423
Si Si3 0.314199 0.361998 0.417773
Si Si4 0.184505 0.525308 0.980321
Si Si5 0.987509 0.906948 0.482455
Si Si6 0.162041 0.882073 0.002847
Si Si7 0.622851 0.425660 0.501262
Si Si8 0.620910 0.217596 0.151418
O O1 0.829717 0.670539 0.170722
O O2 0.116009 0.600972 0.168944
O O3 0.042977 0.777490 0.443611
O O4 0.029139 0.793988 0.001881
O O5 0.328155 0.228978 0.515638
O O6 0.454179 0.197666 0.997599
O O7 0.367978 0.022752 0.702359
O O8 0.269072 0.413941 0.131651
O O9 0.464784 0.428766 0.547461
O O10 0.176538 0.397373 0.508696
O O11 0.289303 0.600679 0.860071
O O12 0.040974 0.490343 0.757996
O O13 0.095575 0.947968 0.741975
O O14 0.239468 0.948673 0.259100
O O15 0.298184 0.803865 0.992630
O O16 0.628662 0.293540 0.400023
#
# Coordination Sequence:
#
# PCOD9118426 Si02
#       8
#     2   2   2   2   2   2   2   2
#     4  10  26  49  80 119 165 213 282 347 418 502
#     4  11  26  52  84 126 166 222 282 355 422 515
#     4  11  26  49  84 120 169 215 281 347 428 499
#     4  11  26  51  83 123 164 229 275 357 432 495
#     4  11  26  49  83 120 161 222 275 344 426 506
#     4  11  25  52  80 118 167 210 273 348 418 508
#     4  12  27  51  86 124 167 224 283 352 424 510
#     4  11  26  49  80 120 165 219 281 338 426 513
#
# _framework density 27.430368999999999
#
# number of rings (size 3 to 8) (size 9 to 14) (size 15 to 20)
#    0.000    1.000    2.500    1.500    5.250   10.000 
#    2.250   20.000    0.000    0.000    3.250    0.000 
#    0.000    0.000    0.000    0.000    0.000    0.000 
#
# Total GULP energy -89458.372652 kJ/mol
# GULP energy per Si atom -5591.148291 kJ/mol
# Density = 2.736794 g / cm^3
# Si number density = 27.430369 Si / 1000 Ang^3
#
#
#
# Elastic Constant Matrix: (Units=GPa)
#
#
# Indices 1 2 3 4 5 6 
#
# 1 210.8822 63.0990 46.9927 0.0000 16.6298 0.0000
# 2 63.0990 126.2107 55.4838 0.0000 12.1425 0.0000
# 3 46.9927 55.4838 149.5312 0.0000 29.5968 0.0000
# 4 0.0000 0.0000 0.0000 37.6365 0.0000 -6.0971
# 5 16.6298 12.1425 29.5968 0.0000 48.1332 0.0000
# 6 0.0000 0.0000 0.0000 -6.0971 0.0000 48.6012
#
#
#
# Elastic Compliance Matrix: (Units=1/GPa)
#
#
# Indices 1 2 3 4 5 6 
#
# 1 0.005705 -0.002456 -0.000699 0.000000 -0.000922 0.000000
# 2 -0.002456 0.010528 -0.003162 0.000000 0.000137 0.000000
# 3 -0.000699 -0.003162 0.008966 0.000000 -0.004474 0.000000
# 4 0.000000 0.000000 0.000000 0.027121 0.000000 0.003402
# 5 -0.000922 0.000137 -0.004474 0.000000 0.023811 0.000000
# 6 0.000000 0.000000 0.000000 0.003402 0.000000 0.021002
#
#
# Mechanical properties :
#
#
# Convention : Reuss Voigt Hill
#
# Bulk Modulus (GPa) = 79.58512 90.86389 85.22451
# Shear Modulus (GPa) = 43.87649 48.27742 46.07696
#
# Velocity S-wave (km/s) = 4.00379 4.19979 4.10296
# Velocity P-wave (km/s) = 7.10283 7.53092 7.32001
#
# Compressibility (1/GPa) = 0.01256516
#
# Stress axis : x y z
#
# Youngs Moduli (GPa) = 175.27082 94.98448 111.53335
#
# Poissons Ratio (x) = 0.23332 0.07798
# Poissons Ratio (y) = 0.43054 0.35262
# Poissons Ratio (z) = 0.12254 0.30030
#
# Static dielectric constant tensor:
#      x y z
#    x 2.148780 0.000000 -0.085990 
#    y 0.000000 2.166150 0.000000 
#    z -0.085990 0.000000 2.252600 
# 
# From -- ./inp_files/6146.got.cif
#   From: 2010.05.17/outbox.cif.g08.bks.cpg/sg4_4_cif.got.tgz:6146.got - 2010.06.03 18:43:04.
