data_PCOD9118114
_publ_section_title
;
Structure prediction by ZEFSAII (Michael W. Deem and Ramdas Pophale) SiO2 
 PCOD9118114
Probable space group: P 21
;
_chemical_formula_sum "Si O2"
_cell_formula_units_Z 16
_cell_length_a 14.629556
_cell_length_b 5.499718
_cell_length_c 25.692405
_cell_angle_alpha 90.000000
_cell_angle_beta 161.699381
_cell_angle_gamma 90.000000
_cell_volume 649.097187
_symmetry_space_group_name_H-M "P 21"
_symmetry_group_IT_number 4
_symmetry_cell_setting 'monoclinic'
loop_
_space_group_symop_operation_xyz
x,y,z
-x,1/2+y,-z
loop_
_atom_site_type_symbol
_atom_site_label
_atom_site_fract_x
_atom_site_fract_y
_atom_site_fract_z
Si Si1 0.084316 0.454330 0.183052
Si Si2 0.243462 0.830312 0.802398
Si Si3 0.047636 0.529334 0.607961
Si Si4 0.853334 0.690295 0.164843
Si Si5 0.396119 0.969125 0.470937
Si Si6 0.553859 0.138785 0.879752
Si Si7 0.089844 0.072979 0.021998
Si Si8 0.663317 0.292933 0.324361
O O1 0.948052 0.580402 0.160630
O O2 0.424576 0.429459 0.378958
O O3 0.887336 0.213581 0.068819
O O4 0.028625 0.602127 0.100502
O O5 0.074693 0.011725 0.748578
O O6 0.431142 0.969198 0.859231
O O7 0.032477 0.660911 0.654689
O O8 0.504645 0.708788 0.976002
O O9 0.345362 0.373818 0.771052
O O10 0.084435 0.715705 0.579459
O O11 0.787729 0.363815 0.447348
O O12 0.049479 0.928317 0.280879
O O13 0.520407 0.736845 0.504862
O O14 0.502375 0.003675 0.797281
O O15 0.438259 0.075581 0.208861
O O16 0.011299 0.313902 0.011507
#
# Coordination Sequence:
#
# PCOD9118114 Si02
#       8
#     2   2   2   2   2   2   2   2
#     4  11  22  48  78 100 142 198 249 296 373 442
#     4  11  24  40  68 110 149 187 241 303 380 438
#     4  11  22  41  71 110 140 188 236 300 366 446
#     4  11  23  45  73 103 144 192 241 305 368 447
#     4  10  24  45  74 108 136 191 257 304 350 429
#     4  11  20  41  71 104 144 190 236 293 365 456
#     4  12  28  49  74 109 147 197 248 308 367 441
#     4  11  23  43  73 104 148 191 246 289 375 443
#
# _framework density 24.649621
#
# number of rings (size 3 to 8) (size 9 to 14) (size 15 to 20)
#    0.000    1.000    3.750    3.000    0.000    4.000 
#    2.250    3.750    0.000    0.000    0.000    0.000 
#    0.000    0.000    0.000    0.000    0.000    0.000 
#
# Total GULP energy -89544.368782 kJ/mol
# GULP energy per Si atom -5596.523049 kJ/mol
# Density = 2.459352 g / cm^3
# Si number density = 24.649621 Si / 1000 Ang^3
#
#
#
# Elastic Constant Matrix: (Units=GPa)
#
#
# Indices 1 2 3 4 5 6 
#
# 1 76.3743 26.3605 20.3922 0.0000 -10.2377 0.0000
# 2 26.3605 72.7351 9.2052 0.0000 -6.5458 0.0000
# 3 20.3922 9.2052 134.7201 0.0000 -16.8988 0.0000
# 4 0.0000 0.0000 0.0000 52.2386 0.0000 1.1209
# 5 -10.2377 -6.5458 -16.8988 0.0000 26.3989 0.0000
# 6 0.0000 0.0000 0.0000 1.1209 0.0000 40.8435
#
#
#
# Elastic Compliance Matrix: (Units=1/GPa)
#
#
# Indices 1 2 3 4 5 6 
#
# 1 0.015816 -0.005188 -0.001556 0.000000 0.003851 0.000000
# 2 -0.005188 0.015805 -0.000060 0.000000 0.001868 0.000000
# 3 -0.001556 -0.000060 0.008247 0.000000 0.004661 0.000000
# 4 0.000000 0.000000 0.000000 0.019154 0.000000 -0.000526
# 5 0.003851 0.001868 0.004661 0.000000 0.042820 0.000000
# 6 0.000000 0.000000 0.000000 -0.000526 0.000000 0.024498
#
#
# Mechanical properties :
#
#
# Convention : Reuss Voigt Hill
#
# Bulk Modulus (GPa) = 38.08442 43.97171 41.02807
# Shear Modulus (GPa) = 33.62402 39.08765 36.35584
#
# Velocity S-wave (km/s) = 3.69735 3.98644 3.84461
# Velocity P-wave (km/s) = 5.80612 6.25031 6.03231
#
# Compressibility (1/GPa) = 0.02625746
#
# Stress axis : x y z
#
# Youngs Moduli (GPa) = 63.22730 63.27250 121.25416
#
# Poissons Ratio (x) = 0.32829 0.18873
# Poissons Ratio (y) = 0.32805 0.00730
# Poissons Ratio (z) = 0.09841 0.00381
#
# Static dielectric constant tensor:
#      x y z
#    x 1.958820 0.000000 0.019040 
#    y 0.000000 2.007380 0.000000 
#    z 0.019040 0.000000 1.943040 
# 
# From -- ./inp_files/16150.got.cif
#   From: 2010.05.17/outbox.cif.g08.bks.cpg/sg4_9_cif.got.tgz:16150.got - 2010.06.03 18:43:04.
