data_PCOD9118858
_publ_section_title
;
Structure prediction by ZEFSAII (Michael W. Deem and Ramdas Pophale) SiO2 
 PCOD9118858
Probable space group: P 21
;
_chemical_formula_sum "Si O2"
_cell_formula_units_Z 16
_cell_length_a 11.334631
_cell_length_b 8.454170
_cell_length_c 14.808446
_cell_angle_alpha 90.000000
_cell_angle_beta 151.559148
_cell_angle_gamma 90.000000
_cell_volume 675.809051
_symmetry_space_group_name_H-M "P 21"
_symmetry_group_IT_number 4
_symmetry_cell_setting 'monoclinic'
loop_
_space_group_symop_operation_xyz
x,y,z
-x,1/2+y,-z
loop_
_atom_site_type_symbol
_atom_site_label
_atom_site_fract_x
_atom_site_fract_y
_atom_site_fract_z
Si Si1 0.181381 0.960470 0.940864
Si Si2 0.312336 0.095085 0.213411
Si Si3 0.856433 0.121007 0.019498
Si Si4 0.466483 0.036164 0.607855
Si Si5 0.202550 0.782525 0.525571
Si Si6 0.774724 0.916482 0.134114
Si Si7 0.361526 0.369344 0.456758
Si Si8 0.366246 0.675369 0.823808
O O1 0.251880 0.777416 0.006221
O O2 0.909341 0.949470 0.713244
O O3 0.158886 0.047251 0.022109
O O4 0.408148 0.057331 0.051688
O O5 0.553761 0.193557 0.347695
O O6 0.122717 0.166818 0.157628
O O7 0.432451 0.941430 0.338390
O O8 0.861685 0.974894 0.093453
O O9 0.698200 0.075625 0.826165
O O10 0.355891 0.188246 0.483629
O O11 0.280795 0.962466 0.556558
O O12 0.538071 0.918060 0.574490
O O13 0.193113 0.722243 0.621933
O O14 0.950014 0.783034 0.298257
O O15 0.766635 0.074920 0.188732
O O16 0.504579 0.836636 0.944861
#
# Coordination Sequence:
#
# PCOD9118858 Si02
#       8
#     2   2   2   2   2   2   2   2
#     4  11  23  43  67 104 143 188 242 304 363 434
#     4  11  24  41  71 105 148 192 237 294 371 442
#     4  12  24  44  70 105 153 196 237 298 376 445
#     4  12  24  42  68 105 150 198 240 300 365 456
#     4  11  25  48  71 108 144 187 247 305 367 438
#     4  12  26  50  77 104 147 194 242 315 372 431
#     4  12  23  40  67 104 146 193 241 293 366 444
#     4  11  27  48  77 105 137 192 254 309 368 436
#
# _framework density 23.675328
#
# number of rings (size 3 to 8) (size 9 to 14) (size 15 to 20)
#    0.000    0.500    3.750    5.250    0.000    2.000 
#    2.250    1.250    0.000    0.000    0.000    0.000 
#    0.000    0.000    0.000    0.000    0.000    0.000 
#
# Total GULP energy -89399.554940 kJ/mol
# GULP energy per Si atom -5587.472184 kJ/mol
# Density = 2.362144 g / cm^3
# Si number density = 23.675328 Si / 1000 Ang^3
#
#
#
# Elastic Constant Matrix: (Units=GPa)
#
#
# Indices 1 2 3 4 5 6 
#
# 1 71.0352 30.4955 40.1581 0.0000 -21.6855 0.0000
# 2 30.4955 90.1592 18.1428 0.0000 -18.1656 0.0000
# 3 40.1581 18.1428 98.7730 0.0000 -14.1283 0.0000
# 4 0.0000 0.0000 0.0000 44.0314 0.0000 5.6703
# 5 -21.6855 -18.1656 -14.1283 0.0000 25.4014 0.0000
# 6 0.0000 0.0000 0.0000 5.6703 0.0000 35.9061
#
#
#
# Elastic Compliance Matrix: (Units=1/GPa)
#
#
# Indices 1 2 3 4 5 6 
#
# 1 0.023927 -0.003913 -0.007048 0.000000 0.013708 0.000000
# 2 -0.003913 0.013719 -0.000004 0.000000 0.006469 0.000000
# 3 -0.007048 -0.000004 0.013178 0.000000 0.001309 0.000000
# 4 0.000000 0.000000 0.000000 0.023183 0.000000 -0.003661
# 5 0.013708 0.006469 0.001309 0.000000 0.056425 0.000000
# 6 0.000000 0.000000 0.000000 -0.003661 0.000000 0.028429
#
#
# Mechanical properties :
#
#
# Convention : Reuss Voigt Hill
#
# Bulk Modulus (GPa) = 34.60965 48.61777 41.61371
# Shear Modulus (GPa) = 26.25765 32.47918 29.36841
#
# Velocity S-wave (km/s) = 3.33389 3.70788 3.52584
# Velocity P-wave (km/s) = 5.42862 6.23786 5.84726
#
# Compressibility (1/GPa) = 0.02889368
#
# Stress axis : x y z
#
# Youngs Moduli (GPa) = 41.79443 72.89150 75.88460
#
# Poissons Ratio (x) = 0.28520 0.53486
# Poissons Ratio (y) = 0.16353 0.00030
# Poissons Ratio (z) = 0.29458 0.00029
#
# Static dielectric constant tensor:
#      x y z
#    x 1.913280 0.000000 0.002200 
#    y 0.000000 1.938900 0.000000 
#    z 0.002200 0.000000 1.963160 
# 
# From -- ./inp_files/13911.got.cif
#   From: 2010.05.17/outbox.cif.g08.bks.cpg/sg4_7_cif.got.tgz:13911.got - 2010.06.03 18:43:04.
