data_PCOD9118984
_publ_section_title
;
Structure prediction by ZEFSAII (Michael W. Deem and Ramdas Pophale) SiO2 
 PCOD9118984
Probable space group: P 21
;
_chemical_formula_sum "Si O2"
_cell_formula_units_Z 16
_cell_length_a 7.301300
_cell_length_b 8.564016
_cell_length_c 11.029879
_cell_angle_alpha 90.000000
_cell_angle_beta 79.616286
_cell_angle_gamma 90.000000
_cell_volume 678.386151
_symmetry_space_group_name_H-M "P 21"
_symmetry_group_IT_number 4
_symmetry_cell_setting 'monoclinic'
loop_
_space_group_symop_operation_xyz
x,y,z
-x,1/2+y,-z
loop_
_atom_site_type_symbol
_atom_site_label
_atom_site_fract_x
_atom_site_fract_y
_atom_site_fract_z
Si Si1 0.197139 0.478710 0.416171
Si Si2 0.144016 0.458040 0.022646
Si Si3 0.376669 0.246329 0.583598
Si Si4 0.531236 0.966866 0.828750
Si Si5 0.001627 0.165338 0.374472
Si Si6 0.808079 0.657934 0.141382
Si Si7 0.307685 0.656357 0.795929
Si Si8 0.366332 0.991733 0.372332
O O1 0.280915 0.388663 0.522355
O O2 0.356875 0.522816 0.303029
O O3 0.077625 0.341110 0.368243
O O4 0.075882 0.617659 0.484224
O O5 0.118611 0.308849 0.939013
O O6 0.211313 0.598252 0.928703
O O7 0.961835 0.521697 0.112897
O O8 0.844806 0.157123 0.291627
O O9 0.253997 0.200350 0.714537
O O10 0.384418 0.106089 0.486620
O O11 0.578738 0.319184 0.591763
O O12 0.385098 0.094625 0.893053
O O13 0.687739 0.922904 0.906264
O O14 0.409367 0.820433 0.800743
O O15 0.169979 0.040597 0.336660
O O16 0.470499 0.536635 0.739998
#
# Coordination Sequence:
#
# PCOD9118984 Si02
#       8
#     2   2   2   2   2   2   2   2
#     4  11  25  43  70 115 148 196 248 305 386 453
#     4  12  29  52  75 112 145 208 260 309 380 452
#     4  11  23  47  71 114 145 198 245 315 379 446
#     4  12  28  47  78 108 147 204 253 316 381 459
#     4  11  26  41  73 110 153 199 244 311 381 456
#     4  12  28  49  79 105 157 196 257 320 371 457
#     4  12  25  51  75 107 154 198 254 319 381 455
#     4  11  24  44  75 109 155 191 251 305 387 452
#
# _framework density 23.585387999999998
#
# number of rings (size 3 to 8) (size 9 to 14) (size 15 to 20)
#    0.000    0.500    5.000    2.250    8.750    1.000 
#    2.250    0.000    0.000    0.000    0.000    0.000 
#    0.000    0.000    0.000    0.000    0.000    0.000 
#
# Total GULP energy -89624.096270 kJ/mol
# GULP energy per Si atom -5601.506017 kJ/mol
# Density = 2.353171 g / cm^3
# Si number density = 23.585388 Si / 1000 Ang^3
#
#
#
# Elastic Constant Matrix: (Units=GPa)
#
#
# Indices 1 2 3 4 5 6 
#
# 1 116.2753 12.8089 31.8579 0.0000 -16.8999 0.0000
# 2 12.8089 61.4342 17.4744 0.0000 -10.0366 0.0000
# 3 31.8579 17.4744 89.9854 0.0000 -16.1346 0.0000
# 4 0.0000 0.0000 0.0000 39.1017 0.0000 -16.5434
# 5 -16.8999 -10.0366 -16.1346 0.0000 36.5081 0.0000
# 6 0.0000 0.0000 0.0000 -16.5434 0.0000 28.1366
#
#
#
# Elastic Compliance Matrix: (Units=1/GPa)
#
#
# Indices 1 2 3 4 5 6 
#
# 1 0.009907 -0.000757 -0.002797 0.000000 0.003142 0.000000
# 2 -0.000757 0.017718 -0.002566 0.000000 0.003387 0.000000
# 3 -0.002797 -0.002566 0.013296 0.000000 0.003876 0.000000
# 4 0.000000 0.000000 0.000000 0.034043 0.000000 0.020016
# 5 0.003142 0.003387 0.003876 0.000000 0.031490 0.000000
# 6 0.000000 0.000000 0.000000 0.020016 0.000000 0.047310
#
#
# Mechanical properties :
#
#
# Convention : Reuss Voigt Hill
#
# Bulk Modulus (GPa) = 34.86401 43.55303 39.20852
# Shear Modulus (GPa) = 28.47976 34.45286 31.46631
#
# Velocity S-wave (km/s) = 3.47870 3.82615 3.65656
# Velocity P-wave (km/s) = 5.56321 6.16648 5.87259
#
# Compressibility (1/GPa) = 0.02868287
#
# Stress axis : x y z
#
# Youngs Moduli (GPa) = 100.94266 56.43837 75.20834
#
# Poissons Ratio (x) = 0.04270 0.21036
# Poissons Ratio (y) = 0.07638 0.19295
# Poissons Ratio (z) = 0.28234 0.14480
#
# Static dielectric constant tensor:
#      x y z
#    x 1.942950 0.000000 -0.005600 
#    y 0.000000 1.921840 0.000000 
#    z -0.005600 0.000000 1.855050 
# 
# From -- ./inp_files/13720.got.cif
#   From: 2010.05.17/outbox.cif.g08.bks.cpg/sg4_7_cif.got.tgz:13720.got - 2010.06.03 18:43:04.
