data_PCOD9118549
_publ_section_title
;
Structure prediction by ZEFSAII (Michael W. Deem and Ramdas Pophale) SiO2 
 PCOD9118549
Probable space group: P 21
;
_chemical_formula_sum "Si O2"
_cell_formula_units_Z 16
_cell_length_a 11.442239
_cell_length_b 9.000780
_cell_length_c 8.413574
_cell_angle_alpha 90.000000
_cell_angle_beta 57.458638
_cell_angle_gamma 90.000000
_cell_volume 730.467637
_symmetry_space_group_name_H-M "P 21"
_symmetry_group_IT_number 4
_symmetry_cell_setting 'monoclinic'
loop_
_space_group_symop_operation_xyz
x,y,z
-x,1/2+y,-z
loop_
_atom_site_type_symbol
_atom_site_label
_atom_site_fract_x
_atom_site_fract_y
_atom_site_fract_z
Si Si1 0.152611 0.793100 0.034994
Si Si2 0.678253 0.371194 0.816328
Si Si3 0.991836 0.088566 0.099964
Si Si4 0.573505 0.273722 0.352690
Si Si5 0.722209 0.014914 0.430601
Si Si6 0.747674 0.725427 0.188708
Si Si7 0.503500 0.092323 0.835559
Si Si8 0.351375 0.034452 0.484353
O O1 0.179314 0.821205 0.201439
O O2 0.060858 0.927504 0.037304
O O3 0.310917 0.809884 0.860663
O O4 0.090964 0.646707 0.996250
O O5 0.587228 0.223598 0.858705
O O6 0.701579 0.447604 0.628515
O O7 0.585986 0.492521 0.979291
O O8 0.120810 0.202640 0.021415
O O9 0.881729 0.071044 0.324511
O O10 0.560158 0.419335 0.471899
O O11 0.649140 0.156899 0.409580
O O12 0.446846 0.177873 0.377663
O O13 0.734053 0.880112 0.293662
O O14 0.621961 0.993578 0.656951
O O15 0.608051 0.674748 0.199682
O O16 0.765066 0.603409 0.316576
#
# Coordination Sequence:
#
# PCOD9118549 Si02
#       8
#     2   2   2   2   2   2   2   2
#     4  11  24  45  68  98 138 185 236 291 347 420
#     4  12  26  42  66 108 154 178 224 303 372 413
#     4  11  23  45  74  96 131 188 241 293 335 430
#     4  11  21  39  68  99 136 184 235 281 339 425
#     4  11  24  41  71 101 135 181 248 286 336 419
#     4  12  24  42  76 102 133 190 247 289 341 432
#     4  12  26  44  71 109 148 186 230 296 365 423
#     4  12  22  38  68 105 141 184 229 289 357 412
#
# _framework density 21.903776000000001
#
# number of rings (size 3 to 8) (size 9 to 14) (size 15 to 20)
#    0.000    0.500    6.250    2.250    3.500    1.000 
#    0.000    1.250    2.750    0.000    0.000    0.000 
#    0.000    0.000    0.000    0.000    0.000    0.000 
#
# Total GULP energy -89178.543097 kJ/mol
# GULP energy per Si atom -5573.658944 kJ/mol
# Density = 2.185392 g / cm^3
# Si number density = 21.903776 Si / 1000 Ang^3
#
#
#
# Elastic Constant Matrix: (Units=GPa)
#
#
# Indices 1 2 3 4 5 6 
#
# 1 104.7535 40.4775 31.6813 0.0000 1.1652 0.0000
# 2 40.4775 128.2982 9.4826 0.0000 18.9489 0.0000
# 3 31.6813 9.4826 55.2763 0.0000 -9.6748 0.0000
# 4 0.0000 0.0000 0.0000 39.3101 0.0000 2.6844
# 5 1.1652 18.9489 -9.6748 0.0000 39.0210 0.0000
# 6 0.0000 0.0000 0.0000 2.6844 0.0000 40.2075
#
#
#
# Elastic Compliance Matrix: (Units=1/GPa)
#
#
# Indices 1 2 3 4 5 6 
#
# 1 0.013009 -0.003536 -0.006917 0.000000 -0.000386 0.000000
# 2 -0.003536 0.009635 -0.000446 0.000000 -0.004684 0.000000
# 3 -0.006917 -0.000446 0.023213 0.000000 0.006179 0.000000
# 4 0.000000 0.000000 0.000000 0.025555 0.000000 -0.001706
# 5 -0.000386 -0.004684 0.006179 0.000000 0.029445 0.000000
# 6 0.000000 0.000000 0.000000 -0.001706 0.000000 0.024985
#
#
# Mechanical properties :
#
#
# Convention : Reuss Voigt Hill
#
# Bulk Modulus (GPa) = 41.56451 50.17898 45.87174
# Shear Modulus (GPa) = 32.12145 37.48683 34.80414
#
# Velocity S-wave (km/s) = 3.83362 4.14143 3.99050
# Velocity P-wave (km/s) = 6.21391 6.76958 6.49769
#
# Compressibility (1/GPa) = 0.02405899
#
# Stress axis : x y z
#
# Youngs Moduli (GPa) = 76.87121 103.79247 43.07877
#
# Poissons Ratio (x) = 0.36700 0.29797
# Poissons Ratio (y) = 0.27181 0.01921
# Poissons Ratio (z) = 0.53172 0.04629
#
# Static dielectric constant tensor:
#      x y z
#    x 1.852390 0.000000 -0.012160 
#    y 0.000000 1.828310 0.000000 
#    z -0.012160 0.000000 1.936650 
# 
# From -- ./inp_files/7640.got.cif
#   From: 2010.05.17/outbox.cif.g08.bks.cpg/sg4_4_cif.got.tgz:7640.got - 2010.06.03 18:43:04.
