data_PCOD9118051
_publ_section_title
;
Structure prediction by ZEFSAII (Michael W. Deem and Ramdas Pophale) SiO2 
 PCOD9118051
Probable space group: P 21
;
_chemical_formula_sum "Si O2"
_cell_formula_units_Z 16
_cell_length_a 4.929771
_cell_length_b 8.304469
_cell_length_c 17.634540
_cell_angle_alpha 90.000000
_cell_angle_beta 72.880200
_cell_angle_gamma 90.000000
_cell_volume 689.954422
_symmetry_space_group_name_H-M "P 21"
_symmetry_group_IT_number 4
_symmetry_cell_setting 'monoclinic'
loop_
_space_group_symop_operation_xyz
x,y,z
-x,1/2+y,-z
loop_
_atom_site_type_symbol
_atom_site_label
_atom_site_fract_x
_atom_site_fract_y
_atom_site_fract_z
Si Si1 0.149834 0.370100 0.872815
Si Si2 0.025785 0.589936 0.008494
Si Si3 0.128965 0.779268 0.397360
Si Si4 0.729949 0.420020 0.769140
Si Si5 0.419137 0.759634 0.798409
Si Si6 0.188679 0.289342 0.097134
Si Si7 0.200689 0.968789 0.542338
Si Si8 0.391812 0.453127 0.360090
O O1 0.453861 0.312584 0.816197
O O2 0.222017 0.516669 0.925136
O O3 0.947808 0.413514 0.820218
O O4 0.967140 0.246727 0.939184
O O5 0.770165 0.652511 0.972102
O O6 0.068645 0.447735 0.065225
O O7 0.102185 0.866275 0.319485
O O8 0.206289 0.902963 0.457150
O O9 0.373655 0.646902 0.361503
O O10 0.874423 0.659523 0.444977
O O11 0.584119 0.593603 0.767389
O O12 0.547711 0.817507 0.869181
O O13 0.475573 0.883336 0.726012
O O14 0.081354 0.742587 0.829771
O O15 0.461459 0.917897 0.572104
O O16 0.929165 0.892260 0.607061
#
# Coordination Sequence:
#
# PCOD9118051 Si02
#       8
#     2   2   2   2   2   2   2   2
#     4  11  26  44  67 100 132 179 224 274 334 392
#     4  10  24  44  68  94 132 176 226 277 328 395
#     4  10  28  43  74  96 139 172 222 274 331 398
#     4  12  26  43  67  98 138 174 223 273 335 392
#     4  12  24  44  63  98 134 172 219 274 336 391
#     4  11  25  42  66  94 132 175 223 274 333 393
#     4  10  25  46  68 102 131 169 225 260 336 392
#     4  10  26  42  71  98 130 171 220 266 335 389
#
# _framework density 23.189941000000001
#
# number of rings (size 3 to 8) (size 9 to 14) (size 15 to 20)
#    0.750    0.500    2.500    0.750    8.750    6.000 
#    0.000    0.000    0.000    0.000    0.000    0.000 
#    0.000    0.000    0.000    0.000    0.000    0.000 
#
# Total GULP energy -89103.362903 kJ/mol
# GULP energy per Si atom -5568.960181 kJ/mol
# Density = 2.313716 g / cm^3
# Si number density = 23.189941 Si / 1000 Ang^3
#
#
#
# Elastic Constant Matrix: (Units=GPa)
#
#
# Indices 1 2 3 4 5 6 
#
# 1 66.8833 14.7830 6.2521 0.0000 13.1801 0.0000
# 2 14.7830 85.5488 60.9027 0.0000 4.8816 0.0000
# 3 6.2521 60.9027 127.4274 0.0000 17.1036 0.0000
# 4 0.0000 0.0000 0.0000 51.6351 0.0000 -5.0252
# 5 13.1801 4.8816 17.1036 0.0000 31.8785 0.0000
# 6 0.0000 0.0000 0.0000 -5.0252 0.0000 12.6931
#
#
#
# Elastic Compliance Matrix: (Units=1/GPa)
#
#
# Indices 1 2 3 4 5 6 
#
# 1 0.017142 -0.004026 0.002103 0.000000 -0.007599 0.000000
# 2 -0.004026 0.018779 -0.009284 0.000000 0.003770 0.000000
# 3 0.002103 -0.009284 0.013047 0.000000 -0.006448 0.000000
# 4 0.000000 0.000000 0.000000 0.020143 0.000000 0.007975
# 5 -0.007599 0.003770 -0.006448 0.000000 0.037393 0.000000
# 6 0.000000 0.000000 0.000000 0.007975 0.000000 0.081940
#
#
# Mechanical properties :
#
#
# Convention : Reuss Voigt Hill
#
# Bulk Modulus (GPa) = 37.65748 49.30392 43.48070
# Shear Modulus (GPa) = 22.75743 32.43612 27.59677
#
# Velocity S-wave (km/s) = 3.13605 3.74400 3.45343
# Velocity P-wave (km/s) = 5.42098 6.32432 5.89000
#
# Compressibility (1/GPa) = 0.02655515
#
# Stress axis : x y z
#
# Youngs Moduli (GPa) = 58.33585 53.25134 76.64660
#
# Poissons Ratio (x) = 0.21437 -0.16118
# Poissons Ratio (y) = 0.23484 0.71156
# Poissons Ratio (z) = -0.12268 0.49437
#
# Static dielectric constant tensor:
#      x y z
#    x 1.848870 0.000000 -0.029100 
#    y 0.000000 1.967120 0.000000 
#    z -0.029100 0.000000 1.845250 
# 
# From -- ./inp_files/13244.got.cif
#   From: 2010.05.17/outbox.cif.g08.bks.cpg/sg4_7_cif.got.tgz:13244.got - 2010.06.03 18:43:04.
