data_PCOD9118144
_publ_section_title
;
Structure prediction by ZEFSAII (Michael W. Deem and Ramdas Pophale) SiO2 
 PCOD9118144
Probable space group: P 21
;
_chemical_formula_sum "Si O2"
_cell_formula_units_Z 16
_cell_length_a 5.114950
_cell_length_b 5.513314
_cell_length_c 19.951321
_cell_angle_alpha 90.000000
_cell_angle_beta 77.993087
_cell_angle_gamma 90.000000
_cell_volume 550.324730
_symmetry_space_group_name_H-M "P 21"
_symmetry_group_IT_number 4
_symmetry_cell_setting 'monoclinic'
loop_
_space_group_symop_operation_xyz
x,y,z
-x,1/2+y,-z
loop_
_atom_site_type_symbol
_atom_site_label
_atom_site_fract_x
_atom_site_fract_y
_atom_site_fract_z
Si Si1 0.043624 0.511110 0.722082
Si Si2 0.120582 0.993863 0.523647
Si Si3 0.466545 0.527940 0.598723
Si Si4 0.878742 0.524165 0.977697
Si Si5 0.492007 0.263451 0.229661
Si Si6 0.927167 0.762892 0.149821
Si Si7 0.294591 0.531894 0.354499
Si Si8 0.460244 0.506619 0.102566
O O1 0.163555 0.505485 0.641067
O O2 0.226148 0.710081 0.750942
O O3 0.099292 0.291410 0.769599
O O4 0.732931 0.566108 0.741268
O O5 0.427967 0.011238 0.483237
O O6 0.014032 0.732968 0.503013
O O7 0.014074 0.011935 0.605186
O O8 0.570838 0.789660 0.619597
O O9 0.594625 0.287091 0.625378
O O10 0.937586 0.489215 0.896285
O O11 0.577751 0.497621 0.021887
O O12 0.987133 0.782124 0.997058
O O13 0.358517 0.495177 0.273271
O O14 0.518027 0.284683 0.149063
O O15 0.645122 0.705879 0.130725
O O16 0.149829 0.561910 0.122527
#
# Coordination Sequence:
#
# PCOD9118144 Si02
#       8
#     2   2   2   2   2   2   2   2
#     4  11  23  40  64  94 131 172 218 269 324 386
#     4   8  14  28  54  86 120 160 206 258 316 378
#     4   9  18  34  59  90 125 165 211 263 320 382
#     4  10  24  46  72 102 136 174 218 268 324 386
#     4  11  23  40  64  94 131 172 218 269 324 386
#     4  11  24  42  67  98 134 174 219 269 324 386
#     4   9  18  34  59  90 125 165 211 263 320 382
#     4  11  24  42  67  98 134 174 219 269 324 386
#
# _framework density 29.073740000000001
#
# number of rings (size 3 to 8) (size 9 to 14) (size 15 to 20)
#    0.000    2.000    0.000    3.000    0.000    9.000 
#    0.000    0.000    0.000   21.000    0.000    0.000 
#    0.000    0.000    0.000    0.000    0.000    0.000 
#
# Total GULP energy -89566.457413 kJ/mol
# GULP energy per Si atom -5597.903588 kJ/mol
# Density = 2.900757 g / cm^3
# Si number density = 29.073740 Si / 1000 Ang^3
#
#
#
# Elastic Constant Matrix: (Units=GPa)
#
#
# Indices 1 2 3 4 5 6 
#
# 1 63.2853 68.8689 53.1425 0.0000 3.8376 0.0000
# 2 68.8689 190.6460 35.8638 0.0000 10.1026 0.0000
# 3 53.1425 35.8638 122.6338 0.0000 -54.6073 0.0000
# 4 0.0000 0.0000 0.0000 53.0728 0.0000 12.7948
# 5 3.8376 10.1026 -54.6073 0.0000 36.7930 0.0000
# 6 0.0000 0.0000 0.0000 12.7948 0.0000 66.2513
#
#
#
# Elastic Compliance Matrix: (Units=1/GPa)
#
#
# Indices 1 2 3 4 5 6 
#
# 1 -0.048788 -0.001607 0.070992 0.000000 0.110894 0.000000
# 2 -0.001607 0.007904 -0.007392 0.000000 -0.012974 0.000000
# 3 0.070992 -0.007392 -0.067354 0.000000 -0.105341 0.000000
# 4 0.000000 0.000000 0.000000 0.019762 0.000000 -0.003817
# 5 0.110894 -0.012974 -0.105341 0.000000 -0.137169 0.000000
# 6 0.000000 0.000000 0.000000 -0.003817 0.000000 0.015831
#
#
# Mechanical properties :
#
#
# Convention : Reuss Voigt Hill
#
# Bulk Modulus (GPa) = 63.50719 76.92394 70.21557
# Shear Modulus (GPa) = -15.21838 45.80275 15.29218
#
# Velocity S-wave (km/s) = -2.29036 3.97344 2.29591
# Velocity P-wave (km/s) = 3.85960 6.89685 5.58852
#
# Compressibility (1/GPa) = 0.01574625
#
# Stress axis : x y z
#
# Youngs Moduli (GPa) = -20.49683 126.51826 -14.84684
#
# Poissons Ratio (x) = 0.20332 1.05400
# Poissons Ratio (y) = -0.03294 -0.10975
# Poissons Ratio (z) = 1.45511 0.93527
#
# Static dielectric constant tensor:
#      x y z
#    x 2.196200 0.000000 0.030930 
#    y 0.000000 2.285860 0.000000 
#    z 0.030930 0.000000 2.276390 
# 
# From -- ./inp_files/16283.got.cif
#   From: 2010.05.17/outbox.cif.g08.bks.cpg/sg4_9_cif.got.tgz:16283.got - 2010.06.03 18:43:04.
