data_PCOD9118230
_publ_section_title
;
Structure prediction by ZEFSAII (Michael W. Deem and Ramdas Pophale) SiO2 
 PCOD9118230
Probable space group: P 21
;
_chemical_formula_sum "Si O2"
_cell_formula_units_Z 16
_cell_length_a 23.409757
_cell_length_b 5.566858
_cell_length_c 8.222698
_cell_angle_alpha 90.000000
_cell_angle_beta 140.026989
_cell_angle_gamma 90.000000
_cell_volume 688.406510
_symmetry_space_group_name_H-M "P 21"
_symmetry_group_IT_number 4
_symmetry_cell_setting 'monoclinic'
loop_
_space_group_symop_operation_xyz
x,y,z
-x,1/2+y,-z
loop_
_atom_site_type_symbol
_atom_site_label
_atom_site_fract_x
_atom_site_fract_y
_atom_site_fract_z
Si Si1 0.436840 0.241990 0.220767
Si Si2 0.634426 0.087675 0.731925
Si Si3 0.751944 0.020950 0.500396
Si Si4 0.980646 0.357719 0.365695
Si Si5 0.284434 0.909143 0.808951
Si Si6 0.159019 0.298255 0.628847
Si Si7 0.544705 0.992765 0.042389
Si Si8 0.806940 0.084393 0.956078
O O1 0.532796 0.146677 0.473557
O O2 0.376013 0.308319 0.242607
O O3 0.458177 0.474034 0.159056
O O4 0.371161 0.074896 0.975368
O O5 0.703578 0.155911 0.744854
O O6 0.676867 0.216456 0.980266
O O7 0.746874 0.298533 0.429519
O O8 0.810153 0.963587 0.785570
O O9 0.792202 0.904115 0.424209
O O10 0.648885 0.960572 0.309913
O O11 0.991647 0.628626 0.457589
O O12 0.053026 0.323161 0.381062
O O13 0.878676 0.296128 0.108263
O O14 0.201211 0.033743 0.717250
O O15 0.177488 0.427408 0.844704
O O16 0.492195 0.752581 0.985305
#
# Coordination Sequence:
#
# PCOD9118230 Si02
#       8
#     2   2   2   2   2   2   2   2
#     4  12  24  39  66 100 135 198 250 295 367 441
#     4  12  23  40  69  96 137 191 249 298 360 438
#     4  12  26  45  72 107 148 195 247 306 375 444
#     4  10  24  49  80 111 146 191 242 305 373 440
#     4  12  21  44  70  97 148 190 243 312 366 435
#     4  11  24  48  76  99 147 194 235 311 376 441
#     4  12  26  44  65  98 152 193 243 311 364 431
#     4  11  24  49  70 112 141 190 249 302 371 452
#
# _framework density 23.242083000000001
#
# number of rings (size 3 to 8) (size 9 to 14) (size 15 to 20)
#    0.000    0.500    6.250    2.250    1.750    2.000 
#    9.000    0.000    0.000    0.000    0.000    0.000 
#    0.000    0.000    0.000    0.000    0.000    0.000 
#
# Total GULP energy -89187.093639 kJ/mol
# GULP energy per Si atom -5574.193352 kJ/mol
# Density = 2.318918 g / cm^3
# Si number density = 23.242083 Si / 1000 Ang^3
#
#
#
# Elastic Constant Matrix: (Units=GPa)
#
#
# Indices 1 2 3 4 5 6 
#
# 1 126.0679 32.7164 44.8631 0.0000 17.0703 0.0000
# 2 32.7164 64.0220 11.6675 0.0000 4.7607 0.0000
# 3 44.8631 11.6675 56.4492 0.0000 -4.8114 0.0000
# 4 0.0000 0.0000 0.0000 25.0408 0.0000 8.4790
# 5 17.0703 4.7607 -4.8114 0.0000 48.3660 0.0000
# 6 0.0000 0.0000 0.0000 8.4790 0.0000 49.9128
#
#
#
# Elastic Compliance Matrix: (Units=1/GPa)
#
#
# Indices 1 2 3 4 5 6 
#
# 1 0.013493 -0.004637 -0.010219 0.000000 -0.005322 0.000000
# 2 -0.004637 0.018009 -0.000049 0.000000 -0.000141 0.000000
# 3 -0.010219 -0.000049 0.026378 0.000000 0.006235 0.000000
# 4 0.000000 0.000000 0.000000 0.042372 0.000000 -0.007198
# 5 -0.005322 -0.000141 0.006235 0.000000 0.023188 0.000000
# 6 0.000000 0.000000 0.000000 -0.007198 0.000000 0.021258
#
#
# Mechanical properties :
#
#
# Convention : Reuss Voigt Hill
#
# Bulk Modulus (GPa) = 35.62506 47.22591 41.42548
# Shear Modulus (GPa) = 27.19417 35.15004 31.17211
#
# Velocity S-wave (km/s) = 3.42430 3.89311 3.66620
# Velocity P-wave (km/s) = 5.56736 6.36959 5.98194
#
# Compressibility (1/GPa) = 0.02807013
#
# Stress axis : x y z
#
# Youngs Moduli (GPa) = 74.11441 55.52892 37.91069
#
# Poissons Ratio (x) = 0.25749 0.38739
# Poissons Ratio (y) = 0.34367 0.00186
# Poissons Ratio (z) = 0.75734 0.00272
#
# Static dielectric constant tensor:
#      x y z
#    x 2.008590 0.000000 -0.017680 
#    y 0.000000 2.042970 0.000000 
#    z -0.017680 0.000000 1.902530 
# 
# From -- ./inp_files/10026.got.cif
#   From: 2010.05.17/outbox.cif.g08.bks.cpg/sg4_6_cif.got.tgz:10026.got - 2010.06.03 18:43:04.
