data_PCOD9118589
_publ_section_title
;
Structure prediction by ZEFSAII (Michael W. Deem and Ramdas Pophale) SiO2 
 PCOD9118589
Probable space group: P 21
;
_chemical_formula_sum "Si O2"
_cell_formula_units_Z 16
_cell_length_a 8.901394
_cell_length_b 5.261901
_cell_length_c 18.618419
_cell_angle_alpha 90.000000
_cell_angle_beta 45.713384
_cell_angle_gamma 90.000000
_cell_volume 624.265137
_symmetry_space_group_name_H-M "P 21"
_symmetry_group_IT_number 4
_symmetry_cell_setting 'monoclinic'
loop_
_space_group_symop_operation_xyz
x,y,z
-x,1/2+y,-z
loop_
_atom_site_type_symbol
_atom_site_label
_atom_site_fract_x
_atom_site_fract_y
_atom_site_fract_z
Si Si1 0.624102 0.897610 0.481109
Si Si2 0.020877 0.168048 0.373242
Si Si3 0.430207 0.199967 0.728908
Si Si4 0.012151 0.949534 0.874364
Si Si5 0.750284 0.551994 0.554931
Si Si6 0.586536 0.930888 0.797638
Si Si7 0.189317 0.577683 0.907136
Si Si8 0.605741 0.166586 0.936761
O O1 0.527988 0.639041 0.480080
O O2 0.671291 0.817309 0.548041
O O3 0.857878 0.994177 0.383464
O O4 0.888801 0.407417 0.448731
O O5 0.122836 0.053664 0.412493
O O6 0.214704 0.249391 0.259271
O O7 0.538873 0.394430 0.640291
O O8 0.326240 0.349409 0.830878
O O9 0.233223 0.039348 0.768107
O O10 0.605531 0.036166 0.710814
O O11 0.826091 0.053240 0.889113
O O12 0.951027 0.041872 0.975941
O O13 0.050830 0.657722 0.883845
O O14 0.365753 0.784193 0.870084
O O15 0.591495 0.142675 0.856413
O O16 0.555534 0.450404 0.979382
#
# Coordination Sequence:
#
# PCOD9118589 Si02
#       8
#     2   2   2   2   2   2   2   2
#     4  12  28  53  79 114 160 211 255 328 408 466
#     4  12  25  48  84 113 151 210 267 330 387 474
#     4  11  25  44  75 112 149 194 263 320 385 455
#     4  11  24  41  73 101 146 199 250 312 394 448
#     4  12  25  48  83 112 156 203 275 322 392 477
#     4  11  26  46  74 114 150 198 264 323 390 461
#     4  11  21  43  71 101 142 192 252 319 370 456
#     4  12  28  49  75 109 158 205 256 320 392 473
#
# _framework density 25.630137999999999
#
# number of rings (size 3 to 8) (size 9 to 14) (size 15 to 20)
#    0.000    0.500    6.250    1.500    3.500    0.000 
#    6.750    0.000    0.000    0.000    0.000    0.000 
#    0.000    0.000    0.000    0.000    0.000    0.000 
#
# Total GULP energy -89508.538361 kJ/mol
# GULP energy per Si atom -5594.283648 kJ/mol
# Density = 2.557180 g / cm^3
# Si number density = 25.630138 Si / 1000 Ang^3
#
#
#
# Elastic Constant Matrix: (Units=GPa)
#
#
# Indices 1 2 3 4 5 6 
#
# 1 87.4917 17.3964 14.5208 0.0000 -22.4148 0.0000
# 2 17.3964 79.1968 19.0681 0.0000 -12.0750 0.0000
# 3 14.5208 19.0681 88.8497 0.0000 -16.7878 0.0000
# 4 0.0000 0.0000 0.0000 24.7926 0.0000 -11.2951
# 5 -22.4148 -12.0750 -16.7878 0.0000 35.6131 0.0000
# 6 0.0000 0.0000 0.0000 -11.2951 0.0000 41.0791
#
#
#
# Elastic Compliance Matrix: (Units=1/GPa)
#
#
# Indices 1 2 3 4 5 6 
#
# 1 0.013880 -0.001741 -0.000390 0.000000 0.007962 0.000000
# 2 -0.001741 0.013937 -0.002218 0.000000 0.002584 0.000000
# 3 -0.000390 -0.002218 0.012741 0.000000 0.005008 0.000000
# 4 0.000000 0.000000 0.000000 0.046111 0.000000 0.012679
# 5 0.007962 0.002584 0.005008 0.000000 0.036328 0.000000
# 6 0.000000 0.000000 0.000000 0.012679 0.000000 0.027829
#
#
# Mechanical properties :
#
#
# Convention : Reuss Voigt Hill
#
# Bulk Modulus (GPa) = 31.38803 39.72319 35.55561
# Shear Modulus (GPa) = 29.38649 33.93381 31.66015
#
# Velocity S-wave (km/s) = 3.38976 3.64260 3.51845
# Velocity P-wave (km/s) = 5.25298 5.76400 5.51441
#
# Compressibility (1/GPa) = 0.03185928
#
# Stress axis : x y z
#
# Youngs Moduli (GPa) = 72.04376 71.74992 78.48599
#
# Poissons Ratio (x) = 0.12492 0.03065
# Poissons Ratio (y) = 0.12543 0.17411
# Poissons Ratio (z) = 0.02813 0.15916
#
# Static dielectric constant tensor:
#      x y z
#    x 2.042650 0.000000 -0.009660 
#    y 0.000000 2.148080 0.000000 
#    z -0.009660 0.000000 1.986080 
# 
# From -- ./inp_files/10122.got.cif
#   From: 2010.05.17/outbox.cif.g08.bks.cpg/sg4_6_cif.got.tgz:10122.got - 2010.06.03 18:43:04.
