data_PCOD9118073
_publ_section_title
;
Structure prediction by ZEFSAII (Michael W. Deem and Ramdas Pophale) SiO2 
 PCOD9118073
Probable space group: P 21
;
_chemical_formula_sum "Si O2"
_cell_formula_units_Z 14
_cell_length_a 7.822596
_cell_length_b 7.222856
_cell_length_c 11.511971
_cell_angle_alpha 90.000000
_cell_angle_beta 123.849835
_cell_angle_gamma 90.000000
_cell_volume 540.193479
_symmetry_space_group_name_H-M "P 21"
_symmetry_group_IT_number 4
_symmetry_cell_setting 'monoclinic'
loop_
_space_group_symop_operation_xyz
x,y,z
-x,1/2+y,-z
loop_
_atom_site_type_symbol
_atom_site_label
_atom_site_fract_x
_atom_site_fract_y
_atom_site_fract_z
Si Si1 0.467445 0.591090 0.197706
Si Si2 0.088756 0.380757 0.008455
Si Si3 0.946902 0.632039 0.788740
Si Si4 0.242375 0.779734 0.745794
Si Si5 0.215682 0.694096 0.476297
Si Si6 0.611457 0.779616 0.491133
Si Si7 0.178044 0.174790 0.817988
O O1 0.229388 0.565427 0.081402
O O2 0.540721 0.375141 0.206890
O O3 0.532650 0.674563 0.345762
O O4 0.598290 0.710632 0.154632
O O5 0.904137 0.461731 0.859745
O O6 0.177326 0.230784 0.950854
O O7 0.067226 0.301406 0.126878
O O8 0.783043 0.665498 0.626275
O O9 0.171196 0.621276 0.808548
O O10 0.156869 0.734138 0.586838
O O11 0.150671 0.958815 0.775611
O O12 0.416044 0.797309 0.502377
O O13 0.287829 0.479044 0.497443
O O14 0.018792 0.751112 0.325600
#
# Coordination Sequence:
#
# PCOD9118073 Si02
#       7
#     2   2   2   2   2   2   2
#     4  10  26  47  75 104 148 191 255 306 375 443
#     4  12  28  48  75 108 155 199 251 305 391 451
#     4  12  27  45  73 109 148 200 247 313 377 448
#     4  10  24  44  74 104 148 188 259 303 372 438
#     4  12  25  45  78 113 151 199 252 317 377 439
#     4  12  26  47  77 110 152 193 261 310 374 443
#     4  10  26  46  74 106 154 194 249 308 378 454
#
# _framework density 25.916640000000001
#
# number of rings (size 3 to 8) (size 9 to 14) (size 15 to 20)
#    0.857    0.000    1.429    4.286   10.000    0.000 
#    0.000    1.429    0.000    0.000    0.000    0.000 
#    0.000    0.000    0.000    0.000    0.000    0.000 
#
# Total GULP energy -78156.355138 kJ/mol
# GULP energy per Si atom -5582.596796 kJ/mol
# Density = 2.585765 g / cm^3
# Si number density = 25.916640 Si / 1000 Ang^3
#
#
#
# Elastic Constant Matrix: (Units=GPa)
#
#
# Indices 1 2 3 4 5 6 
#
# 1 112.3922 18.4739 51.1296 0.0000 -33.9139 0.0000
# 2 18.4739 90.8504 39.9354 0.0000 -6.0442 0.0000
# 3 51.1296 39.9354 144.3166 0.0000 -27.0350 0.0000
# 4 0.0000 0.0000 0.0000 43.9789 0.0000 -13.5707
# 5 -33.9139 -6.0442 -27.0350 0.0000 52.5333 0.0000
# 6 0.0000 0.0000 0.0000 -13.5707 0.0000 37.2347
#
#
#
# Elastic Compliance Matrix: (Units=1/GPa)
#
#
# Indices 1 2 3 4 5 6 
#
# 1 0.012273 -0.000779 -0.002950 0.000000 0.006316 0.000000
# 2 -0.000779 0.012588 -0.003354 0.000000 -0.000780 0.000000
# 3 -0.002950 -0.003354 0.009377 0.000000 0.002536 0.000000
# 4 0.000000 0.000000 0.000000 0.025619 0.000000 0.009337
# 5 0.006316 -0.000780 0.002536 0.000000 0.024328 0.000000
# 6 0.000000 0.000000 0.000000 0.009337 0.000000 0.030260
#
#
# Mechanical properties :
#
#
# Convention : Reuss Voigt Hill
#
# Bulk Modulus (GPa) = 49.81581 62.95964 56.38773
# Shear Modulus (GPa) = 36.95487 42.61738 39.78613
#
# Velocity S-wave (km/s) = 3.78022 4.05952 3.92236
# Velocity P-wave (km/s) = 6.19005 6.80579 6.50521
#
# Compressibility (1/GPa) = 0.02007395
#
# Stress axis : x y z
#
# Youngs Moduli (GPa) = 81.48021 79.44268 106.64159
#
# Poissons Ratio (x) = 0.06188 0.31454
# Poissons Ratio (y) = 0.06347 0.35762
# Poissons Ratio (z) = 0.24033 0.26641
#
# Static dielectric constant tensor:
#      x y z
#    x 2.081870 0.000000 0.084780 
#    y 0.000000 2.168730 0.000000 
#    z 0.084780 0.000000 1.963680 
# 
# From -- ./inp_files/11065.got.cif
#   From: 2010.05.17/outbox.cif.g08.bks.cpg/sg4_6_cif.got.tgz:11065.got - 2010.06.03 18:43:04.
