data_PCOD9118497
_publ_section_title
;
Structure prediction by ZEFSAII (Michael W. Deem and Ramdas Pophale) SiO2 
 PCOD9118497
Probable space group: P 21
;
_chemical_formula_sum "Si O2"
_cell_formula_units_Z 12
_cell_length_a 12.504359
_cell_length_b 4.794586
_cell_length_c 9.643737
_cell_angle_alpha 90.000000
_cell_angle_beta 45.735408
_cell_angle_gamma 90.000000
_cell_volume 414.043775
_symmetry_space_group_name_H-M "P 21"
_symmetry_group_IT_number 4
_symmetry_cell_setting 'monoclinic'
loop_
_space_group_symop_operation_xyz
x,y,z
-x,1/2+y,-z
loop_
_atom_site_type_symbol
_atom_site_label
_atom_site_fract_x
_atom_site_fract_y
_atom_site_fract_z
Si Si1 0.876642 0.266070 0.433297
Si Si2 0.589948 0.766954 0.878410
Si Si3 0.921771 0.940618 0.135908
Si Si4 0.560648 0.141918 0.634789
Si Si5 0.839046 0.102961 0.783227
Si Si6 0.353887 0.663380 0.784986
O O1 0.867182 0.245271 0.608752
O O2 0.011193 0.477340 0.289895
O O3 0.715592 0.321476 0.510772
O O4 0.923972 0.998289 0.298176
O O5 0.596173 0.915166 0.724623
O O6 0.739246 0.838398 0.823822
O O7 0.543138 0.448811 0.931114
O O8 0.952166 0.635985 0.049034
O O9 0.462986 0.910235 0.632393
O O10 0.763454 0.055665 0.222887
O O11 0.441190 0.387798 0.751462
O O12 0.743303 0.251439 0.991277
#
# Coordination Sequence:
#
# PCOD9118497 Si02
#       6
#     2   2   2   2   2   2
#     4  11  29  46  75 118 159 195 259 332 380 455
#     4  11  20  38  67 101 143 186 243 297 367 447
#     4  12  28  51  77 110 152 205 258 313 385 466
#     4  11  25  46  73 114 150 196 253 320 380 456
#     4  11  25  45  75 112 153 199 254 312 393 448
#     4  12  25  48  81 105 151 209 251 302 393 474
#
# _framework density 28.982441000000001
#
# number of rings (size 3 to 8) (size 9 to 14) (size 15 to 20)
#    0.000    0.667    5.000    1.000    2.333    8.000 
#    0.000    0.000    0.000    0.000    0.000    0.000 
#    0.000    0.000    0.000    0.000    0.000    0.000 
#
# Total GULP energy -67133.423129 kJ/mol
# GULP energy per Si atom -5594.451927 kJ/mol
# Density = 2.891648 g / cm^3
# Si number density = 28.982441 Si / 1000 Ang^3
#
#
#
# Elastic Constant Matrix: (Units=GPa)
#
#
# Indices 1 2 3 4 5 6 
#
# 1 171.0435 33.8211 27.3279 0.0000 -26.9283 0.0000
# 2 33.8211 117.8263 12.8425 0.0000 -26.6802 0.0000
# 3 27.3279 12.8425 124.6409 0.0000 13.4866 0.0000
# 4 0.0000 0.0000 0.0000 13.9226 0.0000 -11.7330
# 5 -26.9283 -26.6802 13.4866 0.0000 64.2225 0.0000
# 6 0.0000 0.0000 0.0000 -11.7330 0.0000 37.7960
#
#
#
# Elastic Compliance Matrix: (Units=1/GPa)
#
#
# Indices 1 2 3 4 5 6 
#
# 1 0.006765 -0.001148 -0.001658 0.000000 0.002708 0.000000
# 2 -0.001148 0.009815 -0.001175 0.000000 0.003843 0.000000
# 3 -0.001658 -0.001175 0.008836 0.000000 -0.003039 0.000000
# 4 0.000000 0.000000 0.000000 0.097273 0.000000 0.030196
# 5 0.002708 0.003843 -0.003039 0.000000 0.018941 0.000000
# 6 0.000000 0.000000 0.000000 0.030196 0.000000 0.035832
#
#
# Mechanical properties :
#
#
# Convention : Reuss Voigt Hill
#
# Bulk Modulus (GPa) = 57.29490 62.38821 59.84155
# Shear Modulus (GPa) = 26.14491 45.82282 35.98387
#
# Velocity S-wave (km/s) = 3.00675 3.98056 3.52742
# Velocity P-wave (km/s) = 5.64498 6.53448 6.10595
#
# Compressibility (1/GPa) = 0.01745356
#
# Stress axis : x y z
#
# Youngs Moduli (GPa) = 147.82824 101.88625 113.16711
#
# Poissons Ratio (x) = 0.11696 0.18762
# Poissons Ratio (y) = 0.16969 0.13302
# Poissons Ratio (z) = 0.24508 0.11976
#
# Static dielectric constant tensor:
#      x y z
#    x 2.304150 0.000000 0.102840 
#    y 0.000000 2.153270 0.000000 
#    z 0.102840 0.000000 2.700560 
# 
# From -- ./inp_files/8987.got.cif
#   From: 2010.05.17/outbox.cif.g08.bks.cpg/sg4_5_cif.got.tgz:8987.got - 2010.06.03 18:43:04.
