data_PCOD9118643
_publ_section_title
;
Structure prediction by ZEFSAII (Michael W. Deem and Ramdas Pophale) SiO2 
 PCOD9118643
Probable space group: P 21
;
_chemical_formula_sum "Si O2"
_cell_formula_units_Z 16
_cell_length_a 9.819887
_cell_length_b 5.209422
_cell_length_c 14.727919
_cell_angle_alpha 90.000000
_cell_angle_beta 106.983265
_cell_angle_gamma 90.000000
_cell_volume 720.563890
_symmetry_space_group_name_H-M "P 21"
_symmetry_group_IT_number 4
_symmetry_cell_setting 'monoclinic'
loop_
_space_group_symop_operation_xyz
x,y,z
-x,1/2+y,-z
loop_
_atom_site_type_symbol
_atom_site_label
_atom_site_fract_x
_atom_site_fract_y
_atom_site_fract_z
Si Si1 0.232448 0.093160 0.291390
Si Si2 0.339690 0.591477 0.206725
Si Si3 0.540540 0.598896 0.952272
Si Si4 0.406640 0.990077 0.498835
Si Si5 0.827329 0.371886 0.969121
Si Si6 0.665337 0.497628 0.306851
Si Si7 0.048165 0.548624 0.861915
Si Si8 0.716189 0.992445 0.222041
O O1 0.274269 0.359957 0.252193
O O2 0.065080 0.071140 0.240816
O O3 0.310015 0.858653 0.253788
O O4 0.284971 0.071016 0.404174
O O5 0.260604 0.639695 0.095670
O O6 0.505408 0.524185 0.235297
O O7 0.705808 0.586198 0.956377
O O8 0.442811 0.518027 0.848499
O O9 0.513530 0.369018 0.019288
O O10 0.482626 0.728255 0.480747
O O11 0.352189 0.947310 0.590051
O O12 0.957028 0.426441 0.926049
O O13 0.891019 0.303744 0.078941
O O14 0.745855 0.269346 0.271341
O O15 0.731391 0.773299 0.299326
O O16 0.185272 0.421361 0.844041
#
# Coordination Sequence:
#
# PCOD9118643 Si02
#       8
#     2   2   2   2   2   2   2   2
#     4  11  23  43  66 101 139 174 220 292 347 411
#     4  11  22  39  68 103 136 170 227 285 345 393
#     4  12  26  44  70  99 134 181 238 288 335 398
#     4  12  22  41  74 108 135 169 235 297 348 406
#     4  11  25  42  71 100 137 189 238 283 332 413
#     4  12  24  42  70 103 138 177 228 294 349 403
#     4  11  27  44  67 101 144 188 232 279 350 416
#     4  12  27  45  66  99 147 184 228 282 350 410
#
# _framework density 22.204829
#
# number of rings (size 3 to 8) (size 9 to 14) (size 15 to 20)
#    0.000    0.500    5.000    3.000    3.500    2.000 
#    0.000    1.250    0.000    0.000    0.000    0.000 
#    0.000    0.000    0.000    0.000    0.000    0.000 
#
# Total GULP energy -89525.182204 kJ/mol
# GULP energy per Si atom -5595.323888 kJ/mol
# Density = 2.215429 g / cm^3
# Si number density = 22.204829 Si / 1000 Ang^3
#
#
#
# Elastic Constant Matrix: (Units=GPa)
#
#
# Indices 1 2 3 4 5 6 
#
# 1 94.9176 11.7377 18.8044 0.0000 -6.5601 0.0000
# 2 11.7377 86.6409 14.4033 0.0000 -14.8768 0.0000
# 3 18.8044 14.4033 105.1701 0.0000 2.7196 0.0000
# 4 0.0000 0.0000 0.0000 32.5871 0.0000 -11.4211
# 5 -6.5601 -14.8768 2.7196 0.0000 34.2370 0.0000
# 6 0.0000 0.0000 0.0000 -11.4211 0.0000 25.5982
#
#
#
# Elastic Compliance Matrix: (Units=1/GPa)
#
#
# Indices 1 2 3 4 5 6 
#
# 1 0.011156 -0.000862 -0.001926 0.000000 0.001916 0.000000
# 2 -0.000862 0.012910 -0.001758 0.000000 0.005584 0.000000
# 3 -0.001926 -0.001758 0.010144 0.000000 -0.001939 0.000000
# 4 0.000000 0.000000 0.000000 0.036375 0.000000 0.016229
# 5 0.001916 0.005584 -0.001939 0.000000 0.032156 0.000000
# 6 0.000000 0.000000 0.000000 0.016229 0.000000 0.046306
#
#
# Mechanical properties :
#
#
# Convention : Reuss Voigt Hill
#
# Bulk Modulus (GPa) = 39.81461 41.84657 40.83059
# Shear Modulus (GPa) = 30.02786 34.60333 32.31560
#
# Velocity S-wave (km/s) = 3.68137 3.95190 3.81903
# Velocity P-wave (km/s) = 6.00329 6.30159 6.15425
#
# Compressibility (1/GPa) = 0.02511641
#
# Stress axis : x y z
#
# Youngs Moduli (GPa) = 89.63707 77.46043 98.58289
#
# Poissons Ratio (x) = 0.06678 0.18989
# Poissons Ratio (y) = 0.07728 0.17334
# Poissons Ratio (z) = 0.17266 0.13620
#
# Static dielectric constant tensor:
#      x y z
#    x 1.813150 0.000000 0.009600 
#    y 0.000000 1.851420 0.000000 
#    z 0.009600 0.000000 1.802870 
# 
# From -- ./inp_files/9514.got.cif
#   From: 2010.05.17/outbox.cif.g08.bks.cpg/sg4_5_cif.got.tgz:9514.got - 2010.06.03 18:43:04.
