data_PCOD9118758
_publ_section_title
;
Structure prediction by ZEFSAII (Michael W. Deem and Ramdas Pophale) SiO2 
 PCOD9118758
Probable space group: P 21
;
_chemical_formula_sum "Si O2"
_cell_formula_units_Z 14
_cell_length_a 9.024817
_cell_length_b 7.794344
_cell_length_c 11.462852
_cell_angle_alpha 90.000000
_cell_angle_beta 137.331568
_cell_angle_gamma 90.000000
_cell_volume 546.491193
_symmetry_space_group_name_H-M "P 21"
_symmetry_group_IT_number 4
_symmetry_cell_setting 'monoclinic'
loop_
_space_group_symop_operation_xyz
x,y,z
-x,1/2+y,-z
loop_
_atom_site_type_symbol
_atom_site_label
_atom_site_fract_x
_atom_site_fract_y
_atom_site_fract_z
Si Si1 0.493887 0.110070 0.139647
Si Si2 0.920128 0.785838 0.320750
Si Si3 0.384360 0.272599 0.422477
Si Si4 0.397514 0.745750 0.034957
Si Si5 0.254876 0.433840 0.112870
Si Si6 0.826751 0.415217 0.746310
Si Si7 0.854635 0.948184 0.512245
O O1 0.649273 0.043317 0.332424
O O2 0.340950 0.946041 0.019525
O O3 0.643739 0.163633 0.115691
O O4 0.365217 0.278845 0.103553
O O5 0.012165 0.598561 0.352433
O O6 0.661648 0.761413 0.184501
O O7 0.013311 0.903133 0.272663
O O8 0.990239 0.860507 0.486714
O O9 0.345577 0.407670 0.295306
O O10 0.633610 0.280566 0.610619
O O11 0.301884 0.093242 0.325007
O O12 0.234228 0.316396 0.445708
O O13 0.317387 0.614306 0.087582
O O14 0.993824 0.404903 0.950600
#
# Coordination Sequence:
#
# PCOD9118758 Si02
#       7
#     2   2   2   2   2   2   2
#     4  11  22  46  74 115 157 204 265 337 397 476
#     4  11  24  46  78 112 157 200 280 332 404 481
#     4  12  30  52  79 115 172 212 269 341 402 505
#     4  11  24  45  80 117 158 200 270 341 399 477
#     4  12  27  53  81 116 161 219 270 332 416 487
#     4  12  27  54  79 119 155 221 272 330 415 482
#     4  11  26  46  75 116 156 214 262 341 409 474
#
# _framework density 25.617978000000001
#
# number of rings (size 3 to 8) (size 9 to 14) (size 15 to 20)
#    0.000    0.571    2.857    4.286    8.000    3.429 
#   10.286    0.000    0.000    0.000    0.000    0.000 
#    0.000    0.000    0.000    0.000    0.000    0.000 
#
# Total GULP energy -78478.288412 kJ/mol
# GULP energy per Si atom -5605.592029 kJ/mol
# Density = 2.555967 g / cm^3
# Si number density = 25.617978 Si / 1000 Ang^3
#
#
#
# Elastic Constant Matrix: (Units=GPa)
#
#
# Indices 1 2 3 4 5 6 
#
# 1 86.4878 9.4032 10.4207 0.0000 -2.7400 0.0000
# 2 9.4032 90.7620 35.7162 0.0000 15.0985 0.0000
# 3 10.4207 35.7162 83.8965 0.0000 8.8980 0.0000
# 4 0.0000 0.0000 0.0000 27.6919 0.0000 0.0769
# 5 -2.7400 15.0985 8.8980 0.0000 36.4300 0.0000
# 6 0.0000 0.0000 0.0000 0.0769 0.0000 47.8597
#
#
#
# Elastic Compliance Matrix: (Units=1/GPa)
#
#
# Indices 1 2 3 4 5 6 
#
# 1 0.011870 -0.001022 -0.001210 0.000000 0.001612 0.000000
# 2 -0.001022 0.013986 -0.005343 0.000000 -0.004568 0.000000
# 3 -0.001210 -0.005343 0.014495 0.000000 -0.001417 0.000000
# 4 0.000000 0.000000 0.000000 0.036112 0.000000 -0.000058
# 5 0.001612 -0.004568 -0.001417 0.000000 0.029811 0.000000
# 6 0.000000 0.000000 0.000000 -0.000058 0.000000 0.020894
#
#
# Mechanical properties :
#
#
# Convention : Reuss Voigt Hill
#
# Bulk Modulus (GPa) = 39.68021 41.35848 40.51935
# Shear Modulus (GPa) = 33.17459 36.10341 34.63900
#
# Velocity S-wave (km/s) = 3.60248 3.75814 3.68113
# Velocity P-wave (km/s) = 5.72945 5.91699 5.82398
#
# Compressibility (1/GPa) = 0.02520148
#
# Stress axis : x y z
#
# Youngs Moduli (GPa) = 84.24381 71.49979 68.99145
#
# Poissons Ratio (x) = 0.07304 0.08351
# Poissons Ratio (y) = 0.08606 0.36860
# Poissons Ratio (z) = 0.10197 0.38200
#
# Static dielectric constant tensor:
#      x y z
#    x 2.011160 0.000000 -0.027790 
#    y 0.000000 2.041410 0.000000 
#    z -0.027790 0.000000 2.074680 
# 
# From -- ./inp_files/10826.got.cif
#   From: 2010.05.17/outbox.cif.g08.bks.cpg/sg4_6_cif.got.tgz:10826.got - 2010.06.03 18:43:04.
