data_PCOD9118818
_publ_section_title
;
Structure prediction by ZEFSAII (Michael W. Deem and Ramdas Pophale) SiO2 
 PCOD9118818
Probable space group: P 21
;
_chemical_formula_sum "Si O2"
_cell_formula_units_Z 16
_cell_length_a 12.024231
_cell_length_b 8.107501
_cell_length_c 15.729608
_cell_angle_alpha 90.000000
_cell_angle_beta 151.543212
_cell_angle_gamma 90.000000
_cell_volume 730.670080
_symmetry_space_group_name_H-M "P 21"
_symmetry_group_IT_number 4
_symmetry_cell_setting 'monoclinic'
loop_
_space_group_symop_operation_xyz
x,y,z
-x,1/2+y,-z
loop_
_atom_site_type_symbol
_atom_site_label
_atom_site_fract_x
_atom_site_fract_y
_atom_site_fract_z
Si Si1 0.275006 0.990880 0.724474
Si Si2 0.974858 0.993928 0.365391
Si Si3 0.558108 0.118437 0.179231
Si Si4 0.883942 0.516468 0.195641
Si Si5 0.962582 0.423403 0.878046
Si Si6 0.747159 0.258985 0.571651
Si Si7 0.314772 0.147611 0.185722
Si Si8 0.225883 0.661799 0.932695
O O1 0.321714 0.797262 0.740221
O O2 0.125695 0.996182 0.709946
O O3 0.146534 0.056776 0.554390
O O4 0.514338 0.089294 0.900227
O O5 0.726341 0.984622 0.247566
O O6 0.916852 0.111201 0.247697
O O7 0.100157 0.841256 0.402398
O O8 0.483613 0.081866 0.224928
O O9 0.320415 0.144795 0.966031
O O10 0.798629 0.357206 0.086359
O O11 0.133661 0.581153 0.335365
O O12 0.795473 0.358841 0.690112
O O13 0.819036 0.500248 0.858572
O O14 0.113240 0.570565 0.937217
O O15 0.133688 0.277238 0.022926
O O16 0.482216 0.241869 0.364816
#
# Coordination Sequence:
#
# PCOD9118818 Si02
#       8
#     2   2   2   2   2   2   2   2
#     4  12  22  42  67 103 148 184 228 294 356 431
#     4  11  23  41  70 102 140 188 227 288 366 427
#     4  12  23  43  69 104 142 187 231 286 362 424
#     4  12  24  39  71 104 144 188 228 285 371 426
#     4  11  27  47  75  98 138 188 245 296 351 409
#     4  11  25  49  71 103 148 180 237 307 351 423
#     4  12  26  51  74 101 142 191 240 300 352 417
#     4  11  24  44  65 103 140 182 238 294 349 425
#
# _framework density 21.897708000000002
#
# number of rings (size 3 to 8) (size 9 to 14) (size 15 to 20)
#    0.000    0.500    6.250    1.500    3.500    2.000 
#    2.250    1.250    0.000    0.000    0.000    0.000 
#    0.000    0.000    0.000    0.000    0.000    0.000 
#
# Total GULP energy -89455.834464 kJ/mol
# GULP energy per Si atom -5590.989654 kJ/mol
# Density = 2.184787 g / cm^3
# Si number density = 21.897708 Si / 1000 Ang^3
#
#
#
# Elastic Constant Matrix: (Units=GPa)
#
#
# Indices 1 2 3 4 5 6 
#
# 1 85.2857 26.1547 -10.3800 0.0000 -4.8558 0.0000
# 2 26.1547 53.3650 8.5471 0.0000 -2.4591 0.0000
# 3 -10.3800 8.5471 108.7392 0.0000 -19.8585 0.0000
# 4 0.0000 0.0000 0.0000 16.6993 0.0000 4.5040
# 5 -4.8558 -2.4591 -19.8585 0.0000 23.4549 0.0000
# 6 0.0000 0.0000 0.0000 4.5040 0.0000 33.2205
#
#
#
# Elastic Compliance Matrix: (Units=1/GPa)
#
#
# Indices 1 2 3 4 5 6 
#
# 1 0.014600 -0.007394 0.002822 0.000000 0.004636 0.000000
# 2 -0.007394 0.022737 -0.002765 0.000000 -0.001488 0.000000
# 3 0.002822 -0.002765 0.011518 0.000000 0.010046 0.000000
# 4 0.000000 0.000000 0.000000 0.062156 0.000000 -0.008427
# 5 0.004636 -0.001488 0.010046 0.000000 0.051944 0.000000
# 6 0.000000 0.000000 0.000000 -0.008427 0.000000 0.031244
#
#
# Mechanical properties :
#
#
# Convention : Reuss Voigt Hill
#
# Bulk Modulus (GPa) = 29.25625 32.89260 31.07442
# Shear Modulus (GPa) = 22.69972 29.54614 26.12293
#
# Velocity S-wave (km/s) = 3.22316 3.67724 3.45766
# Velocity P-wave (km/s) = 5.21930 5.75179 5.49200
#
# Compressibility (1/GPa) = 0.03418074
#
# Stress axis : x y z
#
# Youngs Moduli (GPa) = 68.49214 43.98123 86.82367
#
# Poissons Ratio (x) = 0.32520 -0.24498
# Poissons Ratio (y) = 0.50643 0.24004
# Poissons Ratio (z) = -0.19326 0.12159
#
# Static dielectric constant tensor:
#      x y z
#    x 1.794950 0.000000 -0.005370 
#    y 0.000000 1.825640 0.000000 
#    z -0.005370 0.000000 1.799920 
# 
# From -- ./inp_files/12679.got.cif
#   From: 2010.05.17/outbox.cif.g08.bks.cpg/sg4_7_cif.got.tgz:12679.got - 2010.06.03 18:43:04.
