data_PCOD9118203
_publ_section_title
;
Structure prediction by ZEFSAII (Michael W. Deem and Ramdas Pophale) SiO2 
 PCOD9118203
Probable space group: P 21
;
_chemical_formula_sum "Si O2"
_cell_formula_units_Z 14
_cell_length_a 18.222912
_cell_length_b 5.043474
_cell_length_c 11.981519
_cell_angle_alpha 90.000000
_cell_angle_beta 149.643625
_cell_angle_gamma 90.000000
_cell_volume 556.512382
_symmetry_space_group_name_H-M "P 21"
_symmetry_group_IT_number 4
_symmetry_cell_setting 'monoclinic'
loop_
_space_group_symop_operation_xyz
x,y,z
-x,1/2+y,-z
loop_
_atom_site_type_symbol
_atom_site_label
_atom_site_fract_x
_atom_site_fract_y
_atom_site_fract_z
Si Si1 0.052567 0.411030 0.133301
Si Si2 0.638694 0.033645 0.411576
Si Si3 0.403303 0.484403 0.882901
Si Si4 0.586930 0.218993 0.573790
Si Si5 0.866819 0.184308 0.079433
Si Si6 0.318273 0.810980 0.952013
Si Si7 0.045608 0.907203 0.491611
O O1 0.224994 0.364434 0.366481
O O2 0.024465 0.860881 0.849784
O O3 0.018730 0.705545 0.046700
O O4 0.614556 0.249326 0.477456
O O5 0.478018 0.910977 0.189901
O O6 0.681887 0.084315 0.339066
O O7 0.464104 0.194547 0.941976
O O8 0.337094 0.522683 0.918653
O O9 0.467196 0.993745 0.443957
O O10 0.735840 0.110607 0.824338
O O11 0.965386 0.965373 0.270734
O O12 0.777820 0.315985 0.063811
O O13 0.218308 0.951354 0.726834
O O14 0.017941 0.614735 0.501620
#
# Coordination Sequence:
#
# PCOD9118203 Si02
#       7
#     2   2   2   2   2   2   2
#     4  12  30  49  70 108 157 202 246 294 382 452
#     4  11  26  48  79 107 154 195 246 313 370 448
#     4  10  25  44  70 109 144 184 237 305 375 430
#     4  12  28  46  78 118 146 198 258 312 366 436
#     4  11  26  48  79 107 154 195 246 313 370 448
#     4  10  24  47  78 112 139 192 254 308 368 438
#     4  10  25  44  70 109 144 184 237 305 375 430
#
# _framework density 25.156673999999999
#
# number of rings (size 3 to 8) (size 9 to 14) (size 15 to 20)
#    0.000    1.143    2.857    0.000    6.000   18.286 
#    0.000    0.000    0.000    0.000    0.000    0.000 
#    0.000    0.000    0.000    0.000    0.000    0.000 
#
# Total GULP energy -78187.539254 kJ/mol
# GULP energy per Si atom -5584.824232 kJ/mol
# Density = 2.509942 g / cm^3
# Si number density = 25.156674 Si / 1000 Ang^3
#
#
#
# Elastic Constant Matrix: (Units=GPa)
#
#
# Indices 1 2 3 4 5 6 
#
# 1 123.0862 12.7135 21.8038 0.0000 3.6282 0.0000
# 2 12.7135 36.6996 1.9492 0.0000 17.2237 0.0000
# 3 21.8038 1.9492 166.7686 0.0000 16.6519 0.0000
# 4 0.0000 0.0000 0.0000 26.8264 0.0000 1.2656
# 5 3.6282 17.2237 16.6519 0.0000 52.3912 0.0000
# 6 0.0000 0.0000 0.0000 1.2656 0.0000 25.3338
#
#
#
# Elastic Compliance Matrix: (Units=1/GPa)
#
#
# Indices 1 2 3 4 5 6 
#
# 1 0.008653 -0.003346 -0.001180 0.000000 0.000876 0.000000
# 2 -0.003346 0.033593 0.001161 0.000000 -0.011181 0.000000
# 3 -0.001180 0.001161 0.006369 0.000000 -0.002324 0.000000
# 4 0.000000 0.000000 0.000000 0.037365 0.000000 -0.001867
# 5 0.000876 -0.011181 -0.002324 0.000000 0.023441 0.000000
# 6 0.000000 0.000000 0.000000 -0.001867 0.000000 0.039566
#
#
# Mechanical properties :
#
#
# Convention : Reuss Voigt Hill
#
# Bulk Modulus (GPa) = 23.87387 44.38748 34.13068
# Shear Modulus (GPa) = 29.46749 40.24947 34.85848
#
# Velocity S-wave (km/s) = 3.42622 4.00428 3.72648
# Velocity P-wave (km/s) = 5.01624 6.24994 5.66676
#
# Compressibility (1/GPa) = 0.04188679
#
# Stress axis : x y z
#
# Youngs Moduli (GPa) = 115.56492 29.76790 157.00842
#
# Poissons Ratio (x) = 0.09960 0.18522
# Poissons Ratio (y) = 0.38667 -0.18233
# Poissons Ratio (z) = 0.13633 -0.03457
#
# Static dielectric constant tensor:
#      x y z
#    x 2.073110 0.000000 -0.005550 
#    y 0.000000 1.984580 0.000000 
#    z -0.005550 0.000000 2.022150 
# 
# From -- ./inp_files/11468.got.cif
#   From: 2010.05.17/outbox.cif.g08.bks.cpg/sg4_6_cif.got.tgz:11468.got - 2010.06.03 18:43:04.
