data_PCOD9118998
_publ_section_title
;
Structure prediction by ZEFSAII (Michael W. Deem and Ramdas Pophale) SiO2 
 PCOD9118998
Probable space group: P 21
;
_chemical_formula_sum "Si O2"
_cell_formula_units_Z 12
_cell_length_a 6.467248
_cell_length_b 7.943934
_cell_length_c 15.015807
_cell_angle_alpha 90.000000
_cell_angle_beta 41.152260
_cell_angle_gamma 90.000000
_cell_volume 507.657532
_symmetry_space_group_name_H-M "P 21"
_symmetry_group_IT_number 4
_symmetry_cell_setting 'monoclinic'
loop_
_space_group_symop_operation_xyz
x,y,z
-x,1/2+y,-z
loop_
_atom_site_type_symbol
_atom_site_label
_atom_site_fract_x
_atom_site_fract_y
_atom_site_fract_z
Si Si1 0.943286 0.355980 0.571486
Si Si2 0.080822 0.708695 0.602709
Si Si3 0.199925 0.415211 0.157721
Si Si4 0.211071 0.390234 0.815001
Si Si5 0.231492 0.175569 0.984209
Si Si6 0.811110 0.700911 0.347093
O O1 0.058044 0.307829 0.437215
O O2 0.580071 0.399439 0.679721
O O3 0.087762 0.515164 0.572681
O O4 0.996242 0.205426 0.623860
O O5 0.453773 0.743212 0.489635
O O6 0.866361 0.758691 0.754935
O O7 0.261414 0.333879 0.041735
O O8 0.881768 0.525114 0.274599
O O9 0.479359 0.543219 0.095905
O O10 0.071450 0.332761 0.765526
O O11 0.068141 0.564778 0.891999
O O12 0.179488 0.250434 0.902717
#
# Coordination Sequence:
#
# PCOD9118998 Si02
#       6
#     2   2   2   2   2   2
#     4  11  24  45  70 105 142 183 242 303 363 428
#     4  11  26  41  75 103 142 188 237 304 367 431
#     4  12  26  46  75 105 148 194 242 300 366 434
#     4  11  26  45  71 102 141 190 242 293 360 432
#     4  12  27  45  74 106 148 197 243 297 362 441
#     4  11  23  48  71 105 143 184 242 303 362 432
#
# _framework density 23.637982000000001
#
# number of rings (size 3 to 8) (size 9 to 14) (size 15 to 20)
#    0.000    0.667    1.667    5.000    7.000    5.333 
#    0.000    0.000    0.000    0.000    0.000    0.000 
#    0.000    0.000    0.000    0.000    0.000    0.000 
#
# Total GULP energy -67096.236700 kJ/mol
# GULP energy per Si atom -5591.353058 kJ/mol
# Density = 2.358418 g / cm^3
# Si number density = 23.637982 Si / 1000 Ang^3
#
#
#
# Elastic Constant Matrix: (Units=GPa)
#
#
# Indices 1 2 3 4 5 6 
#
# 1 66.3299 1.5302 14.7227 0.0000 2.8254 0.0000
# 2 1.5302 63.7769 -8.5849 0.0000 1.2022 0.0000
# 3 14.7227 -8.5849 47.6015 0.0000 6.4660 0.0000
# 4 0.0000 0.0000 0.0000 50.0968 0.0000 0.7755
# 5 2.8254 1.2022 6.4660 0.0000 7.5164 0.0000
# 6 0.0000 0.0000 0.0000 0.7755 0.0000 43.6892
#
#
#
# Elastic Compliance Matrix: (Units=1/GPa)
#
#
# Indices 1 2 3 4 5 6 
#
# 1 0.016279 -0.001032 -0.004996 0.000000 -0.001656 0.000000
# 2 -0.001032 0.016356 0.004044 0.000000 -0.005707 0.000000
# 3 -0.004996 0.004044 0.026174 0.000000 -0.021285 0.000000
# 4 0.000000 0.000000 0.000000 0.019967 0.000000 -0.000354
# 5 -0.001656 -0.005707 -0.021285 0.000000 0.152889 0.000000
# 6 0.000000 0.000000 0.000000 -0.000354 0.000000 0.022895
#
#
# Mechanical properties :
#
#
# Convention : Reuss Voigt Hill
#
# Bulk Modulus (GPa) = 18.23425 21.44939 19.84182
# Shear Modulus (GPa) = 18.06298 31.59650 24.82974
#
# Velocity S-wave (km/s) = 2.76733 3.66003 3.24453
# Velocity P-wave (km/s) = 4.23574 5.19182 4.73796
#
# Compressibility (1/GPa) = 0.05484185
#
# Stress axis : x y z
#
# Youngs Moduli (GPa) = 61.42698 61.13824 38.20633
#
# Poissons Ratio (x) = 0.06309 0.19089
# Poissons Ratio (y) = 0.06339 -0.15452
# Poissons Ratio (z) = 0.30690 -0.24726
#
# Static dielectric constant tensor:
#      x y z
#    x 1.931010 0.000000 -0.012220 
#    y 0.000000 1.969170 0.000000 
#    z -0.012220 0.000000 1.864540 
# 
# From -- ./inp_files/1032.got.cif
#   From: 2010.05.17/outbox.cif.g08.bks.cpg/sg4_1_cif.got.tgz:1032.got - 2010.06.03 18:43:04.
