data_PCOD9118794
_publ_section_title
;
Structure prediction by ZEFSAII (Michael W. Deem and Ramdas Pophale) SiO2 
 PCOD9118794
Probable space group: P 21
;
_chemical_formula_sum "Si O2"
_cell_formula_units_Z 10
_cell_length_a 23.005502
_cell_length_b 4.996983
_cell_length_c 12.187415
_cell_angle_alpha 90.000000
_cell_angle_beta 19.674855
_cell_angle_gamma 90.000000
_cell_volume 471.705726
_symmetry_space_group_name_H-M "P 21"
_symmetry_group_IT_number 4
_symmetry_cell_setting 'monoclinic'
loop_
_space_group_symop_operation_xyz
x,y,z
-x,1/2+y,-z
loop_
_atom_site_type_symbol
_atom_site_label
_atom_site_fract_x
_atom_site_fract_y
_atom_site_fract_z
Si Si1 0.304268 0.501190 0.711454
Si Si2 0.104917 0.454998 0.837418
Si Si3 0.434582 0.166450 0.174628
Si Si4 0.115650 0.619307 0.272870
Si Si5 0.520593 0.011902 0.271329
O O1 0.183243 0.483350 0.819418
O O2 0.403872 0.221116 0.547701
O O3 0.450877 0.720365 0.425474
O O4 0.190807 0.579634 0.017258
O O5 0.250330 0.312250 0.505727
O O6 0.051366 0.744376 0.888937
O O7 0.482058 0.073641 0.212677
O O8 0.558336 0.404221 0.912954
O O9 0.038154 0.911716 0.429945
O O10 0.279580 0.555891 0.058269
#
# Coordination Sequence:
#
# PCOD9118794 Si02
#       5
#     2   2   2   2   2
#     4  11  23  44  66  88 123 171 208 242 304 383
#     4  11  23  40  63  93 125 163 207 252 304 364
#     4  11  23  40  63  93 125 163 207 252 304 364
#     4  12  26  42  64  98 124 154 206 268 314 348
#     4  11  23  44  66  88 123 171 208 242 304 383
#
# _framework density 21.199657999999999
#
# number of rings (size 3 to 8) (size 9 to 14) (size 15 to 20)
#    0.000    0.800    0.000    9.600    0.000    4.800 
#    0.000    0.000    0.000    0.000    0.000    0.000 
#    0.000    0.000    0.000    0.000    0.000    0.000 
#
# Total GULP energy -55983.239374 kJ/mol
# GULP energy per Si atom -5598.323937 kJ/mol
# Density = 2.115141 g / cm^3
# Si number density = 21.199658 Si / 1000 Ang^3
#
#
#
# Elastic Constant Matrix: (Units=GPa)
#
#
# Indices 1 2 3 4 5 6 
#
# 1 30.7600 -6.2208 8.3562 0.0000 -9.5215 0.0000
# 2 -6.2208 61.3787 -21.8979 0.0000 5.5793 0.0000
# 3 8.3562 -21.8979 58.2228 0.0000 6.4682 0.0000
# 4 0.0000 0.0000 0.0000 63.2794 0.0000 -8.2563
# 5 -9.5215 5.5793 6.4682 0.0000 40.3563 0.0000
# 6 0.0000 0.0000 0.0000 -8.2563 0.0000 21.1826
#
#
#
# Elastic Compliance Matrix: (Units=1/GPa)
#
#
# Indices 1 2 3 4 5 6 
#
# 1 0.037331 0.000700 -0.006172 0.000000 0.009700 0.000000
# 2 0.000700 0.019422 0.007620 0.000000 -0.003741 0.000000
# 3 -0.006172 0.007620 0.021590 0.000000 -0.005970 0.000000
# 4 0.000000 0.000000 0.000000 0.016650 0.000000 0.006490
# 5 0.009700 -0.003741 -0.005970 0.000000 0.028542 0.000000
# 6 0.000000 0.000000 0.000000 0.006490 0.000000 0.049738
#
#
# Mechanical properties :
#
#
# Convention : Reuss Voigt Hill
#
# Bulk Modulus (GPa) = 12.10104 12.31517 12.20811
# Shear Modulus (GPa) = 25.44221 36.30524 30.87372
#
# Velocity S-wave (km/s) = 3.46804 4.14277 3.82033
# Velocity P-wave (km/s) = 4.66443 5.35772 5.02305
#
# Compressibility (1/GPa) = 0.08263751
#
# Stress axis : x y z
#
# Youngs Moduli (GPa) = 26.78761 51.48849 46.31693
#
# Poissons Ratio (x) = -0.03603 0.28588
# Poissons Ratio (y) = -0.01874 -0.35293
# Poissons Ratio (z) = 0.16534 -0.39234
#
# Static dielectric constant tensor:
#      x y z
#    x 1.737310 0.000000 0.000410 
#    y 0.000000 1.745250 0.000000 
#    z 0.000410 0.000000 1.775940 
# 
# From -- ./inp_files/13081.got.cif
#   From: 2010.05.17/outbox.cif.g08.bks.cpg/sg4_7_cif.got.tgz:13081.got - 2010.06.03 18:43:04.
