data_PCOD9118658
_publ_section_title
;
Structure prediction by ZEFSAII (Michael W. Deem and Ramdas Pophale) SiO2 
 PCOD9118658
Probable space group: P 21
;
_chemical_formula_sum "Si O2"
_cell_formula_units_Z 12
_cell_length_a 10.806436
_cell_length_b 7.651403
_cell_length_c 17.372470
_cell_angle_alpha 90.000000
_cell_angle_beta 24.658854
_cell_angle_gamma 90.000000
_cell_volume 599.300396
_symmetry_space_group_name_H-M "P 21"
_symmetry_group_IT_number 4
_symmetry_cell_setting 'monoclinic'
loop_
_space_group_symop_operation_xyz
x,y,z
-x,1/2+y,-z
loop_
_atom_site_type_symbol
_atom_site_label
_atom_site_fract_x
_atom_site_fract_y
_atom_site_fract_z
Si Si1 0.075370 0.773430 0.345315
Si Si2 0.537527 0.880102 0.555686
Si Si3 0.595807 0.564407 0.089254
Si Si4 0.009419 0.399276 0.438999
Si Si5 0.543302 0.701970 0.291841
Si Si6 0.740406 0.004288 0.282792
O O1 0.877804 0.851925 0.390524
O O2 0.921780 0.589852 0.457174
O O3 0.414675 0.710017 0.142121
O O4 0.055354 0.888294 0.433693
O O5 0.538778 0.924486 0.464926
O O6 0.364371 0.702063 0.671390
O O7 0.412894 0.041796 0.675043
O O8 0.619404 0.642846 0.162427
O O9 0.363009 0.402782 0.225773
O O10 0.920478 0.513948 0.881131
O O11 0.804329 0.257281 0.514635
O O12 0.712946 0.873129 0.226368
#
# Coordination Sequence:
#
# PCOD9118658 Si02
#       6
#     2   2   2   2   2   2
#     4   9  17  37  63  88 119 160 201 250 305 361
#     4  12  23  42  64  84 130 174 198 246 324 373
#     4   9  22  38  65  97 116 156 219 260 293 355
#     4   9  17  36  63  90 118 153 210 249 306 353
#     4  11  22  41  66  89 124 170 202 254 312 366
#     4  12  25  42  61  94 129 163 210 247 312 380
#
# _framework density 20.023347999999999
#
# number of rings (size 3 to 8) (size 9 to 14) (size 15 to 20)
#    1.000    0.667    5.000    0.000    2.333    0.000 
#    3.000    1.667    0.000    0.000    0.000    0.000 
#    0.000    0.000    0.000    0.000    0.000    0.000 
#
# Total GULP energy -66838.571432 kJ/mol
# GULP energy per Si atom -5569.880953 kJ/mol
# Density = 1.997777 g / cm^3
# Si number density = 20.023348 Si / 1000 Ang^3
#
#
#
# Elastic Constant Matrix: (Units=GPa)
#
#
# Indices 1 2 3 4 5 6 
#
# 1 23.1487 7.1808 -6.1907 0.0000 -1.5974 0.0000
# 2 7.1808 97.7897 14.4864 0.0000 2.2302 0.0000
# 3 -6.1907 14.4864 69.6873 0.0000 -19.4905 0.0000
# 4 0.0000 0.0000 0.0000 12.8756 0.0000 -11.6237
# 5 -1.5974 2.2302 -19.4905 0.0000 23.0478 0.0000
# 6 0.0000 0.0000 0.0000 -11.6237 0.0000 37.2159
#
#
#
# Elastic Compliance Matrix: (Units=1/GPa)
#
#
# Indices 1 2 3 4 5 6 
#
# 1 0.047707 -0.004978 0.008294 0.000000 0.010802 0.000000
# 2 -0.004978 0.011326 -0.004191 0.000000 -0.004985 0.000000
# 3 0.008294 -0.004191 0.021260 0.000000 0.018959 0.000000
# 4 0.000000 0.000000 0.000000 0.108165 0.000000 0.033783
# 5 0.010802 -0.004985 0.018959 0.000000 0.060652 0.000000
# 6 0.000000 0.000000 0.000000 0.033783 0.000000 0.037422
#
#
# Mechanical properties :
#
#
# Convention : Reuss Voigt Hill
#
# Bulk Modulus (GPa) = 12.73183 24.61985 18.67584
# Shear Modulus (GPa) = 15.90010 26.30447 21.10229
#
# Velocity S-wave (km/s) = 2.82100 3.62842 3.24988
# Velocity P-wave (km/s) = 4.12104 5.46591 4.84041
#
# Compressibility (1/GPa) = 0.07854328
#
# Stress axis : x y z
#
# Youngs Moduli (GPa) = 20.96143 88.29161 47.03560
#
# Poissons Ratio (x) = 0.43953 -0.39012
# Poissons Ratio (y) = 0.10435 0.19712
# Poissons Ratio (z) = -0.17386 0.37002
#
# Static dielectric constant tensor:
#      x y z
#    x 1.728610 0.000000 -0.055140 
#    y 0.000000 1.721590 0.000000 
#    z -0.055140 0.000000 1.714380 
# 
# From -- ./inp_files/15699.got.cif
#   From: 2010.05.17/outbox.cif.g08.bks.cpg/sg4_8_cif.got.tgz:15699.got - 2010.06.03 18:43:04.
