data_PCOD9118530
_publ_section_title
;
Structure prediction by ZEFSAII (Michael W. Deem and Ramdas Pophale) SiO2 
 PCOD9118530
Probable space group: P 21
;
_chemical_formula_sum "Si O2"
_cell_formula_units_Z 16
_cell_length_a 10.481898
_cell_length_b 7.884638
_cell_length_c 11.756022
_cell_angle_alpha 90.000000
_cell_angle_beta 49.594539
_cell_angle_gamma 90.000000
_cell_volume 739.841350
_symmetry_space_group_name_H-M "P 21"
_symmetry_group_IT_number 4
_symmetry_cell_setting 'monoclinic'
loop_
_space_group_symop_operation_xyz
x,y,z
-x,1/2+y,-z
loop_
_atom_site_type_symbol
_atom_site_label
_atom_site_fract_x
_atom_site_fract_y
_atom_site_fract_z
Si Si1 0.677630 0.353290 0.725689
Si Si2 0.902629 0.499307 0.431500
Si Si3 0.378254 0.173228 0.002085
Si Si4 0.848516 0.180920 0.028185
Si Si5 0.965804 0.354999 0.739576
Si Si6 0.493563 0.313821 0.172660
Si Si7 0.026304 0.320194 0.142939
Si Si8 0.191214 0.497047 0.446714
O O1 0.730426 0.489694 0.601105
O O2 0.489261 0.314491 0.870604
O O3 0.745682 0.180644 0.627583
O O4 0.791344 0.378562 0.772557
O O5 0.951738 0.684866 0.360840
O O6 0.917293 0.381675 0.312967
O O7 0.048450 0.446486 0.436807
O O8 0.441744 0.993367 0.918230
O O9 0.422183 0.204431 0.108644
O O10 0.184489 0.209306 0.091935
O O11 0.897951 0.994053 0.955889
O O12 0.930764 0.312921 0.889804
O O13 0.650919 0.217743 0.135204
O O14 0.922051 0.222458 0.108278
O O15 0.098557 0.493821 0.621352
O O16 0.347460 0.372045 0.341987
#
# Coordination Sequence:
#
# PCOD9118530 Si02
#       8
#     2   2   2   2   2   2   2   2
#     4   9  18  33  54  83 113 141 182 232 278 328
#     4   9  18  34  54  80 113 145 182 230 278 329
#     4  11  21  36  58  86 116 148 188 236 281 330
#     4  11  23  40  58  83 116 151 191 232 282 340
#     4   9  18  34  54  80 113 145 182 230 278 329
#     4  11  21  36  58  86 116 148 188 236 281 330
#     4  11  23  40  58  83 116 151 191 232 282 340
#     4   9  18  33  54  83 113 141 182 232 278 328
#
# _framework density 21.626259000000001
#
# number of rings (size 3 to 8) (size 9 to 14) (size 15 to 20)
#    0.000    2.000    2.500    1.500    0.000    4.000 
#    0.000    1.250    0.000    0.000    0.000    0.000 
#    0.000    0.000    0.000    0.000    0.000    0.000 
#
# Total GULP energy -89496.393538 kJ/mol
# GULP energy per Si atom -5593.524596 kJ/mol
# Density = 2.157704 g / cm^3
# Si number density = 21.626259 Si / 1000 Ang^3
#
#
#
# Elastic Constant Matrix: (Units=GPa)
#
#
# Indices 1 2 3 4 5 6 
#
# 1 109.3984 18.5393 24.1203 0.0000 2.0890 0.0000
# 2 18.5393 82.1220 -0.7398 0.0000 1.1115 0.0000
# 3 24.1203 -0.7398 100.5251 0.0000 -9.2760 0.0000
# 4 0.0000 0.0000 0.0000 43.5364 0.0000 -2.2781
# 5 2.0890 1.1115 -9.2760 0.0000 29.3108 0.0000
# 6 0.0000 0.0000 0.0000 -2.2781 0.0000 23.8534
#
#
#
# Elastic Compliance Matrix: (Units=1/GPa)
#
#
# Indices 1 2 3 4 5 6 
#
# 1 0.010126 -0.002289 -0.002580 0.000000 -0.001451 0.000000
# 2 -0.002289 0.012701 0.000632 0.000000 -0.000119 0.000000
# 3 -0.002580 0.000632 0.010905 0.000000 0.003611 0.000000
# 4 0.000000 0.000000 0.000000 0.023085 0.000000 0.002205
# 5 -0.001451 -0.000119 0.003611 0.000000 0.035368 0.000000
# 6 0.000000 0.000000 0.000000 0.002205 0.000000 0.042133
#
#
# Mechanical properties :
#
#
# Convention : Reuss Voigt Hill
#
# Bulk Modulus (GPa) = 39.59519 41.76500 40.68009
# Shear Modulus (GPa) = 33.06625 36.01515 34.54070
#
# Velocity S-wave (km/s) = 3.91447 4.08529 4.00079
# Velocity P-wave (km/s) = 6.22731 6.45034 6.33980
#
# Compressibility (1/GPa) = 0.02525560
#
# Stress axis : x y z
#
# Youngs Moduli (GPa) = 98.76036 78.73297 91.70316
#
# Poissons Ratio (x) = 0.18026 0.23662
# Poissons Ratio (y) = 0.22611 -0.05795
# Poissons Ratio (z) = 0.25483 -0.04975
#
# Static dielectric constant tensor:
#      x y z
#    x 1.705730 0.000000 -0.017320 
#    y 0.000000 1.896050 0.000000 
#    z -0.017320 0.000000 1.795930 
# 
# From -- ./inp_files/5818.got.cif
#   From: 2010.05.17/outbox.cif.g08.bks.cpg/sg4_3_cif.got.tgz:5818.got - 2010.06.03 18:43:04.
