data_PCOD9118916
_publ_section_title
;
Structure prediction by ZEFSAII (Michael W. Deem and Ramdas Pophale) SiO2 
 PCOD9118916
Probable space group: P 21
;
_chemical_formula_sum "Si O2"
_cell_formula_units_Z 16
_cell_length_a 18.682891
_cell_length_b 5.626326
_cell_length_c 9.103132
_cell_angle_alpha 90.000000
_cell_angle_beta 42.247453
_cell_angle_gamma 90.000000
_cell_volume 643.346323
_symmetry_space_group_name_H-M "P 21"
_symmetry_group_IT_number 4
_symmetry_cell_setting 'monoclinic'
loop_
_space_group_symop_operation_xyz
x,y,z
-x,1/2+y,-z
loop_
_atom_site_type_symbol
_atom_site_label
_atom_site_fract_x
_atom_site_fract_y
_atom_site_fract_z
Si Si1 0.682133 0.434880 0.665103
Si Si2 0.709384 0.124822 0.375310
Si Si3 0.773801 0.399782 0.998578
Si Si4 0.126244 0.259708 0.749480
Si Si5 0.018298 0.068981 0.206015
Si Si6 0.557858 0.924343 0.381157
Si Si7 0.346337 0.220075 0.037309
Si Si8 0.810843 0.101976 0.683514
O O1 0.638575 0.263649 0.603257
O O2 0.783031 0.572945 0.437963
O O3 0.611528 0.613015 0.872717
O O4 0.727745 0.258944 0.718780
O O5 0.744288 0.323182 0.205935
O O6 0.806692 0.998442 0.311733
O O7 0.652030 0.929922 0.360205
O O8 0.878914 0.554745 0.849328
O O9 0.682474 0.526914 0.044422
O O10 0.806651 0.167139 0.859613
O O11 0.037433 0.322422 0.762632
O O12 0.059557 0.187760 0.994241
O O13 0.922789 0.174334 0.444981
O O14 0.492894 0.684640 0.515045
O O15 0.591681 0.907873 0.158375
O O16 0.234231 0.336883 0.257906
#
# Coordination Sequence:
#
# PCOD9118916 Si02
#       8
#     2   2   2   2   2   2   2   2
#     4  11  23  44  75 102 144 210 248 301 382 470
#     4  12  24  48  77 108 145 203 254 310 404 464
#     4  11  25  38  69 103 151 200 257 306 359 452
#     4  12  24  41  66 100 151 203 252 319 359 447
#     4  12  23  37  60 101 148 201 265 302 354 426
#     4  12  29  51  89 120 147 189 258 336 405 503
#     4  11  24  50  74 105 153 199 245 313 406 450
#     4  11  24  41  62 101 147 207 245 309 363 440
#
# _framework density 24.869964
#
# number of rings (size 3 to 8) (size 9 to 14) (size 15 to 20)
#    0.000    0.500    5.000    3.000    5.250    0.000 
#    0.000    0.000    5.500    0.000    0.000    0.000 
#    0.000    0.000    0.000    0.000    0.000    0.000 
#
# Total GULP energy -89376.721091 kJ/mol
# GULP energy per Si atom -5586.045068 kJ/mol
# Density = 2.481336 g / cm^3
# Si number density = 24.869964 Si / 1000 Ang^3
#
#
#
# Elastic Constant Matrix: (Units=GPa)
#
#
# Indices 1 2 3 4 5 6 
#
# 1 46.7793 2.9868 23.3175 0.0000 16.7587 0.0000
# 2 2.9868 71.2784 36.7085 0.0000 8.8924 0.0000
# 3 23.3175 36.7085 127.8351 0.0000 27.3682 0.0000
# 4 0.0000 0.0000 0.0000 54.0947 0.0000 14.6648
# 5 16.7587 8.8924 27.3682 0.0000 38.3290 0.0000
# 6 0.0000 0.0000 0.0000 14.6648 0.0000 37.5011
#
#
#
# Elastic Compliance Matrix: (Units=1/GPa)
#
#
# Indices 1 2 3 4 5 6 
#
# 1 0.026325 0.001771 -0.003256 0.000000 -0.009596 0.000000
# 2 0.001771 0.016592 -0.004837 0.000000 -0.001170 0.000000
# 3 -0.003256 -0.004837 0.010931 0.000000 -0.005260 0.000000
# 4 0.000000 0.000000 0.000000 0.020678 0.000000 -0.008086
# 5 -0.009596 -0.001170 -0.005260 0.000000 0.034313 0.000000
# 6 0.000000 0.000000 0.000000 -0.008086 0.000000 0.029828
#
#
# Mechanical properties :
#
#
# Convention : Reuss Voigt Hill
#
# Bulk Modulus (GPa) = 24.26933 41.32428 32.79681
# Shear Modulus (GPa) = 30.29454 38.17696 34.23575
#
# Velocity S-wave (km/s) = 3.49394 3.92224 3.71427
# Velocity P-wave (km/s) = 5.10456 6.09624 5.62231
#
# Compressibility (1/GPa) = 0.04120426
#
# Stress axis : x y z
#
# Youngs Moduli (GPa) = 37.98730 60.26864 91.47883
#
# Poissons Ratio (x) = -0.10672 0.29783
# Poissons Ratio (y) = -0.06727 0.44250
# Poissons Ratio (z) = 0.12368 0.29153
#
# Static dielectric constant tensor:
#      x y z
#    x 1.995970 0.000000 -0.025140 
#    y 0.000000 2.044550 0.000000 
#    z -0.025140 0.000000 1.997080 
# 
# From -- ./inp_files/8840.got.cif
#   From: 2010.05.17/outbox.cif.g08.bks.cpg/sg4_5_cif.got.tgz:8840.got - 2010.06.03 18:43:04.
