data_PCOD9118809
_publ_section_title
;
Structure prediction by ZEFSAII (Michael W. Deem and Ramdas Pophale) SiO2 
 PCOD9118809
Probable space group: P 21
;
_chemical_formula_sum "Si O2"
_cell_formula_units_Z 8
_cell_length_a 7.992733
_cell_length_b 8.112445
_cell_length_c 7.525688
_cell_angle_alpha 90.000000
_cell_angle_beta 36.889652
_cell_angle_gamma 90.000000
_cell_volume 292.916682
_symmetry_space_group_name_H-M "P 21"
_symmetry_group_IT_number 4
_symmetry_cell_setting 'monoclinic'
loop_
_space_group_symop_operation_xyz
x,y,z
-x,1/2+y,-z
loop_
_atom_site_type_symbol
_atom_site_label
_atom_site_fract_x
_atom_site_fract_y
_atom_site_fract_z
Si Si1 0.079529 0.458700 0.804181
Si Si2 0.586082 0.659662 0.392259
Si Si3 0.417315 0.070316 0.198484
Si Si4 0.114971 0.750020 0.372080
O O1 0.290065 0.603717 0.564501
O O2 0.274674 0.337209 0.754908
O O3 0.964959 0.348270 0.741875
O O4 0.821329 0.531418 0.130247
O O5 0.540421 0.646108 0.642942
O O6 0.175637 0.180390 0.309519
O O7 0.295793 0.887746 0.316159
O O8 0.696149 0.095824 0.850337
#
# Coordination Sequence:
#
# PCOD9118809 Si02
#       4
#     2   2   2   2
#     4  11  23  41  63  91 125 161 203 253 302 360
#     4  11  23  41  63  91 125 161 203 253 302 360
#     4  11  24  43  63  91 125 161 204 253 302 362
#     4  11  24  43  63  91 125 161 204 253 302 362
#
# _framework density 27.311519000000001
#
# number of rings (size 3 to 8) (size 9 to 14) (size 15 to 20)
#    0.000    1.000    0.000    9.000    0.000    6.000 
#    0.000    0.000    0.000    0.000    0.000    0.000 
#    0.000    0.000    0.000    0.000    0.000    0.000 
#
# Total GULP energy -44895.279320 kJ/mol
# GULP energy per Si atom -5611.909915 kJ/mol
# Density = 2.724936 g / cm^3
# Si number density = 27.311519 Si / 1000 Ang^3
#
#
#
# Elastic Constant Matrix: (Units=GPa)
#
#
# Indices 1 2 3 4 5 6 
#
# 1 78.7968 -2.8464 12.2867 0.0000 -16.5073 0.0000
# 2 -2.8464 92.4365 -2.3017 0.0000 -10.2394 0.0000
# 3 12.2867 -2.3017 131.7074 0.0000 -21.5868 0.0000
# 4 0.0000 0.0000 0.0000 60.4702 0.0000 -5.0958
# 5 -16.5073 -10.2394 -21.5868 0.0000 32.2082 0.0000
# 6 0.0000 0.0000 0.0000 -5.0958 0.0000 43.6845
#
#
#
# Elastic Compliance Matrix: (Units=1/GPa)
#
#
# Indices 1 2 3 4 5 6 
#
# 1 0.014368 0.001299 -0.000048 0.000000 0.007744 0.000000
# 2 0.001299 0.011421 0.000879 0.000000 0.004886 0.000000
# 3 -0.000048 0.000879 0.008599 0.000000 0.006018 0.000000
# 4 0.000000 0.000000 0.000000 0.016701 0.000000 0.001948
# 5 0.007744 0.004886 0.006018 0.000000 0.040604 0.000000
# 6 0.000000 0.000000 0.000000 0.001948 0.000000 0.023119
#
#
# Mechanical properties :
#
#
# Convention : Reuss Voigt Hill
#
# Bulk Modulus (GPa) = 25.87467 35.24643 30.56055
# Shear Modulus (GPa) = 40.50740 46.99273 43.75007
#
# Velocity S-wave (km/s) = 3.85536 4.15253 4.00670
# Velocity P-wave (km/s) = 5.41414 5.99373 5.71129
#
# Compressibility (1/GPa) = 0.03864784
#
# Stress axis : x y z
#
# Youngs Moduli (GPa) = 69.60050 87.55514 116.29538
#
# Poissons Ratio (x) = -0.11374 0.00562
# Poissons Ratio (y) = -0.09042 -0.10225
# Poissons Ratio (z) = 0.00336 -0.07698
#
# Static dielectric constant tensor:
#      x y z
#    x 2.238480 0.000000 -0.042760 
#    y 0.000000 2.172550 0.000000 
#    z -0.042760 0.000000 1.955440 
# 
# From -- ./inp_files/36.got.cif
#   From: 2010.05.17/outbox.cif.g08.bks.cpg/sg4_1_cif.got.tgz:36.got - 2010.06.03 18:43:04.
