data_PCOD9118311
_publ_section_title
;
Structure prediction by ZEFSAII (Michael W. Deem and Ramdas Pophale) SiO2 
 PCOD9118311
Probable space group: P 21
;
_chemical_formula_sum "Si O2"
_cell_formula_units_Z 14
_cell_length_a 10.820145
_cell_length_b 10.525898
_cell_length_c 5.119146
_cell_angle_alpha 90.000000
_cell_angle_beta 75.106502
_cell_angle_gamma 90.000000
_cell_volume 563.441765
_symmetry_space_group_name_H-M "P 21"
_symmetry_group_IT_number 4
_symmetry_cell_setting 'monoclinic'
loop_
_space_group_symop_operation_xyz
x,y,z
-x,1/2+y,-z
loop_
_atom_site_type_symbol
_atom_site_label
_atom_site_fract_x
_atom_site_fract_y
_atom_site_fract_z
Si Si1 0.693031 0.775830 0.093033
Si Si2 0.254611 0.032920 0.303496
Si Si3 0.079171 0.714619 0.720759
Si Si4 0.705014 0.310380 0.090543
Si Si5 0.740988 0.037169 0.152947
Si Si6 0.505561 0.420171 0.539334
Si Si7 0.091332 0.205851 0.673213
O O1 0.719789 0.655837 0.898115
O O2 0.546527 0.805382 0.248572
O O3 0.770183 0.761492 0.325277
O O4 0.748561 0.912177 0.969966
O O5 0.382097 0.002533 0.395352
O O6 0.000412 0.248065 0.488872
O O7 0.135167 0.066863 0.551173
O O8 0.234386 0.913095 0.129434
O O9 0.986838 0.722492 0.020209
O O10 0.205200 0.799055 0.700677
O O11 0.138797 0.572780 0.730502
O O12 0.712370 0.163884 0.000136
O O13 0.566011 0.359518 0.249410
O O14 0.618717 0.008657 0.402438
#
# Coordination Sequence:
#
# PCOD9118311 Si02
#       7
#     2   2   2   2   2   2   2
#     4  10  25  49  75 118 152 212 258 335 388 476
#     4  12  26  45  80 116 157 205 263 330 401 465
#     4  10  26  51  77 112 161 201 267 313 397 469
#     4  10  25  48  75 119 147 214 258 335 389 471
#     4   8  24  50  73 116 152 212 248 339 383 475
#     4  10  25  45  78 108 163 192 271 311 407 461
#     4  12  25  52  76 117 154 210 257 327 385 477
#
# _framework density 24.847289
#
# number of rings (size 3 to 8) (size 9 to 14) (size 15 to 20)
#    1.714    0.000    1.429    0.857    8.000    1.143 
#   10.286    0.000    0.000    0.000    0.000    0.000 
#    0.000    0.000    0.000    0.000    0.000    0.000 
#
# Total GULP energy -78091.250123 kJ/mol
# GULP energy per Si atom -5577.946437 kJ/mol
# Density = 2.479074 g / cm^3
# Si number density = 24.847289 Si / 1000 Ang^3
#
#
#
# Elastic Constant Matrix: (Units=GPa)
#
#
# Indices 1 2 3 4 5 6 
#
# 1 74.6149 -7.6212 44.1161 0.0000 -2.8322 0.0000
# 2 -7.6212 141.4805 33.4363 0.0000 3.0341 0.0000
# 3 44.1161 33.4363 89.6620 0.0000 8.4474 0.0000
# 4 0.0000 0.0000 0.0000 30.6378 0.0000 -5.5103
# 5 -2.8322 3.0341 8.4474 0.0000 30.4028 0.0000
# 6 0.0000 0.0000 0.0000 -5.5103 0.0000 43.2083
#
#
#
# Elastic Compliance Matrix: (Units=1/GPa)
#
#
# Indices 1 2 3 4 5 6 
#
# 1 0.021387 0.003995 -0.012490 0.000000 0.005064 0.000000
# 2 0.003995 0.008498 -0.005227 0.000000 0.000976 0.000000
# 3 -0.012490 -0.005227 0.019827 0.000000 -0.006151 0.000000
# 4 0.000000 0.000000 0.000000 0.033406 0.000000 0.004260
# 5 0.005064 0.000976 -0.006151 0.000000 0.034975 0.000000
# 6 0.000000 0.000000 0.000000 0.004260 0.000000 0.023687
#
#
# Mechanical properties :
#
#
# Convention : Reuss Voigt Hill
#
# Bulk Modulus (GPa) = 44.90557 49.51331 47.20944
# Shear Modulus (GPa) = 28.30529 36.57152 32.43841
#
# Velocity S-wave (km/s) = 3.37882 3.84063 3.61711
# Velocity P-wave (km/s) = 5.77354 6.29584 6.04034
#
# Compressibility (1/GPa) = 0.02226895
#
# Stress axis : x y z
#
# Youngs Moduli (GPa) = 46.75690 117.68006 50.43615
#
# Poissons Ratio (x) = -0.47016 0.62995
# Poissons Ratio (y) = -0.18681 0.26361
# Poissons Ratio (z) = 0.58400 0.61507
#
# Static dielectric constant tensor:
#      x y z
#    x 1.986610 0.000000 0.024100 
#    y 0.000000 2.060050 0.000000 
#    z 0.024100 0.000000 1.998100 
# 
# From -- ./inp_files/3168.got.cif
#   From: 2010.05.17/outbox.cif.g08.bks.cpg/sg4_2_cif.got.tgz:3168.got - 2010.06.03 18:43:04.
