data_PCOD9118101
_publ_section_title
;
Structure prediction by ZEFSAII (Michael W. Deem and Ramdas Pophale) SiO2 
 PCOD9118101
Probable space group: P 21
;
_chemical_formula_sum "Si O2"
_cell_formula_units_Z 16
_cell_length_a 10.595256
_cell_length_b 5.026524
_cell_length_c 11.143521
_cell_angle_alpha 90.000000
_cell_angle_beta 100.138910
_cell_angle_gamma 90.000000
_cell_volume 584.206164
_symmetry_space_group_name_H-M "P 21"
_symmetry_group_IT_number 4
_symmetry_cell_setting 'monoclinic'
loop_
_space_group_symop_operation_xyz
x,y,z
-x,1/2+y,-z
loop_
_atom_site_type_symbol
_atom_site_label
_atom_site_fract_x
_atom_site_fract_y
_atom_site_fract_z
Si Si1 0.654355 0.214320 0.599121
Si Si2 0.162290 0.813006 0.671865
Si Si3 0.944599 0.024510 0.131859
Si Si4 0.532331 0.696813 0.662078
Si Si5 0.812751 0.781858 0.891397
Si Si6 0.928809 0.080673 0.679658
Si Si7 0.321255 0.313889 0.727424
Si Si8 0.585444 0.643953 0.003352
O O1 0.652025 0.510738 0.649615
O O2 0.559417 0.204823 0.470888
O O3 0.801778 0.173214 0.589632
O O4 0.587859 0.997719 0.679398
O O5 0.274869 0.029166 0.666806
O O6 0.024599 0.921148 0.607925
O O7 0.117559 0.772181 0.806071
O O8 0.217116 0.521643 0.662795
O O9 0.079766 0.055384 0.085977
O O10 0.847193 0.965333 0.009476
O O11 0.986423 0.807353 0.239772
O O12 0.447698 0.497456 0.730137
O O13 0.856367 0.922052 0.775739
O O14 0.671334 0.677786 0.898695
O O15 0.331682 0.234832 0.868113
O O16 0.466934 0.849825 0.980684
#
# Coordination Sequence:
#
# PCOD9118101 Si02
#       8
#     2   2   2   2   2   2   2   2
#     4  10  24  45  71 100 131 163 231 278 331 389
#     4  11  23  42  64  99 126 179 213 270 330 391
#     4  11  22  40  65  98 131 181 221 272 326 385
#     4  10  24  46  70  98 129 180 214 275 338 400
#     4  11  24  38  63  91 134 174 225 255 329 377
#     4  11  24  39  70  97 131 169 226 280 320 383
#     4  12  24  43  69  87 140 175 220 260 343 402
#     4  12  29  41  58  92 134 173 218 266 313 391
#
# _framework density 27.387588999999998
#
# number of rings (size 3 to 8) (size 9 to 14) (size 15 to 20)
#    0.000    1.000    3.750    1.500   10.500    0.000 
#    0.000    1.250    0.000    0.000    0.000    0.000 
#    0.000    0.000    0.000    0.000    0.000    0.000 
#
# Total GULP energy -89307.518774 kJ/mol
# GULP energy per Si atom -5581.719923 kJ/mol
# Density = 2.732525 g / cm^3
# Si number density = 27.387589 Si / 1000 Ang^3
#
#
#
# Elastic Constant Matrix: (Units=GPa)
#
#
# Indices 1 2 3 4 5 6 
#
# 1 117.5886 36.5744 0.2314 0.0000 -7.9112 0.0000
# 2 36.5744 127.6136 -0.4276 0.0000 9.0135 0.0000
# 3 0.2314 -0.4276 41.4152 0.0000 7.7056 0.0000
# 4 0.0000 0.0000 0.0000 30.2091 0.0000 -0.7708
# 5 -7.9112 9.0135 7.7056 0.0000 24.3520 0.0000
# 6 0.0000 0.0000 0.0000 -0.7708 0.0000 53.9978
#
#
#
# Elastic Compliance Matrix: (Units=1/GPa)
#
#
# Indices 1 2 3 4 5 6 
#
# 1 0.009795 -0.003138 -0.000951 0.000000 0.004645 0.000000
# 2 -0.003138 0.009070 0.000983 0.000000 -0.004688 0.000000
# 3 -0.000951 0.000983 0.025806 0.000000 -0.008839 0.000000
# 4 0.000000 0.000000 0.000000 0.033115 0.000000 0.000473
# 5 0.004645 -0.004688 -0.008839 0.000000 0.047105 0.000000
# 6 0.000000 0.000000 0.000000 0.000473 0.000000 0.018526
#
#
# Mechanical properties :
#
#
# Convention : Reuss Voigt Hill
#
# Bulk Modulus (GPa) = 26.00253 39.93041 32.96647
# Shear Modulus (GPa) = 30.77902 38.39440 34.58671
#
# Velocity S-wave (km/s) = 3.35600 3.74824 3.55753
# Velocity P-wave (km/s) = 4.95296 5.77441 5.37939
#
# Compressibility (1/GPa) = 0.03845779
#
# Stress axis : x y z
#
# Youngs Moduli (GPa) = 102.09546 110.25302 38.75116
#
# Poissons Ratio (x) = 0.34602 0.03686
# Poissons Ratio (y) = 0.32042 -0.03811
# Poissons Ratio (z) = 0.09712 -0.10842
#
# Static dielectric constant tensor:
#      x y z
#    x 2.226950 0.000000 0.039050 
#    y 0.000000 2.231900 0.000000 
#    z 0.039050 0.000000 2.365140 
# 
# From -- ./inp_files/13531.got.cif
#   From: 2010.05.17/outbox.cif.g08.bks.cpg/sg4_7_cif.got.tgz:13531.got - 2010.06.03 18:43:04.
