data_PCOD9118603
_publ_section_title
;
Structure prediction by ZEFSAII (Michael W. Deem and Ramdas Pophale) SiO2 
 PCOD9118603
Probable space group: P 21
;
_chemical_formula_sum "Si O2"
_cell_formula_units_Z 16
_cell_length_a 6.763099
_cell_length_b 14.804812
_cell_length_c 8.252134
_cell_angle_alpha 90.000000
_cell_angle_beta 76.646626
_cell_angle_gamma 90.000000
_cell_volume 803.917996
_symmetry_space_group_name_H-M "P 21"
_symmetry_group_IT_number 4
_symmetry_cell_setting 'monoclinic'
loop_
_space_group_symop_operation_xyz
x,y,z
-x,1/2+y,-z
loop_
_atom_site_type_symbol
_atom_site_label
_atom_site_fract_x
_atom_site_fract_y
_atom_site_fract_z
Si Si1 0.344379 0.168520 0.605407
Si Si2 0.521074 0.355905 0.463782
Si Si3 0.169801 0.428687 0.317842
Si Si4 0.574144 0.083987 0.854866
Si Si5 0.128083 0.860138 0.864118
Si Si6 0.793012 0.508407 0.573655
Si Si7 0.840791 0.541300 0.931926
Si Si8 0.950112 0.191686 0.902594
O O1 0.472371 0.258509 0.547896
O O2 0.471799 0.105024 0.702130
O O3 0.135321 0.192486 0.739388
O O4 0.294706 0.106118 0.460379
O O5 0.306938 0.391822 0.436283
O O6 0.670362 0.345785 0.280792
O O7 0.631653 0.428663 0.560602
O O8 0.313051 0.488887 0.178049
O O9 0.058210 0.355791 0.227595
O O10 0.986989 0.489191 0.422647
O O11 0.743317 0.157194 0.861953
O O12 0.388785 0.079204 0.013651
O O13 0.091029 0.787240 0.008588
O O14 0.139375 0.958516 0.945414
O O15 0.867332 0.508590 0.744035
O O16 0.987310 0.619808 0.969408
#
# Coordination Sequence:
#
# PCOD9118603 Si02
#       8
#     2   2   2   2   2   2   2   2
#     4  11  25  42  65  95 130 164 217 261 314 383
#     4  11  25  43  65  96 127 171 212 261 321 374
#     4  11  21  45  68  84 130 174 204 261 318 370
#     4  11  21  45  68  84 130 174 204 261 318 370
#     4  11  25  42  65  95 130 164 217 261 314 383
#     4  11  25  43  64  98 130 165 217 260 314 383
#     4  11  25  43  64  98 130 165 217 260 314 383
#     4  11  25  43  65  96 127 171 212 261 321 374
#
# _framework density 19.902528
#
# number of rings (size 3 to 8) (size 9 to 14) (size 15 to 20)
#    0.000    1.000    5.000    1.500    7.000    5.000 
#    0.000    0.000    0.000    0.000    0.000    0.000 
#    0.000    0.000    0.000    0.000    0.000    0.000 
#
# Total GULP energy -89397.365892 kJ/mol
# GULP energy per Si atom -5587.335368 kJ/mol
# Density = 1.985723 g / cm^3
# Si number density = 19.902528 Si / 1000 Ang^3
#
#
#
# Elastic Constant Matrix: (Units=GPa)
#
#
# Indices 1 2 3 4 5 6 
#
# 1 72.3237 0.8279 0.4584 0.0000 -3.5946 0.0000
# 2 0.8279 71.5991 4.2850 0.0000 -7.3526 0.0000
# 3 0.4584 4.2850 50.6496 0.0000 11.3855 0.0000
# 4 0.0000 0.0000 0.0000 39.4730 0.0000 2.2540
# 5 -3.5946 -7.3526 11.3855 0.0000 13.1789 0.0000
# 6 0.0000 0.0000 0.0000 2.2540 0.0000 24.1318
#
#
#
# Elastic Compliance Matrix: (Units=1/GPa)
#
#
# Indices 1 2 3 4 5 6 
#
# 1 0.014092 0.000459 -0.001350 0.000000 0.005266 0.000000
# 2 0.000459 0.015465 -0.004071 0.000000 0.012270 0.000000
# 3 -0.001350 -0.004071 0.025681 0.000000 -0.024825 0.000000
# 4 0.000000 0.000000 0.000000 0.025470 0.000000 -0.002379
# 5 0.005266 0.012270 -0.024825 0.000000 0.105608 0.000000
# 6 0.000000 0.000000 0.000000 -0.002379 0.000000 0.041661
#
#
# Mechanical properties :
#
#
# Convention : Reuss Voigt Hill
#
# Bulk Modulus (GPa) = 22.06864 22.85721 22.46293
# Shear Modulus (GPa) = 19.76246 27.95680 23.85963
#
# Velocity S-wave (km/s) = 3.15455 3.75198 3.46616
# Velocity P-wave (km/s) = 4.93768 5.50266 5.22781
#
# Compressibility (1/GPa) = 0.04531317
#
# Stress axis : x y z
#
# Youngs Moduli (GPa) = 70.96347 64.66213 38.93993
#
# Poissons Ratio (x) = -0.02965 0.05257
# Poissons Ratio (y) = -0.03254 0.15851
# Poissons Ratio (z) = 0.09580 0.26322
#
# Static dielectric constant tensor:
#      x y z
#    x 1.687520 0.000000 0.007300 
#    y 0.000000 1.701620 0.000000 
#    z 0.007300 0.000000 1.682040 
# 
# From -- ./inp_files/1598.got.cif
#   From: 2010.05.17/outbox.cif.g08.bks.cpg/sg4_1_cif.got.tgz:1598.got - 2010.06.03 18:43:04.
