data_PCOD9118402
_publ_section_title
;
Structure prediction by ZEFSAII (Michael W. Deem and Ramdas Pophale) SiO2 
 PCOD9118402
Probable space group: P 21
;
_chemical_formula_sum "Si O2"
_cell_formula_units_Z 14
_cell_length_a 7.114702
_cell_length_b 10.013576
_cell_length_c 9.186798
_cell_angle_alpha 90.000000
_cell_angle_beta 109.568332
_cell_angle_gamma 90.000000
_cell_volume 616.698467
_symmetry_space_group_name_H-M "P 21"
_symmetry_group_IT_number 4
_symmetry_cell_setting 'monoclinic'
loop_
_space_group_symop_operation_xyz
x,y,z
-x,1/2+y,-z
loop_
_atom_site_type_symbol
_atom_site_label
_atom_site_fract_x
_atom_site_fract_y
_atom_site_fract_z
Si Si1 0.663451 0.154930 0.181482
Si Si2 0.574618 0.394029 0.965583
Si Si3 0.099379 0.187613 0.166528
Si Si4 0.104810 0.100337 0.845098
Si Si5 0.541757 0.592573 0.589638
Si Si6 0.704489 0.964192 0.693403
Si Si7 0.446093 0.184121 0.723540
O O1 0.582679 0.012513 0.102973
O O2 0.541828 0.275545 0.074181
O O3 0.614938 0.157648 0.339525
O O4 0.891596 0.172701 0.195799
O O5 0.573663 0.306683 0.817339
O O6 0.774644 0.468728 0.069116
O O7 0.211529 0.324522 0.233986
O O8 0.256934 0.077043 0.265540
O O9 0.066817 0.177830 0.985661
O O10 0.245930 0.174648 0.766600
O O11 0.898038 0.056925 0.720082
O O12 0.431850 0.467801 0.485923
O O13 0.591574 0.678498 0.458342
O O14 0.570522 0.045478 0.775485
#
# Coordination Sequence:
#
# PCOD9118402 Si02
#       7
#     2   2   2   2   2   2   2
#     4  12  27  50  77 115 155 198 261 313 381 457
#     4  12  24  49  73 113 149 200 251 316 372 449
#     4  12  26  47  79 108 148 207 258 316 376 455
#     4  12  25  43  74 108 138 196 256 305 373 440
#     4  10  27  45  71 109 153 194 245 322 380 447
#     4  10  27  46  73 108 150 201 247 317 378 444
#     4  10  26  44  71 105 153 192 246 309 380 442
#
# _framework density 22.701532
#
# number of rings (size 3 to 8) (size 9 to 14) (size 15 to 20)
#    0.857    0.000    4.286    0.857    8.000    0.000 
#    0.000    1.429    0.000    0.000    0.000    0.000 
#    0.000    0.000    0.000    0.000    0.000    0.000 
#
# Total GULP energy -78180.442172 kJ/mol
# GULP energy per Si atom -5584.317298 kJ/mol
# Density = 2.264986 g / cm^3
# Si number density = 22.701532 Si / 1000 Ang^3
#
#
#
# Elastic Constant Matrix: (Units=GPa)
#
#
# Indices 1 2 3 4 5 6 
#
# 1 140.5743 15.7280 37.1065 0.0000 -13.6497 0.0000
# 2 15.7280 105.2261 31.9992 0.0000 5.4040 0.0000
# 3 37.1065 31.9992 116.4655 0.0000 -24.2679 0.0000
# 4 0.0000 0.0000 0.0000 28.5615 0.0000 4.2986
# 5 -13.6497 5.4040 -24.2679 0.0000 45.6567 0.0000
# 6 0.0000 0.0000 0.0000 4.2986 0.0000 25.9820
#
#
#
# Elastic Compliance Matrix: (Units=1/GPa)
#
#
# Indices 1 2 3 4 5 6 
#
# 1 0.007854 -0.000617 -0.002056 0.000000 0.001328 0.000000
# 2 -0.000617 0.010819 -0.003465 0.000000 -0.003307 0.000000
# 3 -0.002056 -0.003465 0.011415 0.000000 0.005863 0.000000
# 4 0.000000 0.000000 0.000000 0.035906 0.000000 -0.005941
# 5 0.001328 -0.003307 0.005863 0.000000 0.025807 0.000000
# 6 0.000000 0.000000 0.000000 -0.005941 0.000000 0.039471
#
#
# Mechanical properties :
#
#
# Convention : Reuss Voigt Hill
#
# Bulk Modulus (GPa) = 56.14127 59.10372 57.62250
# Shear Modulus (GPa) = 33.44775 38.53552 35.99163
#
# Velocity S-wave (km/s) = 3.84261 4.12452 3.98606
# Velocity P-wave (km/s) = 6.66869 6.98383 6.82808
#
# Compressibility (1/GPa) = 0.01781221
#
# Stress axis : x y z
#
# Youngs Moduli (GPa) = 127.31666 92.42912 87.60392
#
# Poissons Ratio (x) = 0.05702 0.18013
# Poissons Ratio (y) = 0.07854 0.30355
# Poissons Ratio (z) = 0.26179 0.32027
#
# Static dielectric constant tensor:
#      x y z
#    x 1.850710 0.000000 -0.012670 
#    y 0.000000 1.894140 0.000000 
#    z -0.012670 0.000000 1.861860 
# 
# From -- ./inp_files/4694.got.cif
#   From: 2010.05.17/outbox.cif.g08.bks.cpg/sg4_3_cif.got.tgz:4694.got - 2010.06.03 18:43:04.
