data_PCOD9118378
_publ_section_title
;
Structure prediction by ZEFSAII (Michael W. Deem and Ramdas Pophale) SiO2 
 PCOD9118378
Probable space group: P 21
;
_chemical_formula_sum "Si O2"
_cell_formula_units_Z 12
_cell_length_a 11.505248
_cell_length_b 8.540301
_cell_length_c 5.111214
_cell_angle_alpha 90.000000
_cell_angle_beta 62.827949
_cell_angle_gamma 90.000000
_cell_volume 446.793820
_symmetry_space_group_name_H-M "P 21"
_symmetry_group_IT_number 4
_symmetry_cell_setting 'monoclinic'
loop_
_space_group_symop_operation_xyz
x,y,z
-x,1/2+y,-z
loop_
_atom_site_type_symbol
_atom_site_label
_atom_site_fract_x
_atom_site_fract_y
_atom_site_fract_z
Si Si1 0.275721 0.040570 0.008085
Si Si2 0.068477 0.836249 0.431348
Si Si3 0.134190 0.143494 0.635451
Si Si4 0.489163 0.691761 0.427340
Si Si5 0.226289 0.597760 0.541683
Si Si6 0.656909 0.985998 0.087471
O O1 0.193090 0.123130 0.860725
O O2 0.426768 0.045501 0.777032
O O3 0.251516 0.130749 0.304263
O O4 0.200333 0.876740 0.131435
O O5 0.099282 0.688911 0.584440
O O6 0.955020 0.790385 0.348886
O O7 0.053373 0.987311 0.631002
O O8 0.347711 0.720399 0.444782
O O9 0.581677 0.834074 0.264053
O O10 0.445345 0.629651 0.757301
O O11 0.228954 0.516541 0.817884
O O12 0.281339 0.487036 0.258570
#
# Coordination Sequence:
#
# PCOD9118378 Si02
#       6
#     2   2   2   2   2   2
#     4  10  26  40  73  94 139 167 222 278 331 391
#     4  10  26  46  72  94 137 171 231 274 331 386
#     4  10  26  43  72  95 130 179 226 272 334 379
#     4  10  26  42  69 101 137 175 221 265 342 393
#     4  10  26  39  71  98 138 171 220 271 334 392
#     4  10  26  38  67  98 139 169 222 260 330 403
#
# _framework density 26.858028999999998
#
# number of rings (size 3 to 8) (size 9 to 14) (size 15 to 20)
#    2.000    0.000    0.000    0.000   16.333    2.667 
#    0.000    0.000    0.000    0.000    0.000    0.000 
#    0.000    0.000    0.000    0.000    0.000    0.000 
#
# Total GULP energy -67070.022386 kJ/mol
# GULP energy per Si atom -5589.168532 kJ/mol
# Density = 2.679690 g / cm^3
# Si number density = 26.858029 Si / 1000 Ang^3
#
#
#
# Elastic Constant Matrix: (Units=GPa)
#
#
# Indices 1 2 3 4 5 6 
#
# 1 108.3287 3.3088 12.4567 0.0000 9.3711 0.0000
# 2 3.3088 74.6932 -2.2953 0.0000 1.3203 0.0000
# 3 12.4567 -2.2953 94.4977 0.0000 -8.2482 0.0000
# 4 0.0000 0.0000 0.0000 22.6845 0.0000 -15.1004
# 5 9.3711 1.3203 -8.2482 0.0000 38.5390 0.0000
# 6 0.0000 0.0000 0.0000 -15.1004 0.0000 40.3519
#
#
#
# Elastic Compliance Matrix: (Units=1/GPa)
#
#
# Indices 1 2 3 4 5 6 
#
# 1 0.009648 -0.000427 -0.001514 0.000000 -0.002655 0.000000
# 2 -0.000427 0.013423 0.000358 0.000000 -0.000279 0.000000
# 3 -0.001514 0.000358 0.011028 0.000000 0.002716 0.000000
# 4 0.000000 0.000000 0.000000 0.058707 0.000000 0.021969
# 5 -0.002655 -0.000279 0.002716 0.000000 0.027184 0.000000
# 6 0.000000 0.000000 0.000000 0.021969 0.000000 0.033003
#
#
# Mechanical properties :
#
#
# Convention : Reuss Voigt Hill
#
# Bulk Modulus (GPa) = 32.32839 33.82890 33.07864
# Shear Modulus (GPa) = 30.03538 37.91837 33.97687
#
# Velocity S-wave (km/s) = 3.34773 3.76148 3.56062
# Velocity P-wave (km/s) = 5.19673 5.61140 5.40804
#
# Compressibility (1/GPa) = 0.03093256
#
# Stress axis : x y z
#
# Youngs Moduli (GPa) = 103.64840 74.49923 90.68160
#
# Poissons Ratio (x) = 0.03181 0.13729
# Poissons Ratio (y) = 0.04426 -0.03246
# Poissons Ratio (z) = 0.15692 -0.02667
#
# Static dielectric constant tensor:
#      x y z
#    x 2.038620 0.000000 -0.021600 
#    y 0.000000 2.242810 0.000000 
#    z -0.021600 0.000000 2.038270 
# 
# From -- ./inp_files/3670.got.cif
#   From: 2010.05.17/outbox.cif.g08.bks.cpg/sg4_2_cif.got.tgz:3670.got - 2010.06.03 18:43:04.
