data_PCOD9118053
_publ_section_title
;
Structure prediction by ZEFSAII (Michael W. Deem and Ramdas Pophale) SiO2 
 PCOD9118053
Probable space group: P 21
;
_chemical_formula_sum "Si O2"
_cell_formula_units_Z 16
_cell_length_a 17.418029
_cell_length_b 7.944486
_cell_length_c 9.509297
_cell_angle_alpha 90.000000
_cell_angle_beta 31.729566
_cell_angle_gamma 90.000000
_cell_volume 692.030389
_symmetry_space_group_name_H-M "P 21"
_symmetry_group_IT_number 4
_symmetry_cell_setting 'monoclinic'
loop_
_space_group_symop_operation_xyz
x,y,z
-x,1/2+y,-z
loop_
_atom_site_type_symbol
_atom_site_label
_atom_site_fract_x
_atom_site_fract_y
_atom_site_fract_z
Si Si1 0.338218 0.665680 0.763654
Si Si2 0.335888 0.967353 0.352537
Si Si3 0.134980 0.728722 0.845614
Si Si4 0.859689 0.124001 0.690792
Si Si5 0.608600 0.515113 0.204088
Si Si6 0.559993 0.827357 0.784586
Si Si7 0.849179 0.519788 0.628711
Si Si8 0.882013 0.957436 0.356855
O O1 0.226945 0.618081 0.812951
O O2 0.501548 0.626335 0.462866
O O3 0.324311 0.866127 0.807276
O O4 0.284330 0.586150 0.993542
O O5 0.418285 0.131069 0.280158
O O6 0.248897 0.862199 0.602515
O O7 0.220039 0.034752 0.416810
O O8 0.450326 0.852681 0.087168
O O9 0.081868 0.617357 0.797859
O O10 0.001390 0.819433 0.130044
O O11 0.853263 0.318825 0.652966
O O12 0.882972 0.010683 0.517846
O O13 0.994481 0.096287 0.585467
O O14 0.512009 0.424057 0.233760
O O15 0.738226 0.600851 0.915376
O O16 0.717402 0.903700 0.575334
#
# Coordination Sequence:
#
# PCOD9118053 Si02
#       8
#     2   2   2   2   2   2   2   2
#     4  11  26  45  70 100 142 181 236 285 348 422
#     4  11  25  44  72 104 142 180 236 286 351 418
#     4  12  26  46  71 106 140 183 236 291 348 421
#     4  11  25  46  69 100 141 184 230 288 350 418
#     4  10  24  46  66 103 139 178 232 283 348 414
#     4  11  25  43  73 103 142 182 230 289 350 414
#     4  10  24  44  69 101 139 181 233 282 347 418
#     4  12  25  46  72 103 141 187 229 292 352 413
#
# _framework density 23.120373000000001
#
# number of rings (size 3 to 8) (size 9 to 14) (size 15 to 20)
#    0.000    1.000    2.500    3.000   12.250    1.000 
#    4.500    0.000    0.000    0.000    0.000    0.000 
#    0.000    0.000    0.000    0.000    0.000    0.000 
#
# Total GULP energy -89620.980726 kJ/mol
# GULP energy per Si atom -5601.311295 kJ/mol
# Density = 2.306775 g / cm^3
# Si number density = 23.120373 Si / 1000 Ang^3
#
#
#
# Elastic Constant Matrix: (Units=GPa)
#
#
# Indices 1 2 3 4 5 6 
#
# 1 69.1962 -4.0377 39.1016 0.0000 3.5207 0.0000
# 2 -4.0377 38.1487 27.4153 0.0000 5.4864 0.0000
# 3 39.1016 27.4153 147.3130 0.0000 10.1584 0.0000
# 4 0.0000 0.0000 0.0000 44.1250 0.0000 -9.5082
# 5 3.5207 5.4864 10.1584 0.0000 40.7075 0.0000
# 6 0.0000 0.0000 0.0000 -9.5082 0.0000 27.9029
#
#
#
# Elastic Compliance Matrix: (Units=1/GPa)
#
#
# Indices 1 2 3 4 5 6 
#
# 1 0.018236 0.006347 -0.005956 0.000000 -0.000946 0.000000
# 2 0.006347 0.032768 -0.007571 0.000000 -0.003076 0.000000
# 3 -0.005956 -0.007571 0.009842 0.000000 -0.000920 0.000000
# 4 0.000000 0.000000 0.000000 0.024459 0.000000 0.008335
# 5 -0.000946 -0.003076 -0.000920 0.000000 0.025292 0.000000
# 6 0.000000 0.000000 0.000000 0.008335 0.000000 0.038679
#
#
# Mechanical properties :
#
#
# Convention : Reuss Voigt Hill
#
# Bulk Modulus (GPa) = 21.51242 42.17960 31.84601
# Shear Modulus (GPa) = 27.91267 35.35899 31.63583
#
# Velocity S-wave (km/s) = 3.47836 3.91492 3.70308
# Velocity P-wave (km/s) = 5.04546 6.22243 5.66460
#
# Compressibility (1/GPa) = 0.04648477
#
# Stress axis : x y z
#
# Youngs Moduli (GPa) = 54.83680 30.51771 101.60912
#
# Poissons Ratio (x) = -0.19368 0.60521
# Poissons Ratio (y) = -0.34803 0.76925
# Poissons Ratio (z) = 0.32662 0.23104
#
# Static dielectric constant tensor:
#      x y z
#    x 1.853740 0.000000 0.011420 
#    y 0.000000 1.865090 0.000000 
#    z 0.011420 0.000000 1.842020 
# 
# From -- ./inp_files/5415.got.cif
#   From: 2010.05.17/outbox.cif.g08.bks.cpg/sg4_3_cif.got.tgz:5415.got - 2010.06.03 18:43:04.
