data_PCOD9118280
_publ_section_title
;
Structure prediction by ZEFSAII (Michael W. Deem and Ramdas Pophale) SiO2 
 PCOD9118280
Probable space group: P 21
;
_chemical_formula_sum "Si O2"
_cell_formula_units_Z 14
_cell_length_a 17.908290
_cell_length_b 4.933524
_cell_length_c 10.799879
_cell_angle_alpha 90.000000
_cell_angle_beta 146.759007
_cell_angle_gamma 90.000000
_cell_volume 523.044918
_symmetry_space_group_name_H-M "P 21"
_symmetry_group_IT_number 4
_symmetry_cell_setting 'monoclinic'
loop_
_space_group_symop_operation_xyz
x,y,z
-x,1/2+y,-z
loop_
_atom_site_type_symbol
_atom_site_label
_atom_site_fract_x
_atom_site_fract_y
_atom_site_fract_z
Si Si1 0.715939 0.551120 0.802826
Si Si2 0.403476 0.855442 0.616419
Si Si3 0.675304 0.041180 0.895950
Si Si4 0.028018 0.343774 0.617142
Si Si5 0.543996 0.529230 0.985270
Si Si6 0.994336 0.961895 0.901977
Si Si7 0.806376 0.606134 0.478711
O O1 0.652214 0.403707 0.596586
O O2 0.690150 0.351707 0.880700
O O3 0.653922 0.843895 0.746927
O O4 0.875958 0.562887 0.995421
O O5 0.550840 0.999781 0.814848
O O6 0.287451 0.967887 0.546497
O O7 0.454234 0.565015 0.737273
O O8 0.818726 0.931839 0.142851
O O9 0.014887 0.033037 0.559003
O O10 0.929567 0.431522 0.593046
O O11 0.700026 0.630420 0.216355
O O12 0.532821 0.235623 0.028387
O O13 0.875018 0.860665 0.644635
O O14 0.037750 0.698007 0.043864
#
# Coordination Sequence:
#
# PCOD9118280 Si02
#       7
#     2   2   2   2   2   2   2
#     4  12  26  47  74 107 149 198 239 304 372 446
#     4  11  26  47  76 107 146 193 249 305 365 442
#     4  12  27  49  71 109 149 196 246 299 376 442
#     4  12  28  49  74 106 148 197 243 305 377 446
#     4  10  25  44  67 103 140 183 235 302 364 426
#     4  12  26  45  76 114 149 191 249 315 373 439
#     4  11  26  47  78 108 147 192 251 312 367 441
#
# _framework density 26.766345999999999
#
# number of rings (size 3 to 8) (size 9 to 14) (size 15 to 20)
#    0.000    0.571    2.857    3.429    2.000   10.286 
#    0.000    0.000    0.000    0.000    0.000    0.000 
#    0.000    0.000    0.000    0.000    0.000    0.000 
#
# Total GULP energy -78469.620769 kJ/mol
# GULP energy per Si atom -5604.972912 kJ/mol
# Density = 2.670542 g / cm^3
# Si number density = 26.766346 Si / 1000 Ang^3
#
#
#
# Elastic Constant Matrix: (Units=GPa)
#
#
# Indices 1 2 3 4 5 6 
#
# 1 134.2824 41.4361 36.8713 0.0000 35.0962 0.0000
# 2 41.4361 112.9575 9.9666 0.0000 0.6731 0.0000
# 3 36.8713 9.9666 152.4105 0.0000 13.6159 0.0000
# 4 0.0000 0.0000 0.0000 36.0006 0.0000 1.8256
# 5 35.0962 0.6731 13.6159 0.0000 52.5752 0.0000
# 6 0.0000 0.0000 0.0000 1.8256 0.0000 44.4794
#
#
#
# Elastic Compliance Matrix: (Units=1/GPa)
#
#
# Indices 1 2 3 4 5 6 
#
# 1 0.010868 -0.003789 -0.001779 0.000000 -0.006746 0.000000
# 2 -0.003789 0.010226 0.000035 0.000000 0.002390 0.000000
# 3 -0.001779 0.000035 0.007046 0.000000 -0.000638 0.000000
# 4 0.000000 0.000000 0.000000 0.027835 0.000000 -0.001142
# 5 -0.006746 0.002390 -0.000638 0.000000 0.023658 0.000000
# 6 0.000000 0.000000 0.000000 -0.001142 0.000000 0.022529
#
#
# Mechanical properties :
#
#
# Convention : Reuss Voigt Hill
#
# Bulk Modulus (GPa) = 58.57381 64.02205 61.29793
# Shear Modulus (GPa) = 42.04502 47.36946 44.70724
#
# Velocity S-wave (km/s) = 3.96765 4.21139 4.09134
# Velocity P-wave (km/s) = 6.55138 6.90062 6.72827
#
# Compressibility (1/GPa) = 0.01707248
#
# Stress axis : x y z
#
# Youngs Moduli (GPa) = 92.01542 97.79299 141.91923
#
# Poissons Ratio (x) = 0.37058 0.25243
# Poissons Ratio (y) = 0.34869 -0.00491
# Poissons Ratio (z) = 0.16367 -0.00338
#
# Static dielectric constant tensor:
#      x y z
#    x 2.100220 0.000000 -0.106990 
#    y 0.000000 2.055550 0.000000 
#    z -0.106990 0.000000 2.154780 
# 
# From -- ./inp_files/12777.got.cif
#   From: 2010.05.17/outbox.cif.g08.bks.cpg/sg4_7_cif.got.tgz:12777.got - 2010.06.03 18:43:04.
