data_PCOD9118335
_publ_section_title
;
Structure prediction by ZEFSAII (Michael W. Deem and Ramdas Pophale) SiO2 
 PCOD9118335
Probable space group: P 21
;
_chemical_formula_sum "Si O2"
_cell_formula_units_Z 16
_cell_length_a 4.962509
_cell_length_b 9.941225
_cell_length_c 14.212353
_cell_angle_alpha 90.000000
_cell_angle_beta 112.210044
_cell_angle_gamma 90.000000
_cell_volume 649.122116
_symmetry_space_group_name_H-M "P 21"
_symmetry_group_IT_number 4
_symmetry_cell_setting 'monoclinic'
loop_
_space_group_symop_operation_xyz
x,y,z
-x,1/2+y,-z
loop_
_atom_site_type_symbol
_atom_site_label
_atom_site_fract_x
_atom_site_fract_y
_atom_site_fract_z
Si Si1 0.674154 0.740470 0.376136
Si Si2 0.095642 0.855591 0.277014
Si Si3 0.729407 0.123550 0.224067
Si Si4 0.551370 0.567641 0.989021
Si Si5 0.119701 0.807275 0.593439
Si Si6 0.003709 0.856309 0.870136
Si Si7 0.660103 0.961369 0.657060
Si Si8 0.839083 0.823135 0.051305
O O1 0.433535 0.858176 0.347671
O O2 0.461099 0.611707 0.349960
O O3 0.885715 0.763597 0.314771
O O4 0.888348 0.743423 0.492827
O O5 0.063713 0.807785 0.164873
O O6 0.956194 0.002917 0.262659
O O7 0.721070 0.193212 0.323714
O O8 0.843356 0.245192 0.173836
O O9 0.456076 0.069572 0.127068
O O10 0.578810 0.716835 0.034444
O O11 0.799908 0.482766 0.074024
O O12 0.269290 0.476325 0.969853
O O13 0.384693 0.882045 0.578382
O O14 0.942590 0.917995 0.633317
O O15 0.734845 0.910253 0.772615
O O16 0.932656 0.788320 0.959395
#
# Coordination Sequence:
#
# PCOD9118335 Si02
#       8
#     2   2   2   2   2   2   2   2
#     4  12  27  48  76 108 146 195 251 314 381 431
#     4  11  28  46  73 110 148 191 247 312 367 448
#     4  10  25  47  71 109 148 193 249 303 373 450
#     4  11  23  43  68 103 144 190 243 295 364 446
#     4  11  26  47  78 106 147 197 245 316 374 443
#     4  11  25  44  74 103 148 199 246 300 378 447
#     4  11  26  48  75 109 146 190 255 304 375 450
#     4  11  26  39  73 100 149 191 246 298 374 443
#
# _framework density 24.648675999999998
#
# number of rings (size 3 to 8) (size 9 to 14) (size 15 to 20)
#    0.000    1.000    1.250    3.000   14.000    2.000 
#    0.000    0.000    0.000    0.000    0.000    0.000 
#    0.000    0.000    0.000    0.000    0.000    0.000 
#
# Total GULP energy -89439.601507 kJ/mol
# GULP energy per Si atom -5589.975094 kJ/mol
# Density = 2.459257 g / cm^3
# Si number density = 24.648676 Si / 1000 Ang^3
#
#
#
# Elastic Constant Matrix: (Units=GPa)
#
#
# Indices 1 2 3 4 5 6 
#
# 1 69.0870 0.8854 10.0708 0.0000 5.8770 0.0000
# 2 0.8854 78.4902 19.9672 0.0000 6.7130 0.0000
# 3 10.0708 19.9672 122.1504 0.0000 7.0671 0.0000
# 4 0.0000 0.0000 0.0000 31.8635 0.0000 12.7640
# 5 5.8770 6.7130 7.0671 0.0000 35.4362 0.0000
# 6 0.0000 0.0000 0.0000 12.7640 0.0000 19.3815
#
#
#
# Elastic Compliance Matrix: (Units=1/GPa)
#
#
# Indices 1 2 3 4 5 6 
#
# 1 0.014832 0.000319 -0.001142 0.000000 -0.002293 0.000000
# 2 0.000319 0.013458 -0.002100 0.000000 -0.002184 0.000000
# 3 -0.001142 -0.002100 0.008690 0.000000 -0.001146 0.000000
# 4 0.000000 0.000000 0.000000 0.042630 0.000000 -0.028075
# 5 -0.002293 -0.002184 -0.001146 0.000000 0.029242 0.000000
# 6 0.000000 0.000000 0.000000 -0.028075 0.000000 0.070085
#
#
# Mechanical properties :
#
#
# Convention : Reuss Voigt Hill
#
# Bulk Modulus (GPa) = 32.11885 36.84158 34.48022
# Shear Modulus (GPa) = 25.61989 33.25653 29.43821
#
# Velocity S-wave (km/s) = 3.22747 3.67716 3.45963
# Velocity P-wave (km/s) = 5.19112 5.74524 5.47520
#
# Compressibility (1/GPa) = 0.03113436
#
# Stress axis : x y z
#
# Youngs Moduli (GPa) = 67.42195 74.30640 115.06996
#
# Poissons Ratio (x) = -0.02373 0.13146
# Poissons Ratio (y) = -0.02153 0.24163
# Poissons Ratio (z) = 0.07702 0.15603
#
# Static dielectric constant tensor:
#      x y z
#    x 2.007950 0.000000 -0.025040 
#    y 0.000000 2.005000 0.000000 
#    z -0.025040 0.000000 1.945430 
# 
# From -- ./inp_files/13312.got.cif
#   From: 2010.05.17/outbox.cif.g08.bks.cpg/sg4_7_cif.got.tgz:13312.got - 2010.06.03 18:43:04.
