data_PCOD9118435
_publ_section_title
;
Structure prediction by ZEFSAII (Michael W. Deem and Ramdas Pophale) SiO2 
 PCOD9118435
Probable space group: P 21
;
_chemical_formula_sum "Si O2"
_cell_formula_units_Z 16
_cell_length_a 13.871139
_cell_length_b 9.318102
_cell_length_c 6.418312
_cell_angle_alpha 90.000000
_cell_angle_beta 51.136501
_cell_angle_gamma 90.000000
_cell_volume 645.949871
_symmetry_space_group_name_H-M "P 21"
_symmetry_group_IT_number 4
_symmetry_cell_setting 'monoclinic'
loop_
_space_group_symop_operation_xyz
x,y,z
-x,1/2+y,-z
loop_
_atom_site_type_symbol
_atom_site_label
_atom_site_fract_x
_atom_site_fract_y
_atom_site_fract_z
Si Si1 0.288173 0.305570 0.606687
Si Si2 0.366487 0.071937 0.819386
Si Si3 0.021103 0.685533 0.668501
Si Si4 0.465783 0.300187 0.997712
Si Si5 0.928845 0.679673 0.343590
Si Si6 0.382366 0.524901 0.772416
Si Si7 0.281731 0.795234 0.146245
Si Si8 0.014884 0.916325 0.996479
O O1 0.292796 0.179011 0.769111
O O2 0.185124 0.278670 0.572002
O O3 0.288412 0.451765 0.736785
O O4 0.414092 0.303413 0.301389
O O5 0.421575 0.156639 0.942567
O O6 0.485880 0.028335 0.522207
O O7 0.284311 0.942760 0.014671
O O8 0.154502 0.744578 0.419391
O O9 0.036469 0.538503 0.776963
O O10 0.943794 0.657671 0.565743
O O11 0.958801 0.812953 0.889412
O O12 0.405854 0.426257 0.942657
O O13 0.613324 0.310034 0.816145
O O14 0.045220 0.779659 0.106636
O O15 0.910365 0.528966 0.250607
O O16 0.331002 0.673887 0.922012
#
# Coordination Sequence:
#
# PCOD9118435 Si02
#       8
#     2   2   2   2   2   2   2   2
#     4  11  26  44  73 102 147 205 233 292 376 449
#     4  11  24  46  68 108 152 191 240 299 368 444
#     4  11  27  49  76 110 144 197 249 319 367 440
#     4  11  24  44  70 107 147 195 237 298 371 456
#     4  11  26  47  77 104 147 192 254 300 378 450
#     4  11  24  46  68 108 152 191 240 299 368 444
#     4  12  25  44  76 109 147 187 251 307 368 439
#     4  10  26  52  72 102 146 190 250 314 368 428
#
# _framework density 24.769721000000001
#
# number of rings (size 3 to 8) (size 9 to 14) (size 15 to 20)
#    0.000    1.000    2.500    2.250    7.000    4.000 
#    4.500    0.000    0.000    0.000    0.000    0.000 
#    0.000    0.000    0.000    0.000    0.000    0.000 
#
# Total GULP energy -89447.173743 kJ/mol
# GULP energy per Si atom -5590.448359 kJ/mol
# Density = 2.471334 g / cm^3
# Si number density = 24.769721 Si / 1000 Ang^3
#
#
#
# Elastic Constant Matrix: (Units=GPa)
#
#
# Indices 1 2 3 4 5 6 
#
# 1 108.8092 24.6668 34.5132 0.0000 6.7697 0.0000
# 2 24.6668 126.4817 39.1211 0.0000 15.4327 0.0000
# 3 34.5132 39.1211 112.2426 0.0000 18.0390 0.0000
# 4 0.0000 0.0000 0.0000 42.5836 0.0000 -0.0747
# 5 6.7697 15.4327 18.0390 0.0000 32.0327 0.0000
# 6 0.0000 0.0000 0.0000 -0.0747 0.0000 31.1115
#
#
#
# Elastic Compliance Matrix: (Units=1/GPa)
#
#
# Indices 1 2 3 4 5 6 
#
# 1 0.010333 -0.001151 -0.002764 0.000000 -0.000072 0.000000
# 2 -0.001151 0.009221 -0.002403 0.000000 -0.002846 0.000000
# 3 -0.002764 -0.002403 0.011343 0.000000 -0.004646 0.000000
# 4 0.000000 0.000000 0.000000 0.023483 0.000000 0.000056
# 5 -0.000072 -0.002846 -0.004646 0.000000 0.035221 0.000000
# 6 0.000000 0.000000 0.000000 0.000056 0.000000 0.032143
#
#
# Mechanical properties :
#
#
# Convention : Reuss Voigt Hill
#
# Bulk Modulus (GPa) = 54.76123 60.45953 57.61038
# Shear Modulus (GPa) = 35.59541 37.76105 36.67823
#
# Velocity S-wave (km/s) = 3.79496 3.90870 3.85225
# Velocity P-wave (km/s) = 6.43105 6.69569 6.56470
#
# Compressibility (1/GPa) = 0.01826110
#
# Stress axis : x y z
#
# Youngs Moduli (GPa) = 96.78013 108.44563 88.15735
#
# Poissons Ratio (x) = 0.12485 0.24369
# Poissons Ratio (y) = 0.11142 0.21180
# Poissons Ratio (z) = 0.26753 0.26054
#
# Static dielectric constant tensor:
#      x y z
#    x 2.032060 0.000000 -0.089920 
#    y 0.000000 1.938650 0.000000 
#    z -0.089920 0.000000 2.020260 
# 
# From -- ./inp_files/3631.got.cif
#   From: 2010.05.17/outbox.cif.g08.bks.cpg/sg4_2_cif.got.tgz:3631.got - 2010.06.03 18:43:04.
