data_PCOD9118822
_publ_section_title
;
Structure prediction by ZEFSAII (Michael W. Deem and Ramdas Pophale) SiO2 
 PCOD9118822
Probable space group: P 21
;
_chemical_formula_sum "Si O2"
_cell_formula_units_Z 16
_cell_length_a 9.691593
_cell_length_b 8.295012
_cell_length_c 7.796986
_cell_angle_alpha 90.000000
_cell_angle_beta 98.209789
_cell_angle_gamma 90.000000
_cell_volume 620.390676
_symmetry_space_group_name_H-M "P 21"
_symmetry_group_IT_number 4
_symmetry_cell_setting 'monoclinic'
loop_
_space_group_symop_operation_xyz
x,y,z
-x,1/2+y,-z
loop_
_atom_site_type_symbol
_atom_site_label
_atom_site_fract_x
_atom_site_fract_y
_atom_site_fract_z
Si Si1 0.564753 0.853300 0.987897
Si Si2 0.800134 0.148013 0.442926
Si Si3 0.339605 0.184419 0.645814
Si Si4 0.925331 0.480242 0.388780
Si Si5 0.079289 0.907888 0.018222
Si Si6 0.461896 0.469021 0.478128
Si Si7 0.358753 0.032830 0.163447
Si Si8 0.194165 0.573562 0.953600
O O1 0.635204 0.782579 0.175606
O O2 0.415557 0.916239 0.022030
O O3 0.666617 0.996087 0.947306
O O4 0.573823 0.705543 0.861958
O O5 0.860336 0.326921 0.475098
O O6 0.658074 0.102460 0.512800
O O7 0.774945 0.124680 0.235528
O O8 0.922288 0.027376 0.521356
O O9 0.182518 0.125747 0.603716
O O10 0.382635 0.300898 0.495973
O O11 0.441542 0.028280 0.659948
O O12 0.929148 0.441221 0.186834
O O13 0.134653 0.725944 0.046958
O O14 0.192919 0.026768 0.123185
O O15 0.928347 0.941360 0.067860
O O16 0.575109 0.469699 0.651522
#
# Coordination Sequence:
#
# PCOD9118822 Si02
#       8
#     2   2   2   2   2   2   2   2
#     4  11  23  44  69  96 139 178 218 282 332 398
#     4  11  24  46  68  98 136 175 230 272 337 391
#     4  11  23  45  67  99 135 176 223 271 338 386
#     4  11  25  44  71  97 133 182 221 282 328 399
#     4  11  25  44  68 106 133 175 226 270 341 397
#     4  11  25  44  66 101 134 178 223 278 330 403
#     4  11  23  41  70  99 135 176 220 276 336 398
#     4  11  24  46  69  98 139 174 225 279 328 404
#
# _framework density 25.790201
#
# number of rings (size 3 to 8) (size 9 to 14) (size 15 to 20)
#    0.000    1.000    3.750    3.000    3.500    1.000 
#    9.000    0.000    0.000    0.000    0.000    0.000 
#    0.000    0.000    0.000    0.000    0.000    0.000 
#
# Total GULP energy -89774.199290 kJ/mol
# GULP energy per Si atom -5610.887456 kJ/mol
# Density = 2.573150 g / cm^3
# Si number density = 25.790201 Si / 1000 Ang^3
#
#
#
# Elastic Constant Matrix: (Units=GPa)
#
#
# Indices 1 2 3 4 5 6 
#
# 1 118.5242 -12.4571 14.5378 0.0000 3.9908 0.0000
# 2 -12.4571 72.8721 11.0905 0.0000 -4.2677 0.0000
# 3 14.5378 11.0905 59.5758 0.0000 -2.5101 0.0000
# 4 0.0000 0.0000 0.0000 29.4944 0.0000 -3.3967
# 5 3.9908 -4.2677 -2.5101 0.0000 31.0632 0.0000
# 6 0.0000 0.0000 0.0000 -3.3967 0.0000 56.9788
#
#
#
# Elastic Compliance Matrix: (Units=1/GPa)
#
#
# Indices 1 2 3 4 5 6 
#
# 1 0.008988 0.001865 -0.002587 0.000000 -0.001107 0.000000
# 2 0.001865 0.014604 -0.003110 0.000000 0.001515 0.000000
# 3 -0.002587 -0.003110 0.018053 0.000000 0.001364 0.000000
# 4 0.000000 0.000000 0.000000 0.034139 0.000000 0.002035
# 5 -0.001107 0.001515 0.001364 0.000000 0.032653 0.000000
# 6 0.000000 0.000000 0.000000 0.002035 0.000000 0.017672
#
#
# Mechanical properties :
#
#
# Convention : Reuss Voigt Hill
#
# Bulk Modulus (GPa) = 29.42825 30.81272 30.12048
# Shear Modulus (GPa) = 34.45928 39.36066 36.90997
#
# Velocity S-wave (km/s) = 3.65929 3.91088 3.78718
# Velocity P-wave (km/s) = 5.41195 5.68918 5.55230
#
# Compressibility (1/GPa) = 0.03398096
#
# Stress axis : x y z
#
# Youngs Moduli (GPa) = 111.26252 68.47638 55.39231
#
# Poissons Ratio (x) = -0.12773 0.14331
# Poissons Ratio (y) = -0.20754 0.17226
# Poissons Ratio (z) = 0.28785 0.21295
#
# Static dielectric constant tensor:
#      x y z
#    x 1.896190 0.000000 -0.015060 
#    y 0.000000 2.085680 0.000000 
#    z -0.015060 0.000000 2.046520 
# 
# From -- ./inp_files/5584.got.cif
#   From: 2010.05.17/outbox.cif.g08.bks.cpg/sg4_3_cif.got.tgz:5584.got - 2010.06.03 18:43:04.
