data_PCOD9118773
_publ_section_title
;
Structure prediction by ZEFSAII (Michael W. Deem and Ramdas Pophale) SiO2 
 PCOD9118773
Probable space group: P 21
;
_chemical_formula_sum "Si O2"
_cell_formula_units_Z 16
_cell_length_a 11.243188
_cell_length_b 8.708388
_cell_length_c 14.380445
_cell_angle_alpha 90.000000
_cell_angle_beta 149.359235
_cell_angle_gamma 90.000000
_cell_volume 717.587297
_symmetry_space_group_name_H-M "P 21"
_symmetry_group_IT_number 4
_symmetry_cell_setting 'monoclinic'
loop_
_space_group_symop_operation_xyz
x,y,z
-x,1/2+y,-z
loop_
_atom_site_type_symbol
_atom_site_label
_atom_site_fract_x
_atom_site_fract_y
_atom_site_fract_z
Si Si1 0.331500 0.671060 0.577314
Si Si2 0.345356 0.175946 0.734639
Si Si3 0.606491 0.034316 0.185226
Si Si4 0.144055 0.023985 0.783066
Si Si5 0.630927 0.480717 0.503916
Si Si6 0.245930 0.964008 0.208595
Si Si7 0.015460 0.674213 0.679341
Si Si8 0.248178 0.631436 0.128180
O O1 0.303146 0.633710 0.667158
O O2 0.339811 0.846685 0.552500
O O3 0.565526 0.582424 0.705801
O O4 0.106174 0.601187 0.375209
O O5 0.374994 0.352879 0.784808
O O6 0.249579 0.072835 0.753937
O O7 0.584106 0.115892 0.848885
O O8 0.155442 0.181311 0.524734
O O9 0.763785 0.073718 0.202117
O O10 0.338092 0.075002 0.986691
O O11 0.104586 0.842621 0.762738
O O12 0.648352 0.418131 0.619688
O O13 0.393392 0.563589 0.313585
O O14 0.847598 0.598043 0.641749
O O15 0.222116 0.812478 0.130105
O O16 0.995577 0.045555 0.046248
#
# Coordination Sequence:
#
# PCOD9118773 Si02
#       8
#     2   2   2   2   2   2   2   2
#     4  12  25  47  70 106 142 191 234 300 361 422
#     4  11  22  48  67 105 147 185 237 292 359 421
#     4  12  25  42  71 105 144 187 232 290 358 427
#     4  12  26  42  74 104 144 189 237 288 361 434
#     4  11  27  45  75 103 145 189 244 292 363 429
#     4  12  26  49  75 103 144 192 245 297 359 426
#     4  11  23  44  71 105 149 186 228 302 355 425
#     4  11  26  47  73 105 141 189 241 303 352 422
#
# _framework density 22.296939999999999
#
# number of rings (size 3 to 8) (size 9 to 14) (size 15 to 20)
#    0.000    0.500    3.750    3.750    7.000    3.000 
#    0.000    0.000    0.000    0.000    0.000    0.000 
#    0.000    0.000    0.000    0.000    0.000    0.000 
#
# Total GULP energy -89594.578334 kJ/mol
# GULP energy per Si atom -5599.661146 kJ/mol
# Density = 2.224619 g / cm^3
# Si number density = 22.296940 Si / 1000 Ang^3
#
#
#
# Elastic Constant Matrix: (Units=GPa)
#
#
# Indices 1 2 3 4 5 6 
#
# 1 34.5997 22.2633 30.4022 0.0000 24.1210 0.0000
# 2 22.2633 71.5855 24.4903 0.0000 9.1346 0.0000
# 3 30.4022 24.4903 107.2436 0.0000 28.7283 0.0000
# 4 0.0000 0.0000 0.0000 26.6395 0.0000 15.8071
# 5 24.1210 9.1346 28.7283 0.0000 39.8763 0.0000
# 6 0.0000 0.0000 0.0000 15.8071 0.0000 27.3587
#
#
#
# Elastic Compliance Matrix: (Units=1/GPa)
#
#
# Indices 1 2 3 4 5 6 
#
# 1 0.066439 -0.014182 -0.007064 0.000000 -0.031851 0.000000
# 2 -0.014182 0.018228 -0.001638 0.000000 0.005583 0.000000
# 3 -0.007064 -0.001638 0.012956 0.000000 -0.004686 0.000000
# 4 0.000000 0.000000 0.000000 0.057121 0.000000 -0.033003
# 5 -0.031851 0.005583 -0.004686 0.000000 0.046441 0.000000
# 6 0.000000 0.000000 0.000000 -0.033003 0.000000 0.055620
#
#
# Mechanical properties :
#
#
# Convention : Reuss Voigt Hill
#
# Bulk Modulus (GPa) = 19.28397 40.86005 30.07201
# Shear Modulus (GPa) = 15.63196 27.85978 21.74587
#
# Velocity S-wave (km/s) = 2.65067 3.53865 3.12634
# Velocity P-wave (km/s) = 4.24682 5.92125 5.15251
#
# Compressibility (1/GPa) = 0.05185653
#
# Stress axis : x y z
#
# Youngs Moduli (GPa) = 15.05142 54.86140 77.18194
#
# Poissons Ratio (x) = 0.77803 0.54520
# Poissons Ratio (y) = 0.21346 0.12640
# Poissons Ratio (z) = 0.10632 0.08985
#
# Static dielectric constant tensor:
#      x y z
#    x 1.847550 0.000000 -0.020510 
#    y 0.000000 1.835950 0.000000 
#    z -0.020510 0.000000 1.806550 
# 
# From -- ./inp_files/11973.got.cif
#   From: 2010.05.17/outbox.cif.g08.bks.cpg/sg4_6_cif.got.tgz:11973.got - 2010.06.03 18:43:04.
