data_PCOD9118107
_publ_section_title
;
Structure prediction by ZEFSAII (Michael W. Deem and Ramdas Pophale) SiO2 
 PCOD9118107
Probable space group: P 21
;
_chemical_formula_sum "Si O2"
_cell_formula_units_Z 16
_cell_length_a 10.288334
_cell_length_b 5.606274
_cell_length_c 18.055668
_cell_angle_alpha 90.000000
_cell_angle_beta 37.730465
_cell_angle_gamma 90.000000
_cell_volume 637.304834
_symmetry_space_group_name_H-M "P 21"
_symmetry_group_IT_number 4
_symmetry_cell_setting 'monoclinic'
loop_
_space_group_symop_operation_xyz
x,y,z
-x,1/2+y,-z
loop_
_atom_site_type_symbol
_atom_site_label
_atom_site_fract_x
_atom_site_fract_y
_atom_site_fract_z
Si Si1 0.465727 0.208580 0.601483
Si Si2 0.459298 0.013600 0.107609
Si Si3 0.509249 0.769851 0.747029
Si Si4 0.830697 0.735264 0.887930
Si Si5 0.698895 0.210614 0.343210
Si Si6 0.244846 0.659507 0.302194
Si Si7 0.961461 0.082570 0.056441
Si Si8 0.829234 0.445611 0.525036
O O1 0.531976 0.196225 0.485711
O O2 0.314233 0.437507 0.679946
O O3 0.681998 0.267635 0.546088
O O4 0.368119 0.955836 0.667834
O O5 0.337746 0.771084 0.186641
O O6 0.453945 0.160027 0.186683
O O7 0.331452 0.120378 0.096892
O O8 0.702016 0.963891 0.975758
O O9 0.557904 0.044395 0.742415
O O10 0.280093 0.675622 0.827848
O O11 0.680562 0.672761 0.610535
O O12 0.057389 0.765412 0.746326
O O13 0.897655 0.592971 0.932341
O O14 0.136929 0.845143 0.407765
O O15 0.048474 0.480630 0.383434
O O16 0.046867 0.310386 0.969303
#
# Coordination Sequence:
#
# PCOD9118107 Si02
#       8
#     2   2   2   2   2   2   2   2
#     4  10  24  45  72 108 149 196 254 324 381 466
#     4  11  29  48  73 111 157 198 264 316 391 468
#     4  11  25  50  72 110 152 202 255 326 377 475
#     4  12  28  50  77 112 151 210 255 323 392 468
#     4  10  25  47  71 107 150 199 255 314 392 460
#     4  11  25  46  72 112 149 201 255 324 393 465
#     4  12  28  51  79 110 152 204 261 321 388 458
#     4  11  24  41  76 108 146 196 255 320 396 452
#
# _framework density 25.105725
#
# number of rings (size 3 to 8) (size 9 to 14) (size 15 to 20)
#    0.000    1.000    2.500    1.500   10.500    5.000 
#    0.000    0.000    0.000    0.000    0.000    0.000 
#    0.000    0.000    0.000    0.000    0.000    0.000 
#
# Total GULP energy -89394.215361 kJ/mol
# GULP energy per Si atom -5587.138460 kJ/mol
# Density = 2.504858 g / cm^3
# Si number density = 25.105725 Si / 1000 Ang^3
#
#
#
# Elastic Constant Matrix: (Units=GPa)
#
#
# Indices 1 2 3 4 5 6 
#
# 1 67.7245 21.5787 -7.1254 0.0000 -1.3110 0.0000
# 2 21.5787 93.5084 36.5201 0.0000 2.8242 0.0000
# 3 -7.1254 36.5201 84.1974 0.0000 -25.8820 0.0000
# 4 0.0000 0.0000 0.0000 39.7749 0.0000 1.7006
# 5 -1.3110 2.8242 -25.8820 0.0000 44.4818 0.0000
# 6 0.0000 0.0000 0.0000 1.7006 0.0000 48.0418
#
#
#
# Elastic Compliance Matrix: (Units=1/GPa)
#
#
# Indices 1 2 3 4 5 6 
#
# 1 0.017416 -0.006270 0.005448 0.000000 0.004081 0.000000
# 2 -0.006270 0.016096 -0.009600 0.000000 -0.006793 0.000000
# 3 0.005448 -0.009600 0.020385 0.000000 0.012631 0.000000
# 4 0.000000 0.000000 0.000000 0.025180 0.000000 -0.000891
# 5 0.004081 -0.006793 0.012631 0.000000 0.030382 0.000000
# 6 0.000000 0.000000 0.000000 -0.000891 0.000000 0.020847
#
#
# Mechanical properties :
#
#
# Convention : Reuss Voigt Hill
#
# Bulk Modulus (GPa) = 30.25543 38.59744 34.42643
# Shear Modulus (GPa) = 30.83271 39.42351 35.12811
#
# Velocity S-wave (km/s) = 3.50825 3.96700 3.74466
# Velocity P-wave (km/s) = 5.33739 6.03242 5.69552
#
# Compressibility (1/GPa) = 0.03305192
#
# Stress axis : x y z
#
# Youngs Moduli (GPa) = 57.41954 62.12884 49.05673
#
# Poissons Ratio (x) = 0.38955 -0.26726
# Poissons Ratio (y) = 0.36002 0.47094
# Poissons Ratio (z) = -0.31282 0.59644
#
# Static dielectric constant tensor:
#      x y z
#    x 2.029340 0.000000 0.021350 
#    y 0.000000 2.101270 0.000000 
#    z 0.021350 0.000000 1.994930 
# 
# From -- ./inp_files/14821.got.cif
#   From: 2010.05.17/outbox.cif.g08.bks.cpg/sg4_8_cif.got.tgz:14821.got - 2010.06.03 18:43:04.
