data_PCOD9118569
_publ_section_title
;
Structure prediction by ZEFSAII (Michael W. Deem and Ramdas Pophale) SiO2 
 PCOD9118569
Probable space group: P 21
;
_chemical_formula_sum "Si O2"
_cell_formula_units_Z 16
_cell_length_a 15.805323
_cell_length_b 5.768286
_cell_length_c 12.140906
_cell_angle_alpha 90.000000
_cell_angle_beta 38.810802
_cell_angle_gamma 90.000000
_cell_volume 693.738993
_symmetry_space_group_name_H-M "P 21"
_symmetry_group_IT_number 4
_symmetry_cell_setting 'monoclinic'
loop_
_space_group_symop_operation_xyz
x,y,z
-x,1/2+y,-z
loop_
_atom_site_type_symbol
_atom_site_label
_atom_site_fract_x
_atom_site_fract_y
_atom_site_fract_z
Si Si1 0.014110 0.386790 0.235170
Si Si2 0.479745 0.852832 0.198064
Si Si3 0.824162 0.405542 0.125452
Si Si4 0.061913 0.567055 0.404274
Si Si5 0.118667 0.257131 0.781289
Si Si6 0.651756 0.206926 0.899908
Si Si7 0.762150 0.168649 0.419804
Si Si8 0.731632 0.548245 0.999615
O O1 0.036027 0.586861 0.300550
O O2 0.145036 0.227028 0.108651
O O3 0.957327 0.531245 0.189792
O O4 0.886278 0.220495 0.376691
O O5 0.427027 0.765638 0.131671
O O6 0.357500 0.818341 0.407112
O O7 0.595511 0.694431 0.133299
O O8 0.550456 0.094250 0.092064
O O9 0.802167 0.665465 0.193084
O O10 0.781444 0.238420 0.270026
O O11 0.747473 0.375677 0.087961
O O12 0.985572 0.407161 0.938819
O O13 0.222258 0.544316 0.260285
O O14 0.996554 0.311361 0.491985
O O15 0.227159 0.389770 0.596662
O O16 0.725774 0.417510 0.888394
#
# Coordination Sequence:
#
# PCOD9118569 Si02
#       8
#     2   2   2   2   2   2   2   2
#     4  11  24  41  72 110 144 193 256 312 394 456
#     4  12  28  49  71 105 149 211 262 315 393 471
#     4  11  22  42  71 110 144 193 249 313 395 458
#     4  12  27  44  77 116 151 196 267 343 394 467
#     4  11  21  41  75 106 155 191 238 321 395 467
#     4  12  27  50  78 100 157 209 259 324 406 461
#     4  11  26  44  72 113 151 198 257 319 384 480
#     4  12  25  47  76 108 147 207 260 319 385 478
#
# _framework density 23.063427999999998
#
# number of rings (size 3 to 8) (size 9 to 14) (size 15 to 20)
#    0.000    0.500    5.000    3.000    3.500    3.000 
#    4.500    0.000    0.000    0.000    0.000    0.000 
#    0.000    0.000    0.000    0.000    0.000    0.000 
#
# Total GULP energy -89129.060950 kJ/mol
# GULP energy per Si atom -5570.566309 kJ/mol
# Density = 2.301093 g / cm^3
# Si number density = 23.063428 Si / 1000 Ang^3
#
#
#
# Elastic Constant Matrix: (Units=GPa)
#
#
# Indices 1 2 3 4 5 6 
#
# 1 114.1913 10.9088 21.1447 0.0000 -2.2279 0.0000
# 2 10.9088 74.6281 28.3428 0.0000 -3.6673 0.0000
# 3 21.1447 28.3428 73.1376 0.0000 -3.7208 0.0000
# 4 0.0000 0.0000 0.0000 22.8783 0.0000 1.8855
# 5 -2.2279 -3.6673 -3.7208 0.0000 20.3093 0.0000
# 6 0.0000 0.0000 0.0000 1.8855 0.0000 42.0646
#
#
#
# Elastic Compliance Matrix: (Units=1/GPa)
#
#
# Indices 1 2 3 4 5 6 
#
# 1 0.009267 -0.000378 -0.002508 0.000000 0.000489 0.000000
# 2 -0.000378 0.015789 -0.005921 0.000000 0.001725 0.000000
# 3 -0.002508 -0.005921 0.016781 0.000000 0.001730 0.000000
# 4 0.000000 0.000000 0.000000 0.043872 0.000000 -0.001966
# 5 0.000489 0.001725 0.001730 0.000000 0.049921 0.000000
# 6 0.000000 0.000000 0.000000 -0.001966 0.000000 0.023861
#
#
# Mechanical properties :
#
#
# Convention : Reuss Voigt Hill
#
# Bulk Modulus (GPa) = 41.28538 42.52774 41.90656
# Shear Modulus (GPa) = 27.00095 30.48782 28.74439
#
# Velocity S-wave (km/s) = 3.42530 3.63976 3.53415
# Velocity P-wave (km/s) = 5.79510 6.01193 5.90451
#
# Compressibility (1/GPa) = 0.02422165
#
# Stress axis : x y z
#
# Youngs Moduli (GPa) = 107.90669 63.33632 59.59254
#
# Poissons Ratio (x) = 0.02395 0.14945
# Poissons Ratio (y) = 0.04081 0.35288
# Poissons Ratio (z) = 0.27061 0.37504
#
# Static dielectric constant tensor:
#      x y z
#    x 1.845830 0.000000 0.035820 
#    y 0.000000 2.076860 0.000000 
#    z 0.035820 0.000000 2.023850 
# 
# From -- ./inp_files/12476.got.cif
#   From: 2010.05.17/outbox.cif.g08.bks.cpg/sg4_7_cif.got.tgz:12476.got - 2010.06.03 18:43:04.
