data_PCOD9118038
_publ_section_title
;
Structure prediction by ZEFSAII (Michael W. Deem and Ramdas Pophale) SiO2 
 PCOD9118038
Probable space group: P 21
;
_chemical_formula_sum "Si O2"
_cell_formula_units_Z 12
_cell_length_a 9.264817
_cell_length_b 9.857860
_cell_length_c 6.382983
_cell_angle_alpha 90.000000
_cell_angle_beta 75.538765
_cell_angle_gamma 90.000000
_cell_volume 564.495722
_symmetry_space_group_name_H-M "P 21"
_symmetry_group_IT_number 4
_symmetry_cell_setting 'monoclinic'
loop_
_space_group_symop_operation_xyz
x,y,z
-x,1/2+y,-z
loop_
_atom_site_type_symbol
_atom_site_label
_atom_site_fract_x
_atom_site_fract_y
_atom_site_fract_z
Si Si1 0.414804 0.315690 0.086610
Si Si2 0.176004 0.462885 0.935860
Si Si3 0.406689 0.513188 0.475550
Si Si4 0.947318 0.438305 0.671683
Si Si5 0.843850 0.139118 0.665925
Si Si6 0.611941 0.522807 0.761807
O O1 0.419595 0.388439 0.311164
O O2 0.442482 0.157789 0.101015
O O3 0.250728 0.346122 0.050620
O O4 0.532794 0.394592 0.899401
O O5 0.294886 0.483843 0.707664
O O6 0.021766 0.434789 0.875037
O O7 0.167141 0.593750 0.088607
O O8 0.320493 0.630131 0.378417
O O9 0.561495 0.538420 0.537987
O O10 0.919232 0.284136 0.610704
O O11 0.787324 0.508793 0.724286
O O12 0.057085 0.523466 0.482824
#
# Coordination Sequence:
#
# PCOD9118038 Si02
#       6
#     2   2   2   2   2   2
#     4  10  24  44  66  96 135 170 219 272 323 390
#     4   9  22  43  67  90 134 171 215 272 323 377
#     4   9  22  43  67  90 134 171 215 272 323 377
#     4  11  26  41  70  99 129 174 222 264 332 388
#     4  10  24  44  66  96 135 170 219 272 323 390
#     4  11  26  41  70  99 129 174 222 264 332 388
#
# _framework density 21.257912999999999
#
# number of rings (size 3 to 8) (size 9 to 14) (size 15 to 20)
#    0.000    2.000    0.000    0.000   18.667    4.000 
#    0.000    0.000    0.000    0.000    0.000    0.000 
#    0.000    0.000    0.000    0.000    0.000    0.000 
#
# Total GULP energy -67022.664269 kJ/mol
# GULP energy per Si atom -5585.222022 kJ/mol
# Density = 2.120953 g / cm^3
# Si number density = 21.257913 Si / 1000 Ang^3
#
#
#
# Elastic Constant Matrix: (Units=GPa)
#
#
# Indices 1 2 3 4 5 6 
#
# 1 127.8079 -6.7915 26.0120 0.0000 25.4671 0.0000
# 2 -6.7915 80.0564 14.0053 0.0000 3.2747 0.0000
# 3 26.0120 14.0053 80.1757 0.0000 8.1788 0.0000
# 4 0.0000 0.0000 0.0000 28.0382 0.0000 -11.9658
# 5 25.4671 3.2747 8.1788 0.0000 35.9955 0.0000
# 6 0.0000 0.0000 0.0000 -11.9658 0.0000 18.1838
#
#
#
# Elastic Compliance Matrix: (Units=1/GPa)
#
#
# Indices 1 2 3 4 5 6 
#
# 1 0.009752 0.001577 -0.002786 0.000000 -0.006410 0.000000
# 2 0.001577 0.013156 -0.002635 0.000000 -0.001714 0.000000
# 3 -0.002786 -0.002635 0.013934 0.000000 -0.000956 0.000000
# 4 0.000000 0.000000 0.000000 0.049593 0.000000 0.032635
# 5 -0.006410 -0.001714 -0.000956 0.000000 0.032690 0.000000
# 6 0.000000 0.000000 0.000000 0.032635 0.000000 0.076470
#
#
# Mechanical properties :
#
#
# Convention : Reuss Voigt Hill
#
# Bulk Modulus (GPa) = 34.29913 39.38798 36.84356
# Shear Modulus (GPa) = 23.47412 33.43109 28.45261
#
# Velocity S-wave (km/s) = 3.32664 3.96996 3.66245
# Velocity P-wave (km/s) = 5.56104 6.29150 5.93751
#
# Compressibility (1/GPa) = 0.02915526
#
# Stress axis : x y z
#
# Youngs Moduli (GPa) = 102.53998 76.01081 71.76647
#
# Poissons Ratio (x) = -0.11986 0.19991
# Poissons Ratio (y) = -0.16169 0.18910
# Poissons Ratio (z) = 0.28563 0.20028
#
# Static dielectric constant tensor:
#      x y z
#    x 1.810840 0.000000 0.016210 
#    y 0.000000 1.744470 0.000000 
#    z 0.016210 0.000000 1.767090 
# 
# From -- ./inp_files/1013.got.cif
#   From: 2010.05.17/outbox.cif.g08.bks.cpg/sg4_1_cif.got.tgz:1013.got - 2010.06.03 18:43:04.
