data_PCOD9118935
_publ_section_title
;
Structure prediction by ZEFSAII (Michael W. Deem and Ramdas Pophale) SiO2 
 PCOD9118935
Probable space group: P 21
;
_chemical_formula_sum "Si O2"
_cell_formula_units_Z 16
_cell_length_a 9.740637
_cell_length_b 9.367767
_cell_length_c 16.294674
_cell_angle_alpha 90.000000
_cell_angle_beta 23.380591
_cell_angle_gamma 90.000000
_cell_volume 590.039721
_symmetry_space_group_name_H-M "P 21"
_symmetry_group_IT_number 4
_symmetry_cell_setting 'monoclinic'
loop_
_space_group_symop_operation_xyz
x,y,z
-x,1/2+y,-z
loop_
_atom_site_type_symbol
_atom_site_label
_atom_site_fract_x
_atom_site_fract_y
_atom_site_fract_z
Si Si1 0.273671 0.274800 0.275805
Si Si2 0.739378 0.649015 0.948478
Si Si3 0.921246 0.706557 0.028988
Si Si4 0.932014 0.991347 0.496199
Si Si5 0.424807 0.477227 0.735436
Si Si6 0.155540 0.872116 0.641735
Si Si7 0.868551 0.358250 0.783388
Si Si8 0.980724 0.642754 0.174436
O O1 0.123877 0.350953 0.277842
O O2 0.344433 0.396888 0.303374
O O3 0.976107 0.161674 0.465672
O O4 0.618082 0.185706 0.064629
O O5 0.741336 0.492543 0.907820
O O6 0.096582 0.723531 0.721542
O O7 0.420958 0.747182 0.091789
O O8 0.876218 0.874556 0.065871
O O9 0.729194 0.657310 0.052190
O O10 0.798020 0.648859 0.186125
O O11 0.297060 0.638755 0.808407
O O12 0.267646 0.957433 0.368965
O O13 0.962314 0.928458 0.388996
O O14 0.530686 0.430199 0.586189
O O15 0.056413 0.991902 0.761984
O O16 0.114631 0.261866 0.705555
#
# Coordination Sequence:
#
# PCOD9118935 Si02
#       8
#     2   2   2   2   2   2   2   2
#     4  11  24  43  74 114 146 202 241 319 383 429
#     4  12  24  45  74 110 150 198 249 315 375 453
#     4  12  26  50  74 104 152 199 251 306 394 447
#     4  11  23  45  71 111 155 184 257 307 375 450
#     4  11  26  49  70 109 146 204 239 317 381 447
#     4  11  25  47  75 103 156 190 255 313 371 455
#     4  12  24  42  72 110 146 197 255 307 373 444
#     4  12  26  45  74 109 149 202 249 310 388 449
#
# _framework density 27.116817999999999
#
# number of rings (size 3 to 8) (size 9 to 14) (size 15 to 20)
#    0.000    0.500    5.000    3.000    3.500    1.000 
#    4.500    2.500    0.000    0.000    0.000    0.000 
#    0.000    0.000    0.000    0.000    0.000    0.000 
#
# Total GULP energy -89587.545077 kJ/mol
# GULP energy per Si atom -5599.221567 kJ/mol
# Density = 2.705510 g / cm^3
# Si number density = 27.116818 Si / 1000 Ang^3
#
#
#
# Elastic Constant Matrix: (Units=GPa)
#
#
# Indices 1 2 3 4 5 6 
#
# 1 174.1436 48.5959 34.8536 0.0000 47.8825 0.0000
# 2 48.5959 137.8274 22.6721 0.0000 8.8598 0.0000
# 3 34.8536 22.6721 76.7296 0.0000 15.7875 0.0000
# 4 0.0000 0.0000 0.0000 51.4240 0.0000 13.9261
# 5 47.8825 8.8598 15.7875 0.0000 51.1344 0.0000
# 6 0.0000 0.0000 0.0000 13.9261 0.0000 44.8634
#
#
#
# Elastic Compliance Matrix: (Units=1/GPa)
#
#
# Indices 1 2 3 4 5 6 
#
# 1 0.008735 -0.002320 -0.001796 0.000000 -0.007223 0.000000
# 2 -0.002320 0.008264 -0.001645 0.000000 0.001249 0.000000
# 3 -0.001796 -0.001645 0.014875 0.000000 -0.002626 0.000000
# 4 0.000000 0.000000 0.000000 0.021231 0.000000 -0.006590
# 5 -0.007223 0.001249 -0.002626 0.000000 0.026915 0.000000
# 6 0.000000 0.000000 0.000000 -0.006590 0.000000 0.024336
#
#
# Mechanical properties :
#
#
# Convention : Reuss Voigt Hill
#
# Bulk Modulus (GPa) = 49.13549 66.77153 57.95351
# Shear Modulus (GPa) = 40.76254 48.32295 44.54275
#
# Velocity S-wave (km/s) = 3.88134 4.22599 4.05733
# Velocity P-wave (km/s) = 6.18431 6.96341 6.58539
#
# Compressibility (1/GPa) = 0.02035189
#
# Stress axis : x y z
#
# Youngs Moduli (GPa) = 114.47559 121.00952 67.22731
#
# Poissons Ratio (x) = 0.28077 0.12075
# Poissons Ratio (y) = 0.26561 0.11057
# Poissons Ratio (z) = 0.20562 0.19903
#
# Static dielectric constant tensor:
#      x y z
#    x 2.130170 0.000000 -0.071660 
#    y 0.000000 2.069980 0.000000 
#    z -0.071660 0.000000 2.249840 
# 
# From -- ./inp_files/15802.got.cif
#   From: 2010.05.17/outbox.cif.g08.bks.cpg/sg4_8_cif.got.tgz:15802.got - 2010.06.03 18:43:04.
