data_PCOD9118496
_publ_section_title
;
Structure prediction by ZEFSAII (Michael W. Deem and Ramdas Pophale) SiO2 
 PCOD9118496
Probable space group: P 21
;
_chemical_formula_sum "Si O2"
_cell_formula_units_Z 16
_cell_length_a 11.436590
_cell_length_b 13.698902
_cell_length_c 11.977506
_cell_angle_alpha 90.000000
_cell_angle_beta 24.512247
_cell_angle_gamma 90.000000
_cell_volume 778.537089
_symmetry_space_group_name_H-M "P 21"
_symmetry_group_IT_number 4
_symmetry_cell_setting 'monoclinic'
loop_
_space_group_symop_operation_xyz
x,y,z
-x,1/2+y,-z
loop_
_atom_site_type_symbol
_atom_site_label
_atom_site_fract_x
_atom_site_fract_y
_atom_site_fract_z
Si Si1 0.485553 0.839530 0.730652
Si Si2 0.674276 0.164391 0.820341
Si Si3 0.588946 0.373593 0.816236
Si Si4 0.146193 0.069896 0.718290
Si Si5 0.614167 0.938099 0.246376
Si Si6 0.274695 0.156968 0.371553
Si Si7 0.797205 0.951386 0.655958
Si Si8 0.873049 0.795889 0.190683
O O1 0.506116 0.732536 0.767259
O O2 0.604483 0.908865 0.723990
O O3 0.699475 0.838968 0.443966
O O4 0.179018 0.842408 0.944464
O O5 0.564367 0.256429 0.847665
O O6 0.971743 0.204529 0.610470
O O7 0.774970 0.067976 0.669428
O O8 0.441002 0.130094 0.114160
O O9 0.548269 0.405416 0.724304
O O10 0.881265 0.414398 0.614927
O O11 0.341945 0.416230 0.107684
O O12 0.186362 0.087074 0.549796
O O13 0.140700 0.177251 0.781909
O O14 0.412225 0.998239 0.506904
O O15 0.863679 0.011734 0.993012
O O16 0.741083 0.841580 0.194079
#
# Coordination Sequence:
#
# PCOD9118496 Si02
#       8
#     2   2   2   2   2   2   2   2
#     4  11  21  41  65  91 126 165 220 270 315 373
#     4  12  22  38  61  97 133 170 203 263 341 387
#     4  12  24  42  63  99 134 170 210 273 328 389
#     4  11  23  42  72  98 121 178 228 266 317 379
#     4  12  25  45  66  98 134 171 221 269 328 389
#     4  11  20  38  66  93 127 163 217 269 300 388
#     4  12  24  39  66  95 131 171 211 264 336 395
#     4  11  25  43  69  95 128 170 222 276 315 378
#
# _framework density 20.551366000000002
#
# number of rings (size 3 to 8) (size 9 to 14) (size 15 to 20)
#    0.000    0.500    2.500    9.000    0.000    0.000 
#    4.500    0.000    0.000    0.000    0.000    0.000 
#    0.000    0.000    0.000    0.000    0.000    0.000 
#
# Total GULP energy -89276.527142 kJ/mol
# GULP energy per Si atom -5579.782946 kJ/mol
# Density = 2.050459 g / cm^3
# Si number density = 20.551366 Si / 1000 Ang^3
#
#
#
# Elastic Constant Matrix: (Units=GPa)
#
#
# Indices 1 2 3 4 5 6 
#
# 1 -939.7387 -3.8274 -906.0523 0.0000 -80.7160 0.0000
# 2 -3.8274 125.9021 -24.4066 0.0000 -0.5269 0.0000
# 3 -906.0523 -24.4066 -712.7693 0.0000 -82.5519 0.0000
# 4 0.0000 0.0000 0.0000 5.8655 0.0000 -21.4988
# 5 -80.7160 -0.5269 -82.5519 0.0000 21.6852 0.0000
# 6 0.0000 0.0000 0.0000 -21.4988 0.0000 8.8514
#
#
#
# Elastic Compliance Matrix: (Units=1/GPa)
#
#
# Indices 1 2 3 4 5 6 
#
# 1 0.005315 -0.001067 -0.006252 0.000000 -0.004042 0.000000
# 2 -0.001067 0.008115 0.001052 0.000000 0.000230 0.000000
# 3 -0.006252 0.001052 0.006386 0.000000 0.001063 0.000000
# 4 0.000000 0.000000 0.000000 -0.021574 0.000000 -0.052400
# 5 -0.004042 0.000230 0.001063 0.000000 0.035120 0.000000
# 6 0.000000 0.000000 0.000000 -0.052400 0.000000 -0.014296
#
#
# Mechanical properties :
#
#
# Convention : Reuss Voigt Hill
#
# Bulk Modulus (GPa) = 137.33220 -377.24205 -119.95493
# Shear Modulus (GPa) = 146.93916 -32.20755 57.36580
#
# Velocity S-wave (km/s) = 8.46485 -3.96305 5.28904
# Velocity P-wave (km/s) = 12.74783 14.31433 4.60396
#
# Compressibility (1/GPa) = 0.00728161
#
# Stress axis : x y z
#
# Youngs Moduli (GPa) = 188.12996 123.22586 156.60339
#
# Poissons Ratio (x) = 0.13152 0.97912
# Poissons Ratio (y) = 0.20080 -0.16479
# Poissons Ratio (z) = 1.17623 -0.12966
#
# Static dielectric constant tensor:
#      x y z
#    x 1.875430 0.000000 0.000350 
#    y 0.000000 1.936820 0.000000 
#    z 0.000350 0.000000 1.735420 
# 
# From -- ./inp_files/12338.got.cif
#   From: 2010.05.17/outbox.cif.g08.bks.cpg/sg4_7_cif.got.tgz:12338.got - 2010.06.03 18:43:04.
