data_PCOD9118029
_publ_section_title
;
Structure prediction by ZEFSAII (Michael W. Deem and Ramdas Pophale) SiO2 
 PCOD9118029
Probable space group: P 21
;
_chemical_formula_sum "Si O2"
_cell_formula_units_Z 12
_cell_length_a 7.971348
_cell_length_b 10.690928
_cell_length_c 7.927780
_cell_angle_alpha 90.000000
_cell_angle_beta 134.039361
_cell_angle_gamma 90.000000
_cell_volume 485.673649
_symmetry_space_group_name_H-M "P 21"
_symmetry_group_IT_number 4
_symmetry_cell_setting 'monoclinic'
loop_
_space_group_symop_operation_xyz
x,y,z
-x,1/2+y,-z
loop_
_atom_site_type_symbol
_atom_site_label
_atom_site_fract_x
_atom_site_fract_y
_atom_site_fract_z
Si Si1 0.046216 0.783380 0.150519
Si Si2 0.358665 0.752693 0.823028
Si Si3 0.228394 0.066510 0.901100
Si Si4 0.144208 0.237745 0.349566
Si Si5 0.205413 0.968618 0.511863
Si Si6 0.548770 0.363199 0.762258
O O1 0.308271 0.774171 0.263042
O O2 0.966121 0.669208 0.207847
O O3 0.024173 0.906751 0.252841
O O4 0.900489 0.763161 0.877398
O O5 0.096984 0.728851 0.711067
O O6 0.364101 0.844593 0.664886
O O7 0.514272 0.629573 0.916945
O O8 0.479638 0.820510 0.065898
O O9 0.165195 0.003583 0.679419
O O10 0.262247 0.973168 0.081459
O O11 0.268457 0.103735 0.475834
O O12 0.290746 0.358318 0.511971
#
# Coordination Sequence:
#
# PCOD9118029 Si02
#       6
#     2   2   2   2   2   2
#     4  11  26  48  70 112 150 200 250 303 388 442
#     4  10  24  43  74 110 143 196 256 303 376 443
#     4  11  24  49  77 110 149 201 257 314 369 449
#     4  11  24  48  72 109 157 194 247 308 385 448
#     4  11  24  45  75 107 145 200 245 315 361 441
#     4  10  24  49  72 108 154 199 247 311 381 447
#
# _framework density 24.707947999999998
#
# number of rings (size 3 to 8) (size 9 to 14) (size 15 to 20)
#    0.000    1.333    1.667    2.000    4.667    1.333 
#    9.000    0.000    0.000    0.000    0.000    0.000 
#    0.000    0.000    0.000    0.000    0.000    0.000 
#
# Total GULP energy -66841.735538 kJ/mol
# GULP energy per Si atom -5570.144628 kJ/mol
# Density = 2.465171 g / cm^3
# Si number density = 24.707948 Si / 1000 Ang^3
#
#
#
# Elastic Constant Matrix: (Units=GPa)
#
#
# Indices 1 2 3 4 5 6 
#
# 1 72.8386 38.1194 59.1545 0.0000 -10.2504 0.0000
# 2 38.1194 110.2996 49.5871 0.0000 -12.7781 0.0000
# 3 59.1545 49.5871 102.7542 0.0000 -40.6057 0.0000
# 4 0.0000 0.0000 0.0000 61.9318 0.0000 -4.0723
# 5 -10.2504 -12.7781 -40.6057 0.0000 36.5810 0.0000
# 6 0.0000 0.0000 0.0000 -4.0723 0.0000 31.4967
#
#
#
# Elastic Compliance Matrix: (Units=1/GPa)
#
#
# Indices 1 2 3 4 5 6 
#
# 1 0.033255 -0.002062 -0.026279 0.000000 -0.020572 0.000000
# 2 -0.002062 0.012018 -0.005668 0.000000 -0.002672 0.000000
# 3 -0.026279 -0.005668 0.042583 0.000000 0.037924 0.000000
# 4 0.000000 0.000000 0.000000 0.016285 0.000000 0.002106
# 5 -0.020572 -0.002672 0.037924 0.000000 0.062735 0.000000
# 6 0.000000 0.000000 0.000000 0.002106 0.000000 0.032022
#
#
# Mechanical properties :
#
#
# Convention : Reuss Voigt Hill
#
# Bulk Modulus (GPa) = 50.41230 64.40160 57.40695
# Shear Modulus (GPa) = 18.27964 35.27065 26.77515
#
# Velocity S-wave (km/s) = 2.72293 3.78233 3.29548
# Velocity P-wave (km/s) = 5.50757 6.72283 6.14531
#
# Compressibility (1/GPa) = 0.01983643
#
# Stress axis : x y z
#
# Youngs Moduli (GPa) = 30.07040 83.21180 23.48380
#
# Poissons Ratio (x) = 0.17158 0.61714
# Poissons Ratio (y) = 0.06200 0.13311
# Poissons Ratio (z) = 0.79023 0.47166
#
# Static dielectric constant tensor:
#      x y z
#    x 1.939300 0.000000 0.029190 
#    y 0.000000 2.147310 0.000000 
#    z 0.029190 0.000000 1.958320 
# 
# From -- ./inp_files/5875.got.cif
#   From: 2010.05.17/outbox.cif.g08.bks.cpg/sg4_3_cif.got.tgz:5875.got - 2010.06.03 18:43:04.
