data_PCOD9118362
_publ_section_title
;
Structure prediction by ZEFSAII (Michael W. Deem and Ramdas Pophale) SiO2 
 PCOD9118362
Probable space group: P 21
;
_chemical_formula_sum "Si O2"
_cell_formula_units_Z 12
_cell_length_a 7.807689
_cell_length_b 13.886598
_cell_length_c 5.351807
_cell_angle_alpha 90.000000
_cell_angle_beta 61.234733
_cell_angle_gamma 90.000000
_cell_volume 508.650605
_symmetry_space_group_name_H-M "P 21"
_symmetry_group_IT_number 4
_symmetry_cell_setting 'monoclinic'
loop_
_space_group_symop_operation_xyz
x,y,z
-x,1/2+y,-z
loop_
_atom_site_type_symbol
_atom_site_label
_atom_site_fract_x
_atom_site_fract_y
_atom_site_fract_z
Si Si1 0.152994 0.713770 0.094719
Si Si2 0.538279 0.738241 0.076830
Si Si3 0.007141 0.426722 0.869882
Si Si4 0.215279 0.097216 0.780924
Si Si5 0.522982 0.091924 0.233048
Si Si6 0.262334 0.434365 0.190703
O O1 0.303611 0.725701 0.221869
O O2 0.291258 0.653680 0.803367
O O3 0.095585 0.822255 0.065781
O O4 0.965290 0.645302 0.240944
O O5 0.610329 0.673766 0.793699
O O6 0.599939 0.844777 0.969237
O O7 0.657557 0.688385 0.212617
O O8 0.159568 0.430195 0.531696
O O9 0.107384 0.433923 0.071744
O O10 0.870859 0.521699 0.958242
O O11 0.380868 0.036848 0.515910
O O12 0.607082 0.027693 0.951414
#
# Coordination Sequence:
#
# PCOD9118362 Si02
#       6
#     2   2   2   2   2   2
#     4  10  25  49  70 116 144 200 252 310 377 446
#     4  10  26  45  75 106 152 195 249 312 377 443
#     4  12  28  47  80 109 155 201 252 312 380 454
#     4  12  25  50  77 109 150 201 253 314 380 447
#     4  10  27  47  74 110 149 194 253 311 372 452
#     4  12  27  48  76 114 152 199 255 309 382 454
#
# _framework density 23.591832
#
# number of rings (size 3 to 8) (size 9 to 14) (size 15 to 20)
#    1.000    0.000    3.333    1.000    7.000    4.000 
#    3.000    0.000    0.000    0.000    0.000    0.000 
#    0.000    0.000    0.000    0.000    0.000    0.000 
#
# Total GULP energy -66842.069135 kJ/mol
# GULP energy per Si atom -5570.172428 kJ/mol
# Density = 2.353814 g / cm^3
# Si number density = 23.591832 Si / 1000 Ang^3
#
#
#
# Elastic Constant Matrix: (Units=GPa)
#
#
# Indices 1 2 3 4 5 6 
#
# 1 109.1628 28.1499 36.2798 0.0000 -23.8449 0.0000
# 2 28.1499 153.0588 14.8420 0.0000 -21.2661 0.0000
# 3 36.2798 14.8420 85.7060 0.0000 -24.0176 0.0000
# 4 0.0000 0.0000 0.0000 21.5377 0.0000 -4.0913
# 5 -23.8449 -21.2661 -24.0176 0.0000 27.0039 0.0000
# 6 0.0000 0.0000 0.0000 -4.0913 0.0000 36.0967
#
#
#
# Elastic Compliance Matrix: (Units=1/GPa)
#
#
# Indices 1 2 3 4 5 6 
#
# 1 0.011934 -0.000906 -0.002853 0.000000 0.007288 0.000000
# 2 -0.000906 0.007419 0.000682 0.000000 0.005649 0.000000
# 3 -0.002853 0.000682 0.016253 0.000000 0.012473 0.000000
# 4 0.000000 0.000000 0.000000 0.047452 0.000000 0.005378
# 5 0.007288 0.005649 0.012473 0.000000 0.059009 0.000000
# 6 0.000000 0.000000 0.000000 0.005378 0.000000 0.028313
#
#
# Mechanical properties :
#
#
# Convention : Reuss Voigt Hill
#
# Bulk Modulus (GPa) = 33.95348 56.27457 45.11403
# Shear Modulus (GPa) = 26.83117 34.83807 30.83462
#
# Velocity S-wave (km/s) = 3.37606 3.84695 3.61917
# Velocity P-wave (km/s) = 5.44245 6.60585 6.05217
#
# Compressibility (1/GPa) = 0.02945206
#
# Stress axis : x y z
#
# Youngs Moduli (GPa) = 83.79332 134.79306 61.52828
#
# Poissons Ratio (x) = 0.12208 0.17552
# Poissons Ratio (y) = 0.07589 -0.04194
# Poissons Ratio (z) = 0.23904 -0.09189
#
# Static dielectric constant tensor:
#      x y z
#    x 1.971390 0.000000 0.044260 
#    y 0.000000 1.885670 0.000000 
#    z 0.044260 0.000000 1.956580 
# 
# From -- ./inp_files/1690.got.cif
#   From: 2010.05.17/outbox.cif.g08.bks.cpg/sg4_1_cif.got.tgz:1690.got - 2010.06.03 18:43:04.
