data_PCOD9118337
_publ_section_title
;
Structure prediction by ZEFSAII (Michael W. Deem and Ramdas Pophale) SiO2 
 PCOD9118337
Probable space group: P 21
;
_chemical_formula_sum "Si O2"
_cell_formula_units_Z 10
_cell_length_a 7.449758
_cell_length_b 4.725446
_cell_length_c 9.449350
_cell_angle_alpha 90.000000
_cell_angle_beta 95.923478
_cell_angle_gamma 90.000000
_cell_volume 330.873378
_symmetry_space_group_name_H-M "P 21"
_symmetry_group_IT_number 4
_symmetry_cell_setting 'monoclinic'
loop_
_space_group_symop_operation_xyz
x,y,z
-x,1/2+y,-z
loop_
_atom_site_type_symbol
_atom_site_label
_atom_site_fract_x
_atom_site_fract_y
_atom_site_fract_z
Si Si1 0.557436 0.430290 0.601488
Si Si2 0.973271 0.726908 0.686357
Si Si3 0.342184 0.070782 0.804103
Si Si4 0.864025 0.705195 0.417252
Si Si5 0.689524 0.692836 0.874613
O O1 0.437635 0.682088 0.517207
O O2 0.646312 0.773427 0.334320
O O3 0.637925 0.421918 0.773938
O O4 0.772019 0.594448 0.569318
O O5 0.867108 0.814103 0.818522
O O6 0.957606 0.957558 0.544109
O O7 0.053488 0.409424 0.704985
O O8 0.172753 0.907262 0.719076
O O9 0.513229 0.876653 0.830983
O O10 0.298878 0.163850 0.957410
#
# Coordination Sequence:
#
# PCOD9118337 Si02
#       5
#     2   2   2   2   2
#     4  12  26  44  72 108 142 194 246 300 366 436
#     4  10  25  47  72 103 144 197 254 304 365 450
#     4  12  27  46  75 113 157 194 249 312 382 448
#     4  10  25  47  72 103 144 197 254 304 365 450
#     4  12  27  46  75 113 157 194 249 312 382 448
#
# _framework density 30.223042
#
# number of rings (size 3 to 8) (size 9 to 14) (size 15 to 20)
#    0.000    0.800    4.000    1.200    5.600    3.200 
#    0.000    0.000    0.000    0.000    0.000    0.000 
#    0.000    0.000    0.000    0.000    0.000    0.000 
#
# Total GULP energy -55739.453628 kJ/mol
# GULP energy per Si atom -5573.945363 kJ/mol
# Density = 3.015425 g / cm^3
# Si number density = 30.223042 Si / 1000 Ang^3
#
#
#
# Elastic Constant Matrix: (Units=GPa)
#
#
# Indices 1 2 3 4 5 6 
#
# 1 246.6730 60.6342 95.5482 0.0000 -19.1704 0.0000
# 2 60.6342 225.6378 71.2897 0.0000 -1.5531 0.0000
# 3 95.5482 71.2897 288.5413 0.0000 8.1008 0.0000
# 4 0.0000 0.0000 0.0000 39.5782 0.0000 0.4666
# 5 -19.1704 -1.5531 8.1008 0.0000 72.1442 0.0000
# 6 0.0000 0.0000 0.0000 0.4666 0.0000 86.9255
#
#
#
# Elastic Compliance Matrix: (Units=1/GPa)
#
#
# Indices 1 2 3 4 5 6 
#
# 1 0.004946 -0.000855 -0.001468 0.000000 0.001461 0.000000
# 2 -0.000855 0.004959 -0.000942 0.000000 -0.000015 0.000000
# 3 -0.001468 -0.000942 0.004209 0.000000 -0.000883 0.000000
# 4 0.000000 0.000000 0.000000 0.025268 0.000000 -0.000136
# 5 0.001461 -0.000015 -0.000883 0.000000 0.014348 0.000000
# 6 0.000000 0.000000 0.000000 -0.000136 0.000000 0.011505
#
#
# Mechanical properties :
#
#
# Convention : Reuss Voigt Hill
#
# Bulk Modulus (GPa) = 131.83346 135.08848 133.46097
# Shear Modulus (GPa) = 67.30114 75.28823 71.29468
#
# Velocity S-wave (km/s) = 4.72403 4.99649 4.86217
# Velocity P-wave (km/s) = 8.57148 8.83633 8.70491
#
# Compressibility (1/GPa) = 0.00758533
#
# Stress axis : x y z
#
# Youngs Moduli (GPa) = 202.17567 201.64784 237.58077
#
# Poissons Ratio (x) = 0.17250 0.34866
# Poissons Ratio (y) = 0.17295 0.22370
# Poissons Ratio (z) = 0.29670 0.18986
#
# Static dielectric constant tensor:
#      x y z
#    x 3.235100 0.000000 -0.043830 
#    y 0.000000 3.008990 0.000000 
#    z -0.043830 0.000000 2.239800 
# 
# From -- ./inp_files/5108.got.cif
#   From: 2010.05.17/outbox.cif.g08.bks.cpg/sg4_3_cif.got.tgz:5108.got - 2010.06.03 18:43:04.
