data_PCOD9118480
_publ_section_title
;
Structure prediction by ZEFSAII (Michael W. Deem and Ramdas Pophale) SiO2 
 PCOD9118480
Probable space group: P 21
;
_chemical_formula_sum "Si O2"
_cell_formula_units_Z 16
_cell_length_a 8.972463
_cell_length_b 5.833107
_cell_length_c 20.280648
_cell_angle_alpha 90.000000
_cell_angle_beta 137.041118
_cell_angle_gamma 90.000000
_cell_volume 723.339717
_symmetry_space_group_name_H-M "P 21"
_symmetry_group_IT_number 4
_symmetry_cell_setting 'monoclinic'
loop_
_space_group_symop_operation_xyz
x,y,z
-x,1/2+y,-z
loop_
_atom_site_type_symbol
_atom_site_label
_atom_site_fract_x
_atom_site_fract_y
_atom_site_fract_z
Si Si1 0.923169 0.037380 0.310501
Si Si2 0.375789 0.141089 0.841404
Si Si3 0.176128 0.696658 0.971729
Si Si4 0.597071 0.079860 0.700114
Si Si5 0.854461 0.369283 0.893174
Si Si6 0.484102 0.274625 0.211990
Si Si7 0.101126 0.124610 0.506885
Si Si8 0.008686 0.360976 0.222104
O O1 0.724936 0.189998 0.273997
O O2 0.084235 0.050382 0.424452
O O3 0.020840 0.142945 0.274875
O O4 0.790972 0.806555 0.250759
O O5 0.521828 0.996385 0.837023
O O6 0.565824 0.246660 0.948805
O O7 0.214715 0.982399 0.829444
O O8 0.090584 0.435674 0.939577
O O9 0.033569 0.810300 0.868336
O O10 0.104549 0.766108 0.021834
O O11 0.724454 0.235194 0.794379
O O12 0.357170 0.169588 0.605184
O O13 0.543366 0.845984 0.721739
O O14 0.774230 0.015666 0.701903
O O15 0.691527 0.579950 0.857245
O O16 0.986950 0.379945 0.486275
#
# Coordination Sequence:
#
# PCOD9118480 Si02
#       8
#     2   2   2   2   2   2   2   2
#     4  11  25  50  71 105 147 189 244 312 377 454
#     4  11  25  43  67 100 146 200 240 303 367 450
#     4  12  24  41  68 102 143 201 245 298 373 444
#     4  12  25  48  72 112 145 192 248 322 376 452
#     4  12  24  42  71 106 148 190 257 324 361 444
#     4  11  19  44  71  97 142 178 247 310 367 419
#     4  12  27  49  89 118 140 196 264 323 392 459
#     4  11  29  43  65 104 155 192 241 296 379 464
#
# _framework density 22.119623000000001
#
# number of rings (size 3 to 8) (size 9 to 14) (size 15 to 20)
#    0.000    0.500    5.000    3.000    5.250    0.000 
#    2.250    0.000    0.000    0.000    0.000    0.000 
#    0.000    0.000    0.000    0.000    0.000    0.000 
#
# Total GULP energy -89142.279108 kJ/mol
# GULP energy per Si atom -5571.392444 kJ/mol
# Density = 2.206928 g / cm^3
# Si number density = 22.119623 Si / 1000 Ang^3
#
#
#
# Elastic Constant Matrix: (Units=GPa)
#
#
# Indices 1 2 3 4 5 6 
#
# 1 62.7132 14.3932 23.9910 0.0000 16.0283 0.0000
# 2 14.3932 60.6935 13.0626 0.0000 -10.0590 0.0000
# 3 23.9910 13.0626 94.5833 0.0000 -19.0757 0.0000
# 4 0.0000 0.0000 0.0000 29.5439 0.0000 4.4527
# 5 16.0283 -10.0590 -19.0757 0.0000 21.4198 0.0000
# 6 0.0000 0.0000 0.0000 4.4527 0.0000 29.2185
#
#
#
# Elastic Compliance Matrix: (Units=1/GPa)
#
#
# Indices 1 2 3 4 5 6 
#
# 1 0.040406 -0.014419 -0.019163 0.000000 -0.054072 0.000000
# 2 -0.014419 0.023082 0.005890 0.000000 0.026875 0.000000
# 3 -0.019163 0.005890 0.022026 0.000000 0.036721 0.000000
# 4 0.000000 0.000000 0.000000 0.034644 0.000000 -0.005279
# 5 -0.054072 0.026875 0.036721 0.000000 0.132471 0.000000
# 6 0.000000 0.000000 0.000000 -0.005279 0.000000 0.035029
#
#
# Mechanical properties :
#
#
# Convention : Reuss Voigt Hill
#
# Bulk Modulus (GPa) = 33.19088 35.65371 34.42230
# Shear Modulus (GPa) = 14.16091 27.13932 20.65012
#
# Velocity S-wave (km/s) = 2.53296 3.50656 3.05875
# Velocity P-wave (km/s) = 4.85718 5.70510 5.29813
#
# Compressibility (1/GPa) = 0.03012876
#
# Stress axis : x y z
#
# Youngs Moduli (GPa) = 24.74907 43.32350 45.40135
#
# Poissons Ratio (x) = 0.62470 0.87002
# Poissons Ratio (y) = 0.35687 -0.26740
# Poissons Ratio (z) = 0.47426 -0.25517
#
# Static dielectric constant tensor:
#      x y z
#    x 1.809400 0.000000 -0.015290 
#    y 0.000000 2.009960 0.000000 
#    z -0.015290 0.000000 1.852530 
# 
# From -- ./inp_files/8956.got.cif
#   From: 2010.05.17/outbox.cif.g08.bks.cpg/sg4_5_cif.got.tgz:8956.got - 2010.06.03 18:43:04.
