data_PCOD9118382
_publ_section_title
;
Structure prediction by ZEFSAII (Michael W. Deem and Ramdas Pophale) SiO2 
 PCOD9118382
Probable space group: P 21
;
_chemical_formula_sum "Si O2"
_cell_formula_units_Z 16
_cell_length_a 6.230433
_cell_length_b 13.264662
_cell_length_c 8.134776
_cell_angle_alpha 90.000000
_cell_angle_beta 60.943734
_cell_angle_gamma 90.000000
_cell_volume 587.682279
_symmetry_space_group_name_H-M "P 21"
_symmetry_group_IT_number 4
_symmetry_cell_setting 'monoclinic'
loop_
_space_group_symop_operation_xyz
x,y,z
-x,1/2+y,-z
loop_
_atom_site_type_symbol
_atom_site_label
_atom_site_fract_x
_atom_site_fract_y
_atom_site_fract_z
Si Si1 0.644242 0.253010 0.666103
Si Si2 0.822050 0.534468 0.868607
Si Si3 0.350059 0.204562 0.270052
Si Si4 0.175505 0.391402 0.900562
Si Si5 0.305028 0.107763 0.632399
Si Si6 0.141197 0.941269 0.494249
Si Si7 0.846613 0.205507 0.953570
Si Si8 0.360005 0.438173 0.192601
O O1 0.407695 0.327925 0.747938
O O2 0.553474 0.154345 0.608529
O O3 0.850831 0.320578 0.502725
O O4 0.723377 0.229985 0.822130
O O5 0.803528 0.650921 0.819888
O O6 0.765414 0.476297 0.717931
O O7 0.074083 0.483937 0.832247
O O8 0.605467 0.502756 0.075586
O O9 0.252573 0.169138 0.482032
O O10 0.394467 0.323392 0.238349
O O11 0.627030 0.162112 0.142913
O O12 0.957184 0.309239 0.980598
O O13 0.242576 0.427306 0.055746
O O14 0.078046 0.133274 0.836284
O O15 0.300225 0.992754 0.577430
O O16 0.864079 0.980182 0.617236
#
# Coordination Sequence:
#
# PCOD9118382 Si02
#       8
#     2   2   2   2   2   2   2   2
#     4  11  22  44  69  92 137 173 215 276 329 389
#     4  11  24  47  64  97 138 172 218 277 333 390
#     4  11  23  43  68  97 131 170 226 268 325 404
#     4  11  21  42  68  90 131 175 209 267 338 377
#     4  10  26  42  66 100 130 179 219 271 337 383
#     4  11  23  46  64  98 138 166 226 278 320 402
#     4  11  21  45  65  91 133 171 216 276 321 388
#     4  12  24  43  68 101 130 176 221 273 331 395
#
# _framework density 27.225591999999999
#
# number of rings (size 3 to 8) (size 9 to 14) (size 15 to 20)
#    0.000    1.000    5.000    1.500    3.500    1.000 
#    9.000    0.000    0.000    0.000    0.000    0.000 
#    0.000    0.000    0.000    0.000    0.000    0.000 
#
# Total GULP energy -89778.660228 kJ/mol
# GULP energy per Si atom -5611.166264 kJ/mol
# Density = 2.716363 g / cm^3
# Si number density = 27.225592 Si / 1000 Ang^3
#
#
#
# Elastic Constant Matrix: (Units=GPa)
#
#
# Indices 1 2 3 4 5 6 
#
# 1 110.4857 42.5055 13.6267 0.0000 -4.3548 0.0000
# 2 42.5055 116.6765 16.5860 0.0000 2.3623 0.0000
# 3 13.6267 16.5860 99.6830 0.0000 -22.3252 0.0000
# 4 0.0000 0.0000 0.0000 32.7782 0.0000 -0.6603
# 5 -4.3548 2.3623 -22.3252 0.0000 34.0498 0.0000
# 6 0.0000 0.0000 0.0000 -0.6603 0.0000 70.7497
#
#
#
# Elastic Compliance Matrix: (Units=1/GPa)
#
#
# Indices 1 2 3 4 5 6 
#
# 1 0.010639 -0.003826 -0.000532 0.000000 0.001278 0.000000
# 2 -0.003826 0.010253 -0.001702 0.000000 -0.002316 0.000000
# 3 -0.000532 -0.001702 0.012189 0.000000 0.008042 0.000000
# 4 0.000000 0.000000 0.000000 0.030514 0.000000 0.000285
# 5 0.001278 -0.002316 0.008042 0.000000 0.034965 0.000000
# 6 0.000000 0.000000 0.000000 0.000285 0.000000 0.014137
#
#
# Mechanical properties :
#
#
# Convention : Reuss Voigt Hill
#
# Bulk Modulus (GPa) = 47.70555 52.47574 50.09065
# Shear Modulus (GPa) = 37.93531 44.45736 41.19634
#
# Velocity S-wave (km/s) = 3.73684 4.04533 3.89414
# Velocity P-wave (km/s) = 6.01489 6.41372 6.21751
#
# Compressibility (1/GPa) = 0.02096192
#
# Stress axis : x y z
#
# Youngs Moduli (GPa) = 93.99554 97.52902 82.04338
#
# Poissons Ratio (x) = 0.37315 0.04362
# Poissons Ratio (y) = 0.35963 0.13962
# Poissons Ratio (z) = 0.04997 0.16598
#
# Static dielectric constant tensor:
#      x y z
#    x 2.106190 0.000000 -0.031040 
#    y 0.000000 2.116250 0.000000 
#    z -0.031040 0.000000 2.088590 
# 
# From -- ./inp_files/4793.got.cif
#   From: 2010.05.17/outbox.cif.g08.bks.cpg/sg4_3_cif.got.tgz:4793.got - 2010.06.03 18:43:04.
