data_PCOD9118752
_publ_section_title
;
Structure prediction by ZEFSAII (Michael W. Deem and Ramdas Pophale) SiO2 
 PCOD9118752
Probable space group: P 21
;
_chemical_formula_sum "Si O2"
_cell_formula_units_Z 16
_cell_length_a 14.032119
_cell_length_b 5.857658
_cell_length_c 15.467907
_cell_angle_alpha 90.000000
_cell_angle_beta 29.745456
_cell_angle_gamma 90.000000
_cell_volume 630.797203
_symmetry_space_group_name_H-M "P 21"
_symmetry_group_IT_number 4
_symmetry_cell_setting 'monoclinic'
loop_
_space_group_symop_operation_xyz
x,y,z
-x,1/2+y,-z
loop_
_atom_site_type_symbol
_atom_site_label
_atom_site_fract_x
_atom_site_fract_y
_atom_site_fract_z
Si Si1 0.297383 0.879660 0.620957
Si Si2 0.690067 0.938400 0.774864
Si Si3 0.019403 0.766711 0.383892
Si Si4 0.029123 0.589197 0.022684
Si Si5 0.271230 0.114931 0.089751
Si Si6 0.309201 0.087087 0.430493
Si Si7 0.348551 0.346102 0.859888
Si Si8 0.551943 0.987253 0.581372
O O1 0.438984 0.872483 0.590881
O O2 0.278029 0.620877 0.603682
O O3 0.368603 0.987787 0.476375
O O4 0.125912 0.042664 0.781802
O O5 0.845958 0.829996 0.585861
O O6 0.687507 0.787687 0.863834
O O7 0.792748 0.178052 0.715794
O O8 0.470786 0.973770 0.918302
O O9 0.912947 0.563005 0.415841
O O10 0.095754 0.958619 0.259573
O O11 0.236514 0.552043 0.901891
O O12 0.002230 0.845464 0.006292
O O13 0.231163 0.240535 0.031173
O O14 0.357442 0.348472 0.411550
O O15 0.454496 0.950527 0.255708
O O16 0.396876 0.150697 0.751560
#
# Coordination Sequence:
#
# PCOD9118752 Si02
#       8
#     2   2   2   2   2   2   2   2
#     4  11  24  41  70 101 146 203 257 309 383 462
#     4  12  27  50  79 110 148 199 251 319 402 486
#     4  12  28  49  80 111 152 196 257 323 399 487
#     4  12  28  47  74 110 158 211 267 328 401 477
#     4  12  28  50  77 112 153 199 253 322 406 478
#     4  11  27  45  76 109 147 195 261 322 383 479
#     4  11  28  46  73 112 153 197 259 329 391 470
#     4  11  22  46  71 101 145 202 255 314 383 455
#
# _framework density 25.364730000000002
#
# number of rings (size 3 to 8) (size 9 to 14) (size 15 to 20)
#    0.000    0.500    5.000    1.500   10.500    2.000 
#    0.000    0.000    0.000    0.000    0.000    0.000 
#    0.000    0.000    0.000    0.000    0.000    0.000 
#
# Total GULP energy -89352.015353 kJ/mol
# GULP energy per Si atom -5584.500960 kJ/mol
# Density = 2.530700 g / cm^3
# Si number density = 25.364730 Si / 1000 Ang^3
#
#
#
# Elastic Constant Matrix: (Units=GPa)
#
#
# Indices 1 2 3 4 5 6 
#
# 1 76.0446 11.1405 14.7098 0.0000 0.9164 0.0000
# 2 11.1405 53.5221 27.5200 0.0000 13.0217 0.0000
# 3 14.7098 27.5200 104.0690 0.0000 6.9282 0.0000
# 4 0.0000 0.0000 0.0000 38.7518 0.0000 -12.4305
# 5 0.9164 13.0217 6.9282 0.0000 37.9904 0.0000
# 6 0.0000 0.0000 0.0000 -12.4305 0.0000 24.4061
#
#
#
# Elastic Compliance Matrix: (Units=1/GPa)
#
#
# Indices 1 2 3 4 5 6 
#
# 1 0.013749 -0.002329 -0.001375 0.000000 0.000717 0.000000
# 2 -0.002329 0.023700 -0.005467 0.000000 -0.007070 0.000000
# 3 -0.001375 -0.005467 0.011259 0.000000 -0.000146 0.000000
# 4 0.000000 0.000000 0.000000 0.030844 0.000000 0.015710
# 5 0.000717 -0.007070 -0.000146 0.000000 0.028755 0.000000
# 6 0.000000 0.000000 0.000000 0.015710 0.000000 0.048975
#
#
# Mechanical properties :
#
#
# Convention : Reuss Voigt Hill
#
# Bulk Modulus (GPa) = 32.93348 37.81958 35.37653
# Shear Modulus (GPa) = 26.91835 32.24736 29.58286
#
# Velocity S-wave (km/s) = 3.26122 3.56946 3.41882
# Velocity P-wave (km/s) = 5.21468 5.65073 5.43708
#
# Compressibility (1/GPa) = 0.03036423
#
# Stress axis : x y z
#
# Youngs Moduli (GPa) = 72.73376 42.19405 88.81870
#
# Poissons Ratio (x) = 0.09828 0.12214
# Poissons Ratio (y) = 0.16941 0.48560
# Poissons Ratio (z) = 0.10002 0.23069
#
# Static dielectric constant tensor:
#      x y z
#    x 2.067810 0.000000 -0.004330 
#    y 0.000000 2.210060 0.000000 
#    z -0.004330 0.000000 2.023950 
# 
# From -- ./inp_files/14070.got.cif
#   From: 2010.05.17/outbox.cif.g08.bks.cpg/sg4_8_cif.got.tgz:14070.got - 2010.06.03 18:43:04.
