data_PCOD9118985
_publ_section_title
;
Structure prediction by ZEFSAII (Michael W. Deem and Ramdas Pophale) SiO2 
 PCOD9118985
Probable space group: P 21
;
_chemical_formula_sum "Si O2"
_cell_formula_units_Z 16
_cell_length_a 11.605953
_cell_length_b 8.586348
_cell_length_c 13.928490
_cell_angle_alpha 90.000000
_cell_angle_beta 146.671971
_cell_angle_gamma 90.000000
_cell_volume 762.617885
_symmetry_space_group_name_H-M "P 21"
_symmetry_group_IT_number 4
_symmetry_cell_setting 'monoclinic'
loop_
_space_group_symop_operation_xyz
x,y,z
-x,1/2+y,-z
loop_
_atom_site_type_symbol
_atom_site_label
_atom_site_fract_x
_atom_site_fract_y
_atom_site_fract_z
Si Si1 0.246445 0.752520 0.470825
Si Si2 0.275994 0.780731 0.269361
Si Si3 0.286779 0.382878 0.509742
Si Si4 0.045985 0.085411 0.043501
Si Si5 0.094853 0.712734 0.848848
Si Si6 0.526534 0.898418 0.162505
Si Si7 0.607869 0.733563 0.852501
Si Si8 0.193872 0.393699 0.827961
O O1 0.268712 0.811521 0.377675
O O2 0.296084 0.568676 0.502313
O O3 0.415830 0.815801 0.664207
O O4 0.010617 0.790851 0.337492
O O5 0.512853 0.801036 0.399617
O O6 0.134903 0.911467 0.117428
O O7 0.165238 0.617178 0.165069
O O8 0.314326 0.350384 0.641954
O O9 0.072958 0.327018 0.314695
O O10 0.226400 0.178681 0.112384
O O11 0.997831 0.147545 0.116144
O O12 0.126527 0.571148 0.797268
O O13 0.314696 0.798201 0.020570
O O14 0.634456 0.880694 0.135149
O O15 0.467915 0.077621 0.145140
O O16 0.716345 0.839501 0.007111
#
# Coordination Sequence:
#
# PCOD9118985 Si02
#       8
#     2   2   2   2   2   2   2   2
#     4  11  24  44  70  97 139 179 224 281 349 412
#     4  12  24  44  70 107 136 176 224 283 347 421
#     4  11  26  44  69  99 138 181 221 281 355 407
#     4  12  21  44  73 100 136 176 219 279 356 406
#     4  12  25  44  69 105 136 175 232 289 340 414
#     4  11  25  47  69  96 137 186 234 283 338 404
#     4  11  23  47  71  97 139 184 221 286 356 402
#     4  12  26  44  69 101 135 183 239 282 333 406
#
# _framework density 20.980362
#
# number of rings (size 3 to 8) (size 9 to 14) (size 15 to 20)
#    0.000    0.500    6.250    2.250    1.750    4.000 
#    4.500    0.000    0.000    0.000    0.000    0.000 
#    0.000    0.000    0.000    0.000    0.000    0.000 
#
# Total GULP energy -89531.264205 kJ/mol
# GULP energy per Si atom -5595.704013 kJ/mol
# Density = 2.093261 g / cm^3
# Si number density = 20.980362 Si / 1000 Ang^3
#
#
#
# Elastic Constant Matrix: (Units=GPa)
#
#
# Indices 1 2 3 4 5 6 
#
# 1 119.0476 15.5000 28.8965 0.0000 4.2804 0.0000
# 2 15.5000 7.6503 0.4456 0.0000 0.7141 0.0000
# 3 28.8965 0.4456 85.0618 0.0000 -0.1538 0.0000
# 4 0.0000 0.0000 0.0000 33.5086 0.0000 -1.3654
# 5 4.2804 0.7141 -0.1538 0.0000 13.2705 0.0000
# 6 0.0000 0.0000 0.0000 -1.3654 0.0000 24.7719
#
#
#
# Elastic Compliance Matrix: (Units=1/GPa)
#
#
# Indices 1 2 3 4 5 6 
#
# 1 0.012855 -0.025535 -0.004238 0.000000 -0.002821 0.000000
# 2 -0.025535 0.182138 0.007718 0.000000 -0.001475 0.000000
# 3 -0.004238 0.007718 0.013158 0.000000 0.001104 0.000000
# 4 0.000000 0.000000 0.000000 0.029910 0.000000 0.001649
# 5 -0.002821 -0.001475 0.001104 0.000000 0.076358 0.000000
# 6 0.000000 0.000000 0.000000 0.001649 0.000000 0.040459
#
#
# Mechanical properties :
#
#
# Convention : Reuss Voigt Hill
#
# Bulk Modulus (GPa) = 6.09610 33.49379 19.79494
# Shear Modulus (GPa) = 11.02129 25.43803 18.22966
#
# Velocity S-wave (km/s) = 2.29446 3.48583 2.95089
# Velocity P-wave (km/s) = 3.15140 5.67454 4.58975
#
# Compressibility (1/GPa) = 0.16403934
#
# Stress axis : x y z
#
# Youngs Moduli (GPa) = 77.79193 5.49036 76.00221
#
# Poissons Ratio (x) = 0.14019 0.32212
# Poissons Ratio (y) = 1.98638 -0.58655
# Poissons Ratio (z) = 0.32970 -0.04237
#
# Static dielectric constant tensor:
#      x y z
#    x 1.716960 0.000000 -0.005410 
#    y 0.000000 1.789830 0.000000 
#    z -0.005410 0.000000 1.747300 
# 
# From -- ./inp_files/12543.got.cif
#   From: 2010.05.17/outbox.cif.g08.bks.cpg/sg4_7_cif.got.tgz:12543.got - 2010.06.03 18:43:04.
