data_PCOD9118565
_publ_section_title
;
Structure prediction by ZEFSAII (Michael W. Deem and Ramdas Pophale) SiO2 
 PCOD9118565
Probable space group: P 21
;
_chemical_formula_sum "Si O2"
_cell_formula_units_Z 14
_cell_length_a 13.220075
_cell_length_b 5.239670
_cell_length_c 17.705860
_cell_angle_alpha 90.000000
_cell_angle_beta 28.189549
_cell_angle_gamma 90.000000
_cell_volume 579.369434
_symmetry_space_group_name_H-M "P 21"
_symmetry_group_IT_number 4
_symmetry_cell_setting 'monoclinic'
loop_
_space_group_symop_operation_xyz
x,y,z
-x,1/2+y,-z
loop_
_atom_site_type_symbol
_atom_site_label
_atom_site_fract_x
_atom_site_fract_y
_atom_site_fract_z
Si Si1 0.982405 0.720230 0.335229
Si Si2 0.143207 0.047011 0.098419
Si Si3 0.773639 0.873110 0.737355
Si Si4 0.432998 0.944030 0.363794
Si Si5 0.432551 0.549251 0.896082
Si Si6 0.904547 0.077328 0.102060
Si Si7 0.797939 0.077216 0.566488
O O1 0.031663 0.960050 0.249730
O O2 0.189912 0.542851 0.212499
O O3 0.767648 0.561179 0.458049
O O4 0.921198 0.830286 0.456926
O O5 0.296419 0.293344 0.000318
O O6 0.036120 0.845006 0.976662
O O7 0.975300 0.095113 0.142288
O O8 0.611491 0.636200 0.839736
O O9 0.014576 0.783950 0.560700
O O10 0.707369 0.043006 0.709013
O O11 0.377174 0.648734 0.381791
O O12 0.457275 0.032733 0.259600
O O13 0.656492 0.005335 0.254976
O O14 0.272162 0.788433 0.994933
#
# Coordination Sequence:
#
# PCOD9118565 Si02
#       7
#     2   2   2   2   2   2   2
#     4  11  27  46  73 112 160 196 261 340 393 457
#     4  12  28  51  72 115 163 196 256 343 396 457
#     4  11  22  42  75 109 148 212 263 319 383 485
#     4  11  24  44  79 110 143 208 267 320 388 485
#     4  12  25  47  79 106 154 206 263 314 394 483
#     4  12  25  49  80 111 148 207 267 328 397 487
#     4  11  21  41  72 107 148 193 267 322 375 468
#
# _framework density 24.164204000000002
#
# number of rings (size 3 to 8) (size 9 to 14) (size 15 to 20)
#    0.000    0.571    5.714    1.714    8.000    0.000 
#    5.143    0.000    0.000    0.000    0.000    0.000 
#    0.000    0.000    0.000    0.000    0.000    0.000 
#
# Total GULP energy -78274.787135 kJ/mol
# GULP energy per Si atom -5591.056224 kJ/mol
# Density = 2.410920 g / cm^3
# Si number density = 24.164204 Si / 1000 Ang^3
#
#
#
# Elastic Constant Matrix: (Units=GPa)
#
#
# Indices 1 2 3 4 5 6 
#
# 1 141.2319 47.2201 57.9964 0.0000 -17.7576 0.0000
# 2 47.2201 138.0805 46.4408 0.0000 -5.1076 0.0000
# 3 57.9964 46.4408 102.3451 0.0000 -8.3057 0.0000
# 4 0.0000 0.0000 0.0000 51.2600 0.0000 -6.8432
# 5 -17.7576 -5.1076 -8.3057 0.0000 39.6662 0.0000
# 6 0.0000 0.0000 0.0000 -6.8432 0.0000 30.7349
#
#
#
# Elastic Compliance Matrix: (Units=1/GPa)
#
#
# Indices 1 2 3 4 5 6 
#
# 1 0.009958 -0.001742 -0.004587 0.000000 0.003273 0.000000
# 2 -0.001742 0.008854 -0.003054 0.000000 -0.000279 0.000000
# 3 -0.004587 -0.003054 0.013792 0.000000 0.000441 0.000000
# 4 0.000000 0.000000 0.000000 0.020106 0.000000 0.004477
# 5 0.003273 -0.000279 0.000441 0.000000 0.026732 0.000000
# 6 0.000000 0.000000 0.000000 0.004477 0.000000 0.033533
#
#
# Mechanical properties :
#
#
# Convention : Reuss Voigt Hill
#
# Bulk Modulus (GPa) = 72.25592 76.10802 74.18197
# Shear Modulus (GPa) = 36.66952 39.66558 38.16755
#
# Velocity S-wave (km/s) = 3.89975 4.05594 3.97861
# Velocity P-wave (km/s) = 7.08833 7.31428 7.20219
#
# Compressibility (1/GPa) = 0.01383970
#
# Stress axis : x y z
#
# Youngs Moduli (GPa) = 100.42120 112.93804 72.50756
#
# Poissons Ratio (x) = 0.19669 0.33260
# Poissons Ratio (y) = 0.17489 0.22141
# Poissons Ratio (z) = 0.46064 0.34487
#
# Static dielectric constant tensor:
#      x y z
#    x 1.928550 0.000000 -0.003700 
#    y 0.000000 1.998570 0.000000 
#    z -0.003700 0.000000 1.954260 
# 
# From -- ./inp_files/13822.got.cif
#   From: 2010.05.17/outbox.cif.g08.bks.cpg/sg4_7_cif.got.tgz:13822.got - 2010.06.03 18:43:04.
