data_PCOD9118243
_publ_section_title
;
Structure prediction by ZEFSAII (Michael W. Deem and Ramdas Pophale) SiO2 
 PCOD9118243
Probable space group: P 21
;
_chemical_formula_sum "Si O2"
_cell_formula_units_Z 16
_cell_length_a 24.247617
_cell_length_b 5.211994
_cell_length_c 10.002851
_cell_angle_alpha 90.000000
_cell_angle_beta 28.561110
_cell_angle_gamma 90.000000
_cell_volume 604.382259
_symmetry_space_group_name_H-M "P 21"
_symmetry_group_IT_number 4
_symmetry_cell_setting 'monoclinic'
loop_
_space_group_symop_operation_xyz
x,y,z
-x,1/2+y,-z
loop_
_atom_site_type_symbol
_atom_site_label
_atom_site_fract_x
_atom_site_fract_y
_atom_site_fract_z
Si Si1 0.654339 0.899210 0.125323
Si Si2 0.863232 0.238042 0.654164
Si Si3 0.761015 0.811995 0.366698
Si Si4 0.464363 0.607154 0.137755
Si Si5 0.171347 0.004420 0.547908
Si Si6 0.454820 0.898494 0.758228
Si Si7 0.053501 0.693759 0.035867
Si Si8 0.125788 0.042498 0.107842
O O1 0.576625 0.920208 0.422915
O O2 0.629627 0.617964 0.120669
O O3 0.594631 0.115674 0.158397
O O4 0.784572 0.996427 0.864645
O O5 0.819290 0.316395 0.598667
O O6 0.843452 0.455609 0.809047
O O7 0.001065 0.185115 0.366457
O O8 0.671748 0.045726 0.559245
O O9 0.736082 0.647158 0.554706
O O10 0.890619 0.917793 0.107193
O O11 0.773240 0.672594 0.197295
O O12 0.522469 0.474285 0.140374
O O13 0.491015 0.908498 0.071763
O O14 0.102231 0.861581 0.812421
O O15 0.083284 0.209101 0.672155
O O16 0.100370 0.785435 0.077440
#
# Coordination Sequence:
#
# PCOD9118243 Si02
#       8
#     2   2   2   2   2   2   2   2
#     4  10  25  47  81 105 146 204 248 319 376 453
#     4  12  26  44  74 113 154 194 258 318 369 458
#     4  11  27  47  77 100 153 204 243 312 400 460
#     4  12  30  50  78 114 149 194 261 331 378 454
#     4  11  22  42  70 106 142 192 249 304 371 456
#     4  10  24  51  74 108 147 196 259 308 393 447
#     4  11  21  44  68 101 144 198 247 294 379 464
#     4  11  27  45  68 113 153 200 249 306 388 466
#
# _framework density 26.473310000000001
#
# number of rings (size 3 to 8) (size 9 to 14) (size 15 to 20)
#    0.000    1.000    2.500    2.250    7.000    6.000 
#    0.000    0.000    0.000    0.000    0.000    0.000 
#    0.000    0.000    0.000    0.000    0.000    0.000 
#
# Total GULP energy -89523.298335 kJ/mol
# GULP energy per Si atom -5595.206146 kJ/mol
# Density = 2.641306 g / cm^3
# Si number density = 26.473310 Si / 1000 Ang^3
#
#
#
# Elastic Constant Matrix: (Units=GPa)
#
#
# Indices 1 2 3 4 5 6 
#
# 1 82.3557 24.8101 46.5610 0.0000 12.6884 0.0000
# 2 24.8101 91.2150 22.6065 0.0000 1.6699 0.0000
# 3 46.5610 22.6065 87.2669 0.0000 -15.4083 0.0000
# 4 0.0000 0.0000 0.0000 38.4962 0.0000 -5.5539
# 5 12.6884 1.6699 -15.4083 0.0000 27.7430 0.0000
# 6 0.0000 0.0000 0.0000 -5.5539 0.0000 30.6706
#
#
#
# Elastic Compliance Matrix: (Units=1/GPa)
#
#
# Indices 1 2 3 4 5 6 
#
# 1 0.025461 -0.002428 -0.016615 0.000000 -0.020726 0.000000
# 2 -0.002428 0.012125 -0.001972 0.000000 -0.000715 0.000000
# 3 -0.016615 -0.001972 0.024611 0.000000 0.021386 0.000000
# 4 0.000000 0.000000 0.000000 0.026673 0.000000 0.004830
# 5 -0.020726 -0.000715 0.021386 0.000000 0.057445 0.000000
# 6 0.000000 0.000000 0.000000 0.004830 0.000000 0.033479
#
#
# Mechanical properties :
#
#
# Convention : Reuss Voigt Hill
#
# Bulk Modulus (GPa) = 49.58526 49.86585 49.72556
# Shear Modulus (GPa) = 21.87738 30.50596 26.19167
#
# Velocity S-wave (km/s) = 2.87783 3.39828 3.14882
# Velocity P-wave (km/s) = 5.46017 5.85448 5.66076
#
# Compressibility (1/GPa) = 0.02016728
#
# Stress axis : x y z
#
# Youngs Moduli (GPa) = 39.27624 82.47239 40.63246
#
# Poissons Ratio (x) = 0.20024 0.67511
# Poissons Ratio (y) = 0.09536 0.08012
# Poissons Ratio (z) = 0.65258 0.16262
#
# Static dielectric constant tensor:
#      x y z
#    x 2.074640 0.000000 -0.026560 
#    y 0.000000 2.087810 0.000000 
#    z -0.026560 0.000000 2.115460 
# 
# From -- ./inp_files/9993.got.cif
#   From: 2010.05.17/outbox.cif.g08.bks.cpg/sg4_5_cif.got.tgz:9993.got - 2010.06.03 18:43:04.
