data_PCOD9118333
_publ_section_title
;
Structure prediction by ZEFSAII (Michael W. Deem and Ramdas Pophale) SiO2 
 PCOD9118333
Probable space group: P 21
;
_chemical_formula_sum "Si O2"
_cell_formula_units_Z 14
_cell_length_a 13.787486
_cell_length_b 9.420653
_cell_length_c 5.419956
_cell_angle_alpha 90.000000
_cell_angle_beta 132.404575
_cell_angle_gamma 90.000000
_cell_volume 519.821718
_symmetry_space_group_name_H-M "P 21"
_symmetry_group_IT_number 4
_symmetry_cell_setting 'monoclinic'
loop_
_space_group_symop_operation_xyz
x,y,z
-x,1/2+y,-z
loop_
_atom_site_type_symbol
_atom_site_label
_atom_site_fract_x
_atom_site_fract_y
_atom_site_fract_z
Si Si1 0.088596 0.274310 0.805564
Si Si2 0.549369 0.861039 0.269539
Si Si3 0.692925 0.382967 0.476779
Si Si4 0.258299 0.465445 0.768228
Si Si5 0.903622 0.493929 0.454973
Si Si6 0.512158 0.584706 0.469198
Si Si7 0.092925 0.661589 0.130099
O O1 0.202665 0.373023 0.897136
O O2 0.961560 0.346588 0.451344
O O3 0.124292 0.115831 0.786592
O O4 0.025271 0.558432 0.820868
O O5 0.683827 0.864873 0.348474
O O6 0.543795 0.748802 0.482278
O O7 0.519298 0.018452 0.319940
O O8 0.432568 0.823137 0.883027
O O9 0.784259 0.461566 0.432154
O O10 0.631898 0.491950 0.565804
O O11 0.784203 0.258181 0.739555
O O12 0.152247 0.568577 0.458985
O O13 0.382285 0.550758 0.086292
O O14 0.973053 0.757919 0.028472
#
# Coordination Sequence:
#
# PCOD9118333 Si02
#       7
#     2   2   2   2   2   2   2
#     4  11  25  44  70 106 142 186 238 300 358 435
#     4  11  26  45  74 105 141 193 238 304 358 426
#     4  10  25  47  69 101 146 180 246 299 351 436
#     4  11  25  45  71 103 146 180 247 294 353 433
#     4  11  26  44  73 104 143 191 237 297 366 432
#     4  11  26  46  74 102 141 194 237 298 366 421
#     4  11  25  45  73 103 143 190 237 300 368 427
#
# _framework density 26.932309
#
# number of rings (size 3 to 8) (size 9 to 14) (size 15 to 20)
#    0.000    1.143    2.857    0.857    8.000    6.857 
#    0.000    0.000    0.000    0.000    0.000    0.000 
#    0.000    0.000    0.000    0.000    0.000    0.000 
#
# Total GULP energy -78489.931282 kJ/mol
# GULP energy per Si atom -5606.423663 kJ/mol
# Density = 2.687101 g / cm^3
# Si number density = 26.932309 Si / 1000 Ang^3
#
#
#
# Elastic Constant Matrix: (Units=GPa)
#
#
# Indices 1 2 3 4 5 6 
#
# 1 158.9278 48.2692 21.2521 0.0000 19.9583 0.0000
# 2 48.2692 109.2072 20.8199 0.0000 10.7858 0.0000
# 3 21.2521 20.8199 113.8041 0.0000 20.1508 0.0000
# 4 0.0000 0.0000 0.0000 33.4853 0.0000 -0.4808
# 5 19.9583 10.7858 20.1508 0.0000 30.2979 0.0000
# 6 0.0000 0.0000 0.0000 -0.4808 0.0000 60.5655
#
#
#
# Elastic Compliance Matrix: (Units=1/GPa)
#
#
# Indices 1 2 3 4 5 6 
#
# 1 0.007714 -0.002987 -0.000207 0.000000 -0.003881 0.000000
# 2 -0.002987 0.010817 -0.001233 0.000000 -0.001063 0.000000
# 3 -0.000207 -0.001233 0.010144 0.000000 -0.006171 0.000000
# 4 0.000000 0.000000 0.000000 0.029867 0.000000 0.000237
# 5 -0.003881 -0.001063 -0.006171 0.000000 0.040045 0.000000
# 6 0.000000 0.000000 0.000000 0.000237 0.000000 0.016513
#
#
# Mechanical properties :
#
#
# Convention : Reuss Voigt Hill
#
# Bulk Modulus (GPa) = 50.44960 62.51350 56.48155
# Shear Modulus (GPa) = 38.29605 44.30960 41.30283
#
# Velocity S-wave (km/s) = 3.77495 4.06053 3.92034
# Velocity P-wave (km/s) = 6.14597 6.72649 6.44277
#
# Compressibility (1/GPa) = 0.01982176
#
# Stress axis : x y z
#
# Youngs Moduli (GPa) = 129.62782 92.44535 98.58071
#
# Poissons Ratio (x) = 0.27613 0.02041
# Poissons Ratio (y) = 0.38720 0.12154
# Poissons Ratio (z) = 0.02683 0.11398
#
# Static dielectric constant tensor:
#      x y z
#    x 2.054160 0.000000 -0.013460 
#    y 0.000000 2.131690 0.000000 
#    z -0.013460 0.000000 2.101410 
# 
# From -- ./inp_files/3737.got.cif
#   From: 2010.05.17/outbox.cif.g08.bks.cpg/sg4_2_cif.got.tgz:3737.got - 2010.06.03 18:43:04.
