data_PCOD9118707
_publ_section_title
;
Structure prediction by ZEFSAII (Michael W. Deem and Ramdas Pophale) SiO2 
 PCOD9118707
Probable space group: P 21
;
_chemical_formula_sum "Si O2"
_cell_formula_units_Z 10
_cell_length_a 7.043835
_cell_length_b 7.808673
_cell_length_c 8.352548
_cell_angle_alpha 90.000000
_cell_angle_beta 56.826443
_cell_angle_gamma 90.000000
_cell_volume 384.538330
_symmetry_space_group_name_H-M "P 21"
_symmetry_group_IT_number 4
_symmetry_cell_setting 'monoclinic'
loop_
_space_group_symop_operation_xyz
x,y,z
-x,1/2+y,-z
loop_
_atom_site_type_symbol
_atom_site_label
_atom_site_fract_x
_atom_site_fract_y
_atom_site_fract_z
Si Si1 0.935282 0.244580 0.032028
Si Si2 0.170104 0.204772 0.578392
Si Si3 0.426099 0.966096 0.640446
Si Si4 0.683134 0.940129 0.009969
Si Si5 0.302428 0.705650 0.288660
O O1 0.050765 0.246726 0.804323
O O2 0.139684 0.281178 0.061987
O O3 0.784043 0.071378 0.098111
O O4 0.757134 0.395108 0.149778
O O5 0.368723 0.335947 0.456225
O O6 0.962665 0.221074 0.552343
O O7 0.281501 0.017454 0.550654
O O8 0.544132 0.142641 0.637060
O O9 0.686188 0.050207 0.846989
O O10 0.433810 0.866937 0.154385
#
# Coordination Sequence:
#
# PCOD9118707 Si02
#       5
#     2   2   2   2   2
#     4  11  22  47  75 100 143 189 231 295 354 423
#     4  11  27  44  70 105 140 188 242 289 357 426
#     4  12  26  46  72 102 146 188 240 292 359 418
#     4  11  22  43  77 107 142 186 241 284 365 420
#     4  11  23  46  70 108 141 185 240 296 349 429
#
# _framework density 26.005213000000001
#
# number of rings (size 3 to 8) (size 9 to 14) (size 15 to 20)
#    0.000    0.800    6.000    2.400    2.800    3.200 
#    0.000    0.000    0.000    0.000    0.000    0.000 
#    0.000    0.000    0.000    0.000    0.000    0.000 
#
# Total GULP energy -55959.222264 kJ/mol
# GULP energy per Si atom -5595.922226 kJ/mol
# Density = 2.594602 g / cm^3
# Si number density = 26.005213 Si / 1000 Ang^3
#
#
#
# Elastic Constant Matrix: (Units=GPa)
#
#
# Indices 1 2 3 4 5 6 
#
# 1 128.5831 25.8116 27.9166 0.0000 -38.3611 0.0000
# 2 25.8116 76.5707 13.1683 0.0000 -14.0448 0.0000
# 3 27.9166 13.1683 96.8500 0.0000 -36.1005 0.0000
# 4 0.0000 0.0000 0.0000 47.3733 0.0000 -19.0465
# 5 -38.3611 -14.0448 -36.1005 0.0000 48.4966 0.0000
# 6 0.0000 0.0000 0.0000 -19.0465 0.0000 66.0068
#
#
#
# Elastic Compliance Matrix: (Units=1/GPa)
#
#
# Indices 1 2 3 4 5 6 
#
# 1 0.010500 -0.002136 0.000179 0.000000 0.007820 0.000000
# 2 -0.002136 0.014247 -0.000572 0.000000 0.002011 0.000000
# 3 0.000179 -0.000572 0.014314 0.000000 0.010631 0.000000
# 4 0.000000 0.000000 0.000000 0.023879 0.000000 0.006890
# 5 0.007820 0.002011 0.010631 0.000000 0.035302 0.000000
# 6 0.000000 0.000000 0.000000 0.006890 0.000000 0.017138
#
#
# Mechanical properties :
#
#
# Convention : Reuss Voigt Hill
#
# Bulk Modulus (GPa) = 29.40915 48.42184 38.91549
# Shear Modulus (GPa) = 37.94407 48.04918 42.99662
#
# Velocity S-wave (km/s) = 3.82395 4.30312 4.07059
# Velocity P-wave (km/s) = 5.55251 6.58404 6.09015
#
# Compressibility (1/GPa) = 0.03400303
#
# Stress axis : x y z
#
# Youngs Moduli (GPa) = 95.23780 70.19025 69.86066
#
# Poissons Ratio (x) = 0.14992 -0.01249
# Poissons Ratio (y) = 0.20342 0.03996
# Poissons Ratio (z) = -0.01702 0.04015
#
# Static dielectric constant tensor:
#      x y z
#    x 2.092000 0.000000 0.009690 
#    y 0.000000 2.091670 0.000000 
#    z 0.009690 0.000000 1.996500 
# 
# From -- ./inp_files/10768.got.cif
#   From: 2010.05.17/outbox.cif.g08.bks.cpg/sg4_6_cif.got.tgz:10768.got - 2010.06.03 18:43:04.
