data_PCOD9118308
_publ_section_title
;
Structure prediction by ZEFSAII (Michael W. Deem and Ramdas Pophale) SiO2 
 PCOD9118308
Probable space group: P 21
;
_chemical_formula_sum "Si O2"
_cell_formula_units_Z 16
_cell_length_a 5.290379
_cell_length_b 11.775744
_cell_length_c 11.324803
_cell_angle_alpha 90.000000
_cell_angle_beta 112.005623
_cell_angle_gamma 90.000000
_cell_volume 654.115492
_symmetry_space_group_name_H-M "P 21"
_symmetry_group_IT_number 4
_symmetry_cell_setting 'monoclinic'
loop_
_space_group_symop_operation_xyz
x,y,z
-x,1/2+y,-z
loop_
_atom_site_type_symbol
_atom_site_label
_atom_site_fract_x
_atom_site_fract_y
_atom_site_fract_z
Si Si1 0.605648 0.672610 0.130363
Si Si2 0.307579 0.620583 0.856039
Si Si3 0.112166 0.310653 0.463923
Si Si4 0.498979 0.729873 0.680925
Si Si5 0.932463 0.032444 0.674681
Si Si6 0.042532 0.342172 0.121468
Si Si7 0.022722 0.388016 0.848830
Si Si8 0.399072 0.736033 0.312567
O O1 0.740682 0.793465 0.126610
O O2 0.347802 0.693611 0.169086
O O3 0.791984 0.600254 0.252088
O O4 0.535754 0.611055 0.997488
O O5 0.428542 0.618753 0.744664
O O6 0.111973 0.514174 0.835559
O O7 0.144338 0.737638 0.862447
O O8 0.285951 0.248816 0.387547
O O9 0.101523 0.445293 0.438165
O O10 0.298099 0.276611 0.605977
O O11 0.797915 0.273448 0.410787
O O12 0.644026 0.799601 0.813541
O O13 0.700486 0.128389 0.630308
O O14 0.942401 0.947876 0.787798
O O15 0.958353 0.381089 0.977179
O O16 0.791506 0.345690 0.717814
#
# Coordination Sequence:
#
# PCOD9118308 Si02
#       8
#     2   2   2   2   2   2   2   2
#     4  11  25  43  71 111 147 192 243 310 387 443
#     4  12  24  42  76 111 149 193 244 315 378 449
#     4  11  27  48  77 101 152 196 257 296 355 450
#     4  11  24  47  73 108 138 195 247 301 359 438
#     4  10  25  45  75 102 143 202 243 306 371 444
#     4  11  23  45  72 110 150 188 252 299 387 441
#     4  11  26  41  69 112 149 188 240 316 376 444
#     4  11  26  49  67 109 148 198 248 305 373 437
#
# _framework density 24.460515999999998
#
# number of rings (size 3 to 8) (size 9 to 14) (size 15 to 20)
#    0.000    1.000    5.000    0.750   12.250    2.000 
#    2.250    0.000    0.000    0.000    0.000    0.000 
#    0.000    0.000    0.000    0.000    0.000    0.000 
#
# Total GULP energy -89329.815809 kJ/mol
# GULP energy per Si atom -5583.113488 kJ/mol
# Density = 2.440484 g / cm^3
# Si number density = 24.460516 Si / 1000 Ang^3
#
#
#
# Elastic Constant Matrix: (Units=GPa)
#
#
# Indices 1 2 3 4 5 6 
#
# 1 83.5745 23.6084 13.0637 0.0000 10.3990 0.0000
# 2 23.6084 93.6743 33.2847 0.0000 -1.2034 0.0000
# 3 13.0637 33.2847 68.8398 0.0000 11.0396 0.0000
# 4 0.0000 0.0000 0.0000 33.0499 0.0000 -6.0558
# 5 10.3990 -1.2034 11.0396 0.0000 41.9035 0.0000
# 6 0.0000 0.0000 0.0000 -6.0558 0.0000 17.6439
#
#
#
# Elastic Compliance Matrix: (Units=1/GPa)
#
#
# Indices 1 2 3 4 5 6 
#
# 1 0.013363 -0.003256 -0.000433 0.000000 -0.003296 0.000000
# 2 -0.003256 0.013863 -0.006555 0.000000 0.002933 0.000000
# 3 -0.000433 -0.006555 0.018576 0.000000 -0.004975 0.000000
# 4 0.000000 0.000000 0.000000 0.032288 0.000000 0.011082
# 5 -0.003296 0.002933 -0.004975 0.000000 0.026077 0.000000
# 6 0.000000 0.000000 0.000000 0.011082 0.000000 0.060480
#
#
# Mechanical properties :
#
#
# Convention : Reuss Voigt Hill
#
# Bulk Modulus (GPa) = 39.50571 42.88914 41.19743
# Shear Modulus (GPa) = 25.82992 30.26156 28.04574
#
# Velocity S-wave (km/s) = 3.25312 3.52114 3.38978
# Velocity P-wave (km/s) = 5.50420 5.83981 5.67449
#
# Compressibility (1/GPa) = 0.02531280
#
# Stress axis : x y z
#
# Youngs Moduli (GPa) = 74.83360 72.13489 53.83299
#
# Poissons Ratio (x) = 0.23490 0.02330
# Poissons Ratio (y) = 0.24368 0.35289
# Poissons Ratio (z) = 0.03239 0.47287
#
# Static dielectric constant tensor:
#      x y z
#    x 2.105690 0.000000 -0.058140 
#    y 0.000000 1.962250 0.000000 
#    z -0.058140 0.000000 2.030100 
# 
# From -- ./inp_files/10429.got.cif
#   From: 2010.05.17/outbox.cif.g08.bks.cpg/sg4_6_cif.got.tgz:10429.got - 2010.06.03 18:43:04.
