data_PCOD9118863
_publ_section_title
;
Structure prediction by ZEFSAII (Michael W. Deem and Ramdas Pophale) SiO2 
 PCOD9118863
Probable space group: P 21
;
_chemical_formula_sum "Si O2"
_cell_formula_units_Z 16
_cell_length_a 11.748480
_cell_length_b 8.064770
_cell_length_c 14.880301
_cell_angle_alpha 90.000000
_cell_angle_beta 27.895434
_cell_angle_gamma 90.000000
_cell_volume 659.630501
_symmetry_space_group_name_H-M "P 21"
_symmetry_group_IT_number 4
_symmetry_cell_setting 'monoclinic'
loop_
_space_group_symop_operation_xyz
x,y,z
-x,1/2+y,-z
loop_
_atom_site_type_symbol
_atom_site_label
_atom_site_fract_x
_atom_site_fract_y
_atom_site_fract_z
Si Si1 0.733350 0.685420 0.275952
Si Si2 0.690677 0.445327 0.754108
Si Si3 0.548112 0.332736 0.040796
Si Si4 0.909091 0.055797 0.101554
Si Si5 0.836226 0.134458 0.342809
Si Si6 0.927016 0.749801 0.329435
Si Si7 0.521564 0.196767 0.233359
Si Si8 0.986514 0.220528 0.428352
O O1 0.446918 0.663777 0.477125
O O2 0.843221 0.656519 0.297981
O O3 0.807140 0.872668 0.194763
O O4 0.848397 0.556888 0.126178
O O5 0.512128 0.545323 0.812926
O O6 0.951912 0.534088 0.584978
O O7 0.773749 0.284064 0.641642
O O8 0.578785 0.448405 0.932144
O O9 0.592809 0.350284 0.117897
O O10 0.261829 0.291626 0.241657
O O11 0.790287 0.222384 0.848164
O O12 0.714208 0.152221 0.175099
O O13 0.956172 0.153155 0.161675
O O14 0.890935 0.944812 0.332749
O O15 0.913640 0.238910 0.375189
O O16 0.741878 0.712217 0.537958
#
# Coordination Sequence:
#
# PCOD9118863 Si02
#       8
#     2   2   2   2   2   2   2   2
#     4  11  25  44  72 105 144 186 239 295 347 432
#     4  11  25  46  69 106 136 185 239 293 360 418
#     4  11  23  43  69 102 135 186 235 286 352 426
#     4  11  25  45  71 109 139 191 239 284 368 419
#     4  11  25  45  71 107 146 183 240 300 355 424
#     4  11  23  46  72 101 144 191 234 291 364 424
#     4  11  24  45  73 100 144 188 236 293 359 427
#     4  11  26  46  71 102 144 186 236 300 353 430
#
# _framework density 24.256003
#
# number of rings (size 3 to 8) (size 9 to 14) (size 15 to 20)
#    0.000    1.000    3.750    2.250    1.750    6.000 
#    2.250    0.000    0.000    0.000    0.000    0.000 
#    0.000    0.000    0.000    0.000    0.000    0.000 
#
# Total GULP energy -89296.372364 kJ/mol
# GULP energy per Si atom -5581.023273 kJ/mol
# Density = 2.420080 g / cm^3
# Si number density = 24.256003 Si / 1000 Ang^3
#
#
#
# Elastic Constant Matrix: (Units=GPa)
#
#
# Indices 1 2 3 4 5 6 
#
# 1 116.7062 13.8632 -5.6889 0.0000 19.5788 0.0000
# 2 13.8632 29.8702 13.8922 0.0000 13.0870 0.0000
# 3 -5.6889 13.8922 92.4639 0.0000 24.1350 0.0000
# 4 0.0000 0.0000 0.0000 37.6293 0.0000 3.6340
# 5 19.5788 13.0870 24.1350 0.0000 54.0103 0.0000
# 6 0.0000 0.0000 0.0000 3.6340 0.0000 31.4235
#
#
#
# Elastic Compliance Matrix: (Units=1/GPa)
#
#
# Indices 1 2 3 4 5 6 
#
# 1 0.009731 -0.003959 0.002110 0.000000 -0.003511 0.000000
# 2 -0.003959 0.040211 -0.004660 0.000000 -0.006226 0.000000
# 3 0.002110 -0.004660 0.013075 0.000000 -0.005478 0.000000
# 4 0.000000 0.000000 0.000000 0.026875 0.000000 -0.003108
# 5 -0.003511 -0.006226 -0.005478 0.000000 0.023744 0.000000
# 6 0.000000 0.000000 0.000000 -0.003108 0.000000 0.032183
#
#
# Mechanical properties :
#
#
# Convention : Reuss Voigt Hill
#
# Bulk Modulus (GPa) = 20.00092 31.46371 25.73231
# Shear Modulus (GPa) = 28.48955 39.07754 33.78354
#
# Velocity S-wave (km/s) = 3.43087 4.01814 3.73606
# Velocity P-wave (km/s) = 4.89470 5.87596 5.40764
#
# Compressibility (1/GPa) = 0.04999771
#
# Stress axis : x y z
#
# Youngs Moduli (GPa) = 102.76781 24.86905 76.48199
#
# Poissons Ratio (x) = 0.09846 -0.16137
# Poissons Ratio (y) = 0.40688 0.35641
# Poissons Ratio (z) = -0.21684 0.11589
#
# Static dielectric constant tensor:
#      x y z
#    x 1.965300 0.000000 0.039780 
#    y 0.000000 2.106460 0.000000 
#    z 0.039780 0.000000 1.889730 
# 
# From -- ./inp_files/13941.got.cif
#   From: 2010.05.17/outbox.cif.g08.bks.cpg/sg4_7_cif.got.tgz:13941.got - 2010.06.03 18:43:04.
