data_PCOD9118990
_publ_section_title
;
Structure prediction by ZEFSAII (Michael W. Deem and Ramdas Pophale) SiO2 
 PCOD9118990
Probable space group: P 21
;
_chemical_formula_sum "Si O2"
_cell_formula_units_Z 16
_cell_length_a 16.623739
_cell_length_b 9.599008
_cell_length_c 11.492335
_cell_angle_alpha 90.000000
_cell_angle_beta 20.806176
_cell_angle_gamma 90.000000
_cell_volume 651.396989
_symmetry_space_group_name_H-M "P 21"
_symmetry_group_IT_number 4
_symmetry_cell_setting 'monoclinic'
loop_
_space_group_symop_operation_xyz
x,y,z
-x,1/2+y,-z
loop_
_atom_site_type_symbol
_atom_site_label
_atom_site_fract_x
_atom_site_fract_y
_atom_site_fract_z
Si Si1 0.024326 0.083890 0.810140
Si Si2 0.046364 0.637709 0.484551
Si Si3 0.233373 0.855282 0.826324
Si Si4 0.704597 0.335387 0.532951
Si Si5 0.768127 0.840022 0.724117
Si Si6 0.039629 0.146031 0.146279
Si Si7 0.547253 0.768078 0.777885
Si Si8 0.324551 0.379418 0.629905
O O1 0.261694 0.156203 0.521313
O O2 0.137490 0.942607 0.604903
O O3 0.870907 0.214516 0.976352
O O4 0.845803 0.009320 0.137416
O O5 0.073759 0.471984 0.462488
O O6 0.918530 0.682076 0.775839
O O7 0.900850 0.698054 0.575040
O O8 0.300481 0.702117 0.132699
O O9 0.238100 0.843564 0.680833
O O10 0.480538 0.891857 0.538063
O O11 0.083348 0.986156 0.063690
O O12 0.779154 0.184948 0.476738
O O13 0.444341 0.359953 0.903868
O O14 0.651697 0.831027 0.754806
O O15 0.186041 0.242688 0.861498
O O16 0.551995 0.868142 0.660447
#
# Coordination Sequence:
#
# PCOD9118990 Si02
#       8
#     2   2   2   2   2   2   2   2
#     4  11  24  46  74 104 152 202 244 325 384 452
#     4  12  29  52  78 117 156 208 269 321 400 477
#     4  12  24  44  76 116 151 196 267 322 381 468
#     4  11  23  47  73 107 155 209 252 319 397 463
#     4  12  29  52  80 113 162 208 260 330 395 479
#     4  11  25  49  73 110 155 201 264 317 392 469
#     4  12  27  51  79 118 155 206 262 324 390 475
#     4  11  27  47  77 113 154 202 262 322 393 463
#
# _framework density 24.562591999999999
#
# number of rings (size 3 to 8) (size 9 to 14) (size 15 to 20)
#    0.000    0.500    2.500    5.250    3.500    6.000 
#    2.250    0.000    0.000    0.000    0.000    0.000 
#    0.000    0.000    0.000    0.000    0.000    0.000 
#
# Total GULP energy -89387.508219 kJ/mol
# GULP energy per Si atom -5586.719264 kJ/mol
# Density = 2.450669 g / cm^3
# Si number density = 24.562592 Si / 1000 Ang^3
#
#
#
# Elastic Constant Matrix: (Units=GPa)
#
#
# Indices 1 2 3 4 5 6 
#
# 1 91.5159 19.6414 19.7668 0.0000 6.8005 0.0000
# 2 19.6414 112.0121 25.4972 0.0000 1.0745 0.0000
# 3 19.7668 25.4972 85.1880 0.0000 10.3554 0.0000
# 4 0.0000 0.0000 0.0000 39.1941 0.0000 -5.4643
# 5 6.8005 1.0745 10.3554 0.0000 40.1373 0.0000
# 6 0.0000 0.0000 0.0000 -5.4643 0.0000 19.2585
#
#
#
# Elastic Compliance Matrix: (Units=1/GPa)
#
#
# Indices 1 2 3 4 5 6 
#
# 1 0.011825 -0.001582 -0.002098 0.000000 -0.001420 0.000000
# 2 -0.001582 0.009802 -0.002650 0.000000 0.000690 0.000000
# 3 -0.002098 -0.002650 0.013387 0.000000 -0.003027 0.000000
# 4 0.000000 0.000000 0.000000 0.026565 0.000000 0.007537
# 5 -0.001420 0.000690 -0.003027 0.000000 0.025918 0.000000
# 6 0.000000 0.000000 0.000000 0.007537 0.000000 0.054064
#
#
# Mechanical properties :
#
#
# Convention : Reuss Voigt Hill
#
# Bulk Modulus (GPa) = 44.73694 46.50298 45.61996
# Shear Modulus (GPa) = 30.92684 34.63869 32.78276
#
# Velocity S-wave (km/s) = 3.55223 3.75937 3.65727
# Velocity P-wave (km/s) = 5.92262 6.14958 6.03717
#
# Compressibility (1/GPa) = 0.02235289
#
# Stress axis : x y z
#
# Youngs Moduli (GPa) = 84.56450 102.02237 74.70068
#
# Poissons Ratio (x) = 0.16145 0.15670
# Poissons Ratio (y) = 0.13382 0.19798
# Poissons Ratio (z) = 0.17739 0.27039
#
# Static dielectric constant tensor:
#      x y z
#    x 1.970010 0.000000 -0.021070 
#    y 0.000000 2.008220 0.000000 
#    z -0.021070 0.000000 1.994420 
# 
# From -- ./inp_files/12900.got.cif
#   From: 2010.05.17/outbox.cif.g08.bks.cpg/sg4_7_cif.got.tgz:12900.got - 2010.06.03 18:43:04.
