data_PCOD9118770
_publ_section_title
;
Structure prediction by ZEFSAII (Michael W. Deem and Ramdas Pophale) SiO2 
 PCOD9118770
Probable space group: P 21
;
_chemical_formula_sum "Si O2"
_cell_formula_units_Z 14
_cell_length_a 5.431881
_cell_length_b 9.911278
_cell_length_c 15.263828
_cell_angle_alpha 90.000000
_cell_angle_beta 139.431384
_cell_angle_gamma 90.000000
_cell_volume 534.436370
_symmetry_space_group_name_H-M "P 21"
_symmetry_group_IT_number 4
_symmetry_cell_setting 'monoclinic'
loop_
_space_group_symop_operation_xyz
x,y,z
-x,1/2+y,-z
loop_
_atom_site_type_symbol
_atom_site_label
_atom_site_fract_x
_atom_site_fract_y
_atom_site_fract_z
Si Si1 0.444497 0.088400 0.463331
Si Si2 0.520667 0.146744 0.827295
Si Si3 0.392740 0.496417 0.309604
Si Si4 0.178177 0.408298 0.799128
Si Si5 0.337060 0.147950 0.119912
Si Si6 0.593498 0.390383 0.087397
Si Si7 0.201215 0.735999 0.599466
O O1 0.717698 0.168974 0.472367
O O2 0.155194 0.184985 0.440461
O O3 0.654389 0.014661 0.599605
O O4 0.189954 0.983878 0.337686
O O5 0.217966 0.255974 0.776090
O O6 0.551833 0.131366 0.731644
O O7 0.470072 0.996935 0.852144
O O8 0.917637 0.185860 0.978811
O O9 0.749011 0.396078 0.395937
O O10 0.008536 0.432347 0.167069
O O11 0.532310 0.495133 0.857589
O O12 0.268311 0.407496 0.926811
O O13 0.592277 0.239959 0.124215
O O14 0.444265 0.187368 0.246212
#
# Coordination Sequence:
#
# PCOD9118770 Si02
#       7
#     2   2   2   2   2   2   2
#     4  11  29  47  78 106 154 203 252 316 378 458
#     4  12  25  43  73 113 148 186 262 320 379 444
#     4  12  27  47  74 109 147 205 250 316 380 457
#     4  11  24  44  70 112 144 195 252 315 376 450
#     4  11  22  47  75 108 146 202 246 314 381 457
#     4  12  24  47  77 108 151 198 255 315 390 451
#     4  11  25  51  75 104 154 201 257 302 390 457
#
# _framework density 26.195820000000001
#
# number of rings (size 3 to 8) (size 9 to 14) (size 15 to 20)
#    0.000    0.571    2.857    5.143    4.000    1.143 
#    2.571    0.000    0.000    0.000    0.000    0.000 
#    0.000    0.000    0.000    0.000    0.000    0.000 
#
# Total GULP energy -78486.869389 kJ/mol
# GULP energy per Si atom -5606.204956 kJ/mol
# Density = 2.613620 g / cm^3
# Si number density = 26.195820 Si / 1000 Ang^3
#
#
#
# Elastic Constant Matrix: (Units=GPa)
#
#
# Indices 1 2 3 4 5 6 
#
# 1 100.5621 18.8683 31.3450 0.0000 -7.2459 0.0000
# 2 18.8683 62.0977 20.1868 0.0000 -8.3191 0.0000
# 3 31.3450 20.1868 152.3517 0.0000 -17.7591 0.0000
# 4 0.0000 0.0000 0.0000 25.3305 0.0000 -11.5639
# 5 -7.2459 -8.3191 -17.7591 0.0000 51.8067 0.0000
# 6 0.0000 0.0000 0.0000 -11.5639 0.0000 44.4018
#
#
#
# Elastic Compliance Matrix: (Units=1/GPa)
#
#
# Indices 1 2 3 4 5 6 
#
# 1 0.011065 -0.002692 -0.001864 0.000000 0.000476 0.000000
# 2 -0.002692 0.017689 -0.001565 0.000000 0.001927 0.000000
# 3 -0.001864 -0.001565 0.007390 0.000000 0.002021 0.000000
# 4 0.000000 0.000000 0.000000 0.044805 0.000000 0.011669
# 5 0.000476 0.001927 0.002021 0.000000 0.020372 0.000000
# 6 0.000000 0.000000 0.000000 0.011669 0.000000 0.025561
#
#
# Mechanical properties :
#
#
# Convention : Reuss Voigt Hill
#
# Bulk Modulus (GPa) = 41.84027 50.64574 46.24301
# Shear Modulus (GPa) = 33.99253 40.61521 37.30387
#
# Velocity S-wave (km/s) = 3.60617 3.94184 3.77774
# Velocity P-wave (km/s) = 5.77461 6.33190 6.05967
#
# Compressibility (1/GPa) = 0.02390042
#
# Stress axis : x y z
#
# Youngs Moduli (GPa) = 90.37815 56.53332 135.31221
#
# Poissons Ratio (x) = 0.15220 0.25225
# Poissons Ratio (y) = 0.24331 0.21179
# Poissons Ratio (z) = 0.16849 0.08849
#
# Static dielectric constant tensor:
#      x y z
#    x 2.052940 0.000000 0.033610 
#    y 0.000000 2.048940 0.000000 
#    z 0.033610 0.000000 2.036140 
# 
# From -- ./inp_files/2656.got.cif
#   From: 2010.05.17/outbox.cif.g08.bks.cpg/sg4_2_cif.got.tgz:2656.got - 2010.06.03 18:43:04.
