data_PCOD9118881
_publ_section_title
;
Structure prediction by ZEFSAII (Michael W. Deem and Ramdas Pophale) SiO2 
 PCOD9118881
Probable space group: P 21
;
_chemical_formula_sum "Si O2"
_cell_formula_units_Z 16
_cell_length_a 9.331146
_cell_length_b 12.852579
_cell_length_c 6.618806
_cell_angle_alpha 90.000000
_cell_angle_beta 66.421677
_cell_angle_gamma 90.000000
_cell_volume 727.518571
_symmetry_space_group_name_H-M "P 21"
_symmetry_group_IT_number 4
_symmetry_cell_setting 'monoclinic'
loop_
_space_group_symop_operation_xyz
x,y,z
-x,1/2+y,-z
loop_
_atom_site_type_symbol
_atom_site_label
_atom_site_fract_x
_atom_site_fract_y
_atom_site_fract_z
Si Si1 0.504178 0.000000 0.227663
Si Si2 0.540809 0.297760 0.510980
Si Si3 0.857131 0.995902 0.187665
Si Si4 0.632085 0.442724 0.100845
Si Si5 0.009512 0.549675 0.296249
Si Si6 0.300690 0.131892 0.627034
Si Si7 0.072368 0.881826 0.340824
Si Si8 0.164070 0.676167 0.512260
O O1 0.675265 0.003472 0.232637
O O2 0.400013 0.093295 0.375486
O O3 0.434473 0.892421 0.350898
O O4 0.488423 0.987692 0.996970
O O5 0.562600 0.350597 0.279530
O O6 0.377592 0.240718 0.640614
O O7 0.672070 0.213699 0.492519
O O8 0.907151 0.104221 0.270321
O O9 0.914229 0.904858 0.303622
O O10 0.944876 0.987720 0.927123
O O11 0.675945 0.539860 0.221108
O O12 0.783747 0.397597 0.896596
O O13 0.882509 0.636457 0.312198
O O14 0.922907 0.475180 0.501162
O O15 0.159248 0.599416 0.321827
O O16 0.080399 0.778200 0.470756
#
# Coordination Sequence:
#
# PCOD9118881 Si02
#       8
#     2   2   2   2   2   2   2   2
#     4  11  24  44  69 101 134 177 234 280 344 410
#     4  11  25  42  67 102 137 176 231 286 341 417
#     4  11  26  43  69 107 136 183 227 294 345 412
#     4  11  23  43  73  95 134 186 222 283 353 399
#     4  11  25  44  70 100 141 178 228 284 351 410
#     4  11  23  45  68  98 139 173 227 286 335 421
#     4  11  23  46  68  97 138 182 229 276 350 420
#     4  11  25  43  70  98 137 181 232 279 347 413
#
# _framework density 21.992564999999999
#
# number of rings (size 3 to 8) (size 9 to 14) (size 15 to 20)
#    0.000    1.000    5.000    0.750    5.250    2.000 
#    0.000    0.000    0.000    0.000    0.000    0.000 
#    0.000    0.000    0.000    0.000    0.000    0.000 
#
# Total GULP energy -89320.989086 kJ/mol
# GULP energy per Si atom -5582.561818 kJ/mol
# Density = 2.194251 g / cm^3
# Si number density = 21.992565 Si / 1000 Ang^3
#
#
#
# Elastic Constant Matrix: (Units=GPa)
#
#
# Indices 1 2 3 4 5 6 
#
# 1 86.7625 4.2476 24.8274 0.0000 20.8120 0.0000
# 2 4.2476 54.0779 4.0777 0.0000 12.0257 0.0000
# 3 24.8274 4.0777 72.4716 0.0000 20.4130 0.0000
# 4 0.0000 0.0000 0.0000 21.7796 0.0000 3.0191
# 5 20.8120 12.0257 20.4130 0.0000 33.6385 0.0000
# 6 0.0000 0.0000 0.0000 3.0191 0.0000 40.4731
#
#
#
# Elastic Compliance Matrix: (Units=1/GPa)
#
#
# Indices 1 2 3 4 5 6 
#
# 1 0.014029 0.000718 -0.002810 0.000000 -0.007232 0.000000
# 2 0.000718 0.020196 0.000936 0.000000 -0.008232 0.000000
# 3 -0.002810 0.000936 0.017264 0.000000 -0.009073 0.000000
# 4 0.000000 0.000000 0.000000 0.046394 0.000000 -0.003461
# 5 -0.007232 -0.008232 -0.009073 0.000000 0.042651 0.000000
# 6 0.000000 0.000000 0.000000 -0.003461 0.000000 0.024966
#
#
# Mechanical properties :
#
#
# Convention : Reuss Voigt Hill
#
# Bulk Modulus (GPa) = 20.33410 31.06858 25.70134
# Shear Modulus (GPa) = 27.14404 31.18886 29.16645
#
# Velocity S-wave (km/s) = 3.51698 3.76992 3.64565
# Velocity P-wave (km/s) = 5.07525 5.75389 5.42520
#
# Compressibility (1/GPa) = 0.04917848
#
# Stress axis : x y z
#
# Youngs Moduli (GPa) = 71.27987 49.51589 57.92442
#
# Poissons Ratio (x) = -0.03556 0.16275
# Poissons Ratio (y) = -0.05118 -0.05425
# Poissons Ratio (z) = 0.20027 -0.04637
#
# Static dielectric constant tensor:
#      x y z
#    x 1.857200 0.000000 0.007540 
#    y 0.000000 1.800750 0.000000 
#    z 0.007540 0.000000 1.775280 
# 
# From -- ./inp_files/1535.got.cif
#   From: 2010.05.17/outbox.cif.g08.bks.cpg/sg4_1_cif.got.tgz:1535.got - 2010.06.03 18:43:04.
