data_PCOD9118231
_publ_section_title
;
Structure prediction by ZEFSAII (Michael W. Deem and Ramdas Pophale) SiO2 
 PCOD9118231
Probable space group: P 21
;
_chemical_formula_sum "Si O2"
_cell_formula_units_Z 16
_cell_length_a 7.450090
_cell_length_b 5.460394
_cell_length_c 19.284457
_cell_angle_alpha 90.000000
_cell_angle_beta 131.344489
_cell_angle_gamma 90.000000
_cell_volume 588.964451
_symmetry_space_group_name_H-M "P 21"
_symmetry_group_IT_number 4
_symmetry_cell_setting 'monoclinic'
loop_
_space_group_symop_operation_xyz
x,y,z
-x,1/2+y,-z
loop_
_atom_site_type_symbol
_atom_site_label
_atom_site_fract_x
_atom_site_fract_y
_atom_site_fract_z
Si Si1 0.818082 0.645140 0.073147
Si Si2 0.613600 0.275575 0.559407
Si Si3 0.382587 0.111004 0.316746
Si Si4 0.075796 0.736710 0.717294
Si Si5 0.819870 0.732109 0.282119
Si Si6 0.671907 0.269799 0.802844
Si Si7 0.096394 0.776654 0.557396
Si Si8 0.325861 0.648977 0.033697
O O1 0.833122 0.728203 0.697067
O O2 0.806527 0.383792 0.032784
O O3 0.787599 0.886096 0.015998
O O4 0.586512 0.659228 0.063332
O O5 0.490949 0.020398 0.505673
O O6 0.901666 0.251282 0.623223
O O7 0.579497 0.355989 0.630636
O O8 0.089296 0.664534 0.171533
O O9 0.621484 0.261513 0.381747
O O10 0.321363 0.050598 0.221913
O O11 0.202354 0.986228 0.766720
O O12 0.216287 0.487626 0.766860
O O13 0.043790 0.753077 0.625963
O O14 0.609346 0.713235 0.284389
O O15 0.683450 0.198066 0.886270
O O16 0.000099 0.528584 0.497683
#
# Coordination Sequence:
#
# PCOD9118231 Si02
#       8
#     2   2   2   2   2   2   2   2
#     4  10  24  49  81 117 149 211 241 293 382 465
#     4  11  26  48  72  97 139 201 253 315 374 457
#     4  11  29  45  75 108 143 199 255 311 401 449
#     4  11  26  53  64 100 149 184 253 312 379 467
#     4  11  26  48  72 106 148 192 255 318 391 436
#     4  12  26  49  78 117 158 196 247 332 371 463
#     4  12  29  46  73 100 137 194 258 324 386 454
#     4  10  24  50  79 115 159 197 252 291 372 477
#
# _framework density 27.166326000000002
#
# number of rings (size 3 to 8) (size 9 to 14) (size 15 to 20)
#    0.000    1.000    1.250    3.000   12.250    4.000 
#    4.500    0.000    0.000    0.000    0.000    0.000 
#    0.000    0.000    0.000    0.000    0.000    0.000 
#
# Total GULP energy -89615.268427 kJ/mol
# GULP energy per Si atom -5600.954277 kJ/mol
# Density = 2.710449 g / cm^3
# Si number density = 27.166326 Si / 1000 Ang^3
#
#
#
# Elastic Constant Matrix: (Units=GPa)
#
#
# Indices 1 2 3 4 5 6 
#
# 1 204.4505 51.3646 37.4364 0.0000 27.0846 0.0000
# 2 51.3646 222.3449 54.0580 0.0000 0.2000 0.0000
# 3 37.4364 54.0580 81.8486 0.0000 -2.4165 0.0000
# 4 0.0000 0.0000 0.0000 27.3090 0.0000 -7.3174
# 5 27.0846 0.2000 -2.4165 0.0000 53.1073 0.0000
# 6 0.0000 0.0000 0.0000 -7.3174 0.0000 40.0137
#
#
#
# Elastic Compliance Matrix: (Units=1/GPa)
#
#
# Indices 1 2 3 4 5 6 
#
# 1 0.005924 -0.000815 -0.002263 0.000000 -0.003121 0.000000
# 2 -0.000815 0.005472 -0.003234 0.000000 0.000248 0.000000
# 3 -0.002263 -0.003234 0.015444 0.000000 0.001869 0.000000
# 4 0.000000 0.000000 0.000000 0.038505 0.000000 0.007041
# 5 -0.003121 0.000248 0.001869 0.000000 0.020506 0.000000
# 6 0.000000 0.000000 0.000000 0.007041 0.000000 0.026279
#
#
# Mechanical properties :
#
#
# Convention : Reuss Voigt Hill
#
# Bulk Modulus (GPa) = 70.34802 88.26244 79.30523
# Shear Modulus (GPa) = 38.61258 48.47169 43.54213
#
# Velocity S-wave (km/s) = 3.77416 4.22863 4.00784
# Velocity P-wave (km/s) = 6.70402 7.51012 7.11849
#
# Compressibility (1/GPa) = 0.01421504
#
# Stress axis : x y z
#
# Youngs Moduli (GPa) = 168.80831 182.75300 64.75146
#
# Poissons Ratio (x) = 0.14903 0.14654
# Poissons Ratio (y) = 0.13766 0.20938
# Poissons Ratio (z) = 0.38202 0.59096
#
# Static dielectric constant tensor:
#      x y z
#    x 2.076610 0.000000 -0.015230 
#    y 0.000000 2.129410 0.000000 
#    z -0.015230 0.000000 2.213520 
# 
# From -- ./inp_files/16100.got.cif
#   From: 2010.05.17/outbox.cif.g08.bks.cpg/sg4_9_cif.got.tgz:16100.got - 2010.06.03 18:43:04.
