data_PCOD9118831
_publ_section_title
;
Structure prediction by ZEFSAII (Michael W. Deem and Ramdas Pophale) SiO2 
 PCOD9118831
Probable space group: P 21
;
_chemical_formula_sum "Si O2"
_cell_formula_units_Z 16
_cell_length_a 14.231670
_cell_length_b 8.087981
_cell_length_c 5.424816
_cell_angle_alpha 90.000000
_cell_angle_beta 103.642771
_cell_angle_gamma 90.000000
_cell_volume 606.807974
_symmetry_space_group_name_H-M "P 21"
_symmetry_group_IT_number 4
_symmetry_cell_setting 'monoclinic'
loop_
_space_group_symop_operation_xyz
x,y,z
-x,1/2+y,-z
loop_
_atom_site_type_symbol
_atom_site_label
_atom_site_fract_x
_atom_site_fract_y
_atom_site_fract_z
Si Si1 0.763549 0.837340 0.931941
Si Si2 0.639501 0.615057 0.224307
Si Si3 0.065711 0.532712 0.857396
Si Si4 0.083470 0.836892 0.530778
Si Si5 0.891013 0.561065 0.061453
Si Si6 0.261809 0.862414 0.343824
Si Si7 0.610178 0.051005 0.684918
Si Si8 0.517232 0.937168 0.145279
O O1 0.852187 0.724092 0.904805
O O2 0.688851 0.903651 0.687007
O O3 0.714245 0.723351 0.109649
O O4 0.821002 0.996131 0.063050
O O5 0.684546 0.513897 0.480242
O O6 0.553418 0.750043 0.217528
O O7 0.590332 0.475952 0.017540
O O8 0.054111 0.705592 0.714245
O O9 0.009345 0.383745 0.686513
O O10 0.003774 0.542742 0.067699
O O11 0.182405 0.774422 0.470056
O O12 0.113253 0.017251 0.655681
O O13 0.813037 0.430584 0.904589
O O14 0.338942 0.727379 0.306345
O O15 0.535968 0.033151 0.412248
O O16 0.578539 0.001729 0.944040
#
# Coordination Sequence:
#
# PCOD9118831 Si02
#       8
#     2   2   2   2   2   2   2   2
#     4  11  24  46  74 107 150 200 254 315 381 462
#     4  11  25  48  77 109 151 199 254 322 391 467
#     4  11  25  41  68 101 145 197 249 308 377 447
#     4  11  24  42  67 102 149 196 251 310 377 453
#     4  11  23  42  66 104 145 194 253 305 379 442
#     4  11  25  43  73 105 144 198 250 315 374 464
#     4  11  27  47  76 113 150 200 254 316 389 465
#     4  11  27  49  75 111 152 198 251 319 400 458
#
# _framework density 26.367483
#
# number of rings (size 3 to 8) (size 9 to 14) (size 15 to 20)
#    0.000    1.000    1.250    3.750    7.000    9.000 
#    0.000    0.000    0.000    0.000    0.000    0.000 
#    0.000    0.000    0.000    0.000    0.000    0.000 
#
# Total GULP energy -89438.510409 kJ/mol
# GULP energy per Si atom -5589.906901 kJ/mol
# Density = 2.630747 g / cm^3
# Si number density = 26.367483 Si / 1000 Ang^3
#
#
#
# Elastic Constant Matrix: (Units=GPa)
#
#
# Indices 1 2 3 4 5 6 
#
# 1 90.9910 19.9906 27.1975 0.0000 12.4981 0.0000
# 2 19.9906 100.7653 24.0834 0.0000 2.6522 0.0000
# 3 27.1975 24.0834 102.0111 0.0000 17.3030 0.0000
# 4 0.0000 0.0000 0.0000 43.2472 0.0000 4.8404
# 5 12.4981 2.6522 17.3030 0.0000 39.5466 0.0000
# 6 0.0000 0.0000 0.0000 4.8404 0.0000 56.4902
#
#
#
# Elastic Compliance Matrix: (Units=1/GPa)
#
#
# Indices 1 2 3 4 5 6 
#
# 1 0.012498 -0.001825 -0.002432 0.000000 -0.002763 0.000000
# 2 -0.001825 0.010790 -0.002199 0.000000 0.000815 0.000000
# 3 -0.002432 -0.002199 0.011682 0.000000 -0.004195 0.000000
# 4 0.000000 0.000000 0.000000 0.023347 0.000000 -0.002000
# 5 -0.002763 0.000815 -0.004195 0.000000 0.027941 0.000000
# 6 0.000000 0.000000 0.000000 -0.002000 0.000000 0.017874
#
#
# Mechanical properties :
#
#
# Convention : Reuss Voigt Hill
#
# Bulk Modulus (GPa) = 45.33831 48.47894 46.90862
# Shear Modulus (GPa) = 40.19391 42.68987 41.44189
#
# Velocity S-wave (km/s) = 3.90856 4.02809 3.96877
# Velocity P-wave (km/s) = 6.13198 6.32928 6.23141
#
# Compressibility (1/GPa) = 0.02205640
#
# Stress axis : x y z
#
# Youngs Moduli (GPa) = 80.01474 92.67586 85.60085
#
# Poissons Ratio (x) = 0.16916 0.20822
# Poissons Ratio (y) = 0.14605 0.18824
# Poissons Ratio (z) = 0.19463 0.20380
#
# Static dielectric constant tensor:
#      x y z
#    x 2.175300 0.000000 0.000620 
#    y 0.000000 2.146940 0.000000 
#    z 0.000620 0.000000 2.048340 
# 
# From -- ./inp_files/3728.got.cif
#   From: 2010.05.17/outbox.cif.g08.bks.cpg/sg4_2_cif.got.tgz:3728.got - 2010.06.03 18:43:04.
