data_PCOD9118574
_publ_section_title
;
Structure prediction by ZEFSAII (Michael W. Deem and Ramdas Pophale) SiO2 
 PCOD9118574
Probable space group: P 21
;
_chemical_formula_sum "Si O2"
_cell_formula_units_Z 16
_cell_length_a 6.831261
_cell_length_b 11.651308
_cell_length_c 8.605691
_cell_angle_alpha 90.000000
_cell_angle_beta 96.134380
_cell_angle_gamma 90.000000
_cell_volume 681.031803
_symmetry_space_group_name_H-M "P 21"
_symmetry_group_IT_number 4
_symmetry_cell_setting 'monoclinic'
loop_
_space_group_symop_operation_xyz
x,y,z
-x,1/2+y,-z
loop_
_atom_site_type_symbol
_atom_site_label
_atom_site_fract_x
_atom_site_fract_y
_atom_site_fract_z
Si Si1 0.784602 0.833650 0.926169
Si Si2 0.087186 0.015003 0.431569
Si Si3 0.134093 0.534795 0.295233
Si Si4 0.844588 0.258763 0.900987
Si Si5 0.623316 0.674743 0.653025
Si Si6 0.496592 0.926232 0.135878
Si Si7 0.235269 0.364987 0.556195
Si Si8 0.736931 0.145660 0.218804
O O1 0.886585 0.937946 0.840048
O O2 0.733811 0.728931 0.810261
O O3 0.927403 0.791368 0.073405
O O4 0.584014 0.880149 0.981361
O O5 0.924049 0.082613 0.311455
O O6 0.298064 0.047679 0.381614
O O7 0.056178 0.050697 0.609919
O O8 0.995665 0.886796 0.424796
O O9 0.195737 0.653136 0.219367
O O10 0.273846 0.468921 0.433292
O O11 0.717509 0.372742 0.865053
O O12 0.800312 0.216203 0.074412
O O13 0.715707 0.748568 0.522724
O O14 0.392469 0.701830 0.655028
O O15 0.628407 0.876635 0.285495
O O16 0.564101 0.058412 0.145695
#
# Coordination Sequence:
#
# PCOD9118574 Si02
#       8
#     2   2   2   2   2   2   2   2
#     4  11  23  42  65  94 136 169 210 276 324 390
#     4   9  21  42  62  89 126 168 209 271 320 383
#     4   9  22  44  64  92 132 169 213 274 321 379
#     4  12  24  40  70  95 127 180 212 266 337 391
#     4  11  21  42  67  92 129 176 210 266 339 383
#     4  11  24  41  60  99 130 168 220 268 324 392
#     4   8  22  40  64  89 129 167 213 275 314 388
#     4  11  23  41  64  94 131 167 217 270 325 392
#
# _framework density 23.493762
#
# number of rings (size 3 to 8) (size 9 to 14) (size 15 to 20)
#    0.750    1.000    3.750    0.000    3.500    3.000 
#    0.000    3.750    0.000    0.000    0.000    0.000 
#    0.000    0.000    0.000    0.000    0.000    0.000 
#
# Total GULP energy -89215.117227 kJ/mol
# GULP energy per Si atom -5575.944827 kJ/mol
# Density = 2.344029 g / cm^3
# Si number density = 23.493762 Si / 1000 Ang^3
#
#
#
# Elastic Constant Matrix: (Units=GPa)
#
#
# Indices 1 2 3 4 5 6 
#
# 1 50.6315 2.5961 -7.8973 0.0000 -10.4754 0.0000
# 2 2.5961 54.1848 19.8594 0.0000 0.2316 0.0000
# 3 -7.8973 19.8594 67.0700 0.0000 -8.0011 0.0000
# 4 0.0000 0.0000 0.0000 45.5872 0.0000 -12.1270
# 5 -10.4754 0.2316 -8.0011 0.0000 24.9304 0.0000
# 6 0.0000 0.0000 0.0000 -12.1270 0.0000 19.8585
#
#
#
# Elastic Compliance Matrix: (Units=1/GPa)
#
#
# Indices 1 2 3 4 5 6 
#
# 1 0.023004 -0.002957 0.004929 0.000000 0.011275 0.000000
# 2 -0.002957 0.021204 -0.007069 0.000000 -0.003708 0.000000
# 3 0.004929 -0.007069 0.018548 0.000000 0.008090 0.000000
# 4 0.000000 0.000000 0.000000 0.026191 0.000000 0.015994
# 5 0.011275 -0.003708 0.008090 0.000000 0.047480 0.000000
# 6 0.000000 0.000000 0.000000 0.015994 0.000000 0.060123
#
#
# Mechanical properties :
#
#
# Convention : Reuss Voigt Hill
#
# Bulk Modulus (GPa) = 19.02491 22.33362 20.67926
# Shear Modulus (GPa) = 22.29512 28.56375 25.42944
#
# Velocity S-wave (km/s) = 3.08389 3.49062 3.29354
# Velocity P-wave (km/s) = 4.56026 5.07668 4.82539
#
# Compressibility (1/GPa) = 0.05256268
#
# Stress axis : x y z
#
# Youngs Moduli (GPa) = 43.47099 47.16150 53.91297
#
# Poissons Ratio (x) = 0.13946 -0.26575
# Poissons Ratio (y) = 0.12854 0.38111
# Poissons Ratio (z) = -0.21428 0.33338
#
# Static dielectric constant tensor:
#      x y z
#    x 1.890310 0.000000 -0.084500 
#    y 0.000000 2.019360 0.000000 
#    z -0.084500 0.000000 1.959220 
# 
# From -- ./inp_files/4739.got.cif
#   From: 2010.05.17/outbox.cif.g08.bks.cpg/sg4_3_cif.got.tgz:4739.got - 2010.06.03 18:43:04.
