data_PCOD9118888
_publ_section_title
;
Structure prediction by ZEFSAII (Michael W. Deem and Ramdas Pophale) SiO2 
 PCOD9118888
Probable space group: P 21
;
_chemical_formula_sum "Si O2"
_cell_formula_units_Z 14
_cell_length_a 10.703490
_cell_length_b 9.087957
_cell_length_c 9.227396
_cell_angle_alpha 90.000000
_cell_angle_beta 41.109739
_cell_angle_gamma 90.000000
_cell_volume 590.158659
_symmetry_space_group_name_H-M "P 21"
_symmetry_group_IT_number 4
_symmetry_cell_setting 'monoclinic'
loop_
_space_group_symop_operation_xyz
x,y,z
-x,1/2+y,-z
loop_
_atom_site_type_symbol
_atom_site_label
_atom_site_fract_x
_atom_site_fract_y
_atom_site_fract_z
Si Si1 0.701868 0.301790 0.023991
Si Si2 0.455042 0.776525 0.130293
Si Si3 0.339034 0.085509 0.743119
Si Si4 0.612672 0.561575 0.633591
Si Si5 0.745383 0.059670 0.523037
Si Si6 0.908690 0.768922 0.487428
Si Si7 0.868420 0.721862 0.840944
O O1 0.582871 0.354147 0.987610
O O2 0.905335 0.264596 0.776108
O O3 0.716929 0.433816 0.125283
O O4 0.576214 0.163562 0.187442
O O5 0.304606 0.647788 0.287099
O O6 0.438696 0.899722 0.267066
O O7 0.656987 0.697778 0.962846
O O8 0.317710 0.067409 0.591839
O O9 0.565997 0.097193 0.578486
O O10 0.211471 0.219520 0.920926
O O11 0.789654 0.619664 0.574129
O O12 0.950035 0.118583 0.297132
O O13 0.773270 0.890190 0.531675
O O14 0.939134 0.810991 0.631913
#
# Coordination Sequence:
#
# PCOD9118888 Si02
#       7
#     2   2   2   2   2   2   2
#     4  12  25  45  75 106 146 184 246 298 357 422
#     4  11  26  44  76 107 142 189 242 298 355 425
#     4  11  26  48  68 104 152 196 226 293 371 430
#     4  12  29  48  72 107 147 192 240 292 366 436
#     4  11  24  44  76 106 146 183 237 303 354 423
#     4  12  25  44  79 109 140 183 247 306 351 422
#     4  11  23  43  76 105 141 183 240 288 360 416
#
# _framework density 23.722434
#
# number of rings (size 3 to 8) (size 9 to 14) (size 15 to 20)
#    0.000    0.571    5.714    0.857    8.000    2.286 
#    0.000    0.000    0.000    0.000    0.000    0.000 
#    0.000    0.000    0.000    0.000    0.000    0.000 
#
# Total GULP energy -77950.990457 kJ/mol
# GULP energy per Si atom -5567.927890 kJ/mol
# Density = 2.366844 g / cm^3
# Si number density = 23.722434 Si / 1000 Ang^3
#
#
#
# Elastic Constant Matrix: (Units=GPa)
#
#
# Indices 1 2 3 4 5 6 
#
# 1 44.2073 11.3710 46.9772 0.0000 5.3363 0.0000
# 2 11.3710 64.9975 28.3949 0.0000 -9.6375 0.0000
# 3 46.9772 28.3949 176.7290 0.0000 -3.9232 0.0000
# 4 0.0000 0.0000 0.0000 37.9863 0.0000 2.2451
# 5 5.3363 -9.6375 -3.9232 0.0000 68.1064 0.0000
# 6 0.0000 0.0000 0.0000 2.2451 0.0000 15.3584
#
#
#
# Elastic Compliance Matrix: (Units=1/GPa)
#
#
# Indices 1 2 3 4 5 6 
#
# 1 0.032516 -0.002562 -0.008307 0.000000 -0.003389 0.000000
# 2 -0.002562 0.017082 -0.002008 0.000000 0.002502 0.000000
# 3 -0.008307 -0.002008 0.008208 0.000000 0.000840 0.000000
# 4 0.000000 0.000000 0.000000 0.026555 0.000000 -0.003882
# 5 -0.003389 0.002502 0.000840 0.000000 0.015351 0.000000
# 6 0.000000 0.000000 0.000000 -0.003882 0.000000 0.065679
#
#
# Mechanical properties :
#
#
# Convention : Reuss Voigt Hill
#
# Bulk Modulus (GPa) = 31.19949 51.04667 41.12308
# Shear Modulus (GPa) = 24.77367 37.56958 31.17162
#
# Velocity S-wave (km/s) = 3.23509 3.98391 3.62887
# Velocity P-wave (km/s) = 5.20911 6.53659 5.91024
#
# Compressibility (1/GPa) = 0.03205181
#
# Stress axis : x y z
#
# Youngs Moduli (GPa) = 30.75401 58.54240 121.83656
#
# Poissons Ratio (x) = 0.14999 1.01208
# Poissons Ratio (y) = 0.07879 0.24464
# Poissons Ratio (z) = 0.25547 0.11755
#
# Static dielectric constant tensor:
#      x y z
#    x 1.916720 0.000000 0.020330 
#    y 0.000000 1.908320 0.000000 
#    z 0.020330 0.000000 1.981040 
# 
# From -- ./inp_files/7933.got.cif
#   From: 2010.05.17/outbox.cif.g08.bks.cpg/sg4_4_cif.got.tgz:7933.got - 2010.06.03 18:43:04.
