data_PCOD9118036
_publ_section_title
;
Structure prediction by ZEFSAII (Michael W. Deem and Ramdas Pophale) SiO2 
 PCOD9118036
Probable space group: P 21
;
_chemical_formula_sum "Si O2"
_cell_formula_units_Z 14
_cell_length_a 6.934730
_cell_length_b 7.684193
_cell_length_c 16.608986
_cell_angle_alpha 90.000000
_cell_angle_beta 139.551693
_cell_angle_gamma 90.000000
_cell_volume 574.190717
_symmetry_space_group_name_H-M "P 21"
_symmetry_group_IT_number 4
_symmetry_cell_setting 'monoclinic'
loop_
_space_group_symop_operation_xyz
x,y,z
-x,1/2+y,-z
loop_
_atom_site_type_symbol
_atom_site_label
_atom_site_fract_x
_atom_site_fract_y
_atom_site_fract_z
Si Si1 0.262407 0.372020 0.621127
Si Si2 0.714561 0.166629 0.496550
Si Si3 0.223545 0.312181 0.222099
Si Si4 0.367280 0.093167 0.134203
Si Si5 0.298230 0.361547 0.877633
Si Si6 0.725996 0.159026 0.683399
Si Si7 0.751231 0.072803 0.995951
O O1 0.184547 0.502995 0.524612
O O2 0.498152 0.465561 0.754185
O O3 0.426637 0.210380 0.633084
O O4 0.973404 0.309743 0.575614
O O5 0.432796 0.243385 0.359950
O O6 0.659867 0.112514 0.570424
O O7 0.389721 0.279430 0.188017
O O8 0.134976 0.503491 0.220771
O O9 0.942209 0.188711 0.120605
O O10 0.012680 0.056356 0.012550
O O11 0.552651 0.028736 0.117337
O O12 0.328080 0.396021 0.983045
O O13 0.951829 0.321598 0.755051
O O14 0.468971 0.195230 0.893020
#
# Coordination Sequence:
#
# PCOD9118036 Si02
#       7
#     2   2   2   2   2   2   2
#     4  11  22  42  63  96 138 169 227 276 328 407
#     4  11  22  40  65  96 133 184 219 273 339 395
#     4   9  22  45  59  99 138 167 228 277 328 401
#     4   9  22  45  60  94 135 172 214 279 330 398
#     4  12  22  44  72  93 133 179 220 278 353 388
#     4  12  22  40  68 100 132 177 227 274 338 401
#     4  10  24  44  65  98 129 170 227 281 326 410
#
# _framework density 24.382144
#
# number of rings (size 3 to 8) (size 9 to 14) (size 15 to 20)
#    0.857    0.571    2.857    2.571    0.000    1.143 
#   15.429    0.000    0.000    0.000    0.000    0.000 
#    0.000    0.000    0.000    0.000    0.000    0.000 
#
# Total GULP energy -78198.723945 kJ/mol
# GULP energy per Si atom -5585.623139 kJ/mol
# Density = 2.432665 g / cm^3
# Si number density = 24.382144 Si / 1000 Ang^3
#
#
#
# Elastic Constant Matrix: (Units=GPa)
#
#
# Indices 1 2 3 4 5 6 
#
# 1 87.4853 2.8832 15.2386 0.0000 -4.1542 0.0000
# 2 2.8832 57.7663 -0.6299 0.0000 -0.3500 0.0000
# 3 15.2386 -0.6299 56.5612 0.0000 -4.4877 0.0000
# 4 0.0000 0.0000 0.0000 33.4292 0.0000 7.3720
# 5 -4.1542 -0.3500 -4.4877 0.0000 30.9471 0.0000
# 6 0.0000 0.0000 0.0000 7.3720 0.0000 38.7793
#
#
#
# Elastic Compliance Matrix: (Units=1/GPa)
#
#
# Indices 1 2 3 4 5 6 
#
# 1 0.012057 -0.000629 -0.003164 0.000000 0.001153 0.000000
# 2 -0.000629 0.017348 0.000376 0.000000 0.000166 0.000000
# 3 -0.003164 0.000376 0.018719 0.000000 0.002294 0.000000
# 4 0.000000 0.000000 0.000000 0.031223 0.000000 -0.005936
# 5 0.001153 0.000166 0.002294 0.000000 0.032802 0.000000
# 6 0.000000 0.000000 0.000000 -0.005936 0.000000 0.026915
#
#
# Mechanical properties :
#
#
# Convention : Reuss Voigt Hill
#
# Bulk Modulus (GPa) = 24.21973 26.31073 25.26523
# Shear Modulus (GPa) = 31.31627 32.91919 32.11773
#
# Velocity S-wave (km/s) = 3.58773 3.67841 3.63335
# Velocity P-wave (km/s) = 5.20744 5.37171 5.29021
#
# Compressibility (1/GPa) = 0.04128865
#
# Stress axis : x y z
#
# Youngs Moduli (GPa) = 82.93889 57.64472 53.42289
#
# Poissons Ratio (x) = 0.03628 0.16903
# Poissons Ratio (y) = 0.05219 -0.02008
# Poissons Ratio (z) = 0.26241 -0.02167
#
# Static dielectric constant tensor:
#      x y z
#    x 1.921960 0.000000 -0.010640 
#    y 0.000000 1.985450 0.000000 
#    z -0.010640 0.000000 1.905060 
# 
# From -- ./inp_files/2554.got.cif
#   From: 2010.05.17/outbox.cif.g08.bks.cpg/sg4_2_cif.got.tgz:2554.got - 2010.06.03 18:43:04.
