data_PCOD9118771
_publ_section_title
;
Structure prediction by ZEFSAII (Michael W. Deem and Ramdas Pophale) SiO2 
 PCOD9118771
Probable space group: P 21
;
_chemical_formula_sum "Si O2"
_cell_formula_units_Z 16
_cell_length_a 22.397409
_cell_length_b 5.893549
_cell_length_c 7.991080
_cell_angle_alpha 90.000000
_cell_angle_beta 145.067136
_cell_angle_gamma 90.000000
_cell_volume 604.009533
_symmetry_space_group_name_H-M "P 21"
_symmetry_group_IT_number 4
_symmetry_cell_setting 'monoclinic'
loop_
_space_group_symop_operation_xyz
x,y,z
-x,1/2+y,-z
loop_
_atom_site_type_symbol
_atom_site_label
_atom_site_fract_x
_atom_site_fract_y
_atom_site_fract_z
Si Si1 0.301228 0.007930 0.769870
Si Si2 0.591305 0.165098 0.719546
Si Si3 0.790894 0.894058 0.256890
Si Si4 0.372690 0.052748 0.384679
Si Si5 0.019696 0.378131 0.805580
Si Si6 0.133853 0.720256 0.273302
Si Si7 0.447172 0.259243 0.878340
Si Si8 0.873301 0.609065 0.202087
O O1 0.216830 0.146623 0.679034
O O2 0.372902 0.203595 0.861160
O O3 0.236802 0.872802 0.482486
O O4 0.364301 0.838098 0.034447
O O5 0.472262 0.119232 0.494228
O O6 0.599771 0.283114 0.557253
O O7 0.677344 0.967747 0.928637
O O8 0.868791 0.857901 0.282997
O O9 0.828170 0.057361 0.487526
O O10 0.385482 0.224498 0.565429
O O11 0.248317 0.042017 0.075031
O O12 0.080618 0.158569 0.875241
O O13 0.961862 0.341681 0.851072
O O14 0.940544 0.446835 0.475476
O O15 0.098395 0.582224 0.030850
O O16 0.486639 0.518431 0.979038
#
# Coordination Sequence:
#
# PCOD9118771 Si02
#       8
#     2   2   2   2   2   2   2   2
#     4  11  24  47  75 106 153 202 250 314 389 481
#     4  11  24  45  72 111 152 196 249 307 388 480
#     4  11  22  47  77 110 152 199 256 316 391 482
#     4  12  26  45  75 112 150 206 251 315 396 479
#     4  12  27  49  75 110 153 197 261 337 390 468
#     4  11  26  46  78 109 144 209 261 317 402 476
#     4  12  29  48  74 115 161 205 258 324 391 478
#     4  12  26  47  74 111 151 194 258 326 397 462
#
# _framework density 26.489647000000001
#
# number of rings (size 3 to 8) (size 9 to 14) (size 15 to 20)
#    0.000    0.500    3.750    3.750    5.250    3.000 
#    0.000    0.000    0.000    0.000    0.000    0.000 
#    0.000    0.000    0.000    0.000    0.000    0.000 
#
# Total GULP energy -89388.921189 kJ/mol
# GULP energy per Si atom -5586.807574 kJ/mol
# Density = 2.642936 g / cm^3
# Si number density = 26.489647 Si / 1000 Ang^3
#
#
#
# Elastic Constant Matrix: (Units=GPa)
#
#
# Indices 1 2 3 4 5 6 
#
# 1 71.6096 -0.4217 -1.3485 0.0000 17.6022 0.0000
# 2 -0.4217 69.5258 36.1389 0.0000 9.3632 0.0000
# 3 -1.3485 36.1389 116.2817 0.0000 15.1262 0.0000
# 4 0.0000 0.0000 0.0000 61.7109 0.0000 -6.6144
# 5 17.6022 9.3632 15.1262 0.0000 33.5448 0.0000
# 6 0.0000 0.0000 0.0000 -6.6144 0.0000 42.1431
#
#
#
# Elastic Compliance Matrix: (Units=1/GPa)
#
#
# Indices 1 2 3 4 5 6 
#
# 1 0.016269 0.000742 0.001164 0.000000 -0.009269 0.000000
# 2 0.000742 0.017393 -0.005009 0.000000 -0.002986 0.000000
# 3 0.001164 -0.005009 0.010695 0.000000 -0.004035 0.000000
# 4 0.000000 0.000000 0.000000 0.016482 0.000000 0.002587
# 5 -0.009269 -0.002986 -0.004035 0.000000 0.037328 0.000000
# 6 0.000000 0.000000 0.000000 0.002587 0.000000 0.024135
#
#
# Mechanical properties :
#
#
# Convention : Reuss Voigt Hill
#
# Bulk Modulus (GPa) = 26.21111 36.23939 31.22525
# Shear Modulus (GPa) = 35.40469 42.34965 38.87717
#
# Velocity S-wave (km/s) = 3.65985 4.00274 3.83513
# Velocity P-wave (km/s) = 5.27026 5.92224 5.60574
#
# Compressibility (1/GPa) = 0.03815176
#
# Stress axis : x y z
#
# Youngs Moduli (GPa) = 61.46548 57.49381 93.50324
#
# Poissons Ratio (x) = -0.04266 -0.10882
# Poissons Ratio (y) = -0.04561 0.46832
# Poissons Ratio (z) = -0.07153 0.28796
#
# Static dielectric constant tensor:
#      x y z
#    x 2.101120 0.000000 -0.045560 
#    y 0.000000 2.167340 0.000000 
#    z -0.045560 0.000000 2.106150 
# 
# From -- ./inp_files/10045.got.cif
#   From: 2010.05.17/outbox.cif.g08.bks.cpg/sg4_6_cif.got.tgz:10045.got - 2010.06.03 18:43:04.
