data_PCOD9118502
_publ_section_title
;
Structure prediction by ZEFSAII (Michael W. Deem and Ramdas Pophale) SiO2 
 PCOD9118502
Probable space group: P 21
;
_chemical_formula_sum "Si O2"
_cell_formula_units_Z 16
_cell_length_a 18.245497
_cell_length_b 5.567707
_cell_length_c 12.214113
_cell_angle_alpha 90.000000
_cell_angle_beta 35.561853
_cell_angle_gamma 90.000000
_cell_volume 721.613380
_symmetry_space_group_name_H-M "P 21"
_symmetry_group_IT_number 4
_symmetry_cell_setting 'monoclinic'
loop_
_space_group_symop_operation_xyz
x,y,z
-x,1/2+y,-z
loop_
_atom_site_type_symbol
_atom_site_label
_atom_site_fract_x
_atom_site_fract_y
_atom_site_fract_z
Si Si1 0.475843 0.441510 0.316739
Si Si2 0.551890 0.547590 0.830296
Si Si3 0.980304 0.423795 0.090689
Si Si4 0.650844 0.499066 0.303937
Si Si5 0.772949 0.008001 0.085807
Si Si6 0.700056 0.556257 0.875699
Si Si7 0.693545 0.332965 0.476037
Si Si8 0.260502 0.544500 0.132195
O O1 0.431053 0.263953 0.275539
O O2 0.538827 0.419533 0.360129
O O3 0.343844 0.565700 0.510148
O O4 0.601836 0.551525 0.098780
O O5 0.612949 0.563579 0.873816
O O6 0.624355 0.342696 0.676511
O O7 0.402209 0.523557 0.009671
O O8 0.837330 0.401689 0.305352
O O9 0.081863 0.453020 0.063477
O O10 0.990321 0.670199 0.006911
O O11 0.701320 0.762993 0.210769
O O12 0.623786 0.489447 0.466778
O O13 0.745455 0.270525 0.173255
O O14 0.740039 0.044102 0.998401
O O15 0.791074 0.786562 0.769848
O O16 0.778198 0.308464 0.783434
#
# Coordination Sequence:
#
# PCOD9118502 Si02
#       8
#     2   2   2   2   2   2   2   2
#     4  11  25  40  64 102 134 181 213 277 350 413
#     4  11  24  39  63  98 138 173 214 275 348 409
#     4  12  26  47  67  92 132 189 238 278 333 399
#     4  12  25  41  67  96 138 172 218 276 343 412
#     4  12  21  45  67  94 127 179 226 280 328 400
#     4  11  22  40  65  96 135 169 219 264 344 419
#     4  12  27  41  65  97 141 175 225 279 336 412
#     4  11  20  39  64  97 125 170 219 271 334 408
#
# _framework density 22.172540000000001
#
# number of rings (size 3 to 8) (size 9 to 14) (size 15 to 20)
#    0.000    0.500    7.500    1.500    7.000    0.000 
#    0.000    0.000    0.000    1.500    0.000    0.000 
#    0.000    0.000    0.000    0.000    0.000    0.000 
#
# Total GULP energy -89129.185980 kJ/mol
# GULP energy per Si atom -5570.574124 kJ/mol
# Density = 2.212207 g / cm^3
# Si number density = 22.172540 Si / 1000 Ang^3
#
#
#
# Elastic Constant Matrix: (Units=GPa)
#
#
# Indices 1 2 3 4 5 6 
#
# 1 91.5200 33.0435 24.9371 0.0000 26.1163 0.0000
# 2 33.0435 152.5612 10.7790 0.0000 -3.4046 0.0000
# 3 24.9371 10.7790 23.1470 0.0000 2.8282 0.0000
# 4 0.0000 0.0000 0.0000 28.2292 0.0000 3.7222
# 5 26.1163 -3.4046 2.8282 0.0000 30.6901 0.0000
# 6 0.0000 0.0000 0.0000 3.7222 0.0000 36.0858
#
#
#
# Elastic Compliance Matrix: (Units=1/GPa)
#
#
# Indices 1 2 3 4 5 6 
#
# 1 0.023336 -0.003977 -0.021046 0.000000 -0.018360 0.000000
# 2 -0.003977 0.007490 0.000285 0.000000 0.004189 0.000000
# 3 -0.021046 0.000285 0.064274 0.000000 0.012018 0.000000
# 4 0.000000 0.000000 0.000000 0.035913 0.000000 -0.003704
# 5 -0.018360 0.004189 0.012018 0.000000 0.047565 0.000000
# 6 0.000000 0.000000 0.000000 -0.003704 0.000000 0.028094
#
#
# Mechanical properties :
#
#
# Convention : Reuss Voigt Hill
#
# Bulk Modulus (GPa) = 21.91787 44.97192 33.44490
# Shear Modulus (GPa) = 18.42601 32.23227 25.32914
#
# Velocity S-wave (km/s) = 2.88588 3.81688 3.38356
# Velocity P-wave (km/s) = 4.58378 6.30488 5.51192
#
# Compressibility (1/GPa) = 0.04562488
#
# Stress axis : x y z
#
# Youngs Moduli (GPa) = 42.85149 133.52011 15.55831
#
# Poissons Ratio (x) = 0.53104 0.32744
# Poissons Ratio (y) = 0.17043 -0.00444
# Poissons Ratio (z) = 0.90184 -0.03810
#
# Static dielectric constant tensor:
#      x y z
#    x 1.778680 0.000000 0.024150 
#    y 0.000000 2.153660 0.000000 
#    z 0.024150 0.000000 1.811180 
# 
# From -- ./inp_files/12733.got.cif
#   From: 2010.05.17/outbox.cif.g08.bks.cpg/sg4_7_cif.got.tgz:12733.got - 2010.06.03 18:43:04.
