data_PCOD9118815
_publ_section_title
;
Structure prediction by ZEFSAII (Michael W. Deem and Ramdas Pophale) SiO2 
 PCOD9118815
Probable space group: P 21
;
_chemical_formula_sum "Si O2"
_cell_formula_units_Z 14
_cell_length_a 8.658338
_cell_length_b 5.128098
_cell_length_c 22.199588
_cell_angle_alpha 90.000000
_cell_angle_beta 30.195148
_cell_angle_gamma 90.000000
_cell_volume 495.744354
_symmetry_space_group_name_H-M "P 21"
_symmetry_group_IT_number 4
_symmetry_cell_setting 'monoclinic'
loop_
_space_group_symop_operation_xyz
x,y,z
-x,1/2+y,-z
loop_
_atom_site_type_symbol
_atom_site_label
_atom_site_fract_x
_atom_site_fract_y
_atom_site_fract_z
Si Si1 0.239182 0.433660 0.332814
Si Si2 0.061273 0.587162 0.817569
Si Si3 0.419567 0.120806 0.566050
Si Si4 0.767315 0.813678 0.118253
Si Si5 0.475150 0.698256 0.872919
Si Si6 0.184443 0.577196 0.155331
Si Si7 0.685334 0.757208 0.561185
O O1 0.556951 0.595341 0.220480
O O2 0.271795 0.255120 0.263562
O O3 0.225749 0.277469 0.399315
O O4 0.953978 0.627871 0.432621
O O5 0.181443 0.511231 0.842805
O O6 0.358844 0.606213 0.673357
O O7 0.925662 0.878756 0.860547
O O8 0.826716 0.369235 0.869442
O O9 0.490618 0.878636 0.498556
O O10 0.617991 0.044345 0.558071
O O11 0.075185 0.110018 0.706161
O O12 0.570679 0.888795 0.124016
O O13 0.116289 0.760221 0.981484
O O14 0.568233 0.886300 0.895866
#
# Coordination Sequence:
#
# PCOD9118815 Si02
#       7
#     2   2   2   2   2   2   2
#     4  12  26  46  73 115 153 205 263 324 396 474
#     4  11  25  50  74 111 153 203 252 329 390 482
#     4  11  23  41  67  99 145 196 244 317 386 469
#     4  12  26  49  77 106 162 202 269 321 400 455
#     4  12  28  47  77 113 149 213 259 335 377 479
#     4  11  27  45  76 108 151 197 267 314 400 457
#     4  11  25  44  76 108 155 200 260 322 405 470
#
# _framework density 28.240364
#
# number of rings (size 3 to 8) (size 9 to 14) (size 15 to 20)
#    0.000    0.571    2.857    5.143    4.000    2.286 
#    0.000    0.000    0.000    0.000    0.000    0.000 
#    0.000    0.000    0.000    0.000    0.000    0.000 
#
# Total GULP energy -78351.371936 kJ/mol
# GULP energy per Si atom -5596.526567 kJ/mol
# Density = 2.817609 g / cm^3
# Si number density = 28.240364 Si / 1000 Ang^3
#
#
#
# Elastic Constant Matrix: (Units=GPa)
#
#
# Indices 1 2 3 4 5 6 
#
# 1 85.5171 20.6994 23.0305 0.0000 -1.2103 0.0000
# 2 20.6994 117.4986 15.3677 0.0000 -2.7194 0.0000
# 3 23.0305 15.3677 161.5886 0.0000 8.5890 0.0000
# 4 0.0000 0.0000 0.0000 24.9165 0.0000 -3.9334
# 5 -1.2103 -2.7194 8.5890 0.0000 54.0548 0.0000
# 6 0.0000 0.0000 0.0000 -3.9334 0.0000 55.5656
#
#
#
# Elastic Compliance Matrix: (Units=1/GPa)
#
#
# Indices 1 2 3 4 5 6 
#
# 1 0.012624 -0.002000 -0.001632 0.000000 0.000441 0.000000
# 2 -0.002000 0.008952 -0.000593 0.000000 0.000500 0.000000
# 3 -0.001632 -0.000593 0.006536 0.000000 -0.001105 0.000000
# 4 0.000000 0.000000 0.000000 0.040588 0.000000 0.002873
# 5 0.000441 0.000500 -0.001105 0.000000 0.018710 0.000000
# 6 0.000000 0.000000 0.000000 0.002873 0.000000 0.018200
#
#
# Mechanical properties :
#
#
# Convention : Reuss Voigt Hill
#
# Bulk Modulus (GPa) = 50.86153 53.64440 52.25297
# Shear Modulus (GPa) = 41.45428 47.27448 44.36438
#
# Velocity S-wave (km/s) = 3.83549 4.09590 3.96783
# Velocity P-wave (km/s) = 6.13709 6.43470 6.28766
#
# Compressibility (1/GPa) = 0.01966122
#
# Stress axis : x y z
#
# Youngs Moduli (GPa) = 79.21685 111.70426 152.99092
#
# Poissons Ratio (x) = 0.22342 0.24975
# Poissons Ratio (y) = 0.15844 0.09071
# Poissons Ratio (z) = 0.12932 0.06623
#
# Static dielectric constant tensor:
#      x y z
#    x 2.285950 0.000000 -0.045900 
#    y 0.000000 2.397340 0.000000 
#    z -0.045900 0.000000 2.116550 
# 
# From -- ./inp_files/16043.got.cif
#   From: 2010.05.17/outbox.cif.g08.bks.cpg/sg4_9_cif.got.tgz:16043.got - 2010.06.03 18:43:04.
