data_PCOD9118572
_publ_section_title
;
Structure prediction by ZEFSAII (Michael W. Deem and Ramdas Pophale) SiO2 
 PCOD9118572
Probable space group: P 21
;
_chemical_formula_sum "Si O2"
_cell_formula_units_Z 14
_cell_length_a 9.982506
_cell_length_b 8.900078
_cell_length_c 10.410344
_cell_angle_alpha 90.000000
_cell_angle_beta 45.294218
_cell_angle_gamma 90.000000
_cell_volume 657.358369
_symmetry_space_group_name_H-M "P 21"
_symmetry_group_IT_number 4
_symmetry_cell_setting 'monoclinic'
loop_
_space_group_symop_operation_xyz
x,y,z
-x,1/2+y,-z
loop_
_atom_site_type_symbol
_atom_site_label
_atom_site_fract_x
_atom_site_fract_y
_atom_site_fract_z
Si Si1 0.220786 0.952860 0.953006
Si Si2 0.863566 0.122542 0.094415
Si Si3 0.774410 0.189187 0.419379
Si Si4 0.040312 0.563031 0.448742
Si Si5 0.819593 0.344388 0.733708
Si Si6 0.512492 0.700721 0.190395
Si Si7 0.140184 0.393984 0.136798
O O1 0.183561 0.794457 0.908920
O O2 0.425698 0.030111 0.819360
O O3 0.179196 0.914603 0.128661
O O4 0.076050 0.073632 0.990147
O O5 0.750297 0.096229 0.304297
O O6 0.832918 0.023114 0.988288
O O7 0.858841 0.093366 0.482364
O O8 0.584666 0.255202 0.610934
O O9 0.935729 0.312431 0.277617
O O10 0.012909 0.724955 0.401974
O O11 0.154396 0.463814 0.269238
O O12 0.849762 0.476644 0.611440
O O13 0.639155 0.245550 0.816520
O O14 0.700067 0.776548 0.009013
#
# Coordination Sequence:
#
# PCOD9118572 Si02
#       7
#     2   2   2   2   2   2   2
#     4  12  24  44  70 105 142 189 238 292 352 430
#     4  12  24  44  75  99 141 194 232 288 362 423
#     4  11  24  45  69 101 146 180 237 292 354 427
#     4  11  21  42  67 104 139 185 231 295 356 421
#     4  11  24  41  72 106 142 181 241 296 357 416
#     4  11  26  43  69 102 144 185 236 292 355 421
#     4  12  23  45  72 101 142 188 239 295 356 424
#
# _framework density 21.297364000000002
#
# number of rings (size 3 to 8) (size 9 to 14) (size 15 to 20)
#    0.000    0.571    8.571    0.000    4.000    1.143 
#    0.000    2.857    0.000    0.000    0.000    0.000 
#    0.000    0.000    0.000    0.000    0.000    0.000 
#
# Total GULP energy -77964.337733 kJ/mol
# GULP energy per Si atom -5568.881267 kJ/mol
# Density = 2.124889 g / cm^3
# Si number density = 21.297364 Si / 1000 Ang^3
#
#
#
# Elastic Constant Matrix: (Units=GPa)
#
#
# Indices 1 2 3 4 5 6 
#
# 1 69.8076 43.5871 37.8855 0.0000 17.8677 0.0000
# 2 43.5871 101.3088 36.3768 0.0000 -1.5011 0.0000
# 3 37.8855 36.3768 127.5330 0.0000 34.2135 0.0000
# 4 0.0000 0.0000 0.0000 43.0551 0.0000 16.8444
# 5 17.8677 -1.5011 34.2135 0.0000 28.9214 0.0000
# 6 0.0000 0.0000 0.0000 16.8444 0.0000 34.1701
#
#
#
# Elastic Compliance Matrix: (Units=1/GPa)
#
#
# Indices 1 2 3 4 5 6 
#
# 1 0.025514 -0.011223 0.000010 0.000000 -0.016357 0.000000
# 2 -0.011223 0.016770 -0.005190 0.000000 0.013944 0.000000
# 3 0.000010 -0.005190 0.013759 0.000000 -0.016552 0.000000
# 4 0.000000 0.000000 0.000000 0.028776 0.000000 -0.014185
# 5 -0.016357 0.013944 -0.016552 0.000000 0.064987 0.000000
# 6 0.000000 0.000000 0.000000 -0.014185 0.000000 0.036258
#
#
# Mechanical properties :
#
#
# Convention : Reuss Voigt Hill
#
# Bulk Modulus (GPa) = 43.03586 59.37203 51.20394
# Shear Modulus (GPa) = 22.06392 33.28266 27.67329
#
# Velocity S-wave (km/s) = 3.22218 3.95746 3.60860
# Velocity P-wave (km/s) = 5.83903 6.98714 6.43873
#
# Compressibility (1/GPa) = 0.02323644
#
# Stress axis : x y z
#
# Youngs Moduli (GPa) = 39.19439 59.63167 72.67975
#
# Poissons Ratio (x) = 0.66925 -0.00073
# Poissons Ratio (y) = 0.43988 0.37721
# Poissons Ratio (z) = -0.00040 0.30949
#
# Static dielectric constant tensor:
#      x y z
#    x 1.822760 0.000000 -0.023630 
#    y 0.000000 1.856220 0.000000 
#    z -0.023630 0.000000 1.810270 
# 
# From -- ./inp_files/11825.got.cif
#   From: 2010.05.17/outbox.cif.g08.bks.cpg/sg4_6_cif.got.tgz:11825.got - 2010.06.03 18:43:04.
