data_PCOD9118583
_publ_section_title
;
Structure prediction by ZEFSAII (Michael W. Deem and Ramdas Pophale) SiO2 
 PCOD9118583
Probable space group: P 21
;
_chemical_formula_sum "Si O2"
_cell_formula_units_Z 12
_cell_length_a 8.078439
_cell_length_b 5.254410
_cell_length_c 15.943884
_cell_angle_alpha 90.000000
_cell_angle_beta 38.706045
_cell_angle_gamma 90.000000
_cell_volume 423.205516
_symmetry_space_group_name_H-M "P 21"
_symmetry_group_IT_number 4
_symmetry_cell_setting 'monoclinic'
loop_
_space_group_symop_operation_xyz
x,y,z
-x,1/2+y,-z
loop_
_atom_site_type_symbol
_atom_site_label
_atom_site_fract_x
_atom_site_fract_y
_atom_site_fract_z
Si Si1 0.043718 0.972300 0.374397
Si Si2 0.209701 0.358424 0.704805
Si Si3 0.183548 0.547995 0.043493
Si Si4 0.425623 0.206150 0.831083
Si Si5 0.487700 0.877336 0.650925
Si Si6 0.283368 0.339836 0.172850
O O1 0.950067 0.870649 0.318996
O O2 0.804241 0.889390 0.527105
O O3 0.323070 0.871870 0.299689
O O4 0.096741 0.262241 0.324144
O O5 0.372277 0.610234 0.665409
O O6 0.000696 0.287583 0.861473
O O7 0.403789 0.113940 0.624193
O O8 0.133082 0.376230 0.145749
O O9 0.188771 0.384453 0.956636
O O10 0.490482 0.629594 0.927352
O O11 0.380081 0.977721 0.783503
O O12 0.547292 0.079791 0.865931
#
# Coordination Sequence:
#
# PCOD9118583 Si02
#       6
#     2   2   2   2   2   2
#     4  11  26  47  83 112 159 212 277 324 398 490
#     4  12  27  51  77 115 160 221 260 328 398 501
#     4  11  22  45  79 115 157 205 279 328 408 478
#     4  11  27  46  80 116 155 206 266 348 396 463
#     4  12  31  49  76 120 168 207 260 330 424 476
#     4  11  21  42  79 116 143 203 274 342 378 470
#
# _framework density 28.355022000000002
#
# number of rings (size 3 to 8) (size 9 to 14) (size 15 to 20)
#    0.000    0.667    3.333    3.000   11.667    0.000 
#    3.000    0.000    0.000    0.000    0.000    0.000 
#    0.000    0.000    0.000    0.000    0.000    0.000 
#
# Total GULP energy -67210.428856 kJ/mol
# GULP energy per Si atom -5600.869071 kJ/mol
# Density = 2.829048 g / cm^3
# Si number density = 28.355022 Si / 1000 Ang^3
#
#
#
# Elastic Constant Matrix: (Units=GPa)
#
#
# Indices 1 2 3 4 5 6 
#
# 1 80.5645 30.2292 33.5563 0.0000 21.2557 0.0000
# 2 30.2292 158.8620 51.9178 0.0000 -3.1238 0.0000
# 3 33.5563 51.9178 161.8682 0.0000 -11.6722 0.0000
# 4 0.0000 0.0000 0.0000 37.7509 0.0000 -4.8610
# 5 21.2557 -3.1238 -11.6722 0.0000 59.7364 0.0000
# 6 0.0000 0.0000 0.0000 -4.8610 0.0000 51.4910
#
#
#
# Elastic Compliance Matrix: (Units=1/GPa)
#
#
# Indices 1 2 3 4 5 6 
#
# 1 0.016262 -0.002198 -0.003136 0.000000 -0.006514 0.000000
# 2 -0.002198 0.007329 -0.001837 0.000000 0.000806 0.000000
# 3 -0.003136 -0.001837 0.007598 0.000000 0.002504 0.000000
# 4 0.000000 0.000000 0.000000 0.026815 0.000000 0.002532
# 5 -0.006514 0.000806 0.002504 0.000000 0.019590 0.000000
# 6 0.000000 0.000000 0.000000 0.002532 0.000000 0.019660
#
#
# Mechanical properties :
#
#
# Convention : Reuss Voigt Hill
#
# Bulk Modulus (GPa) = 59.35632 70.30016 64.82824
# Shear Modulus (GPa) = 42.65819 48.83509 45.74664
#
# Velocity S-wave (km/s) = 3.88291 4.15453 4.02101
# Velocity P-wave (km/s) = 6.40947 6.91810 6.66864
#
# Compressibility (1/GPa) = 0.01684741
#
# Stress axis : x y z
#
# Youngs Moduli (GPa) = 61.49375 136.44118 131.61714
#
# Poissons Ratio (x) = 0.29984 0.41276
# Poissons Ratio (y) = 0.13514 0.24179
# Poissons Ratio (z) = 0.19285 0.25065
#
# Static dielectric constant tensor:
#      x y z
#    x 2.254580 0.000000 -0.048460 
#    y 0.000000 2.251450 0.000000 
#    z -0.048460 0.000000 2.223300 
# 
# From -- ./inp_files/13502.got.cif
#   From: 2010.05.17/outbox.cif.g08.bks.cpg/sg4_7_cif.got.tgz:13502.got - 2010.06.03 18:43:04.
