data_PCOD9118931
_publ_section_title
;
Structure prediction by ZEFSAII (Michael W. Deem and Ramdas Pophale) SiO2 
 PCOD9118931
Probable space group: P 21
;
_chemical_formula_sum "Si O2"
_cell_formula_units_Z 16
_cell_length_a 9.472069
_cell_length_b 8.614049
_cell_length_c 8.697230
_cell_angle_alpha 90.000000
_cell_angle_beta 105.338994
_cell_angle_gamma 90.000000
_cell_volume 684.353141
_symmetry_space_group_name_H-M "P 21"
_symmetry_group_IT_number 4
_symmetry_cell_setting 'monoclinic'
loop_
_space_group_symop_operation_xyz
x,y,z
-x,1/2+y,-z
loop_
_atom_site_type_symbol
_atom_site_label
_atom_site_fract_x
_atom_site_fract_y
_atom_site_fract_z
Si Si1 0.555857 0.926130 0.208359
Si Si2 0.678446 0.228859 0.743897
Si Si3 0.472791 0.989334 0.861407
Si Si4 0.841654 0.590243 0.112170
Si Si5 0.852119 0.785684 0.401341
Si Si6 0.331015 0.736502 0.619276
Si Si7 0.959625 0.264813 0.021394
Si Si8 0.959533 0.123304 0.337531
O O1 0.400816 0.890450 0.239860
O O2 0.681595 0.823228 0.325319
O O3 0.600719 0.100473 0.257938
O O4 0.550578 0.899391 0.024230
O O5 0.660436 0.200525 0.558313
O O6 0.585851 0.110363 0.822158
O O7 0.842722 0.236197 0.852368
O O8 0.409758 0.889666 0.702060
O O9 0.328222 0.054391 0.906701
O O10 0.897835 0.656437 0.290577
O O11 0.924587 0.433726 0.081825
O O12 0.882056 0.725245 0.002440
O O13 0.888940 0.705603 0.573220
O O14 0.932719 0.948752 0.387758
O O15 0.160773 0.732154 0.614721
O O16 0.933413 0.140925 0.149721
#
# Coordination Sequence:
#
# PCOD9118931 Si02
#       8
#     2   2   2   2   2   2   2   2
#     4  11  23  46  71 109 143 197 250 305 382 452
#     4  12  24  46  74 107 147 191 254 313 377 458
#     4  12  24  47  78 105 151 201 248 312 386 454
#     4  12  25  47  70 108 143 200 250 312 380 450
#     4  11  24  43  73 103 148 195 246 309 380 453
#     4  11  25  43  72 108 149 193 249 312 374 452
#     4  12  26  47  72 108 147 199 257 312 380 462
#     4  11  23  45  70 104 150 198 246 311 381 449
#
# _framework density 23.379743000000001
#
# number of rings (size 3 to 8) (size 9 to 14) (size 15 to 20)
#    0.000    0.500    3.750    5.250    0.000    1.000 
#    2.250    0.000    0.000    0.000    0.000    0.000 
#    0.000    0.000    0.000    0.000    0.000    0.000 
#
# Total GULP energy -89492.827056 kJ/mol
# GULP energy per Si atom -5593.301691 kJ/mol
# Density = 2.332653 g / cm^3
# Si number density = 23.379743 Si / 1000 Ang^3
#
#
#
# Elastic Constant Matrix: (Units=GPa)
#
#
# Indices 1 2 3 4 5 6 
#
# 1 78.5695 7.1420 23.0645 0.0000 -0.4082 0.0000
# 2 7.1420 59.2068 11.0869 0.0000 14.8889 0.0000
# 3 23.0645 11.0869 118.8758 0.0000 4.6024 0.0000
# 4 0.0000 0.0000 0.0000 45.9521 0.0000 1.8308
# 5 -0.4082 14.8889 4.6024 0.0000 36.4343 0.0000
# 6 0.0000 0.0000 0.0000 1.8308 0.0000 33.0999
#
#
#
# Elastic Compliance Matrix: (Units=1/GPa)
#
#
# Indices 1 2 3 4 5 6 
#
# 1 0.013611 -0.001431 -0.002548 0.000000 0.001059 0.000000
# 2 -0.001431 0.019232 -0.001217 0.000000 -0.007722 0.000000
# 3 -0.002548 -0.001217 0.009046 0.000000 -0.000674 0.000000
# 4 0.000000 0.000000 0.000000 0.021810 0.000000 -0.001206
# 5 0.001059 -0.007722 -0.000674 0.000000 0.030699 0.000000
# 6 0.000000 0.000000 0.000000 -0.001206 0.000000 0.030278
#
#
# Mechanical properties :
#
#
# Convention : Reuss Voigt Hill
#
# Bulk Modulus (GPa) = 31.74947 37.69320 34.72134
# Shear Modulus (GPa) = 34.34799 37.45451 35.90125
#
# Velocity S-wave (km/s) = 3.83709 4.00685 3.92289
# Velocity P-wave (km/s) = 5.76545 6.12892 5.94996
#
# Compressibility (1/GPa) = 0.03149659
#
# Stress axis : x y z
#
# Youngs Moduli (GPa) = 73.46850 51.99603 110.54376
#
# Poissons Ratio (x) = 0.07441 0.28171
# Poissons Ratio (y) = 0.10514 0.13454
# Poissons Ratio (z) = 0.18723 0.06328
#
# Static dielectric constant tensor:
#      x y z
#    x 1.863050 0.000000 0.023460 
#    y 0.000000 1.902250 0.000000 
#    z 0.023460 0.000000 1.882020 
# 
# From -- ./inp_files/5515.got.cif
#   From: 2010.05.17/outbox.cif.g08.bks.cpg/sg4_3_cif.got.tgz:5515.got - 2010.06.03 18:43:04.
