data_PCOD9118103
_publ_section_title
;
Structure prediction by ZEFSAII (Michael W. Deem and Ramdas Pophale) SiO2 
 PCOD9118103
Probable space group: P 21
;
_chemical_formula_sum "Si O2"
_cell_formula_units_Z 14
_cell_length_a 9.081062
_cell_length_b 9.216452
_cell_length_c 8.356163
_cell_angle_alpha 90.000000
_cell_angle_beta 126.365702
_cell_angle_gamma 90.000000
_cell_volume 563.167313
_symmetry_space_group_name_H-M "P 21"
_symmetry_group_IT_number 4
_symmetry_cell_setting 'monoclinic'
loop_
_space_group_symop_operation_xyz
x,y,z
-x,1/2+y,-z
loop_
_atom_site_type_symbol
_atom_site_label
_atom_site_fract_x
_atom_site_fract_y
_atom_site_fract_z
Si Si1 0.788905 0.288870 0.262517
Si Si2 0.164715 0.323855 0.639873
Si Si3 0.734761 0.590088 0.072944
Si Si4 0.429300 0.788703 0.553231
Si Si5 0.459607 0.482716 0.628668
Si Si6 0.140172 0.290210 0.107836
Si Si7 0.901628 0.062838 0.134860
O O1 0.812727 0.442826 0.193357
O O2 0.658529 0.315507 0.330644
O O3 0.736762 0.165506 0.098877
O O4 0.983242 0.243430 0.463650
O O5 0.298073 0.208147 0.810586
O O6 0.285922 0.395756 0.580076
O O7 0.090075 0.447304 0.713363
O O8 0.565496 0.542970 0.852818
O O9 0.871615 0.682039 0.051339
O O10 0.390042 0.622307 0.486343
O O11 0.392850 0.896924 0.384084
O O12 0.647108 0.800935 0.711239
O O13 0.037688 0.194802 0.174994
O O14 0.094842 0.450854 0.012841
#
# Coordination Sequence:
#
# PCOD9118103 Si02
#       7
#     2   2   2   2   2   2   2
#     4  12  25  44  76 108 145 195 240 302 367 441
#     4  11  25  46  75 105 149 184 253 300 363 439
#     4  10  26  43  75 105 144 192 243 301 360 437
#     4  11  27  45  73 106 149 191 249 296 376 433
#     4  11  26  48  71 106 145 196 242 307 363 437
#     4  10  24  45  71 109 148 191 242 310 360 441
#     4  11  23  45  71 103 146 187 245 296 369 428
#
# _framework density 24.859399
#
# number of rings (size 3 to 8) (size 9 to 14) (size 15 to 20)
#    0.000    1.143    1.429    2.571   12.000    1.143 
#    2.571    0.000    0.000    0.000    0.000    0.000 
#    0.000    0.000    0.000    0.000    0.000    0.000 
#
# Total GULP energy -78121.966155 kJ/mol
# GULP energy per Si atom -5580.140440 kJ/mol
# Density = 2.480282 g / cm^3
# Si number density = 24.859399 Si / 1000 Ang^3
#
#
#
# Elastic Constant Matrix: (Units=GPa)
#
#
# Indices 1 2 3 4 5 6 
#
# 1 104.2262 46.4758 43.2035 0.0000 -9.9707 0.0000
# 2 46.4758 154.9763 43.4095 0.0000 -18.5461 0.0000
# 3 43.2035 43.4095 53.5477 0.0000 -4.9987 0.0000
# 4 0.0000 0.0000 0.0000 43.7806 0.0000 -19.6827
# 5 -9.9707 -18.5461 -4.9987 0.0000 26.4503 0.0000
# 6 0.0000 0.0000 0.0000 -19.6827 0.0000 49.6579
#
#
#
# Elastic Compliance Matrix: (Units=1/GPa)
#
#
# Indices 1 2 3 4 5 6 
#
# 1 0.014833 -0.001081 -0.010831 0.000000 0.002787 0.000000
# 2 -0.001081 0.009031 -0.006002 0.000000 0.004791 0.000000
# 3 -0.010831 -0.006002 0.032071 0.000000 -0.002230 0.000000
# 4 0.000000 0.000000 0.000000 0.027794 0.000000 0.011017
# 5 0.002787 0.004791 -0.002230 0.000000 0.041795 0.000000
# 6 0.000000 0.000000 0.000000 0.011017 0.000000 0.024504
#
#
# Mechanical properties :
#
#
# Convention : Reuss Voigt Hill
#
# Bulk Modulus (GPa) = 49.73349 64.32531 57.02940
# Shear Modulus (GPa) = 25.96616 35.95518 30.96067
#
# Velocity S-wave (km/s) = 3.23541 3.80721 3.53290
# Velocity P-wave (km/s) = 5.83151 6.72742 6.29543
#
# Compressibility (1/GPa) = 0.02010717
#
# Stress axis : x y z
#
# Youngs Moduli (GPa) = 67.41863 110.72660 31.18076
#
# Poissons Ratio (x) = 0.11968 0.33772
# Poissons Ratio (y) = 0.07287 0.18715
# Poissons Ratio (z) = 0.73021 0.66459
#
# Static dielectric constant tensor:
#      x y z
#    x 1.985210 0.000000 -0.041630 
#    y 0.000000 2.026320 0.000000 
#    z -0.041630 0.000000 2.056920 
# 
# From -- ./inp_files/5285.got.cif
#   From: 2010.05.17/outbox.cif.g08.bks.cpg/sg4_3_cif.got.tgz:5285.got - 2010.06.03 18:43:04.
