data_PCOD9118814
_publ_section_title
;
Structure prediction by ZEFSAII (Michael W. Deem and Ramdas Pophale) SiO2 
 PCOD9118814
Probable space group: P 21
;
_chemical_formula_sum "Si O2"
_cell_formula_units_Z 16
_cell_length_a 6.533635
_cell_length_b 10.758348
_cell_length_c 11.148425
_cell_angle_alpha 90.000000
_cell_angle_beta 70.739203
_cell_angle_gamma 90.000000
_cell_volume 739.772754
_symmetry_space_group_name_H-M "P 21"
_symmetry_group_IT_number 4
_symmetry_cell_setting 'monoclinic'
loop_
_space_group_symop_operation_xyz
x,y,z
-x,1/2+y,-z
loop_
_atom_site_type_symbol
_atom_site_label
_atom_site_fract_x
_atom_site_fract_y
_atom_site_fract_z
Si Si1 0.648015 0.923680 0.421726
Si Si2 0.821953 0.550174 0.184655
Si Si3 0.934483 0.581682 0.624684
Si Si4 0.857251 0.187075 0.045319
Si Si5 0.935499 0.812150 0.782454
Si Si6 0.474244 0.903720 0.932149
Si Si7 0.672172 0.648390 0.452120
Si Si8 0.526351 0.993520 0.191327
O O1 0.607358 0.790993 0.492417
O O2 0.590818 0.909634 0.291808
O O3 0.892461 0.972340 0.393128
O O4 0.505747 0.041008 0.493626
O O5 0.642050 0.512296 0.121455
O O6 0.739458 0.642858 0.301076
O O7 0.899577 0.426412 0.239287
O O8 0.029482 0.605215 0.077015
O O9 0.002861 0.712294 0.670391
O O10 0.869084 0.608768 0.500707
O O11 0.713505 0.544091 0.735997
O O12 0.704952 0.295423 0.025380
O O13 0.042279 0.244526 0.093211
O O14 0.701651 0.103779 0.157587
O O15 0.688923 0.858753 0.820824
O O16 0.533402 0.940039 0.056183
#
# Coordination Sequence:
#
# PCOD9118814 Si02
#       8
#     2   2   2   2   2   2   2   2
#     4  11  28  50  74  99 145 183 249 303 349 426
#     4  11  27  42  67 106 144 182 237 295 350 431
#     4  11  25  45  75  96 140 189 240 291 360 417
#     4  11  23  41  66 106 144 180 229 291 353 426
#     4  11  23  42  71  99 143 188 229 293 360 428
#     4  11  25  40  70 103 148 184 230 286 364 434
#     4  11  30  47  72 105 137 193 243 297 356 420
#     4  11  23  43  67 108 135 185 231 284 358 424
#
# _framework density 21.628266
#
# number of rings (size 3 to 8) (size 9 to 14) (size 15 to 20)
#    0.000    1.000    3.750    0.750    8.750    1.000 
#    0.000    0.000    0.000    0.000    0.000    0.000 
#    0.000    0.000    0.000    0.000    0.000    0.000 
#
# Total GULP energy -89455.936707 kJ/mol
# GULP energy per Si atom -5590.996044 kJ/mol
# Density = 2.157904 g / cm^3
# Si number density = 21.628266 Si / 1000 Ang^3
#
#
#
# Elastic Constant Matrix: (Units=GPa)
#
#
# Indices 1 2 3 4 5 6 
#
# 1 80.9853 19.6888 16.1914 0.0000 -3.1459 0.0000
# 2 19.6888 87.8273 11.8784 0.0000 -6.7395 0.0000
# 3 16.1914 11.8784 39.9816 0.0000 -5.9708 0.0000
# 4 0.0000 0.0000 0.0000 28.5071 0.0000 -1.0945
# 5 -3.1459 -6.7395 -5.9708 0.0000 26.9726 0.0000
# 6 0.0000 0.0000 0.0000 -1.0945 0.0000 20.3296
#
#
#
# Elastic Compliance Matrix: (Units=1/GPa)
#
#
# Indices 1 2 3 4 5 6 
#
# 1 0.013927 -0.002463 -0.004920 0.000000 -0.000080 0.000000
# 2 -0.002463 0.012433 -0.002353 0.000000 0.002298 0.000000
# 3 -0.004920 -0.002353 0.028471 0.000000 0.005141 0.000000
# 4 0.000000 0.000000 0.000000 0.035152 0.000000 0.001892
# 5 -0.000080 0.002298 0.005141 0.000000 0.038778 0.000000
# 6 0.000000 0.000000 0.000000 0.001892 0.000000 0.049291
#
#
# Mechanical properties :
#
#
# Convention : Reuss Voigt Hill
#
# Bulk Modulus (GPa) = 28.28198 33.81238 31.04718
# Shear Modulus (GPa) = 23.88799 25.89757 24.89278
#
# Velocity S-wave (km/s) = 3.32698 3.46409 3.39623
# Velocity P-wave (km/s) = 5.27856 5.62737 5.45575
#
# Compressibility (1/GPa) = 0.03535820
#
# Stress axis : x y z
#
# Youngs Moduli (GPa) = 71.80143 80.43302 35.12352
#
# Poissons Ratio (x) = 0.19810 0.17282
# Poissons Ratio (y) = 0.17684 0.08265
# Poissons Ratio (z) = 0.35329 0.18927
#
# Static dielectric constant tensor:
#      x y z
#    x 1.782010 0.000000 0.021810 
#    y 0.000000 1.817590 0.000000 
#    z 0.021810 0.000000 1.776700 
# 
# From -- ./inp_files/2722.got.cif
#   From: 2010.05.17/outbox.cif.g08.bks.cpg/sg4_2_cif.got.tgz:2722.got - 2010.06.03 18:43:04.
