data_PCOD9118206
_publ_section_title
;
Structure prediction by ZEFSAII (Michael W. Deem and Ramdas Pophale) SiO2 
 PCOD9118206
Probable space group: P 21
;
_chemical_formula_sum "Si O2"
_cell_formula_units_Z 16
_cell_length_a 20.876223
_cell_length_b 5.541766
_cell_length_c 5.011486
_cell_angle_alpha 90.000000
_cell_angle_beta 98.980859
_cell_angle_gamma 90.000000
_cell_volume 572.676701
_symmetry_space_group_name_H-M "P 21"
_symmetry_group_IT_number 4
_symmetry_cell_setting 'monoclinic'
loop_
_space_group_symop_operation_xyz
x,y,z
-x,1/2+y,-z
loop_
_atom_site_type_symbol
_atom_site_label
_atom_site_fract_x
_atom_site_fract_y
_atom_site_fract_z
Si Si1 0.676341 0.190290 0.363433
Si Si2 0.299670 0.188803 0.333162
Si Si3 0.421625 0.179482 0.108192
Si Si4 0.930323 0.412991 0.175843
Si Si5 0.846072 0.727745 0.903619
Si Si6 0.068477 0.563184 0.343167
Si Si7 0.182706 0.708610 0.794210
Si Si8 0.549917 0.403969 0.363102
O O1 0.678995 0.427265 0.549929
O O2 0.743134 0.236657 0.239244
O O3 0.598828 0.207707 0.256981
O O4 0.687818 0.931828 0.496408
O O5 0.345659 0.230896 0.105723
O O6 0.223821 0.161014 0.277865
O O7 0.439267 0.953009 0.316845
O O8 0.474591 0.361382 0.256403
O O9 0.432545 0.133826 0.806474
O O10 0.922101 0.690134 0.075265
O O11 0.841868 0.443081 0.062053
O O12 0.000764 0.439112 0.366936
O O13 0.937025 0.232070 0.922758
O O14 0.821353 0.958039 0.066005
O O15 0.876632 0.862630 0.653056
O O16 0.106569 0.734424 0.595935
#
# Coordination Sequence:
#
# PCOD9118206 Si02
#       8
#     2   2   2   2   2   2   2   2
#     4  11  26  49  77 109 154 202 250 317 393 462
#     4  11  27  48  78 111 152 202 251 323 384 467
#     4  11  25  46  76 116 158 209 263 323 395 471
#     4  10  25  44  72  99 146 193 249 318 396 470
#     4  12  26  46  75 107 143 196 258 314 392 476
#     4  10  24  48  66 106 145 192 246 326 389 470
#     4  10  26  45  73 106 139 198 250 308 391 466
#     4  11  25  46  77 116 159 210 261 327 390 476
#
# _framework density 27.938977999999999
#
# number of rings (size 3 to 8) (size 9 to 14) (size 15 to 20)
#    0.750    0.500    1.250    2.250    7.000    6.000 
#    4.500    0.000    0.000    0.000    0.000    0.000 
#    0.000    0.000    0.000    0.000    0.000    0.000 
#
# Total GULP energy -89106.824778 kJ/mol
# GULP energy per Si atom -5569.176549 kJ/mol
# Density = 2.787539 g / cm^3
# Si number density = 27.938978 Si / 1000 Ang^3
#
#
#
# Elastic Constant Matrix: (Units=GPa)
#
#
# Indices 1 2 3 4 5 6 
#
# 1 99.0637 14.4004 4.3163 0.0000 -13.1592 0.0000
# 2 14.4004 120.8279 37.9949 0.0000 3.0147 0.0000
# 3 4.3163 37.9949 93.0760 0.0000 10.4120 0.0000
# 4 0.0000 0.0000 0.0000 35.2244 0.0000 9.1247
# 5 -13.1592 3.0147 10.4120 0.0000 47.9509 0.0000
# 6 0.0000 0.0000 0.0000 9.1247 0.0000 48.1751
#
#
#
# Elastic Compliance Matrix: (Units=1/GPa)
#
#
# Indices 1 2 3 4 5 6 
#
# 1 0.010700 -0.001248 -0.000332 0.000000 0.003087 0.000000
# 2 -0.001248 0.009644 -0.003867 0.000000 -0.000109 0.000000
# 3 -0.000332 -0.003867 0.012627 0.000000 -0.002590 0.000000
# 4 0.000000 0.000000 0.000000 0.029854 0.000000 -0.005655
# 5 0.003087 -0.000109 -0.002590 0.000000 0.022271 0.000000
# 6 0.000000 0.000000 0.000000 -0.005655 0.000000 0.021829
#
#
# Mechanical properties :
#
#
# Convention : Reuss Voigt Hill
#
# Bulk Modulus (GPa) = 45.29340 47.37672 46.33506
# Shear Modulus (GPa) = 39.94316 43.35384 41.64850
#
# Velocity S-wave (km/s) = 3.78518 3.94348 3.86514
# Velocity P-wave (km/s) = 5.94560 6.14237 6.04479
#
# Compressibility (1/GPa) = 0.02207827
#
# Stress axis : x y z
#
# Youngs Moduli (GPa) = 93.45393 103.69646 79.19278
#
# Poissons Ratio (x) = 0.12940 0.02631
# Poissons Ratio (y) = 0.11662 0.30620
# Poissons Ratio (z) = 0.03104 0.40095
#
# Static dielectric constant tensor:
#      x y z
#    x 2.549490 0.000000 0.041410 
#    y 0.000000 2.217930 0.000000 
#    z 0.041410 0.000000 2.436780 
# 
# From -- ./inp_files/4243.got.cif
#   From: 2010.05.17/outbox.cif.g08.bks.cpg/sg4_3_cif.got.tgz:4243.got - 2010.06.03 18:43:04.
