data_PCOD9118049
_publ_section_title
;
Structure prediction by ZEFSAII (Michael W. Deem and Ramdas Pophale) SiO2 
 PCOD9118049
Probable space group: P 21
;
_chemical_formula_sum "Si O2"
_cell_formula_units_Z 12
_cell_length_a 17.736550
_cell_length_b 5.373417
_cell_length_c 13.474393
_cell_angle_alpha 90.000000
_cell_angle_beta 22.740502
_cell_angle_gamma 90.000000
_cell_volume 496.413587
_symmetry_space_group_name_H-M "P 21"
_symmetry_group_IT_number 4
_symmetry_cell_setting 'monoclinic'
loop_
_space_group_symop_operation_xyz
x,y,z
-x,1/2+y,-z
loop_
_atom_site_type_symbol
_atom_site_label
_atom_site_fract_x
_atom_site_fract_y
_atom_site_fract_z
Si Si1 0.246679 0.429220 0.656527
Si Si2 0.337965 0.802231 0.889328
Si Si3 0.222864 0.381533 0.155668
Si Si4 0.066114 0.544502 0.558928
Si Si5 0.518950 0.065743 0.912268
Si Si6 0.196779 0.923788 0.843213
O O1 0.447477 0.413178 0.353207
O O2 0.244802 0.696172 0.712202
O O3 0.245405 0.192158 0.735219
O O4 0.037354 0.412996 0.856491
O O5 0.308001 0.860654 0.809428
O O6 0.358297 0.536057 0.918211
O O7 0.119908 0.874492 0.192566
O O8 0.141588 0.501045 0.355033
O O9 0.035635 0.311124 0.317883
O O10 0.348073 0.148019 0.045481
O O11 0.257684 0.531496 0.392255
O O12 0.529702 0.307667 0.972912
#
# Coordination Sequence:
#
# PCOD9118049 Si02
#       6
#     2   2   2   2   2   2
#     4  10  24  48  72 100 137 175 228 297 357 416
#     4  12  26  40  74 104 136 186 236 282 352 428
#     4  11  24  43  65  98 145 189 235 289 338 406
#     4  11  24  43  65  98 145 189 235 289 338 406
#     4  10  24  44  68  90 134 198 240 282 340 396
#     4  10  24  48  72 100 137 175 228 297 357 416
#
# _framework density 24.173393999999998
#
# number of rings (size 3 to 8) (size 9 to 14) (size 15 to 20)
#    0.000    1.333    1.667    2.000    9.333    2.667 
#    6.000    0.000    0.000    0.000    0.000    0.000 
#    0.000    0.000    0.000    0.000    0.000    0.000 
#
# Total GULP energy -66941.360598 kJ/mol
# GULP energy per Si atom -5578.446717 kJ/mol
# Density = 2.411837 g / cm^3
# Si number density = 24.173394 Si / 1000 Ang^3
#
#
#
# Elastic Constant Matrix: (Units=GPa)
#
#
# Indices 1 2 3 4 5 6 
#
# 1 82.3063 12.3791 21.4391 0.0000 -32.5366 0.0000
# 2 12.3791 99.7801 44.9369 0.0000 0.8610 0.0000
# 3 21.4391 44.9369 142.3327 0.0000 -27.3428 0.0000
# 4 0.0000 0.0000 0.0000 51.4039 0.0000 -3.5679
# 5 -32.5366 0.8610 -27.3428 0.0000 38.7625 0.0000
# 6 0.0000 0.0000 0.0000 -3.5679 0.0000 19.0258
#
#
#
# Elastic Compliance Matrix: (Units=1/GPa)
#
#
# Indices 1 2 3 4 5 6 
#
# 1 0.018966 -0.003125 0.001390 0.000000 0.016970 0.000000
# 2 -0.003125 0.012577 -0.004694 0.000000 -0.006214 0.000000
# 3 0.001390 -0.004694 0.009882 0.000000 0.008241 0.000000
# 4 0.000000 0.000000 0.000000 0.019710 0.000000 0.003696
# 5 0.016970 -0.006214 0.008241 0.000000 0.045993 0.000000
# 6 0.000000 0.000000 0.000000 0.003696 0.000000 0.053254
#
#
# Mechanical properties :
#
#
# Convention : Reuss Voigt Hill
#
# Bulk Modulus (GPa) = 35.00625 53.54771 44.27698
# Shear Modulus (GPa) = 27.35786 38.21605 32.78695
#
# Velocity S-wave (km/s) = 3.36778 3.98038 3.68683
# Velocity P-wave (km/s) = 5.44383 6.58211 6.03985
#
# Compressibility (1/GPa) = 0.02856633
#
# Stress axis : x y z
#
# Youngs Moduli (GPa) = 52.72577 79.50841 101.19891
#
# Poissons Ratio (x) = 0.24849 -0.14066
# Poissons Ratio (y) = 0.16479 0.47501
# Poissons Ratio (z) = -0.07328 0.37320
#
# Static dielectric constant tensor:
#      x y z
#    x 1.946410 0.000000 0.057410 
#    y 0.000000 2.179360 0.000000 
#    z 0.057410 0.000000 1.935110 
# 
# From -- ./inp_files/14377.got.cif
#   From: 2010.05.17/outbox.cif.g08.bks.cpg/sg4_8_cif.got.tgz:14377.got - 2010.06.03 18:43:04.
