data_PCOD9118259
_publ_section_title
;
Structure prediction by ZEFSAII (Michael W. Deem and Ramdas Pophale) SiO2 
 PCOD9118259
Probable space group: P 21
;
_chemical_formula_sum "Si O2"
_cell_formula_units_Z 16
_cell_length_a 5.030931
_cell_length_b 11.927571
_cell_length_c 11.370952
_cell_angle_alpha 90.000000
_cell_angle_beta 62.638977
_cell_angle_gamma 90.000000
_cell_volume 606.000355
_symmetry_space_group_name_H-M "P 21"
_symmetry_group_IT_number 4
_symmetry_cell_setting 'monoclinic'
loop_
_space_group_symop_operation_xyz
x,y,z
-x,1/2+y,-z
loop_
_atom_site_type_symbol
_atom_site_label
_atom_site_fract_x
_atom_site_fract_y
_atom_site_fract_z
Si Si1 0.828138 0.772840 0.989383
Si Si2 0.450541 0.909665 0.224525
Si Si3 0.650502 0.962700 0.869222
Si Si4 0.916759 0.709632 0.477747
Si Si5 0.379929 0.837033 0.507178
Si Si6 0.076553 0.028361 0.124971
Si Si7 0.412068 0.529441 0.367563
Si Si8 0.017312 0.186850 0.798401
O O1 0.860361 0.873018 0.890367
O O2 0.868204 0.659370 0.908674
O O3 0.519389 0.811218 0.116014
O O4 0.003703 0.753813 0.075962
O O5 0.462390 0.864414 0.354312
O O6 0.173607 0.983330 0.233906
O O7 0.743367 0.991392 0.158863
O O8 0.627058 0.949712 0.735863
O O9 0.792611 0.084402 0.856275
O O10 0.320261 0.971069 0.989741
O O11 0.052560 0.787820 0.550725
O O12 0.094253 0.591817 0.456855
O O13 0.566834 0.737870 0.535207
O O14 0.011765 0.743527 0.323946
O O15 0.448589 0.952332 0.559788
O O16 0.656454 0.623742 0.280809
#
# Coordination Sequence:
#
# PCOD9118259 Si02
#       8
#     2   2   2   2   2   2   2   2
#     4  11  21  42  71  95 142 181 230 287 355 426
#     4  11  25  43  66 103 133 184 239 286 353 423
#     4  10  25  41  70 107 136 187 237 292 354 430
#     4  11  24  46  74 104 131 194 241 287 356 428
#     4  12  26  47  76 105 142 191 246 295 355 431
#     4  11  24  43  65 101 143 175 231 292 353 418
#     4  11  25  48  75 105 153 183 243 303 357 427
#     4  11  22  46  71 104 144 189 239 292 359 435
#
# _framework density 26.402626000000001
#
# number of rings (size 3 to 8) (size 9 to 14) (size 15 to 20)
#    0.000    1.000    3.750    2.250    5.250    4.000 
#    4.500    0.000    0.000    0.000    0.000    0.000 
#    0.000    0.000    0.000    0.000    0.000    0.000 
#
# Total GULP energy -89459.415970 kJ/mol
# GULP energy per Si atom -5591.213498 kJ/mol
# Density = 2.634253 g / cm^3
# Si number density = 26.402626 Si / 1000 Ang^3
#
#
#
# Elastic Constant Matrix: (Units=GPa)
#
#
# Indices 1 2 3 4 5 6 
#
# 1 137.2908 28.3107 31.3710 0.0000 41.5443 0.0000
# 2 28.3107 93.8937 48.3868 0.0000 37.7600 0.0000
# 3 31.3710 48.3868 82.5581 0.0000 42.3634 0.0000
# 4 0.0000 0.0000 0.0000 52.6567 0.0000 17.2701
# 5 41.5443 37.7600 42.3634 0.0000 49.0249 0.0000
# 6 0.0000 0.0000 0.0000 17.2701 0.0000 44.2135
#
#
#
# Elastic Compliance Matrix: (Units=1/GPa)
#
#
# Indices 1 2 3 4 5 6 
#
# 1 0.009846 0.000354 0.000849 0.000000 -0.009350 0.000000
# 2 0.000354 0.016846 -0.005742 0.000000 -0.008313 0.000000
# 3 0.000849 -0.005742 0.023815 0.000000 -0.016876 0.000000
# 4 0.000000 0.000000 0.000000 0.021781 0.000000 -0.008508
# 5 -0.009350 -0.008313 -0.016876 0.000000 0.049307 0.000000
# 6 0.000000 0.000000 0.000000 -0.008508 0.000000 0.025941
#
#
# Mechanical properties :
#
#
# Convention : Reuss Voigt Hill
#
# Bulk Modulus (GPa) = 24.13781 58.87552 41.50666
# Shear Modulus (GPa) = 29.33859 42.89062 36.11461
#
# Velocity S-wave (km/s) = 3.33708 4.03486 3.70245
# Velocity P-wave (km/s) = 4.90002 6.63734 5.83372
#
# Compressibility (1/GPa) = 0.04142878
#
# Stress axis : x y z
#
# Youngs Moduli (GPa) = 101.56260 59.36169 41.99029
#
# Poissons Ratio (x) = -0.02100 -0.03565
# Poissons Ratio (y) = -0.03594 0.24111
# Poissons Ratio (z) = -0.08623 0.34085
#
# Static dielectric constant tensor:
#      x y z
#    x 2.179460 0.000000 -0.015580 
#    y 0.000000 2.103830 0.000000 
#    z -0.015580 0.000000 2.087010 
# 
# From -- ./inp_files/10508.got.cif
#   From: 2010.05.17/outbox.cif.g08.bks.cpg/sg4_6_cif.got.tgz:10508.got - 2010.06.03 18:43:04.
