data_PCOD9118884
_publ_section_title
;
Structure prediction by ZEFSAII (Michael W. Deem and Ramdas Pophale) SiO2 
 PCOD9118884
Probable space group: P 21
;
_chemical_formula_sum "Si O2"
_cell_formula_units_Z 16
_cell_length_a 11.514140
_cell_length_b 6.126769
_cell_length_c 12.329962
_cell_angle_alpha 90.000000
_cell_angle_beta 51.065565
_cell_angle_gamma 90.000000
_cell_volume 676.595828
_symmetry_space_group_name_H-M "P 21"
_symmetry_group_IT_number 4
_symmetry_cell_setting 'monoclinic'
loop_
_space_group_symop_operation_xyz
x,y,z
-x,1/2+y,-z
loop_
_atom_site_type_symbol
_atom_site_label
_atom_site_fract_x
_atom_site_fract_y
_atom_site_fract_z
Si Si1 0.762618 0.444120 0.128008
Si Si2 0.774412 0.879010 0.648292
Si Si3 0.437761 0.370103 0.027025
Si Si4 0.319049 0.089229 0.484025
Si Si5 0.736155 0.014358 0.061784
Si Si6 0.005038 0.244793 0.139269
Si Si7 0.387929 0.299385 0.664734
Si Si8 0.921610 0.239055 0.420308
O O1 0.702312 0.268949 0.078512
O O2 0.628082 0.566872 0.266084
O O3 0.857385 0.318574 0.164069
O O4 0.886620 0.591577 0.995585
O O5 0.678172 0.715067 0.631074
O O6 0.936010 0.784248 0.587805
O O7 0.689044 0.918671 0.809525
O O8 0.809192 0.089108 0.554073
O O9 0.477387 0.109980 0.020046
O O10 0.378326 0.372883 0.938988
O O11 0.331705 0.257715 0.576398
O O12 0.454023 0.918680 0.422395
O O13 0.165108 0.955546 0.567957
O O14 0.721950 0.939211 0.194573
O O15 0.895573 0.965571 0.915240
O O16 0.976619 0.142158 0.273202
#
# Coordination Sequence:
#
# PCOD9118884 Si02
#       8
#     2   2   2   2   2   2   2   2
#     4  11  24  44  75 111 153 198 260 328 403 487
#     4  12  29  51  82 116 160 213 273 336 408 496
#     4  12  31  53  83 117 163 218 279 342 406 492
#     4  12  29  49  75 114 159 206 267 325 411 492
#     4  11  26  47  75 111 152 197 263 326 407 479
#     4  11  23  43  74 112 147 196 256 326 402 482
#     4  11  29  46  73 111 154 208 258 332 406 493
#     4  12  27  49  77 116 156 208 266 333 405 485
#
# _framework density 23.647798000000002
#
# number of rings (size 3 to 8) (size 9 to 14) (size 15 to 20)
#    0.000    0.500    5.000    0.750   12.250    2.000 
#    0.000    0.000    0.000    0.000    0.000    0.000 
#    0.000    0.000    0.000    0.000    0.000    0.000 
#
# Total GULP energy -89352.303778 kJ/mol
# GULP energy per Si atom -5584.518986 kJ/mol
# Density = 2.359397 g / cm^3
# Si number density = 23.647798 Si / 1000 Ang^3
#
#
#
# Elastic Constant Matrix: (Units=GPa)
#
#
# Indices 1 2 3 4 5 6 
#
# 1 100.8705 44.8570 21.7521 0.0000 13.9851 0.0000
# 2 44.8570 79.6517 30.8559 0.0000 1.6435 0.0000
# 3 21.7521 30.8559 106.5035 0.0000 11.6752 0.0000
# 4 0.0000 0.0000 0.0000 35.7622 0.0000 -4.2997
# 5 13.9851 1.6435 11.6752 0.0000 32.0226 0.0000
# 6 0.0000 0.0000 0.0000 -4.2997 0.0000 39.9371
#
#
#
# Elastic Compliance Matrix: (Units=1/GPa)
#
#
# Indices 1 2 3 4 5 6 
#
# 1 0.014229 -0.007901 0.000021 0.000000 -0.005816 0.000000
# 2 -0.007901 0.018549 -0.004202 0.000000 0.004031 0.000000
# 3 0.000021 -0.004202 0.011020 0.000000 -0.003811 0.000000
# 4 0.000000 0.000000 0.000000 0.028329 0.000000 0.003050
# 5 -0.005816 0.004031 -0.003811 0.000000 0.034951 0.000000
# 6 0.000000 0.000000 0.000000 0.003050 0.000000 0.025368
#
#
# Mechanical properties :
#
#
# Convention : Reuss Voigt Hill
#
# Bulk Modulus (GPa) = 50.93460 53.55062 52.24261
# Shear Modulus (GPa) = 30.64531 34.18175 32.41353
#
# Velocity S-wave (km/s) = 3.60377 3.80603 3.70628
# Velocity P-wave (km/s) = 6.23713 6.48142 6.36045
#
# Compressibility (1/GPa) = 0.01963302
#
# Stress axis : x y z
#
# Youngs Moduli (GPa) = 70.27677 53.91075 90.74095
#
# Poissons Ratio (x) = 0.42598 -0.00187
# Poissons Ratio (y) = 0.55529 0.38130
# Poissons Ratio (z) = -0.00145 0.22654
#
# Static dielectric constant tensor:
#      x y z
#    x 1.890120 0.000000 -0.000280 
#    y 0.000000 2.017790 0.000000 
#    z -0.000280 0.000000 1.862450 
# 
# From -- ./inp_files/11584.got.cif
#   From: 2010.05.17/outbox.cif.g08.bks.cpg/sg4_6_cif.got.tgz:11584.got - 2010.06.03 18:43:04.
