data_PCOD9118452
_publ_section_title
;
Structure prediction by ZEFSAII (Michael W. Deem and Ramdas Pophale) SiO2 
 PCOD9118452
Probable space group: P 21
;
_chemical_formula_sum "Si O2"
_cell_formula_units_Z 16
_cell_length_a 9.146834
_cell_length_b 11.659843
_cell_length_c 9.146793
_cell_angle_alpha 90.000000
_cell_angle_beta 46.170854
_cell_angle_gamma 90.000000
_cell_volume 703.741776
_symmetry_space_group_name_H-M "P 21"
_symmetry_group_IT_number 4
_symmetry_cell_setting 'monoclinic'
loop_
_space_group_symop_operation_xyz
x,y,z
-x,1/2+y,-z
loop_
_atom_site_type_symbol
_atom_site_label
_atom_site_fract_x
_atom_site_fract_y
_atom_site_fract_z
Si Si1 0.204424 0.967480 0.625473
Si Si2 0.184086 0.044150 0.972188
Si Si3 0.972183 0.816972 0.184092
Si Si4 0.625479 0.893642 0.204416
Si Si5 0.772613 0.687859 0.580076
Si Si6 0.034321 0.720720 0.684265
Si Si7 0.684271 0.140403 0.034309
Si Si8 0.580067 0.173265 0.772617
O O1 0.437978 0.930560 0.437973
O O2 0.072169 0.853263 0.696745
O O3 0.162520 0.064861 0.533396
O O4 0.179352 0.020244 0.803022
O O5 0.039216 0.144429 0.130824
O O6 0.411210 0.078553 0.857755
O O7 0.106288 0.930561 0.106291
O O8 0.803024 0.840877 0.179349
O O9 0.857746 0.782572 0.411218
O O10 0.130818 0.716692 0.039226
O O11 0.533409 0.796263 0.162502
O O12 0.696745 0.007862 0.072168
O O13 0.529869 0.686372 0.755900
O O14 0.867265 0.706296 0.673176
O O15 0.244118 0.674756 0.470127
O O16 0.673187 0.154824 0.867249
#
# Coordination Sequence:
#
# PCOD9118452 Si02
#       8
#     2   2   2   2   2   2   2   2
#     4  10  27  50  75 111 160 201 258 325 387 471
#     4  12  29  45  74 111 156 204 255 318 394 459
#     4  12  29  45  74 111 156 204 255 318 394 459
#     4  10  27  50  75 111 160 201 258 325 387 471
#     4  11  25  49  78 114 149 204 260 320 385 468
#     4  11  26  49  79 112 155 199 263 321 386 466
#     4  11  26  49  79 112 155 199 263 321 386 466
#     4  11  25  49  78 114 149 204 260 320 385 468
#
# _framework density 22.735610999999999
#
# number of rings (size 3 to 8) (size 9 to 14) (size 15 to 20)
#    0.000    1.000    2.500    0.750   14.000    0.000 
#    0.000    0.000    0.000    0.000    0.000    0.000 
#    0.000    0.000    0.000    0.000    0.000    0.000 
#
# Total GULP energy -89713.845117 kJ/mol
# GULP energy per Si atom -5607.115320 kJ/mol
# Density = 2.268386 g / cm^3
# Si number density = 22.735611 Si / 1000 Ang^3
#
#
#
# Elastic Constant Matrix: (Units=GPa)
#
#
# Indices 1 2 3 4 5 6 
#
# 1 159.4231 98.3375 72.7560 0.0000 1.5625 0.0000
# 2 98.3375 134.4815 86.7319 0.0000 6.9125 0.0000
# 3 72.7560 86.7319 145.8040 0.0000 6.5435 0.0000
# 4 0.0000 0.0000 0.0000 57.2467 0.0000 -11.0907
# 5 1.5625 6.9125 6.5435 0.0000 39.0504 0.0000
# 6 0.0000 0.0000 0.0000 -11.0907 0.0000 38.6350
#
#
#
# Elastic Compliance Matrix: (Units=1/GPa)
#
#
# Indices 1 2 3 4 5 6 
#
# 1 0.011602 -0.007747 -0.001231 0.000000 0.001113 0.000000
# 2 -0.007747 0.017272 -0.006333 0.000000 -0.001686 0.000000
# 3 -0.001231 -0.006333 0.011272 0.000000 -0.000719 0.000000
# 4 0.000000 0.000000 0.000000 0.018497 0.000000 0.005310
# 5 0.001113 -0.001686 -0.000719 0.000000 0.025982 0.000000
# 6 0.000000 0.000000 0.000000 0.005310 0.000000 0.027407
#
#
# Mechanical properties :
#
#
# Convention : Reuss Voigt Hill
#
# Bulk Modulus (GPa) = 104.99457 106.15104 105.57281
# Shear Modulus (GPa) = 34.28657 39.11197 36.69927
#
# Velocity S-wave (km/s) = 3.88758 4.15214 4.02204
# Velocity P-wave (km/s) = 8.15058 8.35331 8.25257
#
# Compressibility (1/GPa) = 0.00952430
#
# Stress axis : x y z
#
# Youngs Moduli (GPa) = 86.18976 57.89747 88.71521
#
# Poissons Ratio (x) = 0.44855 0.10921
# Poissons Ratio (y) = 0.66774 0.56180
# Poissons Ratio (z) = 0.10610 0.36664
#
# Static dielectric constant tensor:
#      x y z
#    x 1.805510 0.000000 -0.029750 
#    y 0.000000 1.836100 0.000000 
#    z -0.029750 0.000000 1.855450 
# 
# From -- ./inp_files/6406.got.cif
#   From: 2010.05.17/outbox.cif.g08.bks.cpg/sg4_4_cif.got.tgz:6406.got - 2010.06.03 18:43:04.
