data_PCOD9118678
_publ_section_title
;
Structure prediction by ZEFSAII (Michael W. Deem and Ramdas Pophale) SiO2 
 PCOD9118678
Probable space group: P 21
;
_chemical_formula_sum "Si O2"
_cell_formula_units_Z 10
_cell_length_a 7.125007
_cell_length_b 8.378199
_cell_length_c 11.914867
_cell_angle_alpha 90.000000
_cell_angle_beta 149.852619
_cell_angle_gamma 90.000000
_cell_volume 357.210621
_symmetry_space_group_name_H-M "P 21"
_symmetry_group_IT_number 4
_symmetry_cell_setting 'monoclinic'
loop_
_space_group_symop_operation_xyz
x,y,z
-x,1/2+y,-z
loop_
_atom_site_type_symbol
_atom_site_label
_atom_site_fract_x
_atom_site_fract_y
_atom_site_fract_z
Si Si1 0.585771 0.418130 0.198427
Si Si2 0.565873 0.463040 0.815006
Si Si3 0.849028 0.221685 0.801948
Si Si4 0.694164 0.239674 0.043985
Si Si5 0.451881 0.743335 0.603652
O O1 0.774161 0.284608 0.214434
O O2 0.663950 0.388689 0.372148
O O3 0.552930 0.589895 0.122782
O O4 0.159872 0.358224 0.969819
O O5 0.562819 0.300404 0.740080
O O6 0.356039 0.588881 0.629522
O O7 0.456177 0.392639 0.877683
O O8 0.940799 0.564172 0.045404
O O9 0.712331 0.219585 0.604510
O O10 0.097726 0.239738 0.189681
#
# Coordination Sequence:
#
# PCOD9118678 Si02
#       5
#     2   2   2   2   2
#     4  11  24  46  66 103 135 181 224 280 336 402
#     4  11  22  42  69  97 137 177 215 281 339 392
#     4  11  23  43  70 102 134 175 229 273 344 401
#     4  12  23  46  70  95 145 178 222 282 338 394
#     4  11  24  43  71 103 131 179 228 278 335 405
#
# _framework density 27.994686000000002
#
# number of rings (size 3 to 8) (size 9 to 14) (size 15 to 20)
#    0.000    0.800    6.000    2.400    2.800    0.000 
#    3.600    2.000    0.000    0.000    0.000    0.000 
#    0.000    0.000    0.000    0.000    0.000    0.000 
#
# Total GULP energy -55815.450106 kJ/mol
# GULP energy per Si atom -5581.545011 kJ/mol
# Density = 2.793097 g / cm^3
# Si number density = 27.994686 Si / 1000 Ang^3
#
#
#
# Elastic Constant Matrix: (Units=GPa)
#
#
# Indices 1 2 3 4 5 6 
#
# 1 119.6935 21.6413 47.9593 0.0000 -47.9226 0.0000
# 2 21.6413 165.7595 64.7100 0.0000 -33.6107 0.0000
# 3 47.9593 64.7100 228.8095 0.0000 -45.5876 0.0000
# 4 0.0000 0.0000 0.0000 7.2410 0.0000 -20.0180
# 5 -47.9226 -33.6107 -45.5876 0.0000 55.9087 0.0000
# 6 0.0000 0.0000 0.0000 -20.0180 0.0000 41.9653
#
#
#
# Elastic Compliance Matrix: (Units=1/GPa)
#
#
# Indices 1 2 3 4 5 6 
#
# 1 0.012881 0.000829 -0.000758 0.000000 0.010921 0.000000
# 2 0.000829 0.007284 -0.001456 0.000000 0.003902 0.000000
# 3 -0.000758 -0.001456 0.005537 0.000000 0.002989 0.000000
# 4 0.000000 0.000000 0.000000 -0.433298 0.000000 -0.206689
# 5 0.010921 0.003902 0.002989 0.000000 0.032031 0.000000
# 6 0.000000 0.000000 0.000000 -0.206689 0.000000 -0.074764
#
#
# Mechanical properties :
#
#
# Convention : Reuss Voigt Hill
#
# Bulk Modulus (GPa) = 43.61018 86.98706 65.29862
# Shear Modulus (GPa) = -11.36585 46.35311 17.49363
#
# Velocity S-wave (km/s) = -2.01713 4.07355 2.50249
# Velocity P-wave (km/s) = 3.19167 7.29830 5.63258
#
# Compressibility (1/GPa) = 0.02293042
#
# Stress axis : x y z
#
# Youngs Moduli (GPa) = 77.63189 137.27975 180.60852
#
# Poissons Ratio (x) = -0.11378 0.13698
# Poissons Ratio (y) = -0.06434 0.26304
# Poissons Ratio (z) = 0.05888 0.19993
#
# Static dielectric constant tensor:
#      x y z
#    x 2.449200 0.000000 0.086510 
#    y 0.000000 2.303530 0.000000 
#    z 0.086510 0.000000 2.220010 
# 
# From -- ./inp_files/10769.got.cif
#   From: 2010.05.17/outbox.cif.g08.bks.cpg/sg4_6_cif.got.tgz:10769.got - 2010.06.03 18:43:04.
