data_PCOD9118745
_publ_section_title
;
Structure prediction by ZEFSAII (Michael W. Deem and Ramdas Pophale) SiO2 
 PCOD9118745
Probable space group: P 21
;
_chemical_formula_sum "Si O2"
_cell_formula_units_Z 14
_cell_length_a 14.777935
_cell_length_b 8.407419
_cell_length_c 14.743886
_cell_angle_alpha 90.000000
_cell_angle_beta 19.097424
_cell_angle_gamma 90.000000
_cell_volume 599.334211
_symmetry_space_group_name_H-M "P 21"
_symmetry_group_IT_number 4
_symmetry_cell_setting 'monoclinic'
loop_
_space_group_symop_operation_xyz
x,y,z
-x,1/2+y,-z
loop_
_atom_site_type_symbol
_atom_site_label
_atom_site_fract_x
_atom_site_fract_y
_atom_site_fract_z
Si Si1 0.303662 0.262910 0.769828
Si Si2 0.089183 0.568441 0.184459
Si Si3 0.809806 0.696035 0.916355
Si Si4 0.813317 0.491105 0.259506
Si Si5 0.615521 0.672638 0.763781
Si Si6 0.233842 0.591844 0.386564
Si Si7 0.757052 0.382614 0.756298
O O1 0.248148 0.193389 0.922455
O O2 0.582285 0.364600 0.507025
O O3 0.303846 0.123352 0.696624
O O4 0.058670 0.388608 0.982185
O O5 0.936984 0.571218 0.232820
O O6 0.906245 0.651331 0.435918
O O7 0.149606 0.382163 0.147562
O O8 0.389002 0.646849 0.899390
O O9 0.560136 0.614208 0.097198
O O10 0.093762 0.615628 0.617596
O O11 0.617345 0.524484 0.831703
O O12 0.469909 0.812300 0.959579
O O13 0.167223 0.740646 0.384004
O O14 0.040370 0.452611 0.529148
#
# Coordination Sequence:
#
# PCOD9118745 Si02
#       7
#     2   2   2   2   2   2   2
#     4  11  24  46  76 107 142 184 235 289 362 434
#     4  11  22  45  73 101 140 197 236 287 360 440
#     4  11  22  45  73 101 140 197 236 287 360 440
#     4  11  24  46  76 107 142 184 235 289 362 434
#     4  12  26  45  71 102 148 188 246 297 357 425
#     4  12  26  45  71 102 148 188 246 297 357 425
#     4  12  28  46  72 106 144 196 242 310 356 422
#
# _framework density 23.359254
#
# number of rings (size 3 to 8) (size 9 to 14) (size 15 to 20)
#    0.000    0.571    2.857    6.000    0.000    5.714 
#    7.714    0.000    0.000    0.000    0.000    0.000 
#    0.000    0.000    0.000    0.000    0.000    0.000 
#
# Total GULP energy -78323.026860 kJ/mol
# GULP energy per Si atom -5594.501919 kJ/mol
# Density = 2.330609 g / cm^3
# Si number density = 23.359254 Si / 1000 Ang^3
#
#
#
# Elastic Constant Matrix: (Units=GPa)
#
#
# Indices 1 2 3 4 5 6 
#
# 1 102.9526 50.0067 25.2947 0.0000 6.8302 0.0000
# 2 50.0067 90.6741 20.1885 0.0000 12.2920 0.0000
# 3 25.2947 20.1885 121.6646 0.0000 -14.7619 0.0000
# 4 0.0000 0.0000 0.0000 46.8779 0.0000 -2.6005
# 5 6.8302 12.2920 -14.7619 0.0000 14.5743 0.0000
# 6 0.0000 0.0000 0.0000 -2.6005 0.0000 33.9689
#
#
#
# Elastic Compliance Matrix: (Units=1/GPa)
#
#
# Indices 1 2 3 4 5 6 
#
# 1 0.013660 -0.006681 -0.002080 0.000000 -0.002874 0.000000
# 2 -0.006681 0.017487 -0.003332 0.000000 -0.014993 0.000000
# 3 -0.002080 -0.003332 0.011018 0.000000 0.014945 0.000000
# 4 0.000000 0.000000 0.000000 0.021423 0.000000 0.001640
# 5 -0.002874 -0.014993 0.014945 0.000000 0.097743 0.000000
# 6 0.000000 0.000000 0.000000 0.001640 0.000000 0.029564
#
#
# Mechanical properties :
#
#
# Convention : Reuss Voigt Hill
#
# Bulk Modulus (GPa) = 55.61843 56.25235 55.93539
# Shear Modulus (GPa) = 22.61686 33.73764 28.17725
#
# Velocity S-wave (km/s) = 3.11500 3.80451 3.47689
# Velocity P-wave (km/s) = 6.06624 6.59035 6.33372
#
# Compressibility (1/GPa) = 0.01797965
#
# Stress axis : x y z
#
# Youngs Moduli (GPa) = 73.20684 57.18467 90.76087
#
# Poissons Ratio (x) = 0.38203 0.18879
# Poissons Ratio (y) = 0.48907 0.30241
# Poissons Ratio (z) = 0.15228 0.19053
#
# Static dielectric constant tensor:
#      x y z
#    x 1.844290 0.000000 -0.023400 
#    y 0.000000 2.073930 0.000000 
#    z -0.023400 0.000000 1.924250 
# 
# From -- ./inp_files/14168.got.cif
#   From: 2010.05.17/outbox.cif.g08.bks.cpg/sg4_8_cif.got.tgz:14168.got - 2010.06.03 18:43:04.
