data_PCOD9118664
_publ_section_title
;
Structure prediction by ZEFSAII (Michael W. Deem and Ramdas Pophale) SiO2 
 PCOD9118664
Probable space group: P 21
;
_chemical_formula_sum "Si O2"
_cell_formula_units_Z 16
_cell_length_a 10.411822
_cell_length_b 8.269295
_cell_length_c 8.740376
_cell_angle_alpha 90.000000
_cell_angle_beta 120.183996
_cell_angle_gamma 90.000000
_cell_volume 650.500699
_symmetry_space_group_name_H-M "P 21"
_symmetry_group_IT_number 4
_symmetry_cell_setting 'monoclinic'
loop_
_space_group_symop_operation_xyz
x,y,z
-x,1/2+y,-z
loop_
_atom_site_type_symbol
_atom_site_label
_atom_site_fract_x
_atom_site_fract_y
_atom_site_fract_z
Si Si1 0.145994 0.024210 0.949823
Si Si2 0.443307 0.247707 0.785608
Si Si3 0.235855 0.384321 0.445823
Si Si4 0.925770 0.253194 0.271916
Si Si5 0.064775 0.707373 0.377113
Si Si6 0.602378 0.935024 0.758392
Si Si7 0.542300 0.622977 0.860145
Si Si8 0.066783 0.457150 0.906553
O O1 0.086990 0.113426 0.761349
O O2 0.293173 0.095499 0.107911
O O3 0.186760 0.849122 0.904439
O O4 0.016218 0.032917 0.997229
O O5 0.285131 0.262471 0.607575
O O6 0.541281 0.115964 0.750896
O O7 0.475537 0.442789 0.808510
O O8 0.444983 0.173853 0.955418
O O9 0.083158 0.306767 0.294248
O O10 0.363878 0.399680 0.397867
O O11 0.188872 0.568086 0.455785
O O12 0.929740 0.287422 0.453335
O O13 0.906021 0.067281 0.225445
O O14 0.056922 0.832216 0.232230
O O15 0.492703 0.791746 0.751745
O O16 0.764993 0.920242 0.938748
#
# Coordination Sequence:
#
# PCOD9118664 Si02
#       8
#     2   2   2   2   2   2   2   2
#     4  11  22  41  69 103 140 182 240 309 375 441
#     4  12  29  49  75 108 148 207 256 300 371 446
#     4  11  27  48  66 108 155 190 249 305 376 448
#     4  11  23  40  69 108 146 185 232 310 389 441
#     4  11  23  40  68 106 148 182 230 312 382 438
#     4  12  26  50  77 105 152 196 253 316 360 454
#     4  12  26  49  76 105 144 199 259 306 366 447
#     4  12  22  43  74 107 137 185 245 304 379 447
#
# _framework density 24.596436000000001
#
# number of rings (size 3 to 8) (size 9 to 14) (size 15 to 20)
#    0.000    0.500    5.000    4.500    5.250    1.000 
#    2.250    0.000    0.000    0.000    0.000    0.000 
#    0.000    0.000    0.000    0.000    0.000    0.000 
#
# Total GULP energy -89219.806372 kJ/mol
# GULP energy per Si atom -5576.237898 kJ/mol
# Density = 2.454045 g / cm^3
# Si number density = 24.596436 Si / 1000 Ang^3
#
#
#
# Elastic Constant Matrix: (Units=GPa)
#
#
# Indices 1 2 3 4 5 6 
#
# 1 32.3027 6.8499 7.9861 0.0000 -5.9150 0.0000
# 2 6.8499 94.3855 32.4425 0.0000 -10.5682 0.0000
# 3 7.9861 32.4425 67.6217 0.0000 -17.9371 0.0000
# 4 0.0000 0.0000 0.0000 43.9222 0.0000 -5.5626
# 5 -5.9150 -10.5682 -17.9371 0.0000 29.6244 0.0000
# 6 0.0000 0.0000 0.0000 -5.5626 0.0000 32.0980
#
#
#
# Elastic Compliance Matrix: (Units=1/GPa)
#
#
# Indices 1 2 3 4 5 6 
#
# 1 0.032588 -0.001126 -0.002012 0.000000 0.004887 0.000000
# 2 -0.001126 0.012751 -0.005763 0.000000 0.000834 0.000000
# 3 -0.002012 -0.005763 0.020418 0.000000 0.009905 0.000000
# 4 0.000000 0.000000 0.000000 0.023278 0.000000 0.004034
# 5 0.004887 0.000834 0.009905 0.000000 0.041027 0.000000
# 6 0.000000 0.000000 0.000000 0.004034 0.000000 0.031854
#
#
# Mechanical properties :
#
#
# Convention : Reuss Voigt Hill
#
# Bulk Modulus (GPa) = 20.85315 32.09635 26.47475
# Shear Modulus (GPa) = 25.54880 30.93103 28.23991
#
# Velocity S-wave (km/s) = 3.22641 3.55003 3.39208
# Velocity P-wave (km/s) = 4.73035 5.46636 5.11162
#
# Compressibility (1/GPa) = 0.04795439
#
# Stress axis : x y z
#
# Youngs Moduli (GPa) = 30.68587 78.42569 48.97610
#
# Poissons Ratio (x) = 0.08833 0.09854
# Poissons Ratio (y) = 0.03456 0.28225
# Poissons Ratio (z) = 0.06174 0.45198
#
# Static dielectric constant tensor:
#      x y z
#    x 1.933890 0.000000 0.048240 
#    y 0.000000 2.199530 0.000000 
#    z 0.048240 0.000000 1.934250 
# 
# From -- ./inp_files/7893.got.cif
#   From: 2010.05.17/outbox.cif.g08.bks.cpg/sg4_4_cif.got.tgz:7893.got - 2010.06.03 18:43:04.
