data_PCOD9118847
_publ_section_title
;
Structure prediction by ZEFSAII (Michael W. Deem and Ramdas Pophale) SiO2 
 PCOD9118847
Probable space group: P 21
;
_chemical_formula_sum "Si O2"
_cell_formula_units_Z 12
_cell_length_a 11.779556
_cell_length_b 7.746664
_cell_length_c 7.892299
_cell_angle_alpha 90.000000
_cell_angle_beta 141.353525
_cell_angle_gamma 90.000000
_cell_volume 449.768332
_symmetry_space_group_name_H-M "P 21"
_symmetry_group_IT_number 4
_symmetry_cell_setting 'monoclinic'
loop_
_space_group_symop_operation_xyz
x,y,z
-x,1/2+y,-z
loop_
_atom_site_type_symbol
_atom_site_label
_atom_site_fract_x
_atom_site_fract_y
_atom_site_fract_z
Si Si1 0.458467 0.355690 0.719617
Si Si2 0.862563 0.999516 0.036284
Si Si3 0.553312 0.722010 0.654500
Si Si4 0.178429 0.833475 0.237794
Si Si5 0.193236 0.748086 0.712716
Si Si6 0.940721 0.953657 0.647858
O O1 0.525878 0.540258 0.717892
O O2 0.473371 0.222285 0.580487
O O3 0.248117 0.355948 0.531104
O O4 0.600562 0.314723 0.034556
O O5 0.739707 0.827668 0.890711
O O6 0.834576 0.133198 0.845050
O O7 0.066646 0.935767 0.248759
O O8 0.817887 0.106768 0.149294
O O9 0.389451 0.844824 0.523340
O O10 0.091216 0.926280 0.968773
O O11 0.132051 0.643571 0.477393
O O12 0.046255 0.885195 0.605656
#
# Coordination Sequence:
#
# PCOD9118847 Si02
#       6
#     2   2   2   2   2   2
#     4  12  25  46  74 111 147 192 249 305 375 427
#     4  11  25  41  71 110 141 191 247 301 372 422
#     4  12  23  43  75 108 146 180 246 317 359 426
#     4  11  23  42  72 107 144 190 242 306 367 429
#     4  11  28  49  69 106 149 199 242 301 365 440
#     4  11  26  49  71 104 149 194 250 288 374 444
#
# _framework density 26.680403999999999
#
# number of rings (size 3 to 8) (size 9 to 14) (size 15 to 20)
#    0.000    0.667    6.667    0.000    2.333   10.667 
#    0.000    0.000    0.000    0.000    0.000    0.000 
#    0.000    0.000    0.000    0.000    0.000    0.000 
#
# Total GULP energy -67135.982608 kJ/mol
# GULP energy per Si atom -5594.665217 kJ/mol
# Density = 2.661968 g / cm^3
# Si number density = 26.680404 Si / 1000 Ang^3
#
#
#
# Elastic Constant Matrix: (Units=GPa)
#
#
# Indices 1 2 3 4 5 6 
#
# 1 63.1307 -18.8115 10.2791 0.0000 15.2365 0.0000
# 2 -18.8115 93.0635 27.9599 0.0000 -15.3302 0.0000
# 3 10.2791 27.9599 90.7873 0.0000 15.6663 0.0000
# 4 0.0000 0.0000 0.0000 50.2715 0.0000 -1.6534
# 5 15.2365 -15.3302 15.6663 0.0000 43.3093 0.0000
# 6 0.0000 0.0000 0.0000 -1.6534 0.0000 39.2630
#
#
#
# Elastic Compliance Matrix: (Units=1/GPa)
#
#
# Indices 1 2 3 4 5 6 
#
# 1 0.018395 0.003779 -0.002518 0.000000 -0.004223 0.000000
# 2 0.003779 0.014208 -0.005804 0.000000 0.005799 0.000000
# 3 -0.002518 -0.005804 0.014174 0.000000 -0.006296 0.000000
# 4 0.000000 0.000000 0.000000 0.019920 0.000000 0.000839
# 5 -0.004223 0.005799 -0.006296 0.000000 0.028906 0.000000
# 6 0.000000 0.000000 0.000000 0.000839 0.000000 0.025505
#
#
# Mechanical properties :
#
#
# Convention : Reuss Voigt Hill
#
# Bulk Modulus (GPa) = 26.53119 31.75962 29.14541
# Shear Modulus (GPa) = 35.02434 41.73903 38.38169
#
# Velocity S-wave (km/s) = 3.62710 3.95955 3.79697
# Velocity P-wave (km/s) = 5.24469 5.73006 5.49274
#
# Compressibility (1/GPa) = 0.03769148
#
# Stress axis : x y z
#
# Youngs Moduli (GPa) = 54.36120 70.38047 70.55239
#
# Poissons Ratio (x) = -0.26598 0.17765
# Poissons Ratio (y) = -0.20544 0.40952
# Poissons Ratio (z) = 0.13688 0.40852
#
# Static dielectric constant tensor:
#      x y z
#    x 2.204230 0.000000 -0.040880 
#    y 0.000000 2.119340 0.000000 
#    z -0.040880 0.000000 2.128760 
# 
# From -- ./inp_files/7585.got.cif
#   From: 2010.05.17/outbox.cif.g08.bks.cpg/sg4_4_cif.got.tgz:7585.got - 2010.06.03 18:43:04.
