data_PCOD9118780
_publ_section_title
;
Structure prediction by ZEFSAII (Michael W. Deem and Ramdas Pophale) SiO2 
 PCOD9118780
Probable space group: P 21
;
_chemical_formula_sum "Si O2"
_cell_formula_units_Z 16
_cell_length_a 13.491409
_cell_length_b 11.339536
_cell_length_c 11.389770
_cell_angle_alpha 90.000000
_cell_angle_beta 147.590314
_cell_angle_gamma 90.000000
_cell_volume 933.915626
_symmetry_space_group_name_H-M "P 21"
_symmetry_group_IT_number 4
_symmetry_cell_setting 'monoclinic'
loop_
_space_group_symop_operation_xyz
x,y,z
-x,1/2+y,-z
loop_
_atom_site_type_symbol
_atom_site_label
_atom_site_fract_x
_atom_site_fract_y
_atom_site_fract_z
Si Si1 0.783859 0.532450 0.359149
Si Si2 0.500008 0.512679 0.420793
Si Si3 0.216345 0.686535 0.024742
Si Si4 0.216140 0.532455 0.791426
Si Si5 0.500004 0.360287 0.190258
Si Si6 0.500006 0.895885 0.325274
Si Si7 0.783667 0.686529 0.592072
Si Si8 0.499993 0.591642 0.875364
O O1 0.676678 0.417949 0.301302
O O2 0.763323 0.630150 0.441589
O O3 0.999999 0.510918 0.555763
O O4 0.676759 0.574910 0.136979
O O5 0.323281 0.595630 0.216924
O O6 0.500004 0.409913 0.322579
O O7 0.499999 0.459527 0.549369
O O8 0.676744 0.595623 0.570396
O O9 0.323298 0.809676 0.137683
O O10 0.236679 0.630158 0.914937
O O11 0.000008 0.696176 0.835320
O O12 0.323224 0.574917 0.783439
O O13 0.323335 0.417957 0.947954
O O14 0.499998 0.220929 0.180249
O O15 0.676707 0.809670 0.491097
O O16 0.500010 0.991574 0.222863
#
# Coordination Sequence:
#
# PCOD9118780 Si02
#       8
#     2   2   2   2   2   2   2   2
#     4   9  20  38  59  81 112 149 184 226 281 335
#     4   9  20  39  62  79 108 151 189 232 280 324
#     4   9  20  40  61  81 109 151 191 226 279 339
#     4   9  20  38  59  81 112 149 184 226 281 335
#     4   9  20  37  58  81 110 147 187 228 276 334
#     4  11  23  35  59  87 115 147 183 235 281 323
#     4   9  20  40  61  81 109 151 191 226 279 339
#     4  11  23  33  55  91 115 141 183 231 279 333
#
# _framework density 17.132168
#
# number of rings (size 3 to 8) (size 9 to 14) (size 15 to 20)
#    0.000    2.500    0.000    2.250   10.500    3.000 
#    0.000    0.000    0.000    0.000    0.000    0.000 
#    0.000    0.000    0.000    0.000    0.000    0.000 
#
# Total GULP energy -89290.879724 kJ/mol
# GULP energy per Si atom -5580.679983 kJ/mol
# Density = 1.709317 g / cm^3
# Si number density = 17.132168 Si / 1000 Ang^3
#
#
#
# Elastic Constant Matrix: (Units=GPa)
#
#
# Indices 1 2 3 4 5 6 
#
# 1 113.1112 78.8684 96.0660 0.0000 16.0723 0.0000
# 2 78.8684 145.5618 80.2330 0.0000 4.6843 0.0000
# 3 96.0660 80.2330 124.2212 0.0000 21.8692 0.0000
# 4 0.0000 0.0000 0.0000 8.1081 0.0000 -3.0770
# 5 16.0723 4.6843 21.8692 0.0000 30.6173 0.0000
# 6 0.0000 0.0000 0.0000 -3.0770 0.0000 9.0140
#
#
#
# Elastic Compliance Matrix: (Units=1/GPa)
#
#
# Indices 1 2 3 4 5 6 
#
# 1 0.027954 -0.005109 -0.018156 0.000000 -0.000925 0.000000
# 2 -0.005109 0.011994 -0.004512 0.000000 0.004070 0.000000
# 3 -0.018156 -0.004512 0.026544 0.000000 -0.008738 0.000000
# 4 0.000000 0.000000 0.000000 0.141689 0.000000 0.048367
# 5 -0.000925 0.004070 -0.008738 0.000000 0.038766 0.000000
# 6 0.000000 0.000000 0.000000 0.048367 0.000000 0.127449
#
#
# Mechanical properties :
#
#
# Convention : Reuss Voigt Hill
#
# Bulk Modulus (GPa) = 91.42481 99.24768 95.33624
# Shear Modulus (GPa) = 11.53146 18.06301 14.79723
#
# Velocity S-wave (km/s) = 2.59721 3.25057 2.94208
# Velocity P-wave (km/s) = 7.90407 8.49380 8.20423
#
# Compressibility (1/GPa) = 0.01093795
#
# Stress axis : x y z
#
# Youngs Moduli (GPa) = 35.77246 83.37170 37.67362
#
# Poissons Ratio (x) = 0.42596 0.68399
# Poissons Ratio (y) = 0.18277 0.17000
# Poissons Ratio (z) = 0.64947 0.37621
#
# Static dielectric constant tensor:
#      x y z
#    x 1.565670 0.000000 0.006110 
#    y 0.000000 1.559040 0.000000 
#    z 0.006110 0.000000 1.567460 
# 
# From -- ./inp_files/8486.got.cif
#   From: 2010.05.17/outbox.cif.g08.bks.cpg/sg4_5_cif.got.tgz:8486.got - 2010.06.03 18:43:04.
