data_PCOD9118797
_publ_section_title
;
Structure prediction by ZEFSAII (Michael W. Deem and Ramdas Pophale) SiO2 
 PCOD9118797
Probable space group: P 21
;
_chemical_formula_sum "Si O2"
_cell_formula_units_Z 16
_cell_length_a 7.111549
_cell_length_b 20.645128
_cell_length_c 5.318509
_cell_angle_alpha 90.000000
_cell_angle_beta 63.382380
_cell_angle_gamma 90.000000
_cell_volume 698.099324
_symmetry_space_group_name_H-M "P 21"
_symmetry_group_IT_number 4
_symmetry_cell_setting 'monoclinic'
loop_
_space_group_symop_operation_xyz
x,y,z
-x,1/2+y,-z
loop_
_atom_site_type_symbol
_atom_site_label
_atom_site_fract_x
_atom_site_fract_y
_atom_site_fract_z
Si Si1 0.710738 0.790890 0.552669
Si Si2 0.758904 0.466079 0.206782
Si Si3 0.924523 0.583921 0.859143
Si Si4 0.253389 0.141085 0.548180
Si Si5 0.613794 0.042312 0.494565
Si Si6 0.087039 0.875046 0.269839
Si Si7 0.446531 0.362447 0.851029
Si Si8 0.833012 0.972140 0.744900
O O1 0.683643 0.714666 0.539597
O O2 0.611813 0.816481 0.873309
O O3 0.959812 0.809109 0.383647
O O4 0.613036 0.827730 0.371370
O O5 0.527152 0.477006 0.450533
O O6 0.942007 0.489899 0.278575
O O7 0.775945 0.520327 0.976441
O O8 0.832003 0.397749 0.052220
O O9 0.870730 0.615774 0.623785
O O10 0.160223 0.557329 0.755904
O O11 0.877117 0.632865 0.115257
O O12 0.457359 0.097326 0.491717
O O13 0.693444 0.031613 0.734905
O O14 0.913138 0.927418 0.464030
O O15 0.304089 0.876556 0.293233
O O16 0.303426 0.425071 0.999792
#
# Coordination Sequence:
#
# PCOD9118797 Si02
#       8
#     2   2   2   2   2   2   2   2
#     4  11  26  48  70 100 138 183 237 285 333 415
#     4  11  23  40  66 100 142 175 222 282 351 416
#     4  11  25  45  67 100 134 180 224 287 338 407
#     4  11  27  48  70  99 138 185 240 280 337 407
#     4  11  23  41  67  98 135 180 223 282 345 410
#     4  11  24  40  68 100 139 179 223 287 353 410
#     4  11  25  43  71 102 134 180 228 284 350 405
#     4  11  23  41  63 101 142 176 225 281 355 420
#
# _framework density 22.919374999999999
#
# number of rings (size 3 to 8) (size 9 to 14) (size 15 to 20)
#    0.000    1.000    3.750    2.250    1.750    7.000 
#    0.000    0.000    0.000    0.000    0.000    0.000 
#    0.000    0.000    0.000    0.000    0.000    0.000 
#
# Total GULP energy -89344.301085 kJ/mol
# GULP energy per Si atom -5584.018818 kJ/mol
# Density = 2.286721 g / cm^3
# Si number density = 22.919375 Si / 1000 Ang^3
#
#
#
# Elastic Constant Matrix: (Units=GPa)
#
#
# Indices 1 2 3 4 5 6 
#
# 1 173.2196 14.8918 57.7894 0.0000 -15.0004 0.0000
# 2 14.8918 55.8067 40.3255 0.0000 -2.0957 0.0000
# 3 57.7894 40.3255 123.2520 0.0000 2.3152 0.0000
# 4 0.0000 0.0000 0.0000 27.3083 0.0000 5.8535
# 5 -15.0004 -2.0957 2.3152 0.0000 48.5880 0.0000
# 6 0.0000 0.0000 0.0000 5.8535 0.0000 30.3814
#
#
#
# Elastic Compliance Matrix: (Units=1/GPa)
#
#
# Indices 1 2 3 4 5 6 
#
# 1 0.007132 0.000834 -0.003662 0.000000 0.002412 0.000000
# 2 0.000834 0.023657 -0.008162 0.000000 0.001667 0.000000
# 3 -0.003662 -0.008162 0.012540 0.000000 -0.002080 0.000000
# 4 0.000000 0.000000 0.000000 0.038196 0.000000 -0.007359
# 5 0.002412 0.001667 -0.002080 0.000000 0.021497 0.000000
# 6 0.000000 0.000000 0.000000 -0.007359 0.000000 0.034333
#
#
# Mechanical properties :
#
#
# Convention : Reuss Voigt Hill
#
# Bulk Modulus (GPa) = 46.84329 64.25463 55.54896
# Shear Modulus (GPa) = 30.03857 37.20698 33.62278
#
# Velocity S-wave (km/s) = 3.62417 4.03350 3.83430
# Velocity P-wave (km/s) = 6.16405 7.05607 6.62509
#
# Compressibility (1/GPa) = 0.02134777
#
# Stress axis : x y z
#
# Youngs Moduli (GPa) = 140.21361 42.27053 79.74422
#
# Poissons Ratio (x) = -0.03524 0.29203
# Poissons Ratio (y) = -0.11688 0.65090
# Poissons Ratio (z) = 0.51347 0.34502
#
# Static dielectric constant tensor:
#      x y z
#    x 1.855320 0.000000 0.029220 
#    y 0.000000 1.863400 0.000000 
#    z 0.029220 0.000000 1.954730 
# 
# From -- ./inp_files/708.got.cif
#   From: 2010.05.17/outbox.cif.g08.bks.cpg/sg4_1_cif.got.tgz:708.got - 2010.06.03 18:43:04.
