data_PCOD9118578
_publ_section_title
;
Structure prediction by ZEFSAII (Michael W. Deem and Ramdas Pophale) SiO2 
 PCOD9118578
Probable space group: P 21
;
_chemical_formula_sum "Si O2"
_cell_formula_units_Z 16
_cell_length_a 14.283738
_cell_length_b 8.296991
_cell_length_c 9.786137
_cell_angle_alpha 90.000000
_cell_angle_beta 30.890599
_cell_angle_gamma 90.000000
_cell_volume 595.429072
_symmetry_space_group_name_H-M "P 21"
_symmetry_group_IT_number 4
_symmetry_cell_setting 'monoclinic'
loop_
_space_group_symop_operation_xyz
x,y,z
-x,1/2+y,-z
loop_
_atom_site_type_symbol
_atom_site_label
_atom_site_fract_x
_atom_site_fract_y
_atom_site_fract_z
Si Si1 0.090858 0.078750 0.021047
Si Si2 0.988670 0.279783 0.509064
Si Si3 0.326175 0.971766 0.973221
Si Si4 0.011390 0.514417 0.265181
Si Si5 0.449247 0.242943 0.498306
Si Si6 0.797929 0.218589 0.208239
Si Si7 0.601967 0.560987 0.688741
Si Si8 0.618782 0.777002 0.907201
O O1 0.162698 0.035780 0.080851
O O2 0.235132 0.218961 0.793034
O O3 0.892490 0.138195 0.221067
O O4 0.123965 0.899888 0.910848
O O5 0.983709 0.108896 0.595272
O O6 0.174383 0.341154 0.349788
O O7 0.024248 0.332712 0.306579
O O8 0.788927 0.346931 0.792113
O O9 0.474616 0.892836 0.685323
O O10 0.391082 0.117272 0.986507
O O11 0.817257 0.536395 0.435183
O O12 0.144602 0.605706 0.993588
O O13 0.475692 0.091464 0.363252
O O14 0.579492 0.231444 0.466420
O O15 0.569592 0.721048 0.818109
O O16 0.507321 0.411564 0.875167
#
# Coordination Sequence:
#
# PCOD9118578 Si02
#       8
#     2   2   2   2   2   2   2   2
#     4  11  26  46  73 104 138 196 246 296 358 420
#     4  11  21  42  71 102 140 185 231 284 372 419
#     4  11  24  46  70 102 140 189 241 298 362 422
#     4  11  22  43  72 105 148 184 231 298 354 437
#     4  11  24  46  74  97 145 188 242 306 353 421
#     4  11  25  48  73 103 145 191 244 302 359 420
#     4  11  23  41  68 106 145 182 237 285 366 428
#     4  11  25  40  69 109 143 185 234 293 364 441
#
# _framework density 26.871379999999998
#
# number of rings (size 3 to 8) (size 9 to 14) (size 15 to 20)
#    0.000    1.000    6.250    1.500    0.000    6.000 
#    0.000    1.250    0.000    0.000    0.000    0.000 
#    0.000    0.000    0.000    0.000    0.000    0.000 
#
# Total GULP energy -89470.051122 kJ/mol
# GULP energy per Si atom -5591.878195 kJ/mol
# Density = 2.681022 g / cm^3
# Si number density = 26.871380 Si / 1000 Ang^3
#
#
#
# Elastic Constant Matrix: (Units=GPa)
#
#
# Indices 1 2 3 4 5 6 
#
# 1 136.4508 23.9123 23.1829 0.0000 -24.8565 0.0000
# 2 23.9123 50.0361 13.0517 0.0000 -17.5391 0.0000
# 3 23.1829 13.0517 79.4863 0.0000 -10.4347 0.0000
# 4 0.0000 0.0000 0.0000 48.6658 0.0000 -1.2011
# 5 -24.8565 -17.5391 -10.4347 0.0000 47.3924 0.0000
# 6 0.0000 0.0000 0.0000 -1.2011 0.0000 54.9999
#
#
#
# Elastic Compliance Matrix: (Units=1/GPa)
#
#
# Indices 1 2 3 4 5 6 
#
# 1 0.008650 -0.002568 -0.001679 0.000000 0.003217 0.000000
# 2 -0.002568 0.024319 -0.002306 0.000000 0.007145 0.000000
# 3 -0.001679 -0.002306 0.013615 0.000000 0.001264 0.000000
# 4 0.000000 0.000000 0.000000 0.020559 0.000000 0.000449
# 5 0.003217 0.007145 0.001264 0.000000 0.025710 0.000000
# 6 0.000000 0.000000 0.000000 0.000449 0.000000 0.018192
#
#
# Mechanical properties :
#
#
# Convention : Reuss Voigt Hill
#
# Bulk Modulus (GPa) = 29.87087 42.91855 36.39471
# Shear Modulus (GPa) = 36.95191 43.93338 40.44264
#
# Velocity S-wave (km/s) = 3.71231 4.04784 3.88370
# Velocity P-wave (km/s) = 5.43281 6.15249 5.80382
#
# Compressibility (1/GPa) = 0.03347743
#
# Stress axis : x y z
#
# Youngs Moduli (GPa) = 115.60787 41.11983 73.44846
#
# Poissons Ratio (x) = 0.10561 0.12331
# Poissons Ratio (y) = 0.29693 0.16938
# Poissons Ratio (z) = 0.19409 0.09483
#
# Static dielectric constant tensor:
#      x y z
#    x 2.061700 0.000000 0.090910 
#    y 0.000000 2.153080 0.000000 
#    z 0.090910 0.000000 2.147460 
# 
# From -- ./inp_files/12615.got.cif
#   From: 2010.05.17/outbox.cif.g08.bks.cpg/sg4_7_cif.got.tgz:12615.got - 2010.06.03 18:43:04.
