data_PCOD9118698
_publ_section_title
;
Structure prediction by ZEFSAII (Michael W. Deem and Ramdas Pophale) SiO2 
 PCOD9118698
Probable space group: P 21
;
_chemical_formula_sum "Si O2"
_cell_formula_units_Z 16
_cell_length_a 7.530602
_cell_length_b 11.828476
_cell_length_c 10.800583
_cell_angle_alpha 90.000000
_cell_angle_beta 136.755041
_cell_angle_gamma 90.000000
_cell_volume 659.130849
_symmetry_space_group_name_H-M "P 21"
_symmetry_group_IT_number 4
_symmetry_cell_setting 'monoclinic'
loop_
_space_group_symop_operation_xyz
x,y,z
-x,1/2+y,-z
loop_
_atom_site_type_symbol
_atom_site_label
_atom_site_fract_x
_atom_site_fract_y
_atom_site_fract_z
Si Si1 0.400360 0.704970 0.853531
Si Si2 0.931146 0.534425 0.612608
Si Si3 0.329567 0.673075 0.558821
Si Si4 0.904227 0.910663 0.847275
Si Si5 0.840869 0.589049 0.204115
Si Si6 0.621089 0.411323 0.254598
Si Si7 0.329477 0.952716 0.265478
Si Si8 0.344573 0.260097 0.476017
O O1 0.382341 0.755113 0.700680
O O2 0.329452 0.831783 0.851923
O O3 0.212971 0.597026 0.763712
O O4 0.686094 0.675701 0.039158
O O5 0.866948 0.444677 0.472328
O O6 0.835732 0.476224 0.692750
O O7 0.758396 0.648529 0.512812
O O8 0.528384 0.571985 0.687234
O O9 0.394288 0.725890 0.461759
O O10 0.034033 0.642191 0.401880
O O11 0.644591 0.929015 0.796995
O O12 0.840371 0.800825 0.730587
O O13 0.973433 0.011492 0.787135
O O14 0.141369 0.908445 0.063435
O O15 0.621573 0.527491 0.170965
O O16 0.569038 0.866759 0.402069
#
# Coordination Sequence:
#
# PCOD9118698 Si02
#       8
#     2   2   2   2   2   2   2   2
#     4  12  25  46  71 105 144 193 241 306 373 433
#     4  11  24  48  74 104 152 192 248 310 367 443
#     4  11  22  43  69  97 142 185 237 297 360 433
#     4  12  23  44  73 103 146 190 239 304 366 436
#     4  12  26  47  71 106 145 192 246 304 366 443
#     4  12  26  50  73 106 151 192 248 310 366 445
#     4  11  23  43  72 103 140 191 241 302 365 436
#     4  11  23  43  71 106 138 197 242 293 373 435
#
# _framework density 24.274391000000001
#
# number of rings (size 3 to 8) (size 9 to 14) (size 15 to 20)
#    0.000    0.500    6.250    2.250    1.750    0.000 
#   11.250    0.000    0.000    0.000    0.000    0.000 
#    0.000    0.000    0.000    0.000    0.000    0.000 
#
# Total GULP energy -89157.691306 kJ/mol
# GULP energy per Si atom -5572.355707 kJ/mol
# Density = 2.421914 g / cm^3
# Si number density = 24.274391 Si / 1000 Ang^3
#
#
#
# Elastic Constant Matrix: (Units=GPa)
#
#
# Indices 1 2 3 4 5 6 
#
# 1 96.9368 25.0881 16.0738 0.0000 9.5467 0.0000
# 2 25.0881 92.7393 40.4193 0.0000 -3.3167 0.0000
# 3 16.0738 40.4193 132.1153 0.0000 2.6778 0.0000
# 4 0.0000 0.0000 0.0000 22.2771 0.0000 -0.6897
# 5 9.5467 -3.3167 2.6778 0.0000 24.3878 0.0000
# 6 0.0000 0.0000 0.0000 -0.6897 0.0000 26.7326
#
#
#
# Elastic Compliance Matrix: (Units=1/GPa)
#
#
# Indices 1 2 3 4 5 6 
#
# 1 0.011688 -0.003189 -0.000346 0.000000 -0.004971 0.000000
# 2 -0.003189 0.013422 -0.003789 0.000000 0.003490 0.000000
# 3 -0.000346 -0.003789 0.008798 0.000000 -0.001346 0.000000
# 4 0.000000 0.000000 0.000000 0.044925 0.000000 0.001159
# 5 -0.004971 0.003490 -0.001346 0.000000 0.043572 0.000000
# 6 0.000000 0.000000 0.000000 0.001159 0.000000 0.037437
#
#
# Mechanical properties :
#
#
# Convention : Reuss Voigt Hill
#
# Bulk Modulus (GPa) = 51.92016 53.88374 52.90195
# Shear Modulus (GPa) = 27.63803 30.69352 29.16578
#
# Velocity S-wave (km/s) = 3.37793 3.55975 3.47003
# Velocity P-wave (km/s) = 6.05385 6.25634 6.15593
#
# Compressibility (1/GPa) = 0.01926034
#
# Stress axis : x y z
#
# Youngs Moduli (GPa) = 85.55596 74.50550 113.66629
#
# Poissons Ratio (x) = 0.23760 0.03929
# Poissons Ratio (y) = 0.27285 0.43068
# Poissons Ratio (z) = 0.02957 0.28230
#
# Static dielectric constant tensor:
#      x y z
#    x 2.095100 0.000000 -0.031490 
#    y 0.000000 1.961950 0.000000 
#    z -0.031490 0.000000 1.994580 
# 
# From -- ./inp_files/8141.got.cif
#   From: 2010.05.17/outbox.cif.g08.bks.cpg/sg4_5_cif.got.tgz:8141.got - 2010.06.03 18:43:04.
