data_PCOD9118185
_publ_section_title
;
Structure prediction by ZEFSAII (Michael W. Deem and Ramdas Pophale) SiO2 
 PCOD9118185
Probable space group: P 21
;
_chemical_formula_sum "Si O2"
_cell_formula_units_Z 14
_cell_length_a 11.048434
_cell_length_b 9.156145
_cell_length_c 9.236853
_cell_angle_alpha 90.000000
_cell_angle_beta 140.683100
_cell_angle_gamma 90.000000
_cell_volume 592.050598
_symmetry_space_group_name_H-M "P 21"
_symmetry_group_IT_number 4
_symmetry_cell_setting 'monoclinic'
loop_
_space_group_symop_operation_xyz
x,y,z
-x,1/2+y,-z
loop_
_atom_site_type_symbol
_atom_site_label
_atom_site_fract_x
_atom_site_fract_y
_atom_site_fract_z
Si Si1 0.959429 0.039280 0.411371
Si Si2 0.689527 0.960816 0.430872
Si Si3 0.083501 0.555768 0.107930
Si Si4 0.632808 0.680545 0.201664
Si Si5 0.909837 0.341131 0.717340
Si Si6 0.673946 0.040554 0.911758
Si Si7 0.490182 0.246040 0.234864
O O1 0.151706 0.126225 0.619419
O O2 0.830276 0.018200 0.432747
O O3 0.822787 0.109207 0.164174
O O4 0.012515 0.892186 0.368995
O O5 0.614811 0.811826 0.297811
O O6 0.825398 0.943163 0.694236
O O7 0.518656 0.075151 0.304711
O O8 0.012639 0.691614 0.137872
O O9 0.264523 0.612826 0.180319
O O10 0.948401 0.473887 0.867020
O O11 0.519854 0.554792 0.179560
O O12 0.539238 0.728427 0.965068
O O13 0.687944 0.309090 0.481227
O O14 0.671230 0.865757 0.874313
#
# Coordination Sequence:
#
# PCOD9118185 Si02
#       7
#     2   2   2   2   2   2   2
#     4  11  24  43  76 103 148 197 241 310 365 426
#     4  11  26  42  72 115 140 191 259 292 382 445
#     4  10  26  46  70 109 147 196 249 300 383 451
#     4  12  24  43  75 109 143 192 250 311 359 444
#     4  10  24  47  72 102 150 194 249 309 366 444
#     4  11  24  47  72  99 153 193 244 308 373 437
#     4  11  22  46  71 105 145 191 250 306 366 435
#
# _framework density 23.646626999999999
#
# number of rings (size 3 to 8) (size 9 to 14) (size 15 to 20)
#    0.000    1.143    4.286    0.000    8.000    2.286 
#    0.000    8.571    0.000    0.000    0.000    0.000 
#    0.000    0.000    0.000    0.000    0.000    0.000 
#
# Total GULP energy -78023.825933 kJ/mol
# GULP energy per Si atom -5573.130424 kJ/mol
# Density = 2.359281 g / cm^3
# Si number density = 23.646627 Si / 1000 Ang^3
#
#
#
# Elastic Constant Matrix: (Units=GPa)
#
#
# Indices 1 2 3 4 5 6 
#
# 1 44.2263 6.3840 19.0924 0.0000 -19.2294 0.0000
# 2 6.3840 79.3637 39.1042 0.0000 -0.2266 0.0000
# 3 19.0924 39.1042 133.2113 0.0000 -16.1764 0.0000
# 4 0.0000 0.0000 0.0000 336.7391 0.0000 42.2661
# 5 -19.2294 -0.2266 -16.1764 0.0000 35.4419 0.0000
# 6 0.0000 0.0000 0.0000 42.2661 0.0000 48.9972
#
#
#
# Elastic Compliance Matrix: (Units=1/GPa)
#
#
# Indices 1 2 3 4 5 6 
#
# 1 0.030480 -0.001388 -0.002069 0.000000 0.015584 0.000000
# 2 -0.001388 0.014928 -0.004513 0.000000 -0.002718 0.000000
# 3 -0.002069 -0.004513 0.009516 0.000000 0.003192 0.000000
# 4 0.000000 0.000000 0.000000 0.003330 0.000000 -0.002873
# 5 0.015584 -0.002718 0.003192 0.000000 0.038110 0.000000
# 6 0.000000 0.000000 0.000000 -0.002873 0.000000 0.022887
#
#
# Mechanical properties :
#
#
# Convention : Reuss Voigt Hill
#
# Bulk Modulus (GPa) = 25.65129 42.88470 34.26800
# Shear Modulus (GPa) = 33.74130 97.05036 65.39583
#
# Velocity S-wave (km/s) = 3.78153 6.41335 5.26455
# Velocity P-wave (km/s) = 5.47155 8.54496 7.17476
#
# Compressibility (1/GPa) = 0.03898440
#
# Stress axis : x y z
#
# Youngs Moduli (GPa) = 32.80796 66.98901 105.08843
#
# Poissons Ratio (x) = 0.09299 0.21739
# Poissons Ratio (y) = 0.04554 0.47428
# Poissons Ratio (z) = 0.06787 0.30233
#
# Static dielectric constant tensor:
#      x y z
#    x 1.570270 0.000000 0.547760 
#    y 0.000000 1.983220 0.000000 
#    z 0.547760 0.000000 1.208800 
# 
# From -- ./inp_files/8084.got.cif
#   From: 2010.05.17/outbox.cif.g08.bks.cpg/sg4_5_cif.got.tgz:8084.got - 2010.06.03 18:43:04.
