data_PCOD9118551
_publ_section_title
;
Structure prediction by ZEFSAII (Michael W. Deem and Ramdas Pophale) SiO2 
 PCOD9118551
Probable space group: P 21
;
_chemical_formula_sum "Si O2"
_cell_formula_units_Z 16
_cell_length_a 18.120199
_cell_length_b 5.362256
_cell_length_c 9.107254
_cell_angle_alpha 90.000000
_cell_angle_beta 120.999029
_cell_angle_gamma 90.000000
_cell_volume 758.521636
_symmetry_space_group_name_H-M "P 21"
_symmetry_group_IT_number 4
_symmetry_cell_setting 'monoclinic'
loop_
_space_group_symop_operation_xyz
x,y,z
-x,1/2+y,-z
loop_
_atom_site_type_symbol
_atom_site_label
_atom_site_fract_x
_atom_site_fract_y
_atom_site_fract_z
Si Si1 0.627093 0.688340 0.537172
Si Si2 0.394525 0.666254 0.036159
Si Si3 0.790284 0.339330 0.056604
Si Si4 0.968142 0.294266 0.383781
Si Si5 0.032203 0.267124 0.112389
Si Si6 0.203100 0.338268 0.128793
Si Si7 0.435450 0.423000 0.809110
Si Si8 0.490122 0.833972 0.631480
O O1 0.706498 0.798659 0.700068
O O2 0.616967 0.749276 0.356587
O O3 0.542290 0.765092 0.540737
O O4 0.608147 0.395116 0.520792
O O5 0.309506 0.814008 0.994884
O O6 0.374078 0.480064 0.882391
O O7 0.473500 0.815086 0.042204
O O8 0.444236 0.525266 0.218084
O O9 0.864330 0.311605 0.256025
O O10 0.805253 0.605078 0.992450
O O11 0.803458 0.102288 0.960966
O O12 0.004892 0.280116 0.254272
O O13 0.003456 0.543593 0.500538
O O14 0.131911 0.314931 0.181577
O O15 0.988152 0.495066 0.977187
O O16 0.471153 0.630691 0.734445
#
# Coordination Sequence:
#
# PCOD9118551 Si02
#       8
#     2   2   2   2   2   2   2   2
#     4  11  24  36  65  93 132 175 228 291 331 400
#     4  11  24  41  67  92 133 191 228 285 342 422
#     4  12  26  45  74 105 140 180 240 288 352 435
#     4  12  26  48  75 110 148 185 229 301 379 435
#     4  12  23  48  78 104 142 188 236 292 361 438
#     4  12  25  45  73 109 135 181 244 290 342 427
#     4  11  23  41  60  92 134 182 234 278 350 408
#     4  11  21  40  60  89 130 178 225 275 345 389
#
# _framework density 21.093664
#
# number of rings (size 3 to 8) (size 9 to 14) (size 15 to 20)
#    0.000    0.500    6.250    2.250    3.500    1.000 
#    2.250    0.000    0.000    0.000    0.000    0.000 
#    0.000    0.000    0.000    0.000    0.000    0.000 
#
# Total GULP energy -89201.171537 kJ/mol
# GULP energy per Si atom -5575.073221 kJ/mol
# Density = 2.104565 g / cm^3
# Si number density = 21.093664 Si / 1000 Ang^3
#
#
#
# Elastic Constant Matrix: (Units=GPa)
#
#
# Indices 1 2 3 4 5 6 
#
# 1 58.5553 0.8620 6.2819 0.0000 -13.1721 0.0000
# 2 0.8620 63.5880 19.1066 0.0000 -6.6920 0.0000
# 3 6.2819 19.1066 90.0882 0.0000 -2.8441 0.0000
# 4 0.0000 0.0000 0.0000 31.6978 0.0000 -5.7673
# 5 -13.1721 -6.6920 -2.8441 0.0000 45.5888 0.0000
# 6 0.0000 0.0000 0.0000 -5.7673 0.0000 18.6104
#
#
#
# Elastic Compliance Matrix: (Units=1/GPa)
#
#
# Indices 1 2 3 4 5 6 
#
# 1 0.018404 0.000692 -0.001261 0.000000 0.005340 0.000000
# 2 0.000692 0.017056 -0.003587 0.000000 0.002480 0.000000
# 3 -0.001261 -0.003587 0.011944 0.000000 -0.000146 0.000000
# 4 0.000000 0.000000 0.000000 0.033433 0.000000 0.010361
# 5 0.005340 0.002480 -0.000146 0.000000 0.023833 0.000000
# 6 0.000000 0.000000 0.000000 0.010361 0.000000 0.056944
#
#
# Mechanical properties :
#
#
# Convention : Reuss Voigt Hill
#
# Bulk Modulus (GPa) = 25.58184 29.41473 27.49828
# Shear Modulus (GPa) = 27.32851 31.57814 29.45332
#
# Velocity S-wave (km/s) = 3.60332 3.87336 3.74078
# Velocity P-wave (km/s) = 5.42826 5.82915 5.63227
#
# Compressibility (1/GPa) = 0.03909023
#
# Stress axis : x y z
#
# Youngs Moduli (GPa) = 54.33496 58.63148 83.72124
#
# Poissons Ratio (x) = -0.04055 0.10561
# Poissons Ratio (y) = -0.03758 0.30033
# Poissons Ratio (z) = 0.06854 0.21033
#
# Static dielectric constant tensor:
#      x y z
#    x 1.759090 0.000000 -0.007140 
#    y 0.000000 2.000020 0.000000 
#    z -0.007140 0.000000 1.776560 
# 
# From -- ./inp_files/8643.got.cif
#   From: 2010.05.17/outbox.cif.g08.bks.cpg/sg4_5_cif.got.tgz:8643.got - 2010.06.03 18:43:04.
