data_PCOD9118790
_publ_section_title
;
Structure prediction by ZEFSAII (Michael W. Deem and Ramdas Pophale) SiO2 
 PCOD9118790
Probable space group: P 21
;
_chemical_formula_sum "Si O2"
_cell_formula_units_Z 16
_cell_length_a 4.880314
_cell_length_b 5.142805
_cell_length_c 23.919916
_cell_angle_alpha 90.000000
_cell_angle_beta 66.064178
_cell_angle_gamma 90.000000
_cell_volume 548.723924
_symmetry_space_group_name_H-M "P 21"
_symmetry_group_IT_number 4
_symmetry_cell_setting 'monoclinic'
loop_
_space_group_symop_operation_xyz
x,y,z
-x,1/2+y,-z
loop_
_atom_site_type_symbol
_atom_site_label
_atom_site_fract_x
_atom_site_fract_y
_atom_site_fract_z
Si Si1 0.396392 0.616630 0.679778
Si Si2 0.691285 0.127541 0.704994
Si Si3 0.981533 0.738470 0.800974
Si Si4 0.120794 0.680795 0.049195
Si Si5 0.978068 0.646010 0.424914
Si Si6 0.695202 0.738231 0.173330
Si Si7 0.446188 0.341447 0.446199
Si Si8 0.446175 0.180385 0.075278
O O1 0.457135 0.333597 0.698249
O O2 0.505281 0.635383 0.607098
O O3 0.066498 0.703894 0.728644
O O4 0.595395 0.839774 0.694166
O O5 0.639188 0.184065 0.774923
O O6 0.980082 0.207251 0.644127
O O7 0.644960 0.698966 0.852021
O O8 0.168981 0.509489 0.816475
O O9 0.117998 0.007037 0.812120
O O10 0.294862 0.921676 0.063090
O O11 0.782216 0.704600 0.100791
O O12 0.271583 0.421855 0.061588
O O13 0.213811 0.691002 0.976177
O O14 0.778782 0.385572 0.440796
O O15 0.776289 0.809039 0.483584
O O16 0.295965 0.582747 0.426024
#
# Coordination Sequence:
#
# PCOD9118790 Si02
#       8
#     2   2   2   2   2   2   2   2
#     4   9  18  33  53  77 106 143 186 232 282 337
#     4   9  18  33  53  77 106 143 186 232 282 337
#     4   8  13  22  37  58  87 126 170 216 266 320
#     4   8  12  17  27  47  78 118 162 208 258 312
#     4  11  23  40  62  90 121 157 196 242 292 349
#     4   8  13  22  37  58  87 126 170 216 266 320
#     4  11  23  40  62  90 121 157 196 242 292 349
#     4   8  12  17  27  47  78 118 162 208 258 312
#
# _framework density 29.158559
#
# number of rings (size 3 to 8) (size 9 to 14) (size 15 to 20)
#    0.000    3.000    0.000    1.500    0.000    2.000 
#    0.000    0.000    0.000    0.000    0.000    0.000 
#    0.000    0.000    0.000   78.750    0.000   53.250 
#
# Total GULP energy -89542.114649 kJ/mol
# GULP energy per Si atom -5596.382166 kJ/mol
# Density = 2.909219 g / cm^3
# Si number density = 29.158559 Si / 1000 Ang^3
#
#
#
# Elastic Constant Matrix: (Units=GPa)
#
#
# Indices 1 2 3 4 5 6 
#
# 1 86.3988 45.6398 52.0050 0.0000 -0.9506 0.0000
# 2 45.6398 166.8524 12.1462 0.0000 14.9506 0.0000
# 3 52.0050 12.1462 319.0324 0.0000 -27.9490 0.0000
# 4 0.0000 0.0000 0.0000 56.9327 0.0000 -5.3602
# 5 -0.9506 14.9506 -27.9490 0.0000 30.6891 0.0000
# 6 0.0000 0.0000 0.0000 -5.3602 0.0000 11.6203
#
#
#
# Elastic Compliance Matrix: (Units=1/GPa)
#
#
# Indices 1 2 3 4 5 6 
#
# 1 0.015048 -0.003981 -0.002272 0.000000 0.000336 0.000000
# 2 -0.003981 0.007410 0.000043 0.000000 -0.003694 0.000000
# 3 -0.002272 0.000043 0.003798 0.000000 0.003368 0.000000
# 4 0.000000 0.000000 0.000000 0.018362 0.000000 0.008470
# 5 0.000336 -0.003694 0.003368 0.000000 0.037462 0.000000
# 6 0.000000 0.000000 0.000000 0.008470 0.000000 0.089964
#
#
# Mechanical properties :
#
#
# Convention : Reuss Voigt Hill
#
# Bulk Modulus (GPa) = 72.26902 87.98505 80.12703
# Shear Modulus (GPa) = 26.44439 50.68127 38.56283
#
# Velocity S-wave (km/s) = 3.01477 4.17361 3.64059
# Velocity P-wave (km/s) = 6.07924 7.31201 6.72394
#
# Compressibility (1/GPa) = 0.01383719
#
# Stress axis : x y z
#
# Youngs Moduli (GPa) = 66.45214 134.95097 263.28177
#
# Poissons Ratio (x) = 0.53724 0.59817
# Poissons Ratio (y) = 0.26455 -0.01138
# Poissons Ratio (z) = 0.15098 -0.00583
#
# Static dielectric constant tensor:
#      x y z
#    x 2.141500 0.000000 0.021610 
#    y 0.000000 2.280200 0.000000 
#    z 0.021610 0.000000 2.478210 
# 
# From -- ./inp_files/16284.got.cif
#   From: 2010.05.17/outbox.cif.g08.bks.cpg/sg4_9_cif.got.tgz:16284.got - 2010.06.03 18:43:04.
