data_PCOD9118317
_publ_section_title
;
Structure prediction by ZEFSAII (Michael W. Deem and Ramdas Pophale) SiO2 
 PCOD9118317
Probable space group: P 21
;
_chemical_formula_sum "Si O2"
_cell_formula_units_Z 16
_cell_length_a 17.488629
_cell_length_b 4.972179
_cell_length_c 20.232646
_cell_angle_alpha 90.000000
_cell_angle_beta 158.614227
_cell_angle_gamma 90.000000
_cell_volume 641.543578
_symmetry_space_group_name_H-M "P 21"
_symmetry_group_IT_number 4
_symmetry_cell_setting 'monoclinic'
loop_
_space_group_symop_operation_xyz
x,y,z
-x,1/2+y,-z
loop_
_atom_site_type_symbol
_atom_site_label
_atom_site_fract_x
_atom_site_fract_y
_atom_site_fract_z
Si Si1 0.522877 0.285790 0.471725
Si Si2 0.109245 0.479187 0.066815
Si Si3 0.125626 0.986725 0.594369
Si Si4 0.517287 0.119342 0.053970
Si Si5 0.867679 0.485429 0.650115
Si Si6 0.852690 0.319636 0.033565
Si Si7 0.603903 0.583593 0.306165
Si Si8 0.715057 0.695694 0.007818
O O1 0.516773 0.494900 0.528238
O O2 0.329045 0.369271 0.269209
O O3 0.724895 0.320907 0.587690
O O4 0.115295 0.666293 0.007593
O O5 0.027894 0.709682 0.052149
O O6 0.293141 0.813092 0.770507
O O7 0.229463 0.147989 0.616265
O O8 0.988463 0.730576 0.459753
O O9 0.589764 0.844965 0.078592
O O10 0.368449 0.035158 0.995521
O O11 0.718265 0.561450 0.468474
O O12 0.086133 0.355369 0.801297
O O13 0.963953 0.733163 0.769072
O O14 0.613982 0.248818 0.864819
O O15 0.829392 0.631688 0.029073
O O16 0.501685 0.313879 0.194348
#
# Coordination Sequence:
#
# PCOD9118317 Si02
#       8
#     2   2   2   2   2   2   2   2
#     4  12  27  48  72 108 145 188 243 296 356 430
#     4  12  27  48  74 106 146 192 236 297 359 426
#     4  11  26  45  70 106 142 185 240 299 356 428
#     4  11  26  46  72 103 144 189 237 294 362 426
#     4  11  25  46  71 104 139 187 238 295 355 423
#     4  11  25  47  72 102 144 189 238 295 358 427
#     4  10  25  46  70 100 142 187 240 290 361 423
#     4  10  27  44  73 101 144 187 240 296 355 431
#
# _framework density 24.939848999999999
#
# number of rings (size 3 to 8) (size 9 to 14) (size 15 to 20)
#    0.000    1.000    1.250    3.000   19.250    2.000 
#    0.000    0.000    0.000    0.000    0.000    0.000 
#    0.000    0.000    0.000    0.000    0.000    0.000 
#
# Total GULP energy -89155.070954 kJ/mol
# GULP energy per Si atom -5572.191935 kJ/mol
# Density = 2.488308 g / cm^3
# Si number density = 24.939849 Si / 1000 Ang^3
#
#
#
# Elastic Constant Matrix: (Units=GPa)
#
#
# Indices 1 2 3 4 5 6 
#
# 1 73.9328 6.6279 22.7961 0.0000 0.5481 0.0000
# 2 6.6279 67.2181 8.8011 0.0000 7.2829 0.0000
# 3 22.7961 8.8011 149.1662 0.0000 -10.0099 0.0000
# 4 0.0000 0.0000 0.0000 12.4987 0.0000 0.4732
# 5 0.5481 7.2829 -10.0099 0.0000 31.1507 0.0000
# 6 0.0000 0.0000 0.0000 0.4732 0.0000 30.8881
#
#
#
# Elastic Compliance Matrix: (Units=1/GPa)
#
#
# Indices 1 2 3 4 5 6 
#
# 1 0.014294 -0.001049 -0.002170 0.000000 -0.000703 0.000000
# 2 -0.001049 0.015541 -0.001021 0.000000 -0.003943 0.000000
# 3 -0.002170 -0.001021 0.007271 0.000000 0.002613 0.000000
# 4 0.000000 0.000000 0.000000 0.080055 0.000000 -0.001226
# 5 -0.000703 -0.003943 0.002613 0.000000 0.033876 0.000000
# 6 0.000000 0.000000 0.000000 -0.001226 0.000000 0.032394
#
#
# Mechanical properties :
#
#
# Convention : Reuss Voigt Hill
#
# Bulk Modulus (GPa) = 34.93292 40.75191 37.84241
# Shear Modulus (GPa) = 24.81960 31.71363 28.26661
#
# Velocity S-wave (km/s) = 3.15807 3.56983 3.37024
# Velocity P-wave (km/s) = 5.22830 5.77643 5.50918
#
# Compressibility (1/GPa) = 0.02862630
#
# Stress axis : x y z
#
# Youngs Moduli (GPa) = 69.95903 64.34451 137.52973
#
# Poissons Ratio (x) = 0.06750 0.29841
# Poissons Ratio (y) = 0.07339 0.14045
# Poissons Ratio (z) = 0.15180 0.06571
#
# Static dielectric constant tensor:
#      x y z
#    x 2.086180 0.000000 -0.002170 
#    y 0.000000 2.181760 0.000000 
#    z -0.002170 0.000000 2.058800 
# 
# From -- ./inp_files/15884.got.cif
#   From: 2010.05.17/outbox.cif.g08.bks.cpg/sg4_8_cif.got.tgz:15884.got - 2010.06.03 18:43:04.
