data_PCOD9118947
_publ_section_title
;
Structure prediction by ZEFSAII (Michael W. Deem and Ramdas Pophale) SiO2 
 PCOD9118947
Probable space group: P 21
;
_chemical_formula_sum "Si O2"
_cell_formula_units_Z 12
_cell_length_a 17.354654
_cell_length_b 5.167391
_cell_length_c 16.280024
_cell_angle_alpha 90.000000
_cell_angle_beta 17.828787
_cell_angle_gamma 90.000000
_cell_volume 447.002679
_symmetry_space_group_name_H-M "P 21"
_symmetry_group_IT_number 4
_symmetry_cell_setting 'monoclinic'
loop_
_space_group_symop_operation_xyz
x,y,z
-x,1/2+y,-z
loop_
_atom_site_type_symbol
_atom_site_label
_atom_site_fract_x
_atom_site_fract_y
_atom_site_fract_z
Si Si1 0.763008 0.505000 0.501158
Si Si2 0.193731 0.805689 0.380211
Si Si3 0.084110 0.983744 0.145996
Si Si4 0.542031 0.789013 0.327773
Si Si5 0.686852 0.508749 0.915446
Si Si6 0.157230 0.536058 0.836677
O O1 0.748733 0.538919 0.614309
O O2 0.519560 0.427552 0.695854
O O3 0.892101 0.751282 0.329879
O O4 0.937223 0.250242 0.314432
O O5 0.901034 0.730586 0.683324
O O6 0.261304 0.835756 0.216552
O O7 0.401268 0.603348 0.202137
O O8 0.247966 0.908891 0.060261
O O9 0.262742 0.061128 0.890241
O O10 0.300400 0.659526 0.614341
O O11 0.653516 0.988043 0.280033
O O12 0.953574 0.751994 0.067350
#
# Coordination Sequence:
#
# PCOD9118947 Si02
#       6
#     2   2   2   2   2   2
#     4  11  27  49  77 117 162 211 273 338 406 492
#     4  11  23  45  75 115 163 224 279 343 408 490
#     4  11  27  49  77 117 162 211 273 338 406 492
#     4  12  28  54  82 118 158 218 266 340 430 492
#     4  11  23  45  75 115 163 224 279 343 408 490
#     4  12  30  52  84 120 158 208 270 342 416 516
#
# _framework density 26.845479000000001
#
# number of rings (size 3 to 8) (size 9 to 14) (size 15 to 20)
#    0.000    0.667    1.667    4.000    0.000   17.333 
#    0.000    0.000    0.000    0.000    0.000    0.000 
#    0.000    0.000    0.000    0.000    0.000    0.000 
#
# Total GULP energy -67343.928902 kJ/mol
# GULP energy per Si atom -5611.994075 kJ/mol
# Density = 2.678438 g / cm^3
# Si number density = 26.845479 Si / 1000 Ang^3
#
#
#
# Elastic Constant Matrix: (Units=GPa)
#
#
# Indices 1 2 3 4 5 6 
#
# 1 122.4627 17.7292 17.9052 0.0000 -6.4348 0.0000
# 2 17.7292 131.8495 44.3509 0.0000 -7.0394 0.0000
# 3 17.9052 44.3509 77.7814 0.0000 10.9981 0.0000
# 4 0.0000 0.0000 0.0000 43.9428 0.0000 3.0305
# 5 -6.4348 -7.0394 10.9981 0.0000 45.5487 0.0000
# 6 0.0000 0.0000 0.0000 3.0305 0.0000 37.9261
#
#
#
# Elastic Compliance Matrix: (Units=1/GPa)
#
#
# Indices 1 2 3 4 5 6 
#
# 1 0.008599 -0.000403 -0.001980 0.000000 0.001631 0.000000
# 2 -0.000403 0.009772 -0.005885 0.000000 0.002874 0.000000
# 3 -0.001980 -0.005885 0.017432 0.000000 -0.005398 0.000000
# 4 0.000000 0.000000 0.000000 0.022883 0.000000 -0.001828
# 5 0.001631 0.002874 -0.005398 0.000000 0.023933 0.000000
# 6 0.000000 0.000000 0.000000 -0.001828 0.000000 0.026513
#
#
# Mechanical properties :
#
#
# Convention : Reuss Voigt Hill
#
# Bulk Modulus (GPa) = 51.90775 54.67380 53.29077
# Shear Modulus (GPa) = 37.85272 42.29074 40.07173
#
# Velocity S-wave (km/s) = 3.75910 3.97336 3.86771
# Velocity P-wave (km/s) = 6.18214 6.43898 6.31187
#
# Compressibility (1/GPa) = 0.01926495
#
# Stress axis : x y z
#
# Youngs Moduli (GPa) = 116.28812 102.33522 57.36709
#
# Poissons Ratio (x) = 0.04126 0.11360
# Poissons Ratio (y) = 0.04688 0.33763
# Poissons Ratio (z) = 0.23028 0.60229
#
# Static dielectric constant tensor:
#      x y z
#    x 2.138450 0.000000 0.017590 
#    y 0.000000 2.071010 0.000000 
#    z 0.017590 0.000000 2.070730 
# 
# From -- ./inp_files/14123.got.cif
#   From: 2010.05.17/outbox.cif.g08.bks.cpg/sg4_8_cif.got.tgz:14123.got - 2010.06.03 18:43:04.
