data_PCOD9118218
_publ_section_title
;
Structure prediction by ZEFSAII (Michael W. Deem and Ramdas Pophale) SiO2 
 PCOD9118218
Probable space group: P 21
;
_chemical_formula_sum "Si O2"
_cell_formula_units_Z 14
_cell_length_a 7.038966
_cell_length_b 5.527154
_cell_length_c 21.415396
_cell_angle_alpha 90.000000
_cell_angle_beta 137.548493
_cell_angle_gamma 90.000000
_cell_volume 562.365169
_symmetry_space_group_name_H-M "P 21"
_symmetry_group_IT_number 4
_symmetry_cell_setting 'monoclinic'
loop_
_space_group_symop_operation_xyz
x,y,z
-x,1/2+y,-z
loop_
_atom_site_type_symbol
_atom_site_label
_atom_site_fract_x
_atom_site_fract_y
_atom_site_fract_z
Si Si1 0.997834 0.853150 0.415800
Si Si2 0.657509 0.440326 0.113417
Si Si3 0.973076 0.782903 0.274341
Si Si4 0.838621 0.644171 0.030262
Si Si5 0.695421 0.357536 0.380314
Si Si6 0.850419 0.621563 0.786890
Si Si7 0.347968 0.907121 0.136133
O O1 0.123734 0.803494 0.377495
O O2 0.798309 0.616291 0.378505
O O3 0.218518 0.850135 0.526041
O O4 0.841641 0.115240 0.385302
O O5 0.821048 0.538450 0.213565
O O6 0.331570 0.376437 0.037929
O O7 0.827937 0.202111 0.135741
O O8 0.722123 0.615267 0.071435
O O9 0.681292 0.925911 0.217185
O O10 0.154731 0.897421 0.262686
O O11 0.749338 0.446970 0.958298
O O12 0.173409 0.670512 0.114275
O O13 0.364656 0.319188 0.291623
O O14 0.763297 0.581381 0.836833
#
# Coordination Sequence:
#
# PCOD9118218 Si02
#       7
#     2   2   2   2   2   2   2
#     4  10  24  48  79 111 147 193 241 294 364 449
#     4  12  26  44  68 102 142 182 246 314 350 436
#     4  12  26  46  70 107 142 185 241 303 365 436
#     4  12  24  44  66  98 136 188 242 302 362 424
#     4  10  24  48  79 111 147 193 241 294 364 449
#     4  12  26  46  70 107 142 185 241 303 365 436
#     4  12  24  44  70  94 136 190 236 290 370 424
#
# _framework density 24.894853999999999
#
# number of rings (size 3 to 8) (size 9 to 14) (size 15 to 20)
#    0.000    0.571    4.286    3.429    8.000    0.000 
#    2.571    0.000    0.000    0.000    0.000    0.000 
#    0.000    0.000    0.000    0.000    0.000    0.000 
#
# Total GULP energy -78211.442710 kJ/mol
# GULP energy per Si atom -5586.531622 kJ/mol
# Density = 2.483819 g / cm^3
# Si number density = 24.894854 Si / 1000 Ang^3
#
#
#
# Elastic Constant Matrix: (Units=GPa)
#
#
# Indices 1 2 3 4 5 6 
#
# 1 82.5769 23.2883 13.0401 0.0000 -10.7104 0.0000
# 2 23.2883 91.4628 1.7127 0.0000 -7.8706 0.0000
# 3 13.0401 1.7127 58.5156 0.0000 -12.9524 0.0000
# 4 0.0000 0.0000 0.0000 31.3572 0.0000 -3.0493
# 5 -10.7104 -7.8706 -12.9524 0.0000 34.4056 0.0000
# 6 0.0000 0.0000 0.0000 -3.0493 0.0000 20.1468
#
#
#
# Elastic Compliance Matrix: (Units=1/GPa)
#
#
# Indices 1 2 3 4 5 6 
#
# 1 0.013739 -0.003226 -0.002382 0.000000 0.002642 0.000000
# 2 -0.003226 0.011914 0.000820 0.000000 0.002030 0.000000
# 3 -0.002382 0.000820 0.019062 0.000000 0.006622 0.000000
# 4 0.000000 0.000000 0.000000 0.032367 0.000000 0.004899
# 5 0.002642 0.002030 0.006622 0.000000 0.032845 0.000000
# 6 0.000000 0.000000 0.000000 0.004899 0.000000 0.050377
#
#
# Mechanical properties :
#
#
# Convention : Reuss Voigt Hill
#
# Bulk Modulus (GPa) = 28.46022 34.29307 31.37664
# Shear Modulus (GPa) = 27.53392 30.14954 28.84173
#
# Velocity S-wave (km/s) = 3.32928 3.48383 3.40743
# Velocity P-wave (km/s) = 5.12209 5.47611 5.30206
#
# Compressibility (1/GPa) = 0.03513677
#
# Stress axis : x y z
#
# Youngs Moduli (GPa) = 72.78735 83.93361 52.45991
#
# Poissons Ratio (x) = 0.27079 0.12498
# Poissons Ratio (y) = 0.23483 -0.04299
# Poissons Ratio (z) = 0.17341 -0.06878
#
# Static dielectric constant tensor:
#      x y z
#    x 1.980680 0.000000 -0.031230 
#    y 0.000000 2.115020 0.000000 
#    z -0.031230 0.000000 1.960390 
# 
# From -- ./inp_files/3300.got.cif
#   From: 2010.05.17/outbox.cif.g08.bks.cpg/sg4_2_cif.got.tgz:3300.got - 2010.06.03 18:43:04.
