data_PCOD9118489
_publ_section_title
;
Structure prediction by ZEFSAII (Michael W. Deem and Ramdas Pophale) SiO2 
 PCOD9118489
Probable space group: P 21
;
_chemical_formula_sum "Si O2"
_cell_formula_units_Z 16
_cell_length_a 19.219668
_cell_length_b 6.515640
_cell_length_c 11.423522
_cell_angle_alpha 90.000000
_cell_angle_beta 147.668673
_cell_angle_gamma 90.000000
_cell_volume 765.078674
_symmetry_space_group_name_H-M "P 21"
_symmetry_group_IT_number 4
_symmetry_cell_setting 'monoclinic'
loop_
_space_group_symop_operation_xyz
x,y,z
-x,1/2+y,-z
loop_
_atom_site_type_symbol
_atom_site_label
_atom_site_fract_x
_atom_site_fract_y
_atom_site_fract_z
Si Si1 0.648580 0.017750 0.169066
Si Si2 0.155525 0.206267 0.100436
Si Si3 0.864356 0.673030 0.517777
Si Si4 0.120537 0.885642 0.259347
Si Si5 0.286660 0.599619 0.348024
Si Si6 0.237356 0.896310 0.810258
Si Si7 0.511648 0.680213 0.835492
Si Si8 0.846266 0.334112 0.051928
O O1 0.716372 0.213176 0.207534
O O2 0.568280 0.080336 0.169966
O O3 0.759618 0.852808 0.358273
O O4 0.554874 0.904118 0.942166
O O5 0.269891 0.357906 0.302288
O O6 0.127589 0.038328 0.160092
O O7 0.025638 0.341137 0.909031
O O8 0.172936 0.073232 0.009064
O O9 0.814838 0.509924 0.543770
O O10 0.868853 0.540213 0.405124
O O11 0.003517 0.766532 0.751018
O O12 0.187168 0.678493 0.308061
O O13 0.423372 0.671742 0.594403
O O14 0.243021 0.707429 0.165435
O O15 0.189814 0.806482 0.864978
O O16 0.360869 0.044245 0.003811
#
# Coordination Sequence:
#
# PCOD9118489 Si02
#       8
#     2   2   2   2   2   2   2   2
#     4  11  24  44  73  99 130 175 225 291 336 398
#     4  11  21  38  63  96 142 171 216 273 336 404
#     4  11  25  40  70 101 136 175 225 281 345 407
#     4  11  20  36  63 102 131 170 218 275 337 387
#     4  11  24  40  69  98 139 179 223 280 338 401
#     4  11  27  47  66  96 137 180 227 280 340 403
#     4  11  24  45  71 100 127 178 232 280 334 397
#     4  11  27  44  63 104 136 184 222 274 344 415
#
# _framework density 20.912883000000001
#
# number of rings (size 3 to 8) (size 9 to 14) (size 15 to 20)
#    0.000    1.000    3.750    2.250    7.000    4.000 
#    4.500    0.000    0.000    0.000    0.000    0.000 
#    0.000    0.000    0.000    0.000    0.000    0.000 
#
# Total GULP energy -89440.104441 kJ/mol
# GULP energy per Si atom -5590.006528 kJ/mol
# Density = 2.086528 g / cm^3
# Si number density = 20.912883 Si / 1000 Ang^3
#
#
#
# Elastic Constant Matrix: (Units=GPa)
#
#
# Indices 1 2 3 4 5 6 
#
# 1 42.9199 3.0190 -2.6430 0.0000 -4.9271 0.0000
# 2 3.0190 79.1133 36.4985 0.0000 1.6337 0.0000
# 3 -2.6430 36.4985 108.7256 0.0000 -12.8056 0.0000
# 4 0.0000 0.0000 0.0000 30.2236 0.0000 -6.6557
# 5 -4.9271 1.6337 -12.8056 0.0000 12.6247 0.0000
# 6 0.0000 0.0000 0.0000 -6.6557 0.0000 23.1084
#
#
#
# Elastic Compliance Matrix: (Units=1/GPa)
#
#
# Indices 1 2 3 4 5 6 
#
# 1 0.025200 -0.002651 0.003068 0.000000 0.013290 0.000000
# 2 -0.002651 0.015979 -0.006580 0.000000 -0.009777 0.000000
# 3 0.003068 -0.006580 0.013313 0.000000 0.015552 0.000000
# 4 0.000000 0.000000 0.000000 0.035327 0.000000 0.010175
# 5 0.013290 -0.009777 0.015552 0.000000 0.101437 0.000000
# 6 0.000000 0.000000 0.000000 0.010175 0.000000 0.046205
#
#
# Mechanical properties :
#
#
# Convention : Reuss Voigt Hill
#
# Bulk Modulus (GPa) = 23.71645 33.83420 28.77532
# Shear Modulus (GPa) = 18.95068 26.11696 22.53382
#
# Velocity S-wave (km/s) = 3.01354 3.53773 3.28610
# Velocity P-wave (km/s) = 4.84497 5.73596 5.30919
#
# Compressibility (1/GPa) = 0.04216483
#
# Stress axis : x y z
#
# Youngs Moduli (GPa) = 39.68205 62.58299 75.11668
#
# Poissons Ratio (x) = 0.16594 -0.23045
# Poissons Ratio (y) = 0.10522 0.49426
# Poissons Ratio (z) = -0.12174 0.41179
#
# Static dielectric constant tensor:
#      x y z
#    x 1.721080 0.000000 -0.016190 
#    y 0.000000 1.763120 0.000000 
#    z -0.016190 0.000000 1.780640 
# 
# From -- ./inp_files/11593.got.cif
#   From: 2010.05.17/outbox.cif.g08.bks.cpg/sg4_6_cif.got.tgz:11593.got - 2010.06.03 18:43:04.
