data_PCOD9118937
_publ_section_title
;
Structure prediction by ZEFSAII (Michael W. Deem and Ramdas Pophale) SiO2 
 PCOD9118937
Probable space group: P 21
;
_chemical_formula_sum "Si O2"
_cell_formula_units_Z 10
_cell_length_a 11.607406
_cell_length_b 5.265484
_cell_length_c 11.931652
_cell_angle_alpha 90.000000
_cell_angle_beta 32.150570
_cell_angle_gamma 90.000000
_cell_volume 388.065377
_symmetry_space_group_name_H-M "P 21"
_symmetry_group_IT_number 4
_symmetry_cell_setting 'monoclinic'
loop_
_space_group_symop_operation_xyz
x,y,z
-x,1/2+y,-z
loop_
_atom_site_type_symbol
_atom_site_label
_atom_site_fract_x
_atom_site_fract_y
_atom_site_fract_z
Si Si1 0.654780 0.165010 0.455031
Si Si2 0.945402 0.973001 0.779116
Si Si3 0.477917 0.161553 0.947659
Si Si4 0.740978 0.813329 0.568164
Si Si5 0.640335 0.045489 0.212580
O O1 0.648445 0.175419 0.327202
O O2 0.427263 0.260173 0.694910
O O3 0.839612 0.341957 0.353040
O O4 0.727124 0.904381 0.450608
O O5 0.757362 0.770715 0.900037
O O6 0.032709 0.164232 0.610503
O O7 0.851616 0.100762 0.968098
O O8 0.660303 0.046551 0.711754
O O9 0.565400 0.406324 0.943517
O O10 0.539359 0.622601 0.731698
#
# Coordination Sequence:
#
# PCOD9118937 Si02
#       5
#     2   2   2   2   2
#     4  11  24  41  74 114 159 212 259 321 399 505
#     4  11  28  46  79 117 159 215 275 338 411 498
#     4  12  29  57  86 113 160 221 282 363 424 470
#     4  11  26  49  78 113 159 208 274 333 405 497
#     4  11  23  45  71 115 167 212 258 325 409 492
#
# _framework density 25.768856
#
# number of rings (size 3 to 8) (size 9 to 14) (size 15 to 20)
#    0.000    0.800    4.000    1.200   11.200    0.000 
#    3.600    0.000    0.000    0.000    0.000    0.000 
#    0.000    0.000    0.000    0.000    0.000    0.000 
#
# Total GULP energy -55741.902272 kJ/mol
# GULP energy per Si atom -5574.190227 kJ/mol
# Density = 2.571020 g / cm^3
# Si number density = 25.768856 Si / 1000 Ang^3
#
#
#
# Elastic Constant Matrix: (Units=GPa)
#
#
# Indices 1 2 3 4 5 6 
#
# 1 94.5985 51.4469 50.5396 0.0000 14.5048 0.0000
# 2 51.4469 127.8024 63.2423 0.0000 8.8978 0.0000
# 3 50.5396 63.2423 175.0164 0.0000 13.1993 0.0000
# 4 0.0000 0.0000 0.0000 55.2622 0.0000 5.6400
# 5 14.5048 8.8978 13.1993 0.0000 29.3109 0.0000
# 6 0.0000 0.0000 0.0000 5.6400 0.0000 48.2407
#
#
#
# Elastic Compliance Matrix: (Units=1/GPa)
#
#
# Indices 1 2 3 4 5 6 
#
# 1 0.015065 -0.004566 -0.002322 0.000000 -0.005023 0.000000
# 2 -0.004566 0.010967 -0.002654 0.000000 0.000125 0.000000
# 3 -0.002322 -0.002654 0.007449 0.000000 -0.001400 0.000000
# 4 0.000000 0.000000 0.000000 0.018314 0.000000 -0.002141
# 5 -0.005023 0.000125 -0.001400 0.000000 0.037195 0.000000
# 6 0.000000 0.000000 0.000000 -0.002141 0.000000 0.020980
#
#
# Mechanical properties :
#
#
# Convention : Reuss Voigt Hill
#
# Bulk Modulus (GPa) = 69.45429 80.87497 75.16463
# Shear Modulus (GPa) = 37.35494 42.04199 39.69847
#
# Velocity S-wave (km/s) = 3.81151 4.04357 3.92925
# Velocity P-wave (km/s) = 6.81040 7.29750 7.05815
#
# Compressibility (1/GPa) = 0.01439796
#
# Stress axis : x y z
#
# Youngs Moduli (GPa) = 66.38100 91.18196 134.25127
#
# Poissons Ratio (x) = 0.41631 0.31167
# Poissons Ratio (y) = 0.30308 0.35630
# Poissons Ratio (z) = 0.15411 0.24199
#
# Static dielectric constant tensor:
#      x y z
#    x 2.021930 0.000000 0.009070 
#    y 0.000000 2.179090 0.000000 
#    z 0.009070 0.000000 2.069920 
# 
# From -- ./inp_files/10214.got.cif
#   From: 2010.05.17/outbox.cif.g08.bks.cpg/sg4_6_cif.got.tgz:10214.got - 2010.06.03 18:43:04.
