data_PCOD9118980
_publ_section_title
;
Structure prediction by ZEFSAII (Michael W. Deem and Ramdas Pophale) SiO2 
 PCOD9118980
Probable space group: P 21
;
_chemical_formula_sum "Si O2"
_cell_formula_units_Z 16
_cell_length_a 10.349225
_cell_length_b 11.318537
_cell_length_c 7.976314
_cell_angle_alpha 90.000000
_cell_angle_beta 134.546252
_cell_angle_gamma 90.000000
_cell_volume 665.882534
_symmetry_space_group_name_H-M "P 21"
_symmetry_group_IT_number 4
_symmetry_cell_setting 'monoclinic'
loop_
_space_group_symop_operation_xyz
x,y,z
-x,1/2+y,-z
loop_
_atom_site_type_symbol
_atom_site_label
_atom_site_fract_x
_atom_site_fract_y
_atom_site_fract_z
Si Si1 0.234789 0.094020 0.858716
Si Si2 0.691218 0.780184 0.368538
Si Si3 0.578515 0.777983 0.786345
Si Si4 0.334276 0.828899 0.885871
Si Si5 0.850382 0.017519 0.634573
Si Si6 0.068751 0.433788 0.913432
Si Si7 0.960691 0.193804 0.202311
Si Si8 0.751990 0.261317 0.675448
O O1 0.250735 0.197714 0.736218
O O2 0.321388 0.970003 0.885525
O O3 0.332064 0.149397 0.110240
O O4 0.028425 0.064177 0.705972
O O5 0.751538 0.917080 0.436612
O O6 0.826661 0.723405 0.628670
O O7 0.475530 0.780429 0.154618
O O8 0.433360 0.797694 0.803340
O O9 0.745942 0.866274 0.955852
O O10 0.455287 0.804919 0.512389
O O11 0.140309 0.767707 0.743421
O O12 0.917866 0.967068 0.876474
O O13 0.736713 0.134106 0.571549
O O14 0.058256 0.554063 0.799183
O O15 0.892294 0.353591 0.720256
O O16 0.851676 0.233606 0.939258
#
# Coordination Sequence:
#
# PCOD9118980 Si02
#       8
#     2   2   2   2   2   2   2   2
#     4  11  24  46  72 103 141 193 238 291 361 430
#     4  11  25  43  74 101 145 190 234 299 356 426
#     4  11  27  43  70 103 144 188 237 296 354 427
#     4  11  26  45  68 105 146 184 243 293 360 422
#     4  11  23  47  71 103 144 185 236 303 355 421
#     4  11  25  45  71 106 145 182 245 290 364 430
#     4  11  26  45  71 107 139 192 239 299 357 429
#     4  11  24  46  73 102 144 190 238 297 361 425
#
# _framework density 24.028262999999999
#
# number of rings (size 3 to 8) (size 9 to 14) (size 15 to 20)
#    0.000    1.000    3.750    0.750    8.750    2.000 
#    4.500    0.000    0.000    0.000    0.000    0.000 
#    0.000    0.000    0.000    0.000    0.000    0.000 
#
# Total GULP energy -89438.142063 kJ/mol
# GULP energy per Si atom -5589.883879 kJ/mol
# Density = 2.397357 g / cm^3
# Si number density = 24.028263 Si / 1000 Ang^3
#
#
#
# Elastic Constant Matrix: (Units=GPa)
#
#
# Indices 1 2 3 4 5 6 
#
# 1 32.9053 24.4966 3.0020 0.0000 -3.7456 0.0000
# 2 24.4966 137.3432 20.8398 0.0000 4.4116 0.0000
# 3 3.0020 20.8398 112.5823 0.0000 21.9521 0.0000
# 4 0.0000 0.0000 0.0000 39.5806 0.0000 1.7617
# 5 -3.7456 4.4116 21.9521 0.0000 38.8630 0.0000
# 6 0.0000 0.0000 0.0000 1.7617 0.0000 26.5145
#
#
#
# Elastic Compliance Matrix: (Units=1/GPa)
#
#
# Indices 1 2 3 4 5 6 
#
# 1 0.035748 -0.006423 -0.000650 0.000000 0.004542 0.000000
# 2 -0.006423 0.008646 -0.001255 0.000000 -0.000891 0.000000
# 3 -0.000650 -0.001255 0.010245 0.000000 -0.005707 0.000000
# 4 0.000000 0.000000 0.000000 0.025340 0.000000 -0.001684
# 5 0.004542 -0.000891 -0.005707 0.000000 0.029494 0.000000
# 6 0.000000 0.000000 0.000000 -0.001684 0.000000 0.037827
#
#
# Mechanical properties :
#
#
# Convention : Reuss Voigt Hill
#
# Bulk Modulus (GPa) = 26.32810 42.16751 34.24781
# Shear Modulus (GPa) = 28.30973 36.62446 32.46709
#
# Velocity S-wave (km/s) = 3.43619 3.90837 3.67986
# Velocity P-wave (km/s) = 5.16954 6.16071 5.68676
#
# Compressibility (1/GPa) = 0.03798224
#
# Stress axis : x y z
#
# Youngs Moduli (GPa) = 27.97322 115.66282 97.60976
#
# Poissons Ratio (x) = 0.74295 0.06342
# Poissons Ratio (y) = 0.17968 0.12253
# Poissons Ratio (z) = 0.01818 0.14519
#
# Static dielectric constant tensor:
#      x y z
#    x 1.933860 0.000000 -0.089790 
#    y 0.000000 1.894340 0.000000 
#    z -0.089790 0.000000 2.047790 
# 
# From -- ./inp_files/8488.got.cif
#   From: 2010.05.17/outbox.cif.g08.bks.cpg/sg4_5_cif.got.tgz:8488.got - 2010.06.03 18:43:04.
