data_PCOD9118611
_publ_section_title
;
Structure prediction by ZEFSAII (Michael W. Deem and Ramdas Pophale) SiO2 
 PCOD9118611
Probable space group: P 21
;
_chemical_formula_sum "Si O2"
_cell_formula_units_Z 16
_cell_length_a 12.386112
_cell_length_b 7.958272
_cell_length_c 14.814742
_cell_angle_alpha 90.000000
_cell_angle_beta 27.621750
_cell_angle_gamma 90.000000
_cell_volume 677.051437
_symmetry_space_group_name_H-M "P 21"
_symmetry_group_IT_number 4
_symmetry_cell_setting 'monoclinic'
loop_
_space_group_symop_operation_xyz
x,y,z
-x,1/2+y,-z
loop_
_atom_site_type_symbol
_atom_site_label
_atom_site_fract_x
_atom_site_fract_y
_atom_site_fract_z
Si Si1 0.095071 0.101150 0.543065
Si Si2 0.114629 0.959703 0.037680
Si Si3 0.467610 0.877283 0.362394
Si Si4 0.883825 0.961777 0.922291
Si Si5 0.709856 0.266106 0.935200
Si Si6 0.207499 0.262040 0.270260
Si Si7 0.811428 0.680696 0.190413
Si Si8 0.076385 0.645292 0.669741
O O1 0.196402 0.184360 0.378243
O O2 0.940171 0.246127 0.704035
O O3 0.292408 0.029116 0.465597
O O4 0.935451 0.937393 0.634935
O O5 0.908172 0.013286 0.260572
O O6 0.297285 0.902914 0.978690
O O7 0.183438 0.093123 0.911432
O O8 0.033170 0.800511 0.040968
O O9 0.584081 0.799450 0.367516
O O10 0.312900 0.714157 0.451314
O O11 0.702058 0.920756 0.135279
O O12 0.742981 0.089531 0.963370
O O13 0.123277 0.039782 0.784586
O O14 0.957239 0.800072 0.812093
O O15 0.479054 0.285585 0.048310
O O16 0.097948 0.124318 0.283992
#
# Coordination Sequence:
#
# PCOD9118611 Si02
#       8
#     2   2   2   2   2   2   2   2
#     4  11  26  45  66 107 136 182 233 280 342 415
#     4  11  24  43  68 105 131 178 237 270 342 419
#     4  11  22  43  72  97 141 174 225 292 331 402
#     4  11  21  46  69  95 140 179 228 276 346 404
#     4  11  25  44  71  99 140 182 228 280 340 418
#     4  11  26  43  71  98 141 183 222 286 345 401
#     4  11  23  44  72  97 133 184 222 285 346 397
#     4  11  25  42  67 106 136 180 231 275 340 414
#
# _framework density 23.631883999999999
#
# number of rings (size 3 to 8) (size 9 to 14) (size 15 to 20)
#    0.000    1.000    6.250    0.000    3.500    5.000 
#    0.000    0.000    0.000    0.000    0.000    0.000 
#    0.000    0.000    0.000    0.000    0.000    0.000 
#
# Total GULP energy -89113.982745 kJ/mol
# GULP energy per Si atom -5569.623922 kJ/mol
# Density = 2.357810 g / cm^3
# Si number density = 23.631884 Si / 1000 Ang^3
#
#
#
# Elastic Constant Matrix: (Units=GPa)
#
#
# Indices 1 2 3 4 5 6 
#
# 1 102.9178 22.3844 43.9009 0.0000 -14.8455 0.0000
# 2 22.3844 67.5340 15.7420 0.0000 5.0472 0.0000
# 3 43.9009 15.7420 69.1513 0.0000 -12.0877 0.0000
# 4 0.0000 0.0000 0.0000 24.9500 0.0000 10.4282
# 5 -14.8455 5.0472 -12.0877 0.0000 40.1963 0.0000
# 6 0.0000 0.0000 0.0000 10.4282 0.0000 47.3236
#
#
#
# Elastic Compliance Matrix: (Units=1/GPa)
#
#
# Indices 1 2 3 4 5 6 
#
# 1 0.014161 -0.003148 -0.007695 0.000000 0.003311 0.000000
# 2 -0.003148 0.016737 -0.002515 0.000000 -0.004020 0.000000
# 3 -0.007695 -0.002515 0.020558 0.000000 0.003656 0.000000
# 4 0.000000 0.000000 0.000000 0.044146 0.000000 -0.009728
# 5 0.003311 -0.004020 0.003656 0.000000 0.027705 0.000000
# 6 0.000000 0.000000 0.000000 -0.009728 0.000000 0.023275
#
#
# Mechanical properties :
#
#
# Convention : Reuss Voigt Hill
#
# Bulk Modulus (GPa) = 40.41743 44.85084 42.63414
# Shear Modulus (GPa) = 27.54166 32.99905 30.27036
#
# Velocity S-wave (km/s) = 3.41757 3.74087 3.58287
# Velocity P-wave (km/s) = 5.71953 6.13832 5.93262
#
# Compressibility (1/GPa) = 0.02474180
#
# Stress axis : x y z
#
# Youngs Moduli (GPa) = 70.61620 59.74699 48.64370
#
# Poissons Ratio (x) = 0.18806 0.37431
# Poissons Ratio (y) = 0.22227 0.12232
# Poissons Ratio (z) = 0.54338 0.15024
#
# Static dielectric constant tensor:
#      x y z
#    x 1.910400 0.000000 0.013260 
#    y 0.000000 2.017530 0.000000 
#    z 0.013260 0.000000 1.958470 
# 
# From -- ./inp_files/13925.got.cif
#   From: 2010.05.17/outbox.cif.g08.bks.cpg/sg4_7_cif.got.tgz:13925.got - 2010.06.03 18:43:04.
