data_PCOD9118783
_publ_section_title
;
Structure prediction by ZEFSAII (Michael W. Deem and Ramdas Pophale) SiO2 
 PCOD9118783
Probable space group: P 21
;
_chemical_formula_sum "Si O2"
_cell_formula_units_Z 16
_cell_length_a 17.722718
_cell_length_b 4.917752
_cell_length_c 8.376217
_cell_angle_alpha 90.000000
_cell_angle_beta 122.695222
_cell_angle_gamma 90.000000
_cell_volume 614.366893
_symmetry_space_group_name_H-M "P 21"
_symmetry_group_IT_number 4
_symmetry_cell_setting 'monoclinic'
loop_
_space_group_symop_operation_xyz
x,y,z
-x,1/2+y,-z
loop_
_atom_site_type_symbol
_atom_site_label
_atom_site_fract_x
_atom_site_fract_y
_atom_site_fract_z
Si Si1 0.724664 0.169840 0.618729
Si Si2 0.708802 0.012814 0.051102
Si Si3 0.343719 0.913010 0.777270
Si Si4 0.054381 0.943800 0.749158
Si Si5 0.456898 0.230326 0.079528
Si Si6 0.197359 0.193240 0.131999
Si Si7 0.471949 0.413974 0.556013
Si Si8 0.885423 0.931149 0.386124
O O1 0.714449 0.323533 0.437259
O O2 0.747209 0.420957 0.762271
O O3 0.795351 0.920739 0.719776
O O4 0.628590 0.029219 0.542780
O O5 0.699101 0.324311 0.102535
O O6 0.779027 0.927348 0.272710
O O7 0.606096 0.935445 0.896246
O O8 0.759561 0.873558 0.961010
O O9 0.444796 0.792242 0.870839
O O10 0.383316 0.211144 0.851423
O O11 0.087711 0.136529 0.644883
O O12 0.947090 0.976242 0.611678
O O13 0.086691 0.648073 0.722863
O O14 0.103168 0.065671 0.960915
O O15 0.476714 0.987687 0.223465
O O16 0.524244 0.600299 0.486125
#
# Coordination Sequence:
#
# PCOD9118783 Si02
#       8
#     2   2   2   2   2   2   2   2
#     4  11  25  42  59  89 125 168 210 259 321 377
#     4  11  23  38  65  93 119 164 217 266 304 380
#     4  11  26  41  62  85 129 175 218 260 315 378
#     4   9  18  36  59  93 130 158 189 261 334 376
#     4  11  24  40  62  81 124 173 213 257 316 373
#     4  11  23  40  66  93 124 160 211 266 320 380
#     4  11  24  39  59  87 119 156 205 267 311 358
#     4   9  19  34  60  95 128 154 201 260 321 374
#
# _framework density 26.043067000000001
#
# number of rings (size 3 to 8) (size 9 to 14) (size 15 to 20)
#    0.000    1.500    1.250    3.750   10.500    0.000 
#    0.000    0.000    0.000    1.500    0.000    0.000 
#    0.000    0.000    0.000    0.000    0.000    0.000 
#
# Total GULP energy -89116.731528 kJ/mol
# GULP energy per Si atom -5569.795721 kJ/mol
# Density = 2.598379 g / cm^3
# Si number density = 26.043067 Si / 1000 Ang^3
#
#
#
# Elastic Constant Matrix: (Units=GPa)
#
#
# Indices 1 2 3 4 5 6 
#
# 1 48.9266 24.6879 33.6653 0.0000 10.1622 0.0000
# 2 24.6879 78.7746 43.0834 0.0000 26.9522 0.0000
# 3 33.6653 43.0834 183.4243 0.0000 29.3913 0.0000
# 4 0.0000 0.0000 0.0000 20.5855 0.0000 22.2207
# 5 10.1622 26.9522 29.3913 0.0000 30.4480 0.0000
# 6 0.0000 0.0000 0.0000 22.2207 0.0000 11.7408
#
#
#
# Elastic Compliance Matrix: (Units=1/GPa)
#
#
# Indices 1 2 3 4 5 6 
#
# 1 0.025876 -0.006375 -0.003280 0.000000 0.000172 0.000000
# 2 -0.006375 0.020425 -0.001267 0.000000 -0.014729 0.000000
# 3 -0.003280 -0.001267 0.007093 0.000000 -0.004631 0.000000
# 4 0.000000 0.000000 0.000000 -0.046578 0.000000 0.088154
# 5 0.000172 -0.014729 -0.004631 0.000000 0.050293 0.000000
# 6 0.000000 0.000000 0.000000 0.088154 0.000000 -0.081666
#
#
# Mechanical properties :
#
#
# Convention : Reuss Voigt Hill
#
# Bulk Modulus (GPa) = 31.69472 57.11097 44.40284
# Shear Modulus (GPa) = 640.69631 26.53413 333.61522
#
# Velocity S-wave (km/s) = 15.70185 3.19542 11.33047
# Velocity P-wave (km/s) = 18.46422 5.96584 13.72076
#
# Compressibility (1/GPa) = 0.03155100
#
# Stress axis : x y z
#
# Youngs Moduli (GPa) = 38.64538 48.96004 140.97471
#
# Poissons Ratio (x) = 0.31212 0.46233
# Poissons Ratio (y) = 0.24636 0.17866
# Poissons Ratio (z) = 0.12674 0.06205
#
# Static dielectric constant tensor:
#      x y z
#    x 3.467840 0.000000 -0.811580 
#    y 0.000000 2.278700 0.000000 
#    z -0.811580 0.000000 2.632540 
# 
# From -- ./inp_files/9865.got.cif
#   From: 2010.05.17/outbox.cif.g08.bks.cpg/sg4_5_cif.got.tgz:9865.got - 2010.06.03 18:43:04.
