data_PCOD9118100
_publ_section_title
;
Structure prediction by ZEFSAII (Michael W. Deem and Ramdas Pophale) SiO2 
 PCOD9118100
Probable space group: P 21
;
_chemical_formula_sum "Si O2"
_cell_formula_units_Z 12
_cell_length_a 14.914569
_cell_length_b 5.791974
_cell_length_c 7.346362
_cell_angle_alpha 90.000000
_cell_angle_beta 130.151240
_cell_angle_gamma 90.000000
_cell_volume 485.064056
_symmetry_space_group_name_H-M "P 21"
_symmetry_group_IT_number 4
_symmetry_cell_setting 'monoclinic'
loop_
_space_group_symop_operation_xyz
x,y,z
-x,1/2+y,-z
loop_
_atom_site_type_symbol
_atom_site_label
_atom_site_fract_x
_atom_site_fract_y
_atom_site_fract_z
Si Si1 0.161014 0.032140 0.029023
Si Si2 0.677017 0.952363 0.347679
Si Si3 0.609806 0.282270 0.562438
Si Si4 0.937119 0.490334 0.458798
Si Si5 0.084163 0.275503 0.247034
Si Si6 0.525436 0.122275 0.835754
O O1 0.124644 0.259493 0.091505
O O2 0.278764 0.948785 0.276751
O O3 0.169611 0.027681 0.822611
O O4 0.045949 0.873996 0.912629
O O5 0.815543 0.916954 0.515963
O O6 0.592963 0.728111 0.233790
O O7 0.654366 0.057929 0.517124
O O8 0.625852 0.106462 0.117723
O O9 0.509175 0.379403 0.299747
O O10 0.565281 0.258360 0.708735
O O11 0.089117 0.033581 0.363970
O O12 0.012146 0.729418 0.505824
#
# Coordination Sequence:
#
# PCOD9118100 Si02
#       6
#     2   2   2   2   2   2
#     4  11  24  43  72 108 145 187 240 301 378 452
#     4  12  26  45  74 104 143 192 245 310 376 446
#     4  12  26  45  74 104 143 192 245 310 376 446
#     4  10  24  45  70 104 152 199 244 298 372 454
#     4  11  24  43  72 108 145 187 240 301 378 452
#     4  12  26  47  72 100 144 191 248 308 370 440
#
# _framework density 24.739000999999998
#
# number of rings (size 3 to 8) (size 9 to 14) (size 15 to 20)
#    0.000    0.667    5.000    2.000    0.000   13.333 
#    0.000    0.000    0.000    0.000    0.000    0.000 
#    0.000    0.000    0.000    0.000    0.000    0.000 
#
# Total GULP energy -66997.080947 kJ/mol
# GULP energy per Si atom -5583.090079 kJ/mol
# Density = 2.468269 g / cm^3
# Si number density = 24.739001 Si / 1000 Ang^3
#
#
#
# Elastic Constant Matrix: (Units=GPa)
#
#
# Indices 1 2 3 4 5 6 
#
# 1 79.7955 11.8895 18.6113 0.0000 -5.9023 0.0000
# 2 11.8895 50.7198 2.4602 0.0000 0.1976 0.0000
# 3 18.6113 2.4602 117.6266 0.0000 -20.2854 0.0000
# 4 0.0000 0.0000 0.0000 43.7839 0.0000 -1.5825
# 5 -5.9023 0.1976 -20.2854 0.0000 33.3122 0.0000
# 6 0.0000 0.0000 0.0000 -1.5825 0.0000 42.7949
#
#
#
# Elastic Compliance Matrix: (Units=1/GPa)
#
#
# Indices 1 2 3 4 5 6 
#
# 1 0.013519 -0.003084 -0.001853 0.000000 0.001285 0.000000
# 2 -0.003084 0.020445 -0.000061 0.000000 -0.000705 0.000000
# 3 -0.001853 -0.000061 0.009765 0.000000 0.005618 0.000000
# 4 0.000000 0.000000 0.000000 0.022870 0.000000 0.000846
# 5 0.001285 -0.000705 0.005618 0.000000 0.033672 0.000000
# 6 0.000000 0.000000 0.000000 0.000846 0.000000 0.023399
#
#
# Mechanical properties :
#
#
# Convention : Reuss Voigt Hill
#
# Bulk Modulus (GPa) = 29.64535 34.89599 32.27067
# Shear Modulus (GPa) = 34.50423 38.32358 36.41391
#
# Velocity S-wave (km/s) = 3.73866 3.94015 3.84073
# Velocity P-wave (km/s) = 5.53589 5.90220 5.72198
#
# Compressibility (1/GPa) = 0.03373211
#
# Stress axis : x y z
#
# Youngs Moduli (GPa) = 73.97107 48.91204 102.40818
#
# Poissons Ratio (x) = 0.15085 0.18975
# Poissons Ratio (y) = 0.22814 0.00627
# Poissons Ratio (z) = 0.13706 0.00299
#
# Static dielectric constant tensor:
#      x y z
#    x 2.010670 0.000000 -0.032410 
#    y 0.000000 2.064500 0.000000 
#    z -0.032410 0.000000 1.932890 
# 
# From -- ./inp_files/9529.got.cif
#   From: 2010.05.17/outbox.cif.g08.bks.cpg/sg4_5_cif.got.tgz:9529.got - 2010.06.03 18:43:04.
