data_PCOD9118351
_publ_section_title
;
Structure prediction by ZEFSAII (Michael W. Deem and Ramdas Pophale) SiO2 
 PCOD9118351
Probable space group: P 21
;
_chemical_formula_sum "Si O2"
_cell_formula_units_Z 12
_cell_length_a 7.685026
_cell_length_b 5.020694
_cell_length_c 16.017072
_cell_angle_alpha 90.000000
_cell_angle_beta 132.438866
_cell_angle_gamma 90.000000
_cell_volume 456.086553
_symmetry_space_group_name_H-M "P 21"
_symmetry_group_IT_number 4
_symmetry_cell_setting 'monoclinic'
loop_
_space_group_symop_operation_xyz
x,y,z
-x,1/2+y,-z
loop_
_atom_site_type_symbol
_atom_site_label
_atom_site_fract_x
_atom_site_fract_y
_atom_site_fract_z
Si Si1 0.342955 0.917730 0.435143
Si Si2 0.595139 0.785837 0.747989
Si Si3 0.567598 0.551679 0.146880
Si Si4 0.132443 0.616523 0.519419
Si Si5 0.726147 0.569266 0.958387
Si Si6 0.946922 0.167523 0.787395
O O1 0.559021 0.703423 0.504976
O O2 0.193075 0.908685 0.300860
O O3 0.171723 0.776594 0.446600
O O4 0.751440 0.636221 0.868480
O O5 0.455337 0.003158 0.761106
O O6 0.389603 0.605574 0.644435
O O7 0.747304 0.942473 0.730319
O O8 0.484352 0.269256 0.083105
O O9 0.823731 0.615078 0.195143
O O10 0.373481 0.774912 0.062886
O O11 0.976553 0.825811 0.521533
O O12 0.946162 0.656628 0.084660
#
# Coordination Sequence:
#
# PCOD9118351 Si02
#       6
#     2   2   2   2   2   2
#     4  12  28  49  72 109 145 192 249 302 366 438
#     4  10  27  48  75 112 143 192 245 305 357 452
#     4  10  25  48  71 112 144 194 239 299 368 439
#     4  12  27  50  77 104 150 195 244 309 367 433
#     4  10  26  47  74 109 150 188 246 297 374 428
#     4  12  25  50  77 106 152 195 241 310 362 442
#
# _framework density 26.310796
#
# number of rings (size 3 to 8) (size 9 to 14) (size 15 to 20)
#    1.000    0.000    1.667    3.000    7.000    2.667 
#    3.000    0.000    0.000    0.000    0.000    0.000 
#    0.000    0.000    0.000    0.000    0.000    0.000 
#
# Total GULP energy -67158.811111 kJ/mol
# GULP energy per Si atom -5596.567593 kJ/mol
# Density = 2.625091 g / cm^3
# Si number density = 26.310796 Si / 1000 Ang^3
#
#
#
# Elastic Constant Matrix: (Units=GPa)
#
#
# Indices 1 2 3 4 5 6 
#
# 1 107.8903 22.3440 8.8085 0.0000 21.2961 0.0000
# 2 22.3440 74.3290 9.6161 0.0000 6.1916 0.0000
# 3 8.8085 9.6161 163.8549 0.0000 -3.4414 0.0000
# 4 0.0000 0.0000 0.0000 15.2630 0.0000 -11.2116
# 5 21.2961 6.1916 -3.4414 0.0000 39.1180 0.0000
# 6 0.0000 0.0000 0.0000 -11.2116 0.0000 -2.4687
#
#
#
# Elastic Compliance Matrix: (Units=1/GPa)
#
#
# Indices 1 2 3 4 5 6 
#
# 1 0.010990 -0.002767 -0.000546 0.000000 -0.005593 0.000000
# 2 -0.002767 0.014449 -0.000717 0.000000 -0.000843 0.000000
# 3 -0.000546 -0.000717 0.006194 0.000000 0.000956 0.000000
# 4 0.000000 0.000000 0.000000 0.015110 0.000000 -0.068623
# 5 -0.005593 -0.000843 0.000956 0.000000 0.028826 0.000000
# 6 0.000000 0.000000 0.000000 -0.068623 0.000000 -0.093421
#
#
# Mechanical properties :
#
#
# Convention : Reuss Voigt Hill
#
# Bulk Modulus (GPa) = 42.42088 47.51238 44.96663
# Shear Modulus (GPa) = -2586.97313 30.73616 -1278.11848
#
# Velocity S-wave (km/s) = -31.39062 3.42160 -22.06426
# Velocity P-wave (km/s) = 36.02318 5.80578 25.13924
#
# Compressibility (1/GPa) = 0.02357330
#
# Stress axis : x y z
#
# Youngs Moduli (GPa) = 90.98870 69.21094 161.43488
#
# Poissons Ratio (x) = 0.19153 0.08813
# Poissons Ratio (y) = 0.25179 0.11573
# Poissons Ratio (z) = 0.04967 0.04962
#
# Static dielectric constant tensor:
#      x y z
#    x 2.133020 0.000000 -0.054240 
#    y 0.000000 2.013630 0.000000 
#    z -0.054240 0.000000 2.093030 
# 
# From -- ./inp_files/14770.got.cif
#   From: 2010.05.17/outbox.cif.g08.bks.cpg/sg4_8_cif.got.tgz:14770.got - 2010.06.03 18:43:04.
