data_PCOD9118674
_publ_section_title
;
Structure prediction by ZEFSAII (Michael W. Deem and Ramdas Pophale) SiO2 
 PCOD9118674
Probable space group: P 21
;
_chemical_formula_sum "Si O2"
_cell_formula_units_Z 14
_cell_length_a 9.732985
_cell_length_b 6.634612
_cell_length_c 19.534409
_cell_angle_alpha 90.000000
_cell_angle_beta 149.417921
_cell_angle_gamma 90.000000
_cell_volume 641.778562
_symmetry_space_group_name_H-M "P 21"
_symmetry_group_IT_number 4
_symmetry_cell_setting 'monoclinic'
loop_
_space_group_symop_operation_xyz
x,y,z
-x,1/2+y,-z
loop_
_atom_site_type_symbol
_atom_site_label
_atom_site_fract_x
_atom_site_fract_y
_atom_site_fract_z
Si Si1 0.770141 0.671220 0.609101
Si Si2 0.631496 0.129520 0.319032
Si Si3 0.783052 0.280144 0.845631
Si Si4 0.218971 0.797783 0.308342
Si Si5 0.844544 0.557718 0.235426
Si Si6 0.621966 0.939696 0.886083
Si Si7 0.077104 0.859436 0.444417
O O1 0.462402 0.737616 0.464013
O O2 0.799563 0.538597 0.690381
O O3 0.839005 0.521969 0.576056
O O4 0.971726 0.858964 0.693013
O O5 0.590215 0.289657 0.241029
O O6 0.687644 0.254471 0.411664
O O7 0.369312 0.990220 0.207741
O O8 0.879297 0.978009 0.411130
O O9 0.708682 0.223135 0.735972
O O10 0.692145 0.119318 0.863198
O O11 0.101589 0.321252 0.983058
O O12 0.942470 0.698212 0.215424
O O13 0.529123 0.513940 0.110415
O O14 0.925023 0.682426 0.338216
#
# Coordination Sequence:
#
# PCOD9118674 Si02
#       7
#     2   2   2   2   2   2   2
#     4  11  22  42  68 101 139 178 225 296 356 427
#     4  12  24  40  70 106 137 179 234 295 355 419
#     4  12  27  47  69 102 138 193 240 289 345 422
#     4  11  25  42  68 100 138 180 233 283 365 416
#     4  11  23  45  67  99 141 181 228 291 350 427
#     4  12  25  49  70  96 142 187 244 294 340 411
#     4  11  24  37  68 106 139 176 226 294 365 414
#
# _framework density 21.814375999999999
#
# number of rings (size 3 to 8) (size 9 to 14) (size 15 to 20)
#    0.000    0.571    5.714    2.571    4.000    1.143 
#    2.571    0.000    0.000    0.000    0.000    0.000 
#    0.000    0.000    0.000    0.000    0.000    0.000 
#
# Total GULP energy -78289.336464 kJ/mol
# GULP energy per Si atom -5592.095462 kJ/mol
# Density = 2.176473 g / cm^3
# Si number density = 21.814376 Si / 1000 Ang^3
#
#
#
# Elastic Constant Matrix: (Units=GPa)
#
#
# Indices 1 2 3 4 5 6 
#
# 1 66.8604 16.2556 5.4338 0.0000 25.2920 0.0000
# 2 16.2556 101.2925 23.8655 0.0000 11.1999 0.0000
# 3 5.4338 23.8655 46.0993 0.0000 17.7770 0.0000
# 4 0.0000 0.0000 0.0000 33.0527 0.0000 11.2495
# 5 25.2920 11.1999 17.7770 0.0000 31.3823 0.0000
# 6 0.0000 0.0000 0.0000 11.2495 0.0000 34.5804
#
#
#
# Elastic Compliance Matrix: (Units=1/GPa)
#
#
# Indices 1 2 3 4 5 6 
#
# 1 0.023377 -0.003042 0.007250 0.000000 -0.021861 0.000000
# 2 -0.003042 0.011660 -0.006421 0.000000 0.001928 0.000000
# 3 0.007250 -0.006421 0.032667 0.000000 -0.022056 0.000000
# 4 0.000000 0.000000 0.000000 0.034022 0.000000 -0.011068
# 5 -0.021861 0.001928 -0.022056 0.000000 0.061289 0.000000
# 6 0.000000 0.000000 0.000000 -0.011068 0.000000 0.032519
#
#
# Mechanical properties :
#
#
# Convention : Reuss Voigt Hill
#
# Bulk Modulus (GPa) = 15.80378 33.92910 24.86644
# Shear Modulus (GPa) = 22.61885 31.04956 26.83421
#
# Velocity S-wave (km/s) = 3.22355 3.77683 3.51111
# Velocity P-wave (km/s) = 4.59515 5.88273 5.27835
#
# Compressibility (1/GPa) = 0.06327599
#
# Stress axis : x y z
#
# Youngs Moduli (GPa) = 42.77786 85.76012 30.61147
#
# Poissons Ratio (x) = 0.26092 -0.22192
# Poissons Ratio (y) = 0.13015 0.19657
# Poissons Ratio (z) = -0.31013 0.55071
#
# Static dielectric constant tensor:
#      x y z
#    x 1.789390 0.000000 0.016080 
#    y 0.000000 1.804730 0.000000 
#    z 0.016080 0.000000 1.783740 
# 
# From -- ./inp_files/8565.got.cif
#   From: 2010.05.17/outbox.cif.g08.bks.cpg/sg4_5_cif.got.tgz:8565.got - 2010.06.03 18:43:04.
