data_PCOD9118283
_publ_section_title
;
Structure prediction by ZEFSAII (Michael W. Deem and Ramdas Pophale) SiO2 
 PCOD9118283
Probable space group: P 21
;
_chemical_formula_sum "Si O2"
_cell_formula_units_Z 16
_cell_length_a 8.508818
_cell_length_b 16.181706
_cell_length_c 5.233641
_cell_angle_alpha 90.000000
_cell_angle_beta 87.723129
_cell_angle_gamma 90.000000
_cell_volume 720.036422
_symmetry_space_group_name_H-M "P 21"
_symmetry_group_IT_number 4
_symmetry_cell_setting 'monoclinic'
loop_
_space_group_symop_operation_xyz
x,y,z
-x,1/2+y,-z
loop_
_atom_site_type_symbol
_atom_site_label
_atom_site_fract_x
_atom_site_fract_y
_atom_site_fract_z
Si Si1 0.469822 0.800400 0.215871
Si Si2 0.869854 0.538952 0.315663
Si Si3 0.230809 0.391161 0.864924
Si Si4 0.341750 0.696023 0.848172
Si Si5 0.656168 0.675000 0.556357
Si Si6 0.766984 0.356465 0.415392
Si Si7 0.919506 0.063197 0.190912
Si Si8 0.891555 0.809618 0.639085
O O1 0.598925 0.856060 0.059759
O O2 0.587472 0.746684 0.382195
O O3 0.347775 0.865723 0.337933
O O4 0.361272 0.722427 0.138231
O O5 0.724944 0.598366 0.397624
O O6 0.810101 0.444805 0.298478
O O7 0.990671 0.544872 0.548924
O O8 0.956118 0.566162 0.050187
O O9 0.199728 0.488291 0.868693
O O10 0.191816 0.363673 0.577179
O O11 0.115156 0.351476 0.082463
O O12 0.507914 0.657001 0.749007
O O13 0.328963 0.790045 0.743889
O O14 0.190902 0.643321 0.791929
O O15 0.806015 0.721364 0.672552
O O16 0.929332 0.309923 0.463625
#
# Coordination Sequence:
#
# PCOD9118283 Si02
#       8
#     2   2   2   2   2   2   2   2
#     4  10  25  44  69 102 140 190 229 281 359 421
#     4  12  28  48  71 108 137 186 239 299 354 415
#     4  11  22  46  68 100 136 180 229 281 347 417
#     4  11  26  45  71 103 142 191 233 292 354 433
#     4  10  25  46  67 103 138 186 234 287 353 423
#     4  11  25  45  71 105 140 182 242 292 350 424
#     4  12  27  47  71 105 141 182 240 295 356 412
#     4  11  22  43  74  94 136 179 230 285 341 417
#
# _framework density 22.221094999999998
#
# number of rings (size 3 to 8) (size 9 to 14) (size 15 to 20)
#    0.000    1.000    3.750    0.750   12.250    1.000 
#    2.250    0.000    0.000    0.000    0.000    0.000 
#    0.000    0.000    0.000    0.000    0.000    0.000 
#
# Total GULP energy -89177.472038 kJ/mol
# GULP energy per Si atom -5573.592002 kJ/mol
# Density = 2.217052 g / cm^3
# Si number density = 22.221095 Si / 1000 Ang^3
#
#
#
# Elastic Constant Matrix: (Units=GPa)
#
#
# Indices 1 2 3 4 5 6 
#
# 1 84.3614 36.5779 5.3420 0.0000 -28.0456 0.0000
# 2 36.5779 95.9486 23.2573 0.0000 -19.4886 0.0000
# 3 5.3420 23.2573 62.3084 0.0000 -17.9814 0.0000
# 4 0.0000 0.0000 0.0000 24.6537 0.0000 -11.7125
# 5 -28.0456 -19.4886 -17.9814 0.0000 37.5944 0.0000
# 6 0.0000 0.0000 0.0000 -11.7125 0.0000 38.2296
#
#
#
# Elastic Compliance Matrix: (Units=1/GPa)
#
#
# Indices 1 2 3 4 5 6 
#
# 1 0.018135 -0.005322 0.004107 0.000000 0.012734 0.000000
# 2 -0.005322 0.013723 -0.004361 0.000000 0.001058 0.000000
# 3 0.004107 -0.004361 0.020368 0.000000 0.010545 0.000000
# 4 0.000000 0.000000 0.000000 0.047471 0.000000 0.014544
# 5 0.012734 0.001058 0.010545 0.000000 0.041691 0.000000
# 6 0.000000 0.000000 0.000000 0.014544 0.000000 0.030614
#
#
# Mechanical properties :
#
#
# Convention : Reuss Voigt Hill
#
# Bulk Modulus (GPa) = 24.34705 41.44142 32.89423
# Shear Modulus (GPa) = 25.40059 31.92495 28.66277
#
# Velocity S-wave (km/s) = 3.38462 3.79449 3.59540
# Velocity P-wave (km/s) = 5.12394 6.15529 5.66314
#
# Compressibility (1/GPa) = 0.04107274
#
# Stress axis : x y z
#
# Youngs Moduli (GPa) = 55.14290 72.86968 49.09672
#
# Poissons Ratio (x) = 0.38784 -0.20162
# Poissons Ratio (y) = 0.29349 0.21410
# Poissons Ratio (z) = -0.22645 0.31777
#
# Static dielectric constant tensor:
#      x y z
#    x 1.889910 0.000000 0.159840 
#    y 0.000000 1.813600 0.000000 
#    z 0.159840 0.000000 2.101480 
# 
# From -- ./inp_files/1623.got.cif
#   From: 2010.05.17/outbox.cif.g08.bks.cpg/sg4_1_cif.got.tgz:1623.got - 2010.06.03 18:43:04.
