data_PCOD9118759
_publ_section_title
;
Structure prediction by ZEFSAII (Michael W. Deem and Ramdas Pophale) SiO2 
 PCOD9118759
Probable space group: P 21
;
_chemical_formula_sum "Si O2"
_cell_formula_units_Z 14
_cell_length_a 15.226566
_cell_length_b 8.084448
_cell_length_c 4.755503
_cell_angle_alpha 90.000000
_cell_angle_beta 113.454462
_cell_angle_gamma 90.000000
_cell_volume 537.027480
_symmetry_space_group_name_H-M "P 21"
_symmetry_group_IT_number 4
_symmetry_cell_setting 'monoclinic'
loop_
_space_group_symop_operation_xyz
x,y,z
-x,1/2+y,-z
loop_
_atom_site_type_symbol
_atom_site_label
_atom_site_fract_x
_atom_site_fract_y
_atom_site_fract_z
Si Si1 0.420382 0.914790 0.319950
Si Si2 0.724609 0.953363 0.536933
Si Si3 0.144883 0.174091 0.250186
Si Si4 0.600869 0.050541 0.867995
Si Si5 0.943638 0.324452 0.966951
Si Si6 0.703281 0.477976 0.290367
Si Si7 0.158548 0.689626 0.671026
O O1 0.433479 0.740314 0.175717
O O2 0.516769 0.951802 0.607673
O O3 0.338347 0.936147 0.455349
O O4 0.382529 0.032935 0.021376
O O5 0.687596 0.055887 0.753922
O O6 0.807997 0.026670 0.445166
O O7 0.768258 0.790590 0.742107
O O8 0.636275 0.964892 0.200496
O O9 0.205716 0.099018 0.587603
O O10 0.053117 0.289472 0.175909
O O11 0.100662 0.008250 0.048063
O O12 0.883166 0.193699 0.073011
O O13 0.924027 0.277633 0.619715
O O14 0.750063 0.309493 0.237158
#
# Coordination Sequence:
#
# PCOD9118759 Si02
#       7
#     2   2   2   2   2   2   2
#     4  12  25  47  72 104 145 190 247 306 381 440
#     4  12  26  45  72 109 147 192 252 304 375 449
#     4  11  28  47  76 113 150 198 251 317 375 459
#     4  12  27  45  75 106 145 195 244 315 373 459
#     4  11  26  46  73 106 147 194 248 309 380 440
#     4  11  24  44  74 101 146 192 246 302 371 448
#     4  11  22  46  74  99 142 199 244 303 369 451
#
# _framework density 26.069431999999999
#
# number of rings (size 3 to 8) (size 9 to 14) (size 15 to 20)
#    0.000    0.571    2.857    4.286    4.000    9.143 
#    0.000    0.000    0.000    0.000    0.000    0.000 
#    0.000    0.000    0.000    0.000    0.000    0.000 
#
# Total GULP energy -78183.322587 kJ/mol
# GULP energy per Si atom -5584.523042 kJ/mol
# Density = 2.601010 g / cm^3
# Si number density = 26.069432 Si / 1000 Ang^3
#
#
#
# Elastic Constant Matrix: (Units=GPa)
#
#
# Indices 1 2 3 4 5 6 
#
# 1 53.8779 19.7300 70.2192 0.0000 16.9946 0.0000
# 2 19.7300 79.4287 55.9999 0.0000 30.1201 0.0000
# 3 70.2192 55.9999 76.2239 0.0000 -9.4572 0.0000
# 4 0.0000 0.0000 0.0000 30.4266 0.0000 12.9256
# 5 16.9946 30.1201 -9.4572 0.0000 43.7559 0.0000
# 6 0.0000 0.0000 0.0000 12.9256 0.0000 31.1667
#
#
#
# Elastic Compliance Matrix: (Units=1/GPa)
#
#
# Indices 1 2 3 4 5 6 
#
# 1 -0.001942 -0.017495 0.016677 0.000000 0.016402 0.000000
# 2 -0.017495 0.008493 0.010271 0.000000 0.003169 0.000000
# 3 0.016677 0.010271 -0.011787 0.000000 -0.016095 0.000000
# 4 0.000000 0.000000 0.000000 0.039895 0.000000 -0.016545
# 5 0.016402 0.003169 -0.016095 0.000000 0.010824 0.000000
# 6 0.000000 0.000000 0.000000 -0.016545 0.000000 0.038947
#
#
# Mechanical properties :
#
#
# Convention : Reuss Voigt Hill
#
# Bulk Modulus (GPa) = 73.15510 55.71431 64.43471
# Shear Modulus (GPa) = 71.34467 25.30861 48.32664
#
# Velocity S-wave (km/s) = 5.23704 3.11917 4.31021
# Velocity P-wave (km/s) = 8.04309 5.86432 7.03852
#
# Compressibility (1/GPa) = 0.01366959
#
# Stress axis : x y z
#
# Youngs Moduli (GPa) = -515.03149 117.74345 -84.84257
#
# Poissons Ratio (x) = 2.05996 1.41493
# Poissons Ratio (y) = -9.01064 0.87138
# Poissons Ratio (z) = 8.58922 -1.20930
#
# Static dielectric constant tensor:
#      x y z
#    x 2.036160 0.000000 0.069240 
#    y 0.000000 2.200230 0.000000 
#    z 0.069240 0.000000 2.057770 
# 
# From -- ./inp_files/3653.got.cif
#   From: 2010.05.17/outbox.cif.g08.bks.cpg/sg4_2_cif.got.tgz:3653.got - 2010.06.03 18:43:04.
