data_PCOD9118119
_publ_section_title
;
Structure prediction by ZEFSAII (Michael W. Deem and Ramdas Pophale) SiO2 
 PCOD9118119
Probable space group: P 21
;
_chemical_formula_sum "Si O2"
_cell_formula_units_Z 16
_cell_length_a 5.874490
_cell_length_b 13.470589
_cell_length_c 8.122751
_cell_angle_alpha 90.000000
_cell_angle_beta 104.477344
_cell_angle_gamma 90.000000
_cell_volume 622.366004
_symmetry_space_group_name_H-M "P 21"
_symmetry_group_IT_number 4
_symmetry_cell_setting 'monoclinic'
loop_
_space_group_symop_operation_xyz
x,y,z
-x,1/2+y,-z
loop_
_atom_site_type_symbol
_atom_site_label
_atom_site_fract_x
_atom_site_fract_y
_atom_site_fract_z
Si Si1 0.416637 0.434010 0.808711
Si Si2 0.792304 0.160173 0.502311
Si Si3 0.816548 0.337756 0.054638
Si Si4 0.821778 0.975735 0.731191
Si Si5 0.989217 0.322593 0.723200
Si Si6 0.639078 0.451188 0.490360
Si Si7 0.749948 0.651229 0.618175
Si Si8 0.871566 0.105085 0.071921
O O1 0.262669 0.335539 0.746974
O O2 0.548814 0.449767 0.663028
O O3 0.263547 0.530964 0.825814
O O4 0.584595 0.402979 0.987328
O O5 0.520650 0.188210 0.406990
O O6 0.859574 0.220222 0.678066
O O7 0.004956 0.192549 0.417764
O O8 0.817493 0.046857 0.569664
O O9 0.778069 0.218957 0.058018
O O10 0.980637 0.391802 0.216760
O O11 0.950551 0.354089 0.904064
O O12 0.568288 0.921960 0.668531
O O13 0.848463 0.046802 0.895554
O O14 0.869253 0.387541 0.558860
O O15 0.700719 0.565190 0.474655
O O16 0.859134 0.615519 0.813016
#
# Coordination Sequence:
#
# PCOD9118119 Si02
#       8
#     2   2   2   2   2   2   2   2
#     4  11  24  47  73 102 148 205 245 312 380 458
#     4  11  27  46  77 107 151 200 256 310 369 459
#     4  11  26  44  70 110 148 195 251 313 391 447
#     4  11  24  45  71 109 143 193 251 310 377 442
#     4  11  23  46  71 104 145 200 243 308 375 453
#     4  10  24  45  75  98 146 191 254 305 371 448
#     4  11  25  49  72 108 145 203 250 307 381 444
#     4  12  23  48  71 106 152 193 248 315 386 453
#
# _framework density 25.708347
#
# number of rings (size 3 to 8) (size 9 to 14) (size 15 to 20)
#    0.000    1.000    3.750    2.250    5.250    3.000 
#    6.750    0.000    0.000    0.000    0.000    0.000 
#    0.000    0.000    0.000    0.000    0.000    0.000 
#
# Total GULP energy -89255.805415 kJ/mol
# GULP energy per Si atom -5578.487838 kJ/mol
# Density = 2.564983 g / cm^3
# Si number density = 25.708347 Si / 1000 Ang^3
#
#
#
# Elastic Constant Matrix: (Units=GPa)
#
#
# Indices 1 2 3 4 5 6 
#
# 1 127.0656 19.3641 53.4086 0.0000 16.1042 0.0000
# 2 19.3641 109.7299 32.2558 0.0000 11.6360 0.0000
# 3 53.4086 32.2558 133.7135 0.0000 12.1445 0.0000
# 4 0.0000 0.0000 0.0000 42.6693 0.0000 10.1479
# 5 16.1042 11.6360 12.1445 0.0000 48.0064 0.0000
# 6 0.0000 0.0000 0.0000 10.1479 0.0000 24.6837
#
#
#
# Elastic Compliance Matrix: (Units=1/GPa)
#
#
# Indices 1 2 3 4 5 6 
#
# 1 0.009724 -0.000426 -0.003577 0.000000 -0.002254 0.000000
# 2 -0.000426 0.009985 -0.002080 0.000000 -0.001751 0.000000
# 3 -0.003577 -0.002080 0.009472 0.000000 -0.000692 0.000000
# 4 0.000000 0.000000 0.000000 0.025976 0.000000 -0.010679
# 5 -0.002254 -0.001751 -0.000692 0.000000 0.022186 0.000000
# 6 0.000000 0.000000 0.000000 -0.010679 0.000000 0.044903
#
#
# Mechanical properties :
#
#
# Convention : Reuss Voigt Hill
#
# Bulk Modulus (GPa) = 58.76368 64.50733 61.63550
# Shear Modulus (GPa) = 35.69330 40.77059 38.23195
#
# Velocity S-wave (km/s) = 3.73016 3.98664 3.86053
# Velocity P-wave (km/s) = 6.43891 6.80717 6.62560
#
# Compressibility (1/GPa) = 0.01701732
#
# Stress axis : x y z
#
# Youngs Moduli (GPa) = 102.84065 100.14557 105.57649
#
# Poissons Ratio (x) = 0.04262 0.37760
# Poissons Ratio (y) = 0.04377 0.21957
# Poissons Ratio (z) = 0.36781 0.20828
#
# Static dielectric constant tensor:
#      x y z
#    x 2.133300 0.000000 -0.041080 
#    y 0.000000 2.147200 0.000000 
#    z -0.041080 0.000000 2.030820 
# 
# From -- ./inp_files/1521.got.cif
#   From: 2010.05.17/outbox.cif.g08.bks.cpg/sg4_1_cif.got.tgz:1521.got - 2010.06.03 18:43:04.
