data_PCOD9118446
_publ_section_title
;
Structure prediction by ZEFSAII (Michael W. Deem and Ramdas Pophale) SiO2 
 PCOD9118446
Probable space group: P 21
;
_chemical_formula_sum "Si O2"
_cell_formula_units_Z 16
_cell_length_a 14.773100
_cell_length_b 6.166576
_cell_length_c 8.085437
_cell_angle_alpha 90.000000
_cell_angle_beta 71.164495
_cell_angle_gamma 90.000000
_cell_volume 697.134560
_symmetry_space_group_name_H-M "P 21"
_symmetry_group_IT_number 4
_symmetry_cell_setting 'monoclinic'
loop_
_space_group_symop_operation_xyz
x,y,z
-x,1/2+y,-z
loop_
_atom_site_type_symbol
_atom_site_label
_atom_site_fract_x
_atom_site_fract_y
_atom_site_fract_z
Si Si1 0.400647 0.443220 0.921839
Si Si2 0.267651 0.064471 0.139055
Si Si3 0.756719 0.098228 0.481540
Si Si4 0.035565 0.571274 0.943719
Si Si5 0.058799 0.776251 0.581713
Si Si6 0.126212 0.218003 0.511282
Si Si7 0.584902 0.228489 0.780522
Si Si8 0.764898 0.228230 0.118843
O O1 0.488543 0.337629 0.772138
O O2 0.333801 0.609425 0.865447
O O3 0.329143 0.263987 0.035322
O O4 0.444560 0.572026 0.051842
O O5 0.187935 0.143949 0.314812
O O6 0.341674 0.907145 0.191241
O O7 0.226928 0.934530 0.004820
O O8 0.840813 0.188198 0.553809
O O9 0.651727 0.096522 0.616160
O O10 0.760378 0.250988 0.319572
O O11 0.799857 0.860235 0.426392
O O12 0.035873 0.618225 0.746287
O O13 0.141746 0.579571 0.960772
O O14 0.003221 0.317128 0.979925
O O15 0.971017 0.811580 0.511882
O O16 0.086193 0.012866 0.633954
#
# Coordination Sequence:
#
# PCOD9118446 Si02
#       8
#     2   2   2   2   2   2   2   2
#     4  11  23  43  70 101 133 180 239 300 356 453
#     4  11  23  42  70  97 133 183 235 296 357 442
#     4  11  24  45  63 103 141 180 233 302 366 436
#     4  11  27  46  71 103 151 200 243 298 372 452
#     4  11  25  39  69 103 137 184 242 295 359 435
#     4  12  23  40  71  99 137 183 242 301 356 434
#     4  11  22  43  70  98 131 178 239 294 365 424
#     4  10  27  44  66 100 147 184 237 294 383 434
#
# _framework density 22.951094000000001
#
# number of rings (size 3 to 8) (size 9 to 14) (size 15 to 20)
#    0.000    1.000    5.000    0.750    7.000    2.000 
#    2.250    0.000    0.000    0.000    0.000    0.000 
#    0.000    0.000    0.000    0.000    0.000    0.000 
#
# Total GULP energy -89223.685952 kJ/mol
# GULP energy per Si atom -5576.480372 kJ/mol
# Density = 2.289886 g / cm^3
# Si number density = 22.951094 Si / 1000 Ang^3
#
#
#
# Elastic Constant Matrix: (Units=GPa)
#
#
# Indices 1 2 3 4 5 6 
#
# 1 95.0607 28.6560 29.4012 0.0000 -15.0809 0.0000
# 2 28.6560 81.3122 29.5615 0.0000 -5.8701 0.0000
# 3 29.4012 29.5615 61.7940 0.0000 -3.5535 0.0000
# 4 0.0000 0.0000 0.0000 42.2243 0.0000 -7.0168
# 5 -15.0809 -5.8701 -3.5535 0.0000 32.9788 0.0000
# 6 0.0000 0.0000 0.0000 -7.0168 0.0000 36.1233
#
#
#
# Elastic Compliance Matrix: (Units=1/GPa)
#
#
# Indices 1 2 3 4 5 6 
#
# 1 0.013678 -0.002645 -0.004941 0.000000 0.005252 0.000000
# 2 -0.002645 0.015518 -0.006114 0.000000 0.000894 0.000000
# 3 -0.004941 -0.006114 0.021398 0.000000 -0.001042 0.000000
# 4 0.000000 0.000000 0.000000 0.024473 0.000000 0.004754
# 5 0.005252 0.000894 -0.001042 0.000000 0.032771 0.000000
# 6 0.000000 0.000000 0.000000 0.004754 0.000000 0.028606
#
#
# Mechanical properties :
#
#
# Convention : Reuss Voigt Hill
#
# Bulk Modulus (GPa) = 43.11172 45.93382 44.52277
# Shear Modulus (GPa) = 29.14184 32.30183 30.72184
#
# Velocity S-wave (km/s) = 3.56720 3.75563 3.66263
# Velocity P-wave (km/s) = 5.98260 6.23407 6.10963
#
# Compressibility (1/GPa) = 0.02319555
#
# Stress axis : x y z
#
# Youngs Moduli (GPa) = 73.10902 64.44291 46.73284
#
# Poissons Ratio (x) = 0.17046 0.23089
# Poissons Ratio (y) = 0.19339 0.28570
# Poissons Ratio (z) = 0.36120 0.39397
#
# Static dielectric constant tensor:
#      x y z
#    x 1.849770 0.000000 -0.015710 
#    y 0.000000 1.978330 0.000000 
#    z -0.015710 0.000000 1.877150 
# 
# From -- ./inp_files/8609.got.cif
#   From: 2010.05.17/outbox.cif.g08.bks.cpg/sg4_5_cif.got.tgz:8609.got - 2010.06.03 18:43:04.
