data_PCOD9118562
_publ_section_title
;
Structure prediction by ZEFSAII (Michael W. Deem and Ramdas Pophale) SiO2 
 PCOD9118562
Probable space group: P 21
;
_chemical_formula_sum "Si O2"
_cell_formula_units_Z 12
_cell_length_a 8.498428
_cell_length_b 4.986682
_cell_length_c 15.727360
_cell_angle_alpha 90.000000
_cell_angle_beta 117.550712
_cell_angle_gamma 90.000000
_cell_volume 590.928190
_symmetry_space_group_name_H-M "P 21"
_symmetry_group_IT_number 4
_symmetry_cell_setting 'monoclinic'
loop_
_space_group_symop_operation_xyz
x,y,z
-x,1/2+y,-z
loop_
_atom_site_type_symbol
_atom_site_label
_atom_site_fract_x
_atom_site_fract_y
_atom_site_fract_z
Si Si1 0.082161 0.144890 0.258650
Si Si2 0.024606 0.517654 0.948813
Si Si3 0.386581 0.324676 0.950381
Si Si4 0.617162 0.733954 0.533909
Si Si5 0.117050 0.030141 0.543546
Si Si6 0.146763 0.145589 0.744842
O O1 0.098599 0.072351 0.163843
O O2 0.946242 0.392626 0.233078
O O3 0.261159 0.220751 0.351877
O O4 0.991459 0.892216 0.283069
O O5 0.210799 0.416024 0.956833
O O6 0.951701 0.288057 0.992075
O O7 0.318484 0.231307 0.841022
O O8 0.518003 0.575648 0.981043
O O9 0.547695 0.031725 0.499899
O O10 0.736782 0.625201 0.486671
O O11 0.949113 0.228285 0.487591
O O12 0.179173 0.069925 0.655702
#
# Coordination Sequence:
#
# PCOD9118562 Si02
#       6
#     2   2   2   2   2   2
#     4  11  22  42  69  90 126 174 212 253 316 385
#     4  11  23  43  68  93 124 171 219 254 309 394
#     4  11  23  42  66  95 131 162 207 275 323 355
#     4  12  25  42  63  97 136 160 202 272 328 355
#     4  12  22  42  70  93 122 168 222 254 296 399
#     4  11  21  41  70  94 119 173 220 250 308 386
#
# _framework density 20.307034000000002
#
# number of rings (size 3 to 8) (size 9 to 14) (size 15 to 20)
#    0.000    0.667    3.333    7.000    0.000    0.000 
#    9.000    0.000    0.000    0.000    0.000    0.000 
#    0.000    0.000    0.000    0.000    0.000    0.000 
#
# Total GULP energy -67158.479687 kJ/mol
# GULP energy per Si atom -5596.539974 kJ/mol
# Density = 2.026081 g / cm^3
# Si number density = 20.307034 Si / 1000 Ang^3
#
#
#
# Elastic Constant Matrix: (Units=GPa)
#
#
# Indices 1 2 3 4 5 6 
#
# 1 37.2567 -6.0945 33.2023 0.0000 -0.7019 0.0000
# 2 -6.0945 88.8382 14.9047 0.0000 0.8847 0.0000
# 3 33.2023 14.9047 156.2316 0.0000 6.6222 0.0000
# 4 0.0000 0.0000 0.0000 29.9875 0.0000 8.4241
# 5 -0.7019 0.8847 6.6222 0.0000 16.6763 0.0000
# 6 0.0000 0.0000 0.0000 8.4241 0.0000 46.6288
#
#
#
# Elastic Compliance Matrix: (Units=1/GPa)
#
#
# Indices 1 2 3 4 5 6 
#
# 1 0.034537 0.003647 -0.007874 0.000000 0.004387 0.000000
# 2 0.003647 0.011825 -0.001915 0.000000 0.000287 0.000000
# 3 -0.007874 -0.001915 0.008408 0.000000 -0.003569 0.000000
# 4 0.000000 0.000000 0.000000 0.035130 0.000000 -0.006347
# 5 0.004387 0.000287 -0.003569 0.000000 0.061552 0.000000
# 6 0.000000 0.000000 0.000000 -0.006347 0.000000 0.022593
#
#
# Mechanical properties :
#
#
# Convention : Reuss Voigt Hill
#
# Bulk Modulus (GPa) = 23.53756 40.70571 32.12164
# Shear Modulus (GPa) = 24.93883 34.67946 29.80914
#
# Velocity S-wave (km/s) = 3.50821 4.13698 3.83550
# Velocity P-wave (km/s) = 5.29396 6.55043 5.95543
#
# Compressibility (1/GPa) = 0.04248528
#
# Stress axis : x y z
#
# Youngs Moduli (GPa) = 28.95478 84.56625 118.93422
#
# Poissons Ratio (x) = -0.30838 0.93643
# Poissons Ratio (y) = -0.10559 0.22779
# Poissons Ratio (z) = 0.22798 0.16196
#
# Static dielectric constant tensor:
#      x y z
#    x 1.704150 0.000000 0.004850 
#    y 0.000000 1.713510 0.000000 
#    z 0.004850 0.000000 1.711170 
# 
# From -- ./inp_files/10676.got.cif
#   From: 2010.05.17/outbox.cif.g08.bks.cpg/sg4_6_cif.got.tgz:10676.got - 2010.06.03 18:43:04.
