data_PCOD9118725
_publ_section_title
;
Structure prediction by ZEFSAII (Michael W. Deem and Ramdas Pophale) SiO2 
 PCOD9118725
Probable space group: P 21
;
_chemical_formula_sum "Si O2"
_cell_formula_units_Z 16
_cell_length_a 19.709707
_cell_length_b 5.877155
_cell_length_c 11.354869
_cell_angle_alpha 90.000000
_cell_angle_beta 149.241461
_cell_angle_gamma 90.000000
_cell_volume 672.679410
_symmetry_space_group_name_H-M "P 21"
_symmetry_group_IT_number 4
_symmetry_cell_setting 'monoclinic'
loop_
_space_group_symop_operation_xyz
x,y,z
-x,1/2+y,-z
loop_
_atom_site_type_symbol
_atom_site_label
_atom_site_fract_x
_atom_site_fract_y
_atom_site_fract_z
Si Si1 0.672513 0.009690 0.114415
Si Si2 0.380275 0.052132 0.626681
Si Si3 0.667553 0.658639 0.890209
Si Si4 0.926438 0.161882 0.370506
Si Si5 0.818439 0.888971 0.562743
Si Si6 0.244258 0.680047 0.323019
Si Si7 0.560135 0.844866 0.500000
Si Si8 0.888793 0.393236 0.090154
O O1 0.792191 0.167712 0.246568
O O2 0.710549 0.956170 0.304334
O O3 0.522847 0.102198 0.893503
O O4 0.676974 0.795093 0.027047
O O5 0.249311 0.158049 0.489998
O O6 0.394846 0.138864 0.514722
O O7 0.351439 0.788377 0.571344
O O8 0.576844 0.797827 0.661957
O O9 0.582229 0.425455 0.760094
O O10 0.806744 0.592721 0.034364
O O11 0.879588 0.178818 0.165002
O O12 0.002662 0.410466 0.504988
O O13 0.954570 0.911051 0.695174
O O14 0.841799 0.032887 0.716347
O O15 0.329932 0.530545 0.363901
O O16 0.166377 0.848340 0.122274
#
# Coordination Sequence:
#
# PCOD9118725 Si02
#       8
#     2   2   2   2   2   2   2   2
#     4  12  26  49  76 111 153 208 256 333 409 490
#     4  11  25  49  71 104 145 196 260 323 390 475
#     4  12  23  43  82 114 160 199 261 342 418 488
#     4  12  27  53  80 122 164 209 269 340 418 500
#     4  11  30  46  72 108 144 207 266 318 398 485
#     4  11  25  49  71 104 145 196 260 323 390 475
#     4  11  22  44  72 116 142 189 260 322 400 477
#     4  12  26  49  76 111 153 208 256 333 409 490
#
# _framework density 23.785475999999999
#
# number of rings (size 3 to 8) (size 9 to 14) (size 15 to 20)
#    0.000    0.500    3.750    3.750    3.500    1.000 
#    0.000    0.000    0.000    0.000    0.000    0.000 
#    0.000    0.000    0.000    0.000    0.000    0.000 
#
# Total GULP energy -89231.704773 kJ/mol
# GULP energy per Si atom -5576.981548 kJ/mol
# Density = 2.373134 g / cm^3
# Si number density = 23.785476 Si / 1000 Ang^3
#
#
#
# Elastic Constant Matrix: (Units=GPa)
#
#
# Indices 1 2 3 4 5 6 
#
# 1 60.9966 21.5928 26.3579 0.0000 0.6147 0.0000
# 2 21.5928 54.5287 25.5794 0.0000 5.4699 0.0000
# 3 26.3579 25.5794 94.3235 0.0000 -7.2301 0.0000
# 4 0.0000 0.0000 0.0000 36.1168 0.0000 4.0219
# 5 0.6147 5.4699 -7.2301 0.0000 50.5939 0.0000
# 6 0.0000 0.0000 0.0000 4.0219 0.0000 -17.9807
#
#
#
# Elastic Compliance Matrix: (Units=1/GPa)
#
#
# Indices 1 2 3 4 5 6 
#
# 1 0.020307 -0.006139 -0.004022 0.000000 -0.000158 0.000000
# 2 -0.006139 0.023367 -0.004862 0.000000 -0.003147 0.000000
# 3 -0.004022 -0.004862 0.013233 0.000000 0.002466 0.000000
# 4 0.000000 0.000000 0.000000 0.027015 0.000000 0.006043
# 5 -0.000158 -0.003147 0.002466 0.000000 0.020460 0.000000
# 6 0.000000 0.000000 0.000000 0.006043 0.000000 -0.054264
#
#
# Mechanical properties :
#
#
# Convention : Reuss Voigt Hill
#
# Bulk Modulus (GPa) = 37.22952 39.65656 38.44304
# Shear Modulus (GPa) = 56.10535 22.83391 39.46963
#
# Velocity S-wave (km/s) = 4.86202 3.10174 4.07799
# Velocity P-wave (km/s) = 6.87061 5.43475 6.19442
#
# Compressibility (1/GPa) = 0.02686040
#
# Stress axis : x y z
#
# Youngs Moduli (GPa) = 49.24395 42.79628 75.56662
#
# Poissons Ratio (x) = 0.26272 0.30393
# Poissons Ratio (y) = 0.30230 0.36744
# Poissons Ratio (z) = 0.19806 0.20810
#
# Static dielectric constant tensor:
#      x y z
#    x 2.212790 0.000000 0.026200 
#    y 0.000000 2.047480 0.000000 
#    z 0.026200 0.000000 1.948320 
# 
# From -- ./inp_files/13039.got.cif
#   From: 2010.05.17/outbox.cif.g08.bks.cpg/sg4_7_cif.got.tgz:13039.got - 2010.06.03 18:43:04.
