data_PCOD9118486
_publ_section_title
;
Structure prediction by ZEFSAII (Michael W. Deem and Ramdas Pophale) SiO2 
 PCOD9118486
Probable space group: P 21
;
_chemical_formula_sum "Si O2"
_cell_formula_units_Z 14
_cell_length_a 10.274751
_cell_length_b 5.997838
_cell_length_c 17.503533
_cell_angle_alpha 90.000000
_cell_angle_beta 146.291087
_cell_angle_gamma 90.000000
_cell_volume 598.637981
_symmetry_space_group_name_H-M "P 21"
_symmetry_group_IT_number 4
_symmetry_cell_setting 'monoclinic'
loop_
_space_group_symop_operation_xyz
x,y,z
-x,1/2+y,-z
loop_
_atom_site_type_symbol
_atom_site_label
_atom_site_fract_x
_atom_site_fract_y
_atom_site_fract_z
Si Si1 0.689896 0.023060 0.291066
Si Si2 0.014471 0.541223 0.149864
Si Si3 0.417068 0.303695 0.270505
Si Si4 0.506890 0.479261 0.961630
Si Si5 0.204731 0.170384 0.547302
Si Si6 0.773015 0.809026 0.601392
Si Si7 0.729746 0.435764 0.681694
O O1 0.502798 0.199597 0.232718
O O2 0.949765 0.088542 0.446454
O O3 0.654146 0.789404 0.316313
O O4 0.686579 0.998855 0.199065
O O5 0.165728 0.423436 0.157602
O O6 0.126633 0.478138 0.287807
O O7 0.748159 0.476178 0.030344
O O8 0.078696 0.799599 0.177952
O O9 0.622260 0.473945 0.395066
O O10 0.392168 0.106502 0.319379
O O11 0.491207 0.228476 0.994309
O O12 0.156199 0.331007 0.451406
O O13 0.851763 0.573383 0.674585
O O14 0.490785 0.807285 0.461631
#
# Coordination Sequence:
#
# PCOD9118486 Si02
#       7
#     2   2   2   2   2   2   2
#     4  12  27  48  78 108 159 201 265 330 402 472
#     4  11  25  45  74 105 152 204 259 319 390 466
#     4  11  23  43  68 113 146 196 257 318 400 458
#     4  12  33  59  81 113 159 218 273 319 400 490
#     4  12  24  42  73 111 147 195 251 334 400 460
#     4  11  20  35  66 110 143 188 243 318 391 455
#     4  11  20  36  66 106 150 186 248 324 381 459
#
# _framework density 23.386423000000001
#
# number of rings (size 3 to 8) (size 9 to 14) (size 15 to 20)
#    0.000    0.571    5.714    1.714    8.000    1.143 
#    5.143    0.000    0.000    0.000    0.000    0.000 
#    0.000    0.000    0.000    0.000    0.000    0.000 
#
# Total GULP energy -78085.994914 kJ/mol
# GULP energy per Si atom -5577.571065 kJ/mol
# Density = 2.333319 g / cm^3
# Si number density = 23.386423 Si / 1000 Ang^3
#
#
#
# Elastic Constant Matrix: (Units=GPa)
#
#
# Indices 1 2 3 4 5 6 
#
# 1 112.7361 35.9523 15.1607 0.0000 8.7873 0.0000
# 2 35.9523 94.0280 15.3328 0.0000 -6.6267 0.0000
# 3 15.1607 15.3328 30.5778 0.0000 -6.4009 0.0000
# 4 0.0000 0.0000 0.0000 18.4089 0.0000 -3.7474
# 5 8.7873 -6.6267 -6.4009 0.0000 50.1957 0.0000
# 6 0.0000 0.0000 0.0000 -3.7474 0.0000 44.0380
#
#
#
# Elastic Compliance Matrix: (Units=1/GPa)
#
#
# Indices 1 2 3 4 5 6 
#
# 1 0.010823 -0.003669 -0.004135 0.000000 -0.002906 0.000000
# 2 -0.003669 0.012858 -0.004252 0.000000 0.001797 0.000000
# 3 -0.004135 -0.004252 0.037932 0.000000 0.005000 0.000000
# 4 0.000000 0.000000 0.000000 0.055279 0.000000 0.004704
# 5 -0.002906 0.001797 0.005000 0.000000 0.021306 0.000000
# 6 0.000000 0.000000 0.000000 0.004704 0.000000 0.023108
#
#
# Mechanical properties :
#
#
# Convention : Reuss Voigt Hill
#
# Bulk Modulus (GPa) = 26.66545 41.13706 33.90125
# Shear Modulus (GPa) = 25.26301 33.92159 29.59230
#
# Velocity S-wave (km/s) = 3.29027 3.81265 3.56105
# Velocity P-wave (km/s) = 5.08541 6.08359 5.60676
#
# Compressibility (1/GPa) = 0.03750171
#
# Stress axis : x y z
#
# Youngs Moduli (GPa) = 92.39723 77.77278 26.36274
#
# Poissons Ratio (x) = 0.28533 0.10900
# Poissons Ratio (y) = 0.33898 0.11210
# Poissons Ratio (z) = 0.38204 0.33070
#
# Static dielectric constant tensor:
#      x y z
#    x 1.903200 0.000000 0.030790 
#    y 0.000000 2.047420 0.000000 
#    z 0.030790 0.000000 1.931310 
# 
# From -- ./inp_files/13627.got.cif
#   From: 2010.05.17/outbox.cif.g08.bks.cpg/sg4_7_cif.got.tgz:13627.got - 2010.06.03 18:43:04.
