data_PCOD9118067
_publ_section_title
;
Structure prediction by ZEFSAII (Michael W. Deem and Ramdas Pophale) SiO2 
 PCOD9118067
Probable space group: P 21
;
_chemical_formula_sum "Si O2"
_cell_formula_units_Z 16
_cell_length_a 8.566674
_cell_length_b 11.603365
_cell_length_c 7.969448
_cell_angle_alpha 90.000000
_cell_angle_beta 65.847541
_cell_angle_gamma 90.000000
_cell_volume 722.833446
_symmetry_space_group_name_H-M "P 21"
_symmetry_group_IT_number 4
_symmetry_cell_setting 'monoclinic'
loop_
_space_group_symop_operation_xyz
x,y,z
-x,1/2+y,-z
loop_
_atom_site_type_symbol
_atom_site_label
_atom_site_fract_x
_atom_site_fract_y
_atom_site_fract_z
Si Si1 0.538195 0.906720 0.864225
Si Si2 0.542524 0.154553 0.731603
Si Si3 0.328575 0.018406 0.265028
Si Si4 0.162576 0.391440 0.687705
Si Si5 0.160593 0.796769 0.356373
Si Si6 0.468528 0.236154 0.399803
Si Si7 0.787190 0.780449 0.991548
Si Si8 0.982425 0.135369 0.294509
O O1 0.445875 0.814652 0.782411
O O2 0.571605 0.019865 0.738685
O O3 0.440266 0.958384 0.069805
O O4 0.706190 0.842219 0.863749
O O5 0.682816 0.220912 0.780952
O O6 0.557458 0.203821 0.536125
O O7 0.355856 0.190264 0.880151
O O8 0.246135 0.910767 0.399838
O O9 0.420529 0.113829 0.336658
O O10 0.167609 0.081979 0.254380
O O11 0.305438 0.316049 0.526822
O O12 0.195948 0.372194 0.868439
O O13 0.980194 0.338247 0.712993
O O14 0.144845 0.528200 0.667521
O O15 0.070953 0.716144 0.530247
O O16 0.967727 0.718015 0.881264
#
# Coordination Sequence:
#
# PCOD9118067 Si02
#       8
#     2   2   2   2   2   2   2   2
#     4  12  22  42  73  95 140 181 227 294 345 398
#     4  11  25  41  70 106 138 181 239 279 347 416
#     4  11  23  42  68  98 136 181 229 289 347 411
#     4  10  24  44  71  98 147 183 231 283 354 418
#     4  11  23  43  67  99 139 178 229 281 348 412
#     4  11  24  46  69 101 140 187 232 292 346 419
#     4  11  23  46  69 104 142 184 232 289 348 410
#     4  11  22  46  67 101 140 183 229 287 349 416
#
# _framework density 22.135111999999999
#
# number of rings (size 3 to 8) (size 9 to 14) (size 15 to 20)
#    0.000    1.000    5.000    0.750    1.750    3.000 
#    9.000    0.000    0.000    0.000    0.000    0.000 
#    0.000    0.000    0.000    0.000    0.000    0.000 
#
# Total GULP energy -89335.537146 kJ/mol
# GULP energy per Si atom -5583.471072 kJ/mol
# Density = 2.208473 g / cm^3
# Si number density = 22.135112 Si / 1000 Ang^3
#
#
#
# Elastic Constant Matrix: (Units=GPa)
#
#
# Indices 1 2 3 4 5 6 
#
# 1 58.3279 42.0497 32.2847 0.0000 7.2246 0.0000
# 2 42.0497 145.6443 35.3033 0.0000 16.8069 0.0000
# 3 32.2847 35.3033 81.7280 0.0000 14.9177 0.0000
# 4 0.0000 0.0000 0.0000 45.8525 0.0000 -0.3170
# 5 7.2246 16.8069 14.9177 0.0000 28.5832 0.0000
# 6 0.0000 0.0000 0.0000 -0.3170 0.0000 29.3112
#
#
#
# Elastic Compliance Matrix: (Units=1/GPa)
#
#
# Indices 1 2 3 4 5 6 
#
# 1 0.025326 -0.005531 -0.007782 0.000000 0.000912 0.000000
# 2 -0.005531 0.009129 -0.001143 0.000000 -0.003374 0.000000
# 3 -0.007782 -0.001143 0.016935 0.000000 -0.006200 0.000000
# 4 0.000000 0.000000 0.000000 0.021811 0.000000 0.000236
# 5 0.000912 -0.003374 -0.006200 0.000000 0.039974 0.000000
# 6 0.000000 0.000000 0.000000 0.000236 0.000000 0.034119
#
#
# Mechanical properties :
#
#
# Convention : Reuss Voigt Hill
#
# Bulk Modulus (GPa) = 44.48586 56.10839 50.29712
# Shear Modulus (GPa) = 27.21845 32.48688 29.85267
#
# Velocity S-wave (km/s) = 3.51044 3.83516 3.67639
# Velocity P-wave (km/s) = 6.04748 6.70928 6.38696
#
# Compressibility (1/GPa) = 0.02247905
#
# Stress axis : x y z
#
# Youngs Moduli (GPa) = 39.48483 109.53816 59.04936
#
# Poissons Ratio (x) = 0.60586 0.45951
# Poissons Ratio (y) = 0.21839 0.06748
# Poissons Ratio (z) = 0.30726 0.12518
#
# Static dielectric constant tensor:
#      x y z
#    x 1.802850 0.000000 -0.040590 
#    y 0.000000 1.833590 0.000000 
#    z -0.040590 0.000000 1.887320 
# 
# From -- ./inp_files/6234.got.cif
#   From: 2010.05.17/outbox.cif.g08.bks.cpg/sg4_4_cif.got.tgz:6234.got - 2010.06.03 18:43:04.
