data_PCOD9118035
_publ_section_title
;
Structure prediction by ZEFSAII (Michael W. Deem and Ramdas Pophale) SiO2 
 PCOD9118035
Probable space group: P 21
;
_chemical_formula_sum "Si O2"
_cell_formula_units_Z 12
_cell_length_a 19.438222
_cell_length_b 5.422123
_cell_length_c 4.797687
_cell_angle_alpha 90.000000
_cell_angle_beta 75.710758
_cell_angle_gamma 90.000000
_cell_volume 490.015050
_symmetry_space_group_name_H-M "P 21"
_symmetry_group_IT_number 4
_symmetry_cell_setting 'monoclinic'
loop_
_space_group_symop_operation_xyz
x,y,z
-x,1/2+y,-z
loop_
_atom_site_type_symbol
_atom_site_label
_atom_site_fract_x
_atom_site_fract_y
_atom_site_fract_z
Si Si1 0.634316 0.200340 0.798089
Si Si2 0.540654 0.272738 0.390390
Si Si3 0.764738 0.394391 0.970506
Si Si4 0.040655 0.272742 0.028299
Si Si5 0.134318 0.200341 0.433276
Si Si6 0.735261 0.894390 0.999983
O O1 0.609415 0.205146 0.508735
O O2 0.702205 0.366009 0.803374
O O3 0.566751 0.282248 0.047199
O O4 0.662304 0.944633 0.908637
O O5 0.511139 0.539971 0.508214
O O6 0.837695 0.444634 0.733247
O O7 0.740972 0.639499 0.155703
O O8 0.759028 0.139499 0.137645
O O9 0.988860 0.039975 0.030498
O O10 0.890585 0.705145 0.227569
O O11 0.066753 0.282255 0.319293
O O12 0.202207 0.366008 0.292217
#
# Coordination Sequence:
#
# PCOD9118035 Si02
#       6
#     2   2   2   2   2   2
#     4  10  24  44  64  96 124 158 218 248 322 358
#     4  12  28  40  66  88 132 172 204 250 300 380
#     4   8  20  38  66  92 120 158 196 276 302 362
#     4  12  28  40  66  88 132 172 204 250 300 380
#     4  10  24  44  64  96 124 158 218 248 322 358
#     4   8  20  38  66  92 120 158 196 276 302 362
#
# _framework density 24.489042000000001
#
# number of rings (size 3 to 8) (size 9 to 14) (size 15 to 20)
#    2.000    0.000    0.000    2.000    9.333    2.667 
#    0.000    0.000    0.000    0.000    0.000    0.000 
#    0.000    0.000    0.000    0.000    0.000    0.000 
#
# Total GULP energy -66915.482345 kJ/mol
# GULP energy per Si atom -5576.290195 kJ/mol
# Density = 2.443330 g / cm^3
# Si number density = 24.489042 Si / 1000 Ang^3
#
#
#
# Elastic Constant Matrix: (Units=GPa)
#
#
# Indices 1 2 3 4 5 6 
#
# 1 58.8877 -12.3400 4.5826 0.0000 4.6715 0.0000
# 2 -12.3400 97.3200 16.2986 0.0000 7.6022 0.0000
# 3 4.5826 16.2986 66.1665 0.0000 -2.7395 0.0000
# 4 0.0000 0.0000 0.0000 12.5646 0.0000 -7.6831
# 5 4.6715 7.6022 -2.7395 0.0000 33.9849 0.0000
# 6 0.0000 0.0000 0.0000 -7.6831 0.0000 41.5044
#
#
#
# Elastic Compliance Matrix: (Units=1/GPa)
#
#
# Indices 1 2 3 4 5 6 
#
# 1 0.018012 0.002892 -0.002096 0.000000 -0.003292 0.000000
# 2 0.002892 0.011419 -0.003146 0.000000 -0.003206 0.000000
# 3 -0.002096 -0.003146 0.016128 0.000000 0.002292 0.000000
# 4 0.000000 0.000000 0.000000 0.089748 0.000000 0.016614
# 5 -0.003292 -0.003206 0.002292 0.000000 0.030779 0.000000
# 6 0.000000 0.000000 0.000000 0.016614 0.000000 0.027169
#
#
# Mechanical properties :
#
#
# Convention : Reuss Voigt Hill
#
# Bulk Modulus (GPa) = 24.47413 26.60628 25.54021
# Shear Modulus (GPa) = 23.63225 31.86632 27.74928
#
# Velocity S-wave (km/s) = 3.10984 3.61120 3.36985
# Velocity P-wave (km/s) = 4.78648 5.31750 5.05896
#
# Compressibility (1/GPa) = 0.04085947
#
# Stress axis : x y z
#
# Youngs Moduli (GPa) = 55.51925 87.57070 62.00249
#
# Poissons Ratio (x) = -0.25326 0.12997
# Poissons Ratio (y) = -0.16056 0.19505
# Poissons Ratio (z) = 0.11638 0.27549
#
# Static dielectric constant tensor:
#      x y z
#    x 1.936700 0.000000 -0.027670 
#    y 0.000000 2.074970 0.000000 
#    z -0.027670 0.000000 1.832450 
# 
# From -- ./inp_files/3977.got.cif
#   From: 2010.05.17/outbox.cif.g08.bks.cpg/sg4_2_cif.got.tgz:3977.got - 2010.06.03 18:43:04.
