data_PCOD9118292
_publ_section_title
;
Structure prediction by ZEFSAII (Michael W. Deem and Ramdas Pophale) SiO2 
 PCOD9118292
Probable space group: P 21
;
_chemical_formula_sum "Si O2"
_cell_formula_units_Z 16
_cell_length_a 11.770979
_cell_length_b 10.410352
_cell_length_c 5.308555
_cell_angle_alpha 90.000000
_cell_angle_beta 105.779545
_cell_angle_gamma 90.000000
_cell_volume 625.996115
_symmetry_space_group_name_H-M "P 21"
_symmetry_group_IT_number 4
_symmetry_cell_setting 'monoclinic'
loop_
_space_group_symop_operation_xyz
x,y,z
-x,1/2+y,-z
loop_
_atom_site_type_symbol
_atom_site_label
_atom_site_fract_x
_atom_site_fract_y
_atom_site_fract_z
Si Si1 0.637261 0.381060 0.175517
Si Si2 0.949204 0.861019 0.716129
Si Si3 0.601736 0.869976 0.259673
Si Si4 0.777539 0.525403 0.606760
Si Si5 0.724372 0.135818 0.459732
Si Si6 0.824985 0.279334 0.922719
Si Si7 0.997522 0.135039 0.546909
Si Si8 0.291408 0.267767 0.191147
O O1 0.663163 0.504924 0.360273
O O2 0.633282 0.248550 0.330618
O O3 0.530243 0.390136 0.919455
O O4 0.756276 0.353221 0.095490
O O5 0.962867 0.787935 0.451423
O O6 0.822455 0.844190 0.767424
O O7 0.989790 0.010206 0.733978
O O8 0.038557 0.773548 0.933916
O O9 0.613060 0.794646 0.530207
O O10 0.662888 0.005280 0.351386
O O11 0.669489 0.806465 0.062948
O O12 0.811557 0.381026 0.690534
O O13 0.893824 0.584610 0.554921
O O14 0.742668 0.618187 0.813198
O O15 0.758674 0.155635 0.774762
O O16 0.855230 0.139720 0.405401
#
# Coordination Sequence:
#
# PCOD9118292 Si02
#       8
#     2   2   2   2   2   2   2   2
#     4  11  26  50  73 108 155 206 264 319 398 462
#     4  11  23  42  78 111 158 201 261 331 400 480
#     4  12  30  50  76 111 156 210 263 326 382 471
#     4  10  25  44  75 110 151 198 261 328 396 475
#     4  11  26  46  75 110 154 199 269 312 402 475
#     4  11  24  46  76 109 146 208 255 329 400 475
#     4  11  21  45  68 110 155 194 253 326 400 467
#     4  11  29  49  75 115 153 204 262 325 394 463
#
# _framework density 25.559266000000001
#
# number of rings (size 3 to 8) (size 9 to 14) (size 15 to 20)
#    0.000    1.000    3.750    0.750   10.500    4.000 
#    0.000    0.000    0.000    0.000    0.000    0.000 
#    0.000    0.000    0.000    0.000    0.000    0.000 
#
# Total GULP energy -89277.337586 kJ/mol
# GULP energy per Si atom -5579.833599 kJ/mol
# Density = 2.550109 g / cm^3
# Si number density = 25.559266 Si / 1000 Ang^3
#
#
#
# Elastic Constant Matrix: (Units=GPa)
#
#
# Indices 1 2 3 4 5 6 
#
# 1 58.6010 20.9938 18.4046 0.0000 20.2899 0.0000
# 2 20.9938 109.0710 36.3763 0.0000 2.4681 0.0000
# 3 18.4046 36.3763 92.9969 0.0000 13.8684 0.0000
# 4 0.0000 0.0000 0.0000 45.1750 0.0000 4.0893
# 5 20.2899 2.4681 13.8684 0.0000 49.6255 0.0000
# 6 0.0000 0.0000 0.0000 4.0893 0.0000 19.5792
#
#
#
# Elastic Compliance Matrix: (Units=1/GPa)
#
#
# Indices 1 2 3 4 5 6 
#
# 1 0.021671 -0.003408 -0.001732 0.000000 -0.008207 0.000000
# 2 -0.003408 0.011100 -0.003958 0.000000 0.001947 0.000000
# 3 -0.001732 -0.003958 0.013053 0.000000 -0.002743 0.000000
# 4 0.000000 0.000000 0.000000 0.022563 0.000000 -0.004712
# 5 -0.008207 0.001947 -0.002743 0.000000 0.024176 0.000000
# 6 0.000000 0.000000 0.000000 -0.004712 0.000000 0.052059
#
#
# Mechanical properties :
#
#
# Convention : Reuss Voigt Hill
#
# Bulk Modulus (GPa) = 36.19417 45.80204 40.99810
# Shear Modulus (GPa) = 29.06527 35.20222 32.13375
#
# Velocity S-wave (km/s) = 3.37586 3.71520 3.54958
# Velocity P-wave (km/s) = 5.42096 6.03013 5.73364
#
# Compressibility (1/GPa) = 0.02762876
#
# Stress axis : x y z
#
# Youngs Moduli (GPa) = 46.14488 90.08848 76.61083
#
# Poissons Ratio (x) = 0.30701 0.13268
# Poissons Ratio (y) = 0.15725 0.30322
# Poissons Ratio (z) = 0.07992 0.35656
#
# Static dielectric constant tensor:
#      x y z
#    x 1.962520 0.000000 -0.008330 
#    y 0.000000 2.029780 0.000000 
#    z -0.008330 0.000000 2.268310 
# 
# From -- ./inp_files/2877.got.cif
#   From: 2010.05.17/outbox.cif.g08.bks.cpg/sg4_2_cif.got.tgz:2877.got - 2010.06.03 18:43:04.
