data_PCOD9118501
_publ_section_title
;
Structure prediction by ZEFSAII (Michael W. Deem and Ramdas Pophale) SiO2 
 PCOD9118501
Probable space group: P 21
;
_chemical_formula_sum "Si O2"
_cell_formula_units_Z 14
_cell_length_a 7.812635
_cell_length_b 8.272514
_cell_length_c 9.480082
_cell_angle_alpha 90.000000
_cell_angle_beta 67.702057
_cell_angle_gamma 90.000000
_cell_volume 566.883374
_symmetry_space_group_name_H-M "P 21"
_symmetry_group_IT_number 4
_symmetry_cell_setting 'monoclinic'
loop_
_space_group_symop_operation_xyz
x,y,z
-x,1/2+y,-z
loop_
_atom_site_type_symbol
_atom_site_label
_atom_site_fract_x
_atom_site_fract_y
_atom_site_fract_z
Si Si1 0.716850 0.975490 0.754458
Si Si2 0.933258 0.361521 0.230221
Si Si3 0.782074 0.109257 0.459314
Si Si4 0.140708 0.724125 0.023290
Si Si5 0.817893 0.636042 0.710215
Si Si6 0.774348 0.904990 0.188493
Si Si7 0.543090 0.373601 0.909209
O O1 0.742885 0.799997 0.665795
O O2 0.923065 0.995812 0.761301
O O3 0.564939 0.935917 0.918732
O O4 0.680368 0.095191 0.638085
O O5 0.836009 0.359098 0.111213
O O6 0.795603 0.290958 0.391487
O O7 0.084313 0.210935 0.178448
O O8 0.000359 0.066599 0.421066
O O9 0.721867 0.989257 0.352820
O O10 0.305312 0.748283 0.082859
O O11 0.168556 0.556111 0.931426
O O12 0.945669 0.783307 0.147227
O O13 0.659655 0.515378 0.799519
O O14 0.609396 0.821192 0.155509
#
# Coordination Sequence:
#
# PCOD9118501 Si02
#       7
#     2   2   2   2   2   2   2
#     4   9  18  35  58  86 125 158 207 266 313 381
#     4   7  17  36  58  82 123 158 208 254 316 371
#     4   8  17  38  58  80 126 167 197 260 325 373
#     4  11  20  39  63  92 126 172 211 264 316 384
#     4   8  18  36  56  87 123 157 210 257 316 376
#     4  11  22  38  66  93 130 170 216 265 325 383
#     4  12  20  34  65  96 123 164 215 260 317 376
#
# _framework density 24.696439000000002
#
# number of rings (size 3 to 8) (size 9 to 14) (size 15 to 20)
#    1.714    0.571    2.857    0.857    0.000    1.143 
#    5.143    1.429    0.000   13.714    0.000    0.000 
#    0.000    0.000    0.000    0.000    0.000    0.000 
#
# Total GULP energy -78021.632123 kJ/mol
# GULP energy per Si atom -5572.973723 kJ/mol
# Density = 2.464023 g / cm^3
# Si number density = 24.696439 Si / 1000 Ang^3
#
#
#
# Elastic Constant Matrix: (Units=GPa)
#
#
# Indices 1 2 3 4 5 6 
#
# 1 129.3073 39.4641 33.9717 0.0000 -7.8356 0.0000
# 2 39.4641 71.1499 15.7173 0.0000 -14.2697 0.0000
# 3 33.9717 15.7173 100.6738 0.0000 2.4887 0.0000
# 4 0.0000 0.0000 0.0000 33.4706 0.0000 -6.9919
# 5 -7.8356 -14.2697 2.4887 0.0000 24.8521 0.0000
# 6 0.0000 0.0000 0.0000 -6.9919 0.0000 31.8631
#
#
#
# Elastic Compliance Matrix: (Units=1/GPa)
#
#
# Indices 1 2 3 4 5 6 
#
# 1 0.009924 -0.004799 -0.002615 0.000000 0.000635 0.000000
# 2 -0.004799 0.018980 -0.001580 0.000000 0.009543 0.000000
# 3 -0.002615 -0.001580 0.011132 0.000000 -0.002846 0.000000
# 4 0.000000 0.000000 0.000000 0.031312 0.000000 0.006871
# 5 0.000635 0.009543 -0.002846 0.000000 0.046203 0.000000
# 6 0.000000 0.000000 0.000000 0.006871 0.000000 0.032892
#
#
# Mechanical properties :
#
#
# Convention : Reuss Voigt Hill
#
# Bulk Modulus (GPa) = 45.35562 53.27079 49.31321
# Shear Modulus (GPa) = 28.44463 32.16903 30.30683
#
# Velocity S-wave (km/s) = 3.39746 3.61304 3.50690
# Velocity P-wave (km/s) = 5.81338 6.24680 6.03398
#
# Compressibility (1/GPa) = 0.02204798
#
# Stress axis : x y z
#
# Youngs Moduli (GPa) = 100.76825 52.68810 89.82716
#
# Poissons Ratio (x) = 0.25286 0.23491
# Poissons Ratio (y) = 0.48361 0.14189
# Poissons Ratio (z) = 0.26352 0.08322
#
# Static dielectric constant tensor:
#      x y z
#    x 2.003550 0.000000 0.029210 
#    y 0.000000 2.137510 0.000000 
#    z 0.029210 0.000000 1.979060 
# 
# From -- ./inp_files/11151.got.cif
#   From: 2010.05.17/outbox.cif.g08.bks.cpg/sg4_6_cif.got.tgz:11151.got - 2010.06.03 18:43:04.
