data_PCOD9118275
_publ_section_title
;
Structure prediction by ZEFSAII (Michael W. Deem and Ramdas Pophale) SiO2 
 PCOD9118275
Probable space group: P 21
;
_chemical_formula_sum "Si O2"
_cell_formula_units_Z 16
_cell_length_a 11.378171
_cell_length_b 8.048392
_cell_length_c 8.847130
_cell_angle_alpha 90.000000
_cell_angle_beta 112.661223
_cell_angle_gamma 90.000000
_cell_volume 747.637586
_symmetry_space_group_name_H-M "P 21"
_symmetry_group_IT_number 4
_symmetry_cell_setting 'monoclinic'
loop_
_space_group_symop_operation_xyz
x,y,z
-x,1/2+y,-z
loop_
_atom_site_type_symbol
_atom_site_label
_atom_site_fract_x
_atom_site_fract_y
_atom_site_fract_z
Si Si1 0.525915 0.814070 0.986950
Si Si2 0.966889 0.544727 0.207637
Si Si3 0.213578 0.504805 0.535001
Si Si4 0.271425 0.151090 0.710349
Si Si5 0.290433 0.624348 0.888045
Si Si6 0.873293 0.248073 0.947879
Si Si7 0.463136 0.939244 0.652306
Si Si8 0.636935 0.220443 0.635986
O O1 0.377754 0.787957 0.956723
O O2 0.518719 0.811054 0.801726
O O3 0.615434 0.682718 0.113832
O O4 0.601523 0.982287 0.064299
O O5 0.853107 0.612374 0.254586
O O6 0.080975 0.500649 0.379260
O O7 0.020487 0.676668 0.111873
O O8 0.922564 0.388130 0.085684
O O9 0.252020 0.317513 0.601151
O O10 0.216381 0.609031 0.693141
O O11 0.307728 0.601642 0.468574
O O12 0.323300 0.001315 0.633299
O O13 0.190627 0.608550 0.974613
O O14 0.755085 0.299498 0.782839
O O15 0.451162 0.857134 0.484273
O O16 0.552499 0.099940 0.696258
#
# Coordination Sequence:
#
# PCOD9118275 Si02
#       8
#     2   2   2   2   2   2   2   2
#     4  11  21  39  71  98 133 167 214 275 342 397
#     4  11  28  45  69  95 134 182 230 274 330 386
#     4  10  25  43  69  96 130 175 224 275 328 389
#     4  11  25  42  67 101 130 177 226 272 336 398
#     4  11  22  43  72  99 134 171 221 280 334 402
#     4  11  26  45  65  98 135 180 226 273 334 393
#     4  12  23  41  66 100 138 171 219 276 341 406
#     4  11  24  42  67 101 136 175 218 279 341 397
#
# _framework density 21.400744
#
# number of rings (size 3 to 8) (size 9 to 14) (size 15 to 20)
#    0.000    1.000    3.750    1.500    5.250    4.000 
#    0.000    0.000    0.000    0.000    0.000    0.000 
#    0.000    0.000    0.000    0.000    0.000    0.000 
#
# Total GULP energy -89345.215420 kJ/mol
# GULP energy per Si atom -5584.075964 kJ/mol
# Density = 2.135203 g / cm^3
# Si number density = 21.400744 Si / 1000 Ang^3
#
#
#
# Elastic Constant Matrix: (Units=GPa)
#
#
# Indices 1 2 3 4 5 6 
#
# 1 63.5091 -5.0176 19.9439 0.0000 3.6519 0.0000
# 2 -5.0176 42.1063 22.9370 0.0000 11.9947 0.0000
# 3 19.9439 22.9370 132.9398 0.0000 15.5930 0.0000
# 4 0.0000 0.0000 0.0000 39.5418 0.0000 -5.9325
# 5 3.6519 11.9947 15.5930 0.0000 30.2470 0.0000
# 6 0.0000 0.0000 0.0000 -5.9325 0.0000 25.1754
#
#
#
# Elastic Compliance Matrix: (Units=1/GPa)
#
#
# Indices 1 2 3 4 5 6 
#
# 1 0.017180 0.004350 -0.003068 0.000000 -0.002218 0.000000
# 2 0.004350 0.029590 -0.004598 0.000000 -0.009889 0.000000
# 3 -0.003068 -0.004598 0.009067 0.000000 -0.002480 0.000000
# 4 0.000000 0.000000 0.000000 0.026217 0.000000 0.006178
# 5 -0.002218 -0.009889 -0.002480 0.000000 0.038529 0.000000
# 6 0.000000 0.000000 0.000000 0.006178 0.000000 0.041177
#
#
# Mechanical properties :
#
#
# Convention : Reuss Voigt Hill
#
# Bulk Modulus (GPa) = 20.32295 34.92021 27.62158
# Shear Modulus (GPa) = 27.05739 32.37231 29.71485
#
# Velocity S-wave (km/s) = 3.55959 3.89353 3.73030
# Velocity P-wave (km/s) = 5.13918 6.04694 5.61145
#
# Compressibility (1/GPa) = 0.04920545
#
# Stress axis : x y z
#
# Youngs Moduli (GPa) = 58.20578 33.79572 110.29376
#
# Poissons Ratio (x) = -0.14702 0.33837
# Poissons Ratio (y) = -0.25321 0.50713
# Poissons Ratio (z) = 0.17857 0.15539
#
# Static dielectric constant tensor:
#      x y z
#    x 1.768700 0.000000 -0.010880 
#    y 0.000000 1.830390 0.000000 
#    z -0.010880 0.000000 1.763470 
# 
# From -- ./inp_files/7833.got.cif
#   From: 2010.05.17/outbox.cif.g08.bks.cpg/sg4_4_cif.got.tgz:7833.got - 2010.06.03 18:43:04.
