data_PCOD9118511
_publ_section_title
;
Structure prediction by ZEFSAII (Michael W. Deem and Ramdas Pophale) SiO2 
 PCOD9118511
Probable space group: P 21
;
_chemical_formula_sum "Si O2"
_cell_formula_units_Z 14
_cell_length_a 19.631025
_cell_length_b 5.278671
_cell_length_c 8.969299
_cell_angle_alpha 90.000000
_cell_angle_beta 141.654743
_cell_angle_gamma 90.000000
_cell_volume 576.629645
_symmetry_space_group_name_H-M "P 21"
_symmetry_group_IT_number 4
_symmetry_cell_setting 'monoclinic'
loop_
_space_group_symop_operation_xyz
x,y,z
-x,1/2+y,-z
loop_
_atom_site_type_symbol
_atom_site_label
_atom_site_fract_x
_atom_site_fract_y
_atom_site_fract_z
Si Si1 0.759769 0.003690 0.967560
Si Si2 0.608910 0.634274 0.562027
Si Si3 0.953065 0.164817 0.840900
Si Si4 0.261299 0.763257 0.368475
Si Si5 0.034747 0.164953 0.642829
Si Si6 0.616780 0.330554 0.874419
Si Si7 0.496050 0.617280 0.894639
O O1 0.795088 0.159776 0.880876
O O2 0.728288 0.171871 0.056572
O O3 0.647222 0.878221 0.717545
O O4 0.842304 0.776849 0.141155
O O5 0.703029 0.550918 0.607757
O O6 0.605086 0.425647 0.684606
O O7 0.491783 0.663088 0.286300
O O8 0.824673 0.222022 0.648692
O O9 0.987323 0.155267 0.727770
O O10 0.015495 0.398392 0.028364
O O11 0.379268 0.638724 0.608250
O O12 0.973669 0.387796 0.444735
O O13 0.597082 0.556284 0.956117
O O14 0.510937 0.875986 0.009132
#
# Coordination Sequence:
#
# PCOD9118511 Si02
#       7
#     2   2   2   2   2   2   2
#     4  11  24  44  79 104 141 194 250 308 378 446
#     4  11  20  40  74 107 142 175 249 312 358 434
#     4  12  26  50  85 111 143 201 268 315 373 448
#     4  11  25  45  75 108 139 197 256 308 359 452
#     4  12  29  53  74 114 159 193 249 332 387 440
#     4  11  22  40  70 109 139 191 234 302 365 449
#     4  12  28  46  67 103 161 197 238 299 372 451
#
# _framework density 24.279015999999999
#
# number of rings (size 3 to 8) (size 9 to 14) (size 15 to 20)
#    0.000    0.571    4.286    3.429    6.000    1.143 
#    0.000    1.429    0.000    0.000    0.000    0.000 
#    0.000    0.000    0.000    0.000    0.000    0.000 
#
# Total GULP energy -78343.197986 kJ/mol
# GULP energy per Si atom -5595.942713 kJ/mol
# Density = 2.422376 g / cm^3
# Si number density = 24.279016 Si / 1000 Ang^3
#
#
#
# Elastic Constant Matrix: (Units=GPa)
#
#
# Indices 1 2 3 4 5 6 
#
# 1 133.4577 21.7325 26.2632 0.0000 -5.2211 0.0000
# 2 21.7325 90.8567 13.9714 0.0000 -14.2458 0.0000
# 3 26.2632 13.9714 62.8197 0.0000 -6.3340 0.0000
# 4 0.0000 0.0000 0.0000 48.2370 0.0000 -1.7299
# 5 -5.2211 -14.2458 -6.3340 0.0000 35.6045 0.0000
# 6 0.0000 0.0000 0.0000 -1.7299 0.0000 34.9446
#
#
#
# Elastic Compliance Matrix: (Units=1/GPa)
#
#
# Indices 1 2 3 4 5 6 
#
# 1 0.008361 -0.001505 -0.003155 0.000000 0.000063 0.000000
# 2 -0.001505 0.012314 -0.001665 0.000000 0.004410 0.000000
# 3 -0.003155 -0.001665 0.017813 0.000000 0.002040 0.000000
# 4 0.000000 0.000000 0.000000 0.020768 0.000000 0.001028
# 5 0.000063 0.004410 0.002040 0.000000 0.030223 0.000000
# 6 0.000000 0.000000 0.000000 0.001028 0.000000 0.028668
#
#
# Mechanical properties :
#
#
# Convention : Reuss Voigt Hill
#
# Bulk Modulus (GPa) = 38.70011 45.67424 42.18718
# Shear Modulus (GPa) = 35.86567 38.76837 37.31702
#
# Velocity S-wave (km/s) = 3.84764 4.00031 3.92472
# Velocity P-wave (km/s) = 5.97608 6.33954 6.16049
#
# Compressibility (1/GPa) = 0.02583972
#
# Stress axis : x y z
#
# Youngs Moduli (GPa) = 119.59798 81.20966 56.13751
#
# Poissons Ratio (x) = 0.12223 0.17709
# Poissons Ratio (y) = 0.18000 0.09346
# Poissons Ratio (z) = 0.37728 0.13519
#
# Static dielectric constant tensor:
#      x y z
#    x 1.942190 0.000000 0.011740 
#    y 0.000000 2.002360 0.000000 
#    z 0.011740 0.000000 1.975870 
# 
# From -- ./inp_files/9540.got.cif
#   From: 2010.05.17/outbox.cif.g08.bks.cpg/sg4_5_cif.got.tgz:9540.got - 2010.06.03 18:43:04.
