data_PCOD9118387
_publ_section_title
;
Structure prediction by ZEFSAII (Michael W. Deem and Ramdas Pophale) SiO2 
 PCOD9118387
Probable space group: P 21
;
_chemical_formula_sum "Si O2"
_cell_formula_units_Z 14
_cell_length_a 8.539911
_cell_length_b 12.992694
_cell_length_c 9.019545
_cell_angle_alpha 90.000000
_cell_angle_beta 40.439860
_cell_angle_gamma 90.000000
_cell_volume 649.153342
_symmetry_space_group_name_H-M "P 21"
_symmetry_group_IT_number 4
_symmetry_cell_setting 'monoclinic'
loop_
_space_group_symop_operation_xyz
x,y,z
-x,1/2+y,-z
loop_
_atom_site_type_symbol
_atom_site_label
_atom_site_fract_x
_atom_site_fract_y
_atom_site_fract_z
Si Si1 0.053451 0.005600 0.408324
Si Si2 0.831124 0.195166 0.035820
Si Si3 0.161666 0.347831 0.625539
Si Si4 0.675761 0.713355 0.759787
Si Si5 0.054516 0.486278 0.173086
Si Si6 0.491173 0.853054 0.157791
Si Si7 0.665641 0.307607 0.423472
O O1 0.170348 0.116221 0.300975
O O2 0.271713 0.923082 0.260434
O O3 0.889884 0.962497 0.394135
O O4 0.929664 0.005570 0.660515
O O5 0.959172 0.296010 0.874557
O O6 0.980522 0.094104 0.885066
O O7 0.570995 0.180200 0.145078
O O8 0.790191 0.218538 0.237767
O O9 0.174787 0.279449 0.466600
O O10 0.418411 0.336217 0.518829
O O11 0.600736 0.784390 0.949818
O O12 0.837866 0.407014 0.303966
O O13 0.297558 0.430571 0.943260
O O14 0.399273 0.784381 0.360326
#
# Coordination Sequence:
#
# PCOD9118387 Si02
#       7
#     2   2   2   2   2   2   2
#     4  11  22  39  73 101 127 179 227 277 335 393
#     4  11  22  43  72  93 134 181 221 274 341 400
#     4  11  22  43  68  98 138 170 224 279 332 401
#     4  11  22  39  73 101 127 179 227 277 335 393
#     4  11  22  43  72  93 134 181 221 274 341 400
#     4  11  22  43  68  98 138 170 224 279 332 401
#     4  10  26  42  68  98 134 182 214 276 342 402
#
# _framework density 21.566552000000001
#
# number of rings (size 3 to 8) (size 9 to 14) (size 15 to 20)
#    0.000    1.143    5.714    0.857    0.000    0.000 
#    0.000    8.571    6.286    0.000    0.000    0.000 
#    0.000    0.000    0.000    0.000    0.000    0.000 
#
# Total GULP energy -78331.781815 kJ/mol
# GULP energy per Si atom -5595.127272 kJ/mol
# Density = 2.151747 g / cm^3
# Si number density = 21.566552 Si / 1000 Ang^3
#
#
#
# Elastic Constant Matrix: (Units=GPa)
#
#
# Indices 1 2 3 4 5 6 
#
# 1 19.5220 -4.8479 -8.6088 0.0000 0.1790 0.0000
# 2 -4.8479 40.4219 5.7665 0.0000 13.1502 0.0000
# 3 -8.6088 5.7665 88.0641 0.0000 20.3725 0.0000
# 4 0.0000 0.0000 0.0000 31.2828 0.0000 1.7343
# 5 0.1790 13.1502 20.3725 0.0000 36.7307 0.0000
# 6 0.0000 0.0000 0.0000 1.7343 0.0000 21.1768
#
#
#
# Elastic Compliance Matrix: (Units=1/GPa)
#
#
# Indices 1 2 3 4 5 6 
#
# 1 0.056153 0.008002 0.006529 0.000000 -0.006760 0.000000
# 2 0.008002 0.029165 0.001488 0.000000 -0.011306 0.000000
# 3 0.006529 0.001488 0.013797 0.000000 -0.008217 0.000000
# 4 0.000000 0.000000 0.000000 0.032112 0.000000 -0.002630
# 5 -0.006760 -0.011306 -0.008217 0.000000 0.035863 0.000000
# 6 0.000000 0.000000 0.000000 -0.002630 0.000000 0.047437
#
#
# Mechanical properties :
#
#
# Convention : Reuss Voigt Hill
#
# Bulk Modulus (GPa) = 7.62467 14.73638 11.18053
# Shear Modulus (GPa) = 22.10380 28.21795 25.16088
#
# Velocity S-wave (km/s) = 3.20490 3.62112 3.41935
# Velocity P-wave (km/s) = 4.15190 4.93267 4.55903
#
# Compressibility (1/GPa) = 0.13115317
#
# Stress axis : x y z
#
# Youngs Moduli (GPa) = 17.80858 34.28826 72.47903
#
# Poissons Ratio (x) = -0.27439 -0.47322
# Poissons Ratio (y) = -0.14251 -0.10785
# Poissons Ratio (z) = -0.11627 -0.05102
#
# Static dielectric constant tensor:
#      x y z
#    x 1.780970 0.000000 0.003430 
#    y 0.000000 1.770860 0.000000 
#    z 0.003430 0.000000 1.780190 
# 
# From -- ./inp_files/1108.got.cif
#   From: 2010.05.17/outbox.cif.g08.bks.cpg/sg4_1_cif.got.tgz:1108.got - 2010.06.03 18:43:04.
