data_PCOD9118432
_publ_section_title
;
Structure prediction by ZEFSAII (Michael W. Deem and Ramdas Pophale) SiO2 
 PCOD9118432
Probable space group: P 21
;
_chemical_formula_sum "Si O2"
_cell_formula_units_Z 12
_cell_length_a 17.342685
_cell_length_b 4.849882
_cell_length_c 5.524763
_cell_angle_alpha 90.000000
_cell_angle_beta 91.961190
_cell_angle_gamma 90.000000
_cell_volume 464.415486
_symmetry_space_group_name_H-M "P 21"
_symmetry_group_IT_number 4
_symmetry_cell_setting 'monoclinic'
loop_
_space_group_symop_operation_xyz
x,y,z
-x,1/2+y,-z
loop_
_atom_site_type_symbol
_atom_site_label
_atom_site_fract_x
_atom_site_fract_y
_atom_site_fract_z
Si Si1 0.513336 0.246140 0.646486
Si Si2 0.842309 0.239293 0.408931
Si Si3 0.286982 0.058508 0.846940
Si Si4 0.050826 0.350210 0.417689
Si Si5 0.389403 0.553606 0.954220
Si Si6 0.131442 0.013121 0.076891
O O1 0.536425 0.496175 0.472016
O O2 0.465254 0.423890 0.836840
O O3 0.585108 0.074360 0.762479
O O4 0.759227 0.381473 0.359752
O O5 0.866755 0.335344 0.678487
O O6 0.867233 0.917824 0.435231
O O7 0.885057 0.340285 0.167219
O O8 0.357933 0.861622 0.920338
O O9 0.322944 0.360132 0.837867
O O10 0.219912 0.099689 0.040627
O O11 0.073762 0.255952 0.149855
O O12 0.997166 0.611869 0.456971
#
# Coordination Sequence:
#
# PCOD9118432 Si02
#       6
#     2   2   2   2   2   2
#     4  12  26  46  76 110 164 204 262 326 384 480
#     4  10  26  51  75 113 159 204 262 337 390 490
#     4  10  27  44  82 103 162 204 262 326 402 463
#     4  12  26  52  82 116 158 216 268 336 412 480
#     4  12  25  50  70 121 146 212 256 324 388 469
#     4  10  26  51  75 113 159 204 262 337 390 490
#
# _framework density 25.838932
#
# number of rings (size 3 to 8) (size 9 to 14) (size 15 to 20)
#    1.000    0.000    1.667    4.000    4.667    5.333 
#    6.000    0.000    0.000    0.000    0.000    0.000 
#    0.000    0.000    0.000    0.000    0.000    0.000 
#
# Total GULP energy -66842.378121 kJ/mol
# GULP energy per Si atom -5570.198177 kJ/mol
# Density = 2.578012 g / cm^3
# Si number density = 25.838932 Si / 1000 Ang^3
#
#
#
# Elastic Constant Matrix: (Units=GPa)
#
#
# Indices 1 2 3 4 5 6 
#
# 1 57.5623 10.3336 17.3102 0.0000 -5.2477 0.0000
# 2 10.3336 128.0630 22.4242 0.0000 6.8949 0.0000
# 3 17.3102 22.4242 92.0761 0.0000 7.6659 0.0000
# 4 0.0000 0.0000 0.0000 47.1770 0.0000 5.6109
# 5 -5.2477 6.8949 7.6659 0.0000 33.1142 0.0000
# 6 0.0000 0.0000 0.0000 5.6109 0.0000 54.2678
#
#
#
# Elastic Compliance Matrix: (Units=1/GPa)
#
#
# Indices 1 2 3 4 5 6 
#
# 1 0.019044 -0.001118 -0.003649 0.000000 0.004095 0.000000
# 2 -0.001118 0.008274 -0.001679 0.000000 -0.001511 0.000000
# 3 -0.003649 -0.001679 0.012210 0.000000 -0.003055 0.000000
# 4 0.000000 0.000000 0.000000 0.021461 0.000000 -0.002219
# 5 0.004095 -0.001511 -0.003055 0.000000 0.031869 0.000000
# 6 0.000000 0.000000 0.000000 -0.002219 0.000000 0.018657
#
#
# Mechanical properties :
#
#
# Convention : Reuss Voigt Hill
#
# Bulk Modulus (GPa) = 37.54366 41.98193 39.76280
# Shear Modulus (GPa) = 37.51345 42.08738 39.80041
#
# Velocity S-wave (km/s) = 3.81441 4.04026 3.92896
# Velocity P-wave (km/s) = 5.82761 6.16829 6.00037
#
# Compressibility (1/GPa) = 0.02663566
#
# Stress axis : x y z
#
# Youngs Moduli (GPa) = 52.51032 120.85665 81.90112
#
# Poissons Ratio (x) = 0.13515 0.29885
# Poissons Ratio (y) = 0.05872 0.13752
# Poissons Ratio (z) = 0.19160 0.20292
#
# Static dielectric constant tensor:
#      x y z
#    x 2.112900 0.000000 0.050200 
#    y 0.000000 2.111090 0.000000 
#    z 0.050200 0.000000 2.026420 
# 
# From -- ./inp_files/3978.got.cif
#   From: 2010.05.17/outbox.cif.g08.bks.cpg/sg4_2_cif.got.tgz:3978.got - 2010.06.03 18:43:04.
