data_PCOD9118538
_publ_section_title
;
Structure prediction by ZEFSAII (Michael W. Deem and Ramdas Pophale) SiO2 
 PCOD9118538
Probable space group: P 21
;
_chemical_formula_sum "Si O2"
_cell_formula_units_Z 16
_cell_length_a 5.495467
_cell_length_b 11.705593
_cell_length_c 10.479197
_cell_angle_alpha 90.000000
_cell_angle_beta 86.220579
_cell_angle_gamma 90.000000
_cell_volume 672.636608
_symmetry_space_group_name_H-M "P 21"
_symmetry_group_IT_number 4
_symmetry_cell_setting 'monoclinic'
loop_
_space_group_symop_operation_xyz
x,y,z
-x,1/2+y,-z
loop_
_atom_site_type_symbol
_atom_site_label
_atom_site_fract_x
_atom_site_fract_y
_atom_site_fract_z
Si Si1 0.853169 0.729400 0.888699
Si Si2 0.006072 0.337418 0.881696
Si Si3 0.367043 0.785492 0.426458
Si Si4 0.976705 0.477921 0.471380
Si Si5 0.103621 0.617283 0.248252
Si Si6 0.332063 0.168214 0.367387
Si Si7 0.686385 0.973012 0.315003
Si Si8 0.661838 0.176381 0.993546
O O1 0.810625 0.734249 0.739361
O O2 0.868440 0.838461 0.983833
O O3 0.609426 0.667285 0.948211
O O4 0.110520 0.669818 0.915769
O O5 0.090442 0.436983 0.785110
O O6 0.070377 0.217289 0.804286
O O7 0.726956 0.302839 0.928336
O O8 0.254477 0.680164 0.354342
O O9 0.548138 0.746748 0.530361
O O10 0.154184 0.858978 0.498102
O O11 0.496117 0.869128 0.321169
O O12 0.833033 0.578008 0.551047
O O13 0.984157 0.511909 0.323519
O O14 0.227149 0.475755 0.540828
O O15 0.279936 0.591336 0.124455
O O16 0.545066 0.090093 0.297938
#
# Coordination Sequence:
#
# PCOD9118538 Si02
#       8
#     2   2   2   2   2   2   2   2
#     4   9  20  40  60  90 120 174 214 258 327 384
#     4   8  19  35  63  86 122 167 213 263 309 389
#     4  11  22  37  59  96 128 164 213 276 338 391
#     4  11  22  39  59 100 124 170 217 269 342 402
#     4   9  18  37  63  87 124 166 210 270 325 388
#     4  11  25  36  65  90 137 170 212 278 332 397
#     4  11  21  37  62  95 123 169 224 268 327 403
#     4   8  19  35  65  84 118 168 213 262 314 384
#
# _framework density 23.786989999999999
#
# number of rings (size 3 to 8) (size 9 to 14) (size 15 to 20)
#    1.500    0.500    2.500    1.500    1.750    0.000 
#    0.000    2.500    2.750    0.000    0.000    0.000 
#    0.000    0.000    0.000    0.000    0.000    0.000 
#
# Total GULP energy -89164.906928 kJ/mol
# GULP energy per Si atom -5572.806683 kJ/mol
# Density = 2.373285 g / cm^3
# Si number density = 23.786990 Si / 1000 Ang^3
#
#
#
# Elastic Constant Matrix: (Units=GPa)
#
#
# Indices 1 2 3 4 5 6 
#
# 1 79.5772 6.8054 20.3786 0.0000 -2.8031 0.0000
# 2 6.8054 43.9670 25.3326 0.0000 6.3675 0.0000
# 3 20.3786 25.3326 113.9233 0.0000 26.7180 0.0000
# 4 0.0000 0.0000 0.0000 23.4674 0.0000 8.2740
# 5 -2.8031 6.3675 26.7180 0.0000 41.9217 0.0000
# 6 0.0000 0.0000 0.0000 8.2740 0.0000 16.8260
#
#
#
# Elastic Compliance Matrix: (Units=1/GPa)
#
#
# Indices 1 2 3 4 5 6 
#
# 1 0.013482 -0.000832 -0.002901 0.000000 0.002877 0.000000
# 2 -0.000832 0.026141 -0.005549 0.000000 -0.000489 0.000000
# 3 -0.002901 -0.005549 0.012203 0.000000 -0.007128 0.000000
# 4 0.000000 0.000000 0.000000 0.051550 0.000000 -0.025349
# 5 0.002877 -0.000489 -0.007128 0.000000 0.028664 0.000000
# 6 0.000000 0.000000 0.000000 -0.025349 0.000000 0.071897
#
#
# Mechanical properties :
#
#
# Convention : Reuss Voigt Hill
#
# Bulk Modulus (GPa) = 30.06541 38.05565 34.06053
# Shear Modulus (GPa) = 21.40521 28.77306 25.08913
#
# Velocity S-wave (km/s) = 3.00304 3.48172 3.25120
# Velocity P-wave (km/s) = 4.96902 5.67419 5.33327
#
# Compressibility (1/GPa) = 0.03326081
#
# Stress axis : x y z
#
# Youngs Moduli (GPa) = 74.17354 38.25353 81.94988
#
# Poissons Ratio (x) = 0.03182 0.23777
# Poissons Ratio (y) = 0.06169 0.45477
# Poissons Ratio (z) = 0.21521 0.21228
#
# Static dielectric constant tensor:
#      x y z
#    x 1.968730 0.000000 -0.013030 
#    y 0.000000 1.916880 0.000000 
#    z -0.013030 0.000000 1.943230 
# 
# From -- ./inp_files/10481.got.cif
#   From: 2010.05.17/outbox.cif.g08.bks.cpg/sg4_6_cif.got.tgz:10481.got - 2010.06.03 18:43:04.
