data_PCOD9118868
_publ_section_title
;
Structure prediction by ZEFSAII (Michael W. Deem and Ramdas Pophale) SiO2 
 PCOD9118868
Probable space group: P 21
;
_chemical_formula_sum "Si O2"
_cell_formula_units_Z 16
_cell_length_a 5.056533
_cell_length_b 10.089574
_cell_length_c 14.446339
_cell_angle_alpha 90.000000
_cell_angle_beta 124.745346
_cell_angle_gamma 90.000000
_cell_volume 605.610211
_symmetry_space_group_name_H-M "P 21"
_symmetry_group_IT_number 4
_symmetry_cell_setting 'monoclinic'
loop_
_space_group_symop_operation_xyz
x,y,z
-x,1/2+y,-z
loop_
_atom_site_type_symbol
_atom_site_label
_atom_site_fract_x
_atom_site_fract_y
_atom_site_fract_z
Si Si1 0.529161 0.081140 0.640356
Si Si2 0.322068 0.275568 0.746269
Si Si3 0.404927 0.235745 0.447545
Si Si4 0.012870 0.140075 0.103312
Si Si5 0.194905 0.905664 0.025357
Si Si6 0.012129 0.886716 0.495324
Si Si7 0.175897 0.995424 0.814773
Si Si8 0.709965 0.214361 0.229876
O O1 0.547578 0.203317 0.714949
O O2 0.583439 0.130886 0.547905
O O3 0.793468 0.976917 0.724245
O O4 0.169789 0.023487 0.559671
O O5 0.491613 0.372259 0.851949
O O6 0.226906 0.143194 0.785733
O O7 0.089871 0.361069 0.632044
O O8 0.677232 0.289474 0.433729
O O9 0.277970 0.346428 0.495703
O O10 0.063068 0.185428 0.341822
O O11 0.388781 0.151365 0.207900
O O12 0.762520 0.162435 0.135400
O O13 0.976686 0.003871 0.041739
O O14 0.964980 0.263527 0.024916
O O15 0.247778 0.973256 0.936465
O O16 0.327747 0.874469 0.787277
#
# Coordination Sequence:
#
# PCOD9118868 Si02
#       8
#     2   2   2   2   2   2   2   2
#     4  11  24  45  73 106 151 201 248 320 391 466
#     4  11  26  49  72 114 156 204 263 324 392 469
#     4  11  23  43  70 107 144 186 245 306 378 460
#     4  11  28  50  72 111 148 205 257 327 381 463
#     4  11  28  50  77 111 155 210 265 329 390 465
#     4  11  24  44  72 109 145 197 245 306 384 465
#     4  11  24  44  77 103 149 206 256 320 384 465
#     4  11  25  45  75 109 150 193 257 312 390 461
#
# _framework density 26.419630999999999
#
# number of rings (size 3 to 8) (size 9 to 14) (size 15 to 20)
#    0.000    1.000    2.500    2.250   12.250    1.000 
#    6.750    0.000    0.000    0.000    0.000    0.000 
#    0.000    0.000    0.000    0.000    0.000    0.000 
#
# Total GULP energy -89544.646446 kJ/mol
# GULP energy per Si atom -5596.540403 kJ/mol
# Density = 2.635950 g / cm^3
# Si number density = 26.419631 Si / 1000 Ang^3
#
#
#
# Elastic Constant Matrix: (Units=GPa)
#
#
# Indices 1 2 3 4 5 6 
#
# 1 90.9564 22.0095 -7.3276 0.0000 3.7214 0.0000
# 2 22.0095 98.4228 37.7353 0.0000 -11.4066 0.0000
# 3 -7.3276 37.7353 136.2500 0.0000 4.4646 0.0000
# 4 0.0000 0.0000 0.0000 45.2329 0.0000 4.3979
# 5 3.7214 -11.4066 4.4646 0.0000 32.6437 0.0000
# 6 0.0000 0.0000 0.0000 4.3979 0.0000 45.6815
#
#
#
# Elastic Compliance Matrix: (Units=1/GPa)
#
#
# Indices 1 2 3 4 5 6 
#
# 1 0.012165 -0.003747 0.001788 0.000000 -0.002941 0.000000
# 2 -0.003747 0.013195 -0.004039 0.000000 0.005590 0.000000
# 3 0.001788 -0.004039 0.008646 0.000000 -0.002798 0.000000
# 4 0.000000 0.000000 0.000000 0.022317 0.000000 -0.002148
# 5 -0.002941 0.005590 -0.002798 0.000000 0.033305 0.000000
# 6 0.000000 0.000000 0.000000 -0.002148 0.000000 0.022098
#
#
# Mechanical properties :
#
#
# Convention : Reuss Voigt Hill
#
# Bulk Modulus (GPa) = 45.43244 47.82930 46.63087
# Shear Modulus (GPa) = 38.15131 42.92575 40.53853
#
# Velocity S-wave (km/s) = 3.80419 4.03521 3.92140
# Velocity P-wave (km/s) = 6.04397 6.31297 6.17994
#
# Compressibility (1/GPa) = 0.02201070
#
# Stress axis : x y z
#
# Youngs Moduli (GPa) = 82.20068 75.78884 115.66139
#
# Poissons Ratio (x) = 0.28397 -0.20684
# Poissons Ratio (y) = 0.30800 0.46716
# Poissons Ratio (z) = -0.14700 0.30611
#
# Static dielectric constant tensor:
#      x y z
#    x 2.047870 0.000000 0.024680 
#    y 0.000000 2.126080 0.000000 
#    z 0.024680 0.000000 2.096820 
# 
# From -- ./inp_files/13400.got.cif
#   From: 2010.05.17/outbox.cif.g08.bks.cpg/sg4_7_cif.got.tgz:13400.got - 2010.06.03 18:43:04.
