data_PCOD9118854
_publ_section_title
;
Structure prediction by ZEFSAII (Michael W. Deem and Ramdas Pophale) SiO2 
 PCOD9118854
Probable space group: P 21
;
_chemical_formula_sum "Si O2"
_cell_formula_units_Z 14
_cell_length_a 17.013919
_cell_length_b 5.435701
_cell_length_c 6.994714
_cell_angle_alpha 90.000000
_cell_angle_beta 121.623763
_cell_angle_gamma 90.000000
_cell_volume 550.832303
_symmetry_space_group_name_H-M "P 21"
_symmetry_group_IT_number 4
_symmetry_cell_setting 'monoclinic'
loop_
_space_group_symop_operation_xyz
x,y,z
-x,1/2+y,-z
loop_
_atom_site_type_symbol
_atom_site_label
_atom_site_fract_x
_atom_site_fract_y
_atom_site_fract_z
Si Si1 0.700821 0.024740 0.670269
Si Si2 0.247395 0.181346 0.915822
Si Si3 0.652159 0.632285 0.325668
Si Si4 0.901319 0.045215 0.413286
Si Si5 0.454134 0.875375 0.510173
Si Si6 0.080169 0.877259 0.870210
Si Si7 0.161636 0.858550 0.341933
O O1 0.643659 0.257942 0.676568
O O2 0.797115 0.114666 0.706634
O O3 0.646540 0.897241 0.423303
O O4 0.714183 0.844902 0.863175
O O5 0.330310 0.113557 0.877433
O O6 0.179089 0.346126 0.694929
O O7 0.178244 0.987462 0.925112
O O8 0.569085 0.467141 0.303478
O O9 0.750198 0.533261 0.534249
O O10 0.920409 0.102119 0.216068
O O11 0.866537 0.284453 0.482857
O O12 0.992786 0.981776 0.645993
O O13 0.516878 0.630991 0.556883
O O14 0.080593 0.933160 0.095328
#
# Coordination Sequence:
#
# PCOD9118854 Si02
#       7
#     2   2   2   2   2   2   2
#     4  11  23  42  76 105 137 188 234 295 364 430
#     4  12  24  42  70 102 140 182 246 292 354 438
#     4  11  23  42  76 105 137 188 234 295 364 430
#     4  12  25  40  63  96 142 190 242 308 361 406
#     4  11  24  48  80 109 150 188 228 291 372 446
#     4  12  25  40  63  96 142 190 242 308 361 406
#     4  11  24  40  64 101 134 184 250 297 360 428
#
# _framework density 25.416083
#
# number of rings (size 3 to 8) (size 9 to 14) (size 15 to 20)
#    0.000    0.571    8.571    0.000    0.000    3.429 
#    0.000    0.000    6.286    0.000    0.000    0.000 
#    0.000    0.000    0.000    0.000    0.000    0.000 
#
# Total GULP energy -78195.700476 kJ/mol
# GULP energy per Si atom -5585.407177 kJ/mol
# Density = 2.535824 g / cm^3
# Si number density = 25.416083 Si / 1000 Ang^3
#
#
#
# Elastic Constant Matrix: (Units=GPa)
#
#
# Indices 1 2 3 4 5 6 
#
# 1 84.7472 25.9060 6.6207 0.0000 -19.5535 0.0000
# 2 25.9060 77.3332 4.6607 0.0000 -12.0658 0.0000
# 3 6.6207 4.6607 89.2402 0.0000 -20.8982 0.0000
# 4 0.0000 0.0000 0.0000 40.7684 0.0000 -1.0728
# 5 -19.5535 -12.0658 -20.8982 0.0000 36.9220 0.0000
# 6 0.0000 0.0000 0.0000 -1.0728 0.0000 55.8069
#
#
#
# Elastic Compliance Matrix: (Units=1/GPa)
#
#
# Indices 1 2 3 4 5 6 
#
# 1 0.014491 -0.003832 0.000725 0.000000 0.006832 0.000000
# 2 -0.003832 0.014650 0.000190 0.000000 0.002866 0.000000
# 3 0.000725 0.000190 0.012965 0.000000 0.007784 0.000000
# 4 0.000000 0.000000 0.000000 0.024541 0.000000 0.000472
# 5 0.006832 0.002866 0.007784 0.000000 0.036045 0.000000
# 6 0.000000 0.000000 0.000000 0.000472 0.000000 0.017928
#
#
# Mechanical properties :
#
#
# Convention : Reuss Voigt Hill
#
# Bulk Modulus (GPa) = 27.56873 36.18836 31.87854
# Shear Modulus (GPa) = 36.08936 40.97502 38.53219
#
# Velocity S-wave (km/s) = 3.77230 4.01954 3.89788
# Velocity P-wave (km/s) = 5.46298 5.98427 5.72956
#
# Compressibility (1/GPa) = 0.03627298
#
# Stress axis : x y z
#
# Youngs Moduli (GPa) = 69.00855 68.25731 77.13110
#
# Poissons Ratio (x) = 0.26156 -0.05592
# Poissons Ratio (y) = 0.26444 -0.01468
# Poissons Ratio (z) = -0.05003 -0.01299
#
# Static dielectric constant tensor:
#      x y z
#    x 2.097940 0.000000 -0.019870 
#    y 0.000000 2.134520 0.000000 
#    z -0.019870 0.000000 2.020130 
# 
# From -- ./inp_files/3899.got.cif
#   From: 2010.05.17/outbox.cif.g08.bks.cpg/sg4_2_cif.got.tgz:3899.got - 2010.06.03 18:43:04.
