data_PCOD9118404
_publ_section_title
;
Structure prediction by ZEFSAII (Michael W. Deem and Ramdas Pophale) SiO2 
 PCOD9118404
Probable space group: P 21
;
_chemical_formula_sum "Si O2"
_cell_formula_units_Z 10
_cell_length_a 11.647098
_cell_length_b 7.797487
_cell_length_c 5.181159
_cell_angle_alpha 90.000000
_cell_angle_beta 51.556493
_cell_angle_gamma 90.000000
_cell_volume 368.539420
_symmetry_space_group_name_H-M "P 21"
_symmetry_group_IT_number 4
_symmetry_cell_setting 'monoclinic'
loop_
_space_group_symop_operation_xyz
x,y,z
-x,1/2+y,-z
loop_
_atom_site_type_symbol
_atom_site_label
_atom_site_fract_x
_atom_site_fract_y
_atom_site_fract_z
Si Si1 0.253898 0.602690 0.860793
Si Si2 0.681489 0.757159 0.414922
Si Si3 0.456540 0.032196 0.761004
Si Si4 0.843034 0.602862 0.575482
Si Si5 0.908855 0.221733 0.405914
O O1 0.282189 0.399098 0.858571
O O2 0.406015 0.655238 0.503642
O O3 0.137495 0.643284 0.801164
O O4 0.207774 0.681929 0.196816
O O5 0.639935 0.571350 0.361260
O O6 0.825445 0.751580 0.390168
O O7 0.539446 0.858279 0.724721
O O8 0.331236 0.075525 0.136989
O O9 0.908331 0.425857 0.384256
O O10 0.940994 0.651150 0.682527
#
# Coordination Sequence:
#
# PCOD9118404 Si02
#       5
#     2   2   2   2   2
#     4  10  28  49  78 111 159 202 260 325 377 479
#     4  10  26  44  79 112 156 202 268 314 400 446
#     4  10  26  44  79 109 153 203 264 318 385 461
#     4  12  29  46  81 112 159 212 253 332 384 481
#     4  12  29  51  77 116 159 205 265 313 408 453
#
# _framework density 27.134141
#
# number of rings (size 3 to 8) (size 9 to 14) (size 15 to 20)
#    1.200    0.000    0.000    2.400   19.600    0.000 
#    0.000    0.000    0.000    0.000    0.000    0.000 
#    0.000    0.000    0.000    0.000    0.000    0.000 
#
# Total GULP energy -55804.645682 kJ/mol
# GULP energy per Si atom -5580.464568 kJ/mol
# Density = 2.707238 g / cm^3
# Si number density = 27.134141 Si / 1000 Ang^3
#
#
#
# Elastic Constant Matrix: (Units=GPa)
#
#
# Indices 1 2 3 4 5 6 
#
# 1 128.9734 18.3850 15.7957 0.0000 -5.0453 0.0000
# 2 18.3850 88.8425 8.5355 0.0000 -11.1953 0.0000
# 3 15.7957 8.5355 111.3187 0.0000 -23.1576 0.0000
# 4 0.0000 0.0000 0.0000 36.7646 0.0000 -4.7024
# 5 -5.0453 -11.1953 -23.1576 0.0000 53.9725 0.0000
# 6 0.0000 0.0000 0.0000 -4.7024 0.0000 52.2015
#
#
#
# Elastic Compliance Matrix: (Units=1/GPa)
#
#
# Indices 1 2 3 4 5 6 
#
# 1 0.008105 -0.001580 -0.001032 0.000000 -0.000013 0.000000
# 2 -0.001580 0.011884 -0.000225 0.000000 0.002221 0.000000
# 3 -0.001032 -0.000225 0.010011 0.000000 0.004152 0.000000
# 4 0.000000 0.000000 0.000000 0.027517 0.000000 0.002479
# 5 -0.000013 0.002221 0.004152 0.000000 0.020769 0.000000
# 6 0.000000 0.000000 0.000000 0.002479 0.000000 0.019380
#
#
# Mechanical properties :
#
#
# Convention : Reuss Voigt Hill
#
# Bulk Modulus (GPa) = 41.10675 46.06299 43.58487
# Shear Modulus (GPa) = 44.86449 47.68229 46.27339
#
# Velocity S-wave (km/s) = 4.07065 4.19654 4.13408
# Velocity P-wave (km/s) = 6.10541 6.36350 6.23579
#
# Compressibility (1/GPa) = 0.02432691
#
# Stress axis : x y z
#
# Youngs Moduli (GPa) = 123.38744 84.14505 99.89417
#
# Poissons Ratio (x) = 0.13292 0.10304
# Poissons Ratio (y) = 0.19491 0.02248
# Poissons Ratio (z) = 0.12728 0.01894
#
# Static dielectric constant tensor:
#      x y z
#    x 2.184950 0.000000 0.052670 
#    y 0.000000 2.081020 0.000000 
#    z 0.052670 0.000000 2.393330 
# 
# From -- ./inp_files/977.got.cif
#   From: 2010.05.17/outbox.cif.g08.bks.cpg/sg4_1_cif.got.tgz:977.got - 2010.06.03 18:43:04.
