data_PCOD9118925
_publ_section_title
;
Structure prediction by ZEFSAII (Michael W. Deem and Ramdas Pophale) SiO2 
 PCOD9118925
Probable space group: P 21
;
_chemical_formula_sum "Si O2"
_cell_formula_units_Z 14
_cell_length_a 10.992834
_cell_length_b 10.614278
_cell_length_c 11.345229
_cell_angle_alpha 90.000000
_cell_angle_beta 154.961383
_cell_angle_gamma 90.000000
_cell_volume 560.258978
_symmetry_space_group_name_H-M "P 21"
_symmetry_group_IT_number 4
_symmetry_cell_setting 'monoclinic'
loop_
_space_group_symop_operation_xyz
x,y,z
-x,1/2+y,-z
loop_
_atom_site_type_symbol
_atom_site_label
_atom_site_fract_x
_atom_site_fract_y
_atom_site_fract_z
Si Si1 0.642026 0.549100 0.544214
Si Si2 0.694468 0.794374 0.737327
Si Si3 0.193768 0.856599 0.004415
Si Si4 0.219754 0.471633 0.520408
Si Si5 0.474034 0.743354 0.795021
Si Si6 0.879825 0.875496 0.309614
Si Si7 0.754787 0.087027 0.016257
O O1 0.575522 0.666968 0.570951
O O2 0.494694 0.418971 0.448760
O O3 0.984550 0.538558 0.837738
O O4 0.526999 0.581075 0.312045
O O5 0.003936 0.819635 0.950258
O O6 0.679549 0.771760 0.864055
O O7 0.038479 0.969646 0.798937
O O8 0.184335 0.734144 0.911362
O O9 0.520359 0.893606 0.309623
O O10 0.336400 0.607557 0.656863
O O11 0.132529 0.402935 0.563888
O O12 0.202419 0.838022 0.557273
O O13 0.663609 0.765550 0.077593
O O14 0.767014 0.998655 0.140002
#
# Coordination Sequence:
#
# PCOD9118925 Si02
#       7
#     2   2   2   2   2   2   2
#     4  11  24  41  71 104 148 186 240 298 363 437
#     4  11  24  46  73 107 150 189 243 303 368 442
#     4  11  26  45  72 108 144 190 235 304 363 432
#     4  12  28  48  72 109 150 186 249 305 361 431
#     4  12  27  49  75 108 142 198 243 301 373 431
#     4  12  26  46  75  99 144 191 247 300 357 434
#     4  11  23  45  68 103 134 192 243 283 361 431
#
# _framework density 24.988443
#
# number of rings (size 3 to 8) (size 9 to 14) (size 15 to 20)
#    0.000    0.571    2.857    4.286    4.000    9.143 
#    0.000    0.000    0.000    0.000    0.000    0.000 
#    0.000    0.000    0.000    0.000    0.000    0.000 
#
# Total GULP energy -78518.342977 kJ/mol
# GULP energy per Si atom -5608.453070 kJ/mol
# Density = 2.493157 g / cm^3
# Si number density = 24.988443 Si / 1000 Ang^3
#
#
#
# Elastic Constant Matrix: (Units=GPa)
#
#
# Indices 1 2 3 4 5 6 
#
# 1 106.6641 19.0577 11.7586 0.0000 -16.1424 0.0000
# 2 19.0577 100.1323 -2.8635 0.0000 9.8313 0.0000
# 3 11.7586 -2.8635 77.8928 0.0000 -1.9440 0.0000
# 4 0.0000 0.0000 0.0000 37.6204 0.0000 -3.6693
# 5 -16.1424 9.8313 -1.9440 0.0000 23.4910 0.0000
# 6 0.0000 0.0000 0.0000 -3.6693 0.0000 33.6816
#
#
#
# Elastic Compliance Matrix: (Units=1/GPa)
#
#
# Indices 1 2 3 4 5 6 
#
# 1 0.011483 -0.003122 -0.001622 0.000000 0.009063 0.000000
# 2 -0.003122 0.011269 0.000716 0.000000 -0.006802 0.000000
# 3 -0.001622 0.000716 0.013101 0.000000 -0.000330 0.000000
# 4 0.000000 0.000000 0.000000 0.026867 0.000000 0.002927
# 5 0.009063 -0.006802 -0.000330 0.000000 0.051617 0.000000
# 6 0.000000 0.000000 0.000000 0.002927 0.000000 0.030009
#
#
# Mechanical properties :
#
#
# Convention : Reuss Voigt Hill
#
# Bulk Modulus (GPa) = 35.97443 37.84389 36.90916
# Shear Modulus (GPa) = 30.92742 36.07436 33.50089
#
# Velocity S-wave (km/s) = 3.52187 3.80365 3.66547
# Velocity P-wave (km/s) = 5.56469 5.87093 5.71986
#
# Compressibility (1/GPa) = 0.02779752
#
# Stress axis : x y z
#
# Youngs Moduli (GPa) = 87.08161 88.73659 76.32950
#
# Poissons Ratio (x) = 0.27702 0.12381
# Poissons Ratio (y) = 0.27186 -0.05463
# Poissons Ratio (z) = 0.14125 -0.06352
#
# Static dielectric constant tensor:
#      x y z
#    x 1.939810 0.000000 -0.007900 
#    y 0.000000 1.994300 0.000000 
#    z -0.007900 0.000000 1.914690 
# 
# From -- ./inp_files/12223.got.cif
#   From: 2010.05.17/outbox.cif.g08.bks.cpg/sg4_7_cif.got.tgz:12223.got - 2010.06.03 18:43:04.
