data_PCOD9118669
_publ_section_title
;
Structure prediction by ZEFSAII (Michael W. Deem and Ramdas Pophale) SiO2 
 PCOD9118669
Probable space group: P 21
;
_chemical_formula_sum "Si O2"
_cell_formula_units_Z 14
_cell_length_a 7.857726
_cell_length_b 5.371543
_cell_length_c 18.675556
_cell_angle_alpha 90.000000
_cell_angle_beta 43.409140
_cell_angle_gamma 90.000000
_cell_volume 541.694944
_symmetry_space_group_name_H-M "P 21"
_symmetry_group_IT_number 4
_symmetry_cell_setting 'monoclinic'
loop_
_space_group_symop_operation_xyz
x,y,z
-x,1/2+y,-z
loop_
_atom_site_type_symbol
_atom_site_label
_atom_site_fract_x
_atom_site_fract_y
_atom_site_fract_z
Si Si1 0.824745 0.361710 0.610263
Si Si2 0.425201 0.974459 0.056938
Si Si3 0.770080 0.664062 0.310924
Si Si4 0.248763 0.685178 0.520912
Si Si5 0.160180 0.479824 0.282845
Si Si6 0.449155 0.619689 0.832666
Si Si7 0.870536 0.154635 0.197839
O O1 0.784081 0.359069 0.538840
O O2 0.646261 0.538638 0.710860
O O3 0.106644 0.436061 0.540878
O O4 0.776921 0.095110 0.659744
O O5 0.535889 0.943730 0.103489
O O6 0.156477 0.105980 0.129140
O O7 0.590694 0.198071 0.971889
O O8 0.541153 0.652034 0.436881
O O9 0.031595 0.682324 0.272001
O O10 0.779661 0.416709 0.258957
O O11 0.742826 0.912291 0.272462
O O12 0.074815 0.791930 0.636547
O O13 0.413281 0.363605 0.178713
O O14 0.198133 0.653132 0.865595
#
# Coordination Sequence:
#
# PCOD9118669 Si02
#       7
#     2   2   2   2   2   2   2
#     4  11  22  42  64 100 150 200 260 302 358 430
#     4  12  29  53  83 114 147 180 243 319 390 473
#     4  12  27  44  70 108 152 197 259 304 361 444
#     4  11  24  37  63 102 147 205 261 304 350 427
#     4  11  25  42  69 100 156 206 254 312 366 424
#     4  11  26  48  78 107 149 204 242 311 387 449
#     4  12  27  50  79 111 145 194 249 304 382 461
#
# _framework density 25.844804
#
# number of rings (size 3 to 8) (size 9 to 14) (size 15 to 20)
#    0.000    0.571    4.286    2.571   10.000    1.143 
#    0.000    0.000    0.000    0.000    0.000    0.000 
#    0.000    0.000    0.000    0.000    0.000    0.000 
#
# Total GULP energy -78278.144864 kJ/mol
# GULP energy per Si atom -5591.296062 kJ/mol
# Density = 2.578598 g / cm^3
# Si number density = 25.844804 Si / 1000 Ang^3
#
#
#
# Elastic Constant Matrix: (Units=GPa)
#
#
# Indices 1 2 3 4 5 6 
#
# 1 136.8739 3.5789 15.6726 0.0000 15.2511 0.0000
# 2 3.5789 117.3307 14.8702 0.0000 6.3967 0.0000
# 3 15.6726 14.8702 43.5721 0.0000 4.3255 0.0000
# 4 0.0000 0.0000 0.0000 34.1001 0.0000 11.1333
# 5 15.2511 6.3967 4.3255 0.0000 42.0285 0.0000
# 6 0.0000 0.0000 0.0000 11.1333 0.0000 26.6421
#
#
#
# Elastic Compliance Matrix: (Units=1/GPa)
#
#
# Indices 1 2 3 4 5 6 
#
# 1 0.007897 0.000240 -0.002662 0.000000 -0.002628 0.000000
# 2 0.000240 0.008962 -0.003032 0.000000 -0.001139 0.000000
# 3 -0.002662 -0.003032 0.025057 0.000000 -0.001152 0.000000
# 4 0.000000 0.000000 0.000000 0.033959 0.000000 -0.014191
# 5 -0.002628 -0.001139 -0.001152 0.000000 0.025039 0.000000
# 6 0.000000 0.000000 0.000000 -0.014191 0.000000 0.043465
#
#
# Mechanical properties :
#
#
# Convention : Reuss Voigt Hill
#
# Bulk Modulus (GPa) = 32.24861 40.66891 36.45876
# Shear Modulus (GPa) = 30.18932 38.13116 34.16024
#
# Velocity S-wave (km/s) = 3.42146 3.84525 3.63953
# Velocity P-wave (km/s) = 5.30220 5.95689 5.63906
#
# Compressibility (1/GPa) = 0.03100909
#
# Stress axis : x y z
#
# Youngs Moduli (GPa) = 126.62492 111.58313 39.90941
#
# Poissons Ratio (x) = -0.02675 0.10622
# Poissons Ratio (y) = -0.03035 0.12099
# Poissons Ratio (z) = 0.33701 0.33828
#
# Static dielectric constant tensor:
#      x y z
#    x 2.038930 0.000000 0.018110 
#    y 0.000000 2.151740 0.000000 
#    z 0.018110 0.000000 2.112290 
# 
# From -- ./inp_files/9986.got.cif
#   From: 2010.05.17/outbox.cif.g08.bks.cpg/sg4_5_cif.got.tgz:9986.got - 2010.06.03 18:43:04.
