data_PCOD9118628
_publ_section_title
;
Structure prediction by ZEFSAII (Michael W. Deem and Ramdas Pophale) SiO2 
 PCOD9118628
Probable space group: P 21
;
_chemical_formula_sum "Si O2"
_cell_formula_units_Z 16
_cell_length_a 19.756846
_cell_length_b 4.956773
_cell_length_c 6.923270
_cell_angle_alpha 90.000000
_cell_angle_beta 68.387860
_cell_angle_gamma 90.000000
_cell_volume 630.332976
_symmetry_space_group_name_H-M "P 21"
_symmetry_group_IT_number 4
_symmetry_cell_setting 'monoclinic'
loop_
_space_group_symop_operation_xyz
x,y,z
-x,1/2+y,-z
loop_
_atom_site_type_symbol
_atom_site_label
_atom_site_fract_x
_atom_site_fract_y
_atom_site_fract_z
Si Si1 0.431791 0.549740 0.255828
Si Si2 0.732427 0.819276 0.878478
Si Si3 0.795459 0.339550 0.308631
Si Si4 0.414154 0.058554 0.988012
Si Si5 0.954474 0.263015 0.092785
Si Si6 0.042365 0.540622 0.488633
Si Si7 0.183653 0.826402 0.247369
Si Si8 0.706578 0.840324 0.442006
O O1 0.435012 0.281786 0.124031
O O2 0.372568 0.481366 0.482333
O O3 0.406816 0.788310 0.130953
O O4 0.516290 0.572247 0.227305
O O5 0.659278 0.675371 0.029175
O O6 0.800000 0.622368 0.847048
O O7 0.719199 0.822648 0.660283
O O8 0.753921 0.125144 0.896197
O O9 0.874026 0.371709 0.126544
O O10 0.807610 0.353122 0.528631
O O11 0.731004 0.551695 0.338007
O O12 0.765965 0.043943 0.298556
O O13 0.942840 0.101159 0.303884
O O14 0.005061 0.527179 0.069875
O O15 0.107591 0.674950 0.301890
O O16 0.028518 0.225984 0.476234
#
# Coordination Sequence:
#
# PCOD9118628 Si02
#       8
#     2   2   2   2   2   2   2   2
#     4   9  15  21  30  47  73 107 148 192 232 273
#     4   9  14  23  36  53  77 109 149 193 232 273
#     4   9  17  27  42  61  83 113 153 197 238 285
#     4   9  15  21  30  47  73 107 148 192 232 273
#     4  11  22  37  55  77 103 133 171 216 263 311
#     4  11  22  37  55  77 103 133 171 216 263 311
#     4   9  17  27  42  61  83 113 153 197 238 285
#     4   9  14  23  36  53  77 109 149 193 232 273
#
# _framework density 25.383409
#
# number of rings (size 3 to 8) (size 9 to 14) (size 15 to 20)
#    0.000    2.500    0.000    6.000    0.000    4.000 
#    0.000    0.000    0.000    0.000    0.000    0.000 
#    0.000    0.000    0.000    0.000    0.000   70.000 
#
# Total GULP energy -89293.792727 kJ/mol
# GULP energy per Si atom -5580.862045 kJ/mol
# Density = 2.532563 g / cm^3
# Si number density = 25.383409 Si / 1000 Ang^3
#
#
#
# Elastic Constant Matrix: (Units=GPa)
#
#
# Indices 1 2 3 4 5 6 
#
# 1 63.3807 1.8070 33.9752 0.0000 -43.1542 0.0000
# 2 1.8070 128.0321 2.1986 0.0000 -27.1784 0.0000
# 3 33.9752 2.1986 71.5105 0.0000 -14.2016 0.0000
# 4 0.0000 0.0000 0.0000 21.6004 0.0000 -34.3928
# 5 -43.1542 -27.1784 -14.2016 0.0000 53.9127 0.0000
# 6 0.0000 0.0000 0.0000 -34.3928 0.0000 21.5260
#
#
#
# Elastic Compliance Matrix: (Units=1/GPa)
#
#
# Indices 1 2 3 4 5 6 
#
# 1 0.054466 0.008742 -0.017530 0.000000 0.043386 0.000000
# 2 0.008742 0.010178 -0.002171 0.000000 0.011556 0.000000
# 3 -0.017530 -0.002171 0.020445 0.000000 -0.009741 0.000000
# 4 0.000000 0.000000 0.000000 -0.029985 0.000000 -0.047908
# 5 0.043386 0.011556 -0.009741 0.000000 0.056537 0.000000
# 6 0.000000 0.000000 0.000000 -0.047908 0.000000 -0.030089
#
#
# Mechanical properties :
#
#
# Convention : Reuss Voigt Hill
#
# Bulk Modulus (GPa) = 15.83014 37.65388 26.74201
# Shear Modulus (GPa) = 40.15252 34.40400 37.27826
#
# Velocity S-wave (km/s) = 3.98155 3.68553 3.83640
# Velocity P-wave (km/s) = 5.23325 5.74257 5.49382
#
# Compressibility (1/GPa) = 0.06317065
#
# Stress axis : x y z
#
# Youngs Moduli (GPa) = 18.36020 98.25476 48.91235
#
# Poissons Ratio (x) = -0.85897 0.85741
# Poissons Ratio (y) = -0.16051 0.10621
# Poissons Ratio (z) = 0.32185 0.21335
#
# Static dielectric constant tensor:
#      x y z
#    x 2.041740 0.000000 0.120430 
#    y 0.000000 1.920820 0.000000 
#    z 0.120430 0.000000 1.824470 
# 
# From -- ./inp_files/9734.got.cif
#   From: 2010.05.17/outbox.cif.g08.bks.cpg/sg4_5_cif.got.tgz:9734.got - 2010.06.03 18:43:04.
