data_PCOD9118787
_publ_section_title
;
Structure prediction by ZEFSAII (Michael W. Deem and Ramdas Pophale) SiO2 
 PCOD9118787
Probable space group: P 21
;
_chemical_formula_sum "Si O2"
_cell_formula_units_Z 16
_cell_length_a 17.444885
_cell_length_b 5.042687
_cell_length_c 9.399460
_cell_angle_alpha 90.000000
_cell_angle_beta 50.921797
_cell_angle_gamma 90.000000
_cell_volume 641.881615
_symmetry_space_group_name_H-M "P 21"
_symmetry_group_IT_number 4
_symmetry_cell_setting 'monoclinic'
loop_
_space_group_symop_operation_xyz
x,y,z
-x,1/2+y,-z
loop_
_atom_site_type_symbol
_atom_site_label
_atom_site_fract_x
_atom_site_fract_y
_atom_site_fract_z
Si Si1 0.437066 0.077220 0.104664
Si Si2 0.262157 0.688677 0.713861
Si Si3 0.422859 0.323287 0.406941
Si Si4 0.015435 0.090185 0.079585
Si Si5 0.775287 0.831892 0.694320
Si Si6 0.808148 0.822714 0.976683
Si Si7 0.166963 0.834577 0.549559
Si Si8 0.601813 0.573009 0.275704
O O1 0.335093 0.202822 0.163442
O O2 0.417127 0.098134 0.297425
O O3 0.527109 0.282273 0.970908
O O4 0.186744 0.551309 0.910134
O O5 0.215129 0.875893 0.649770
O O6 0.341611 0.825465 0.721763
O O7 0.320894 0.473199 0.550531
O O8 0.447575 0.215206 0.533162
O O9 0.517257 0.506802 0.263051
O O10 0.936303 0.199665 0.286578
O O11 0.986919 0.806605 0.046546
O O12 0.119099 0.103834 0.042638
O O13 0.775989 0.113511 0.612030
O O14 0.833809 0.608860 0.535063
O O15 0.824542 0.876492 0.791584
O O16 0.692858 0.744427 0.115642
#
# Coordination Sequence:
#
# PCOD9118787 Si02
#       8
#     2   2   2   2   2   2   2   2
#     4  12  27  43  68  98 146 196 243 286 362 433
#     4  11  23  44  71 100 140 191 244 306 363 432
#     4  11  23  39  66  99 137 189 243 296 351 438
#     4  12  26  49  81 113 141 187 248 309 370 448
#     4  12  28  48  71 108 153 191 242 304 373 442
#     4  11  28  45  72 108 143 187 244 312 370 438
#     4  12  26  48  76 104 147 195 242 301 380 440
#     4  11  23  40  69 100 141 184 246 302 365 415
#
# _framework density 24.926714
#
# number of rings (size 3 to 8) (size 9 to 14) (size 15 to 20)
#    0.000    0.500    3.750    3.750    7.000    1.000 
#    0.000    0.000    0.000    0.000    0.000    0.000 
#    0.000    0.000    0.000    0.000    0.000    0.000 
#
# Total GULP energy -89522.689752 kJ/mol
# GULP energy per Si atom -5595.168109 kJ/mol
# Density = 2.486998 g / cm^3
# Si number density = 24.926714 Si / 1000 Ang^3
#
#
#
# Elastic Constant Matrix: (Units=GPa)
#
#
# Indices 1 2 3 4 5 6 
#
# 1 97.2210 9.5759 28.8534 0.0000 23.9860 0.0000
# 2 9.5759 76.3084 19.8548 0.0000 -4.5601 0.0000
# 3 28.8534 19.8548 91.2028 0.0000 14.5252 0.0000
# 4 0.0000 0.0000 0.0000 38.8168 0.0000 -4.9531
# 5 23.9860 -4.5601 14.5252 0.0000 38.6817 0.0000
# 6 0.0000 0.0000 0.0000 -4.9531 0.0000 26.9080
#
#
#
# Elastic Compliance Matrix: (Units=1/GPa)
#
#
# Indices 1 2 3 4 5 6 
#
# 1 0.012992 -0.001369 -0.002663 0.000000 -0.007217 0.000000
# 2 -0.001369 0.014360 -0.003295 0.000000 0.003779 0.000000
# 3 -0.002663 -0.003295 0.013107 0.000000 -0.003659 0.000000
# 4 0.000000 0.000000 0.000000 0.026382 0.000000 0.004856
# 5 -0.007217 0.003779 -0.003659 0.000000 0.032147 0.000000
# 6 0.000000 0.000000 0.000000 0.004856 0.000000 0.038058
#
#
# Mechanical properties :
#
#
# Convention : Reuss Voigt Hill
#
# Bulk Modulus (GPa) = 38.75137 42.36671 40.55904
# Shear Modulus (GPa) = 31.19178 34.64452 32.91815
#
# Velocity S-wave (km/s) = 3.54127 3.73212 3.63794
# Velocity P-wave (km/s) = 5.68336 5.96700 5.82691
#
# Compressibility (1/GPa) = 0.02580554
#
# Stress axis : x y z
#
# Youngs Moduli (GPa) = 76.97327 69.63979 76.29518
#
# Poissons Ratio (x) = 0.09532 0.20314
# Poissons Ratio (y) = 0.10536 0.25138
# Poissons Ratio (z) = 0.20495 0.22945
#
# Static dielectric constant tensor:
#      x y z
#    x 1.978180 0.000000 -0.057310 
#    y 0.000000 2.033350 0.000000 
#    z -0.057310 0.000000 2.024240 
# 
# From -- ./inp_files/8644.got.cif
#   From: 2010.05.17/outbox.cif.g08.bks.cpg/sg4_5_cif.got.tgz:8644.got - 2010.06.03 18:43:04.
