data_PCOD9118883
_publ_section_title
;
Structure prediction by ZEFSAII (Michael W. Deem and Ramdas Pophale) SiO2 
 PCOD9118883
Probable space group: P 21
;
_chemical_formula_sum "Si O2"
_cell_formula_units_Z 14
_cell_length_a 8.727674
_cell_length_b 8.056429
_cell_length_c 9.081364
_cell_angle_alpha 90.000000
_cell_angle_beta 116.098986
_cell_angle_gamma 90.000000
_cell_volume 573.436881
_symmetry_space_group_name_H-M "P 21"
_symmetry_group_IT_number 4
_symmetry_cell_setting 'monoclinic'
loop_
_space_group_symop_operation_xyz
x,y,z
-x,1/2+y,-z
loop_
_atom_site_type_symbol
_atom_site_label
_atom_site_fract_x
_atom_site_fract_y
_atom_site_fract_z
Si Si1 0.228710 0.870130 0.899206
Si Si2 0.813097 0.041369 0.954185
Si Si3 0.243022 0.328521 0.797488
Si Si4 0.466545 0.991589 0.255066
Si Si5 0.954231 0.106257 0.700976
Si Si6 0.427694 0.004349 0.758988
Si Si7 0.604095 0.270198 0.495939
O O1 0.394540 0.860316 0.864847
O O2 0.164952 0.695483 0.928006
O O3 0.307217 0.964637 0.076349
O O4 0.082656 0.951688 0.733875
O O5 0.936746 0.075973 0.870920
O O6 0.622915 0.038602 0.810427
O O7 0.805206 0.882392 0.057034
O O8 0.356428 0.465822 0.761970
O O9 0.355809 0.165025 0.812412
O O10 0.056860 0.261075 0.673299
O O11 0.456938 0.846033 0.375027
O O12 0.466817 0.165417 0.343189
O O13 0.761555 0.142188 0.573470
O O14 0.346924 0.934240 0.576654
#
# Coordination Sequence:
#
# PCOD9118883 Si02
#       7
#     2   2   2   2   2   2   2
#     4  11  24  44  74 105 141 192 266 302 372 457
#     4  12  20  43  70 109 139 189 247 321 354 445
#     4  11  24  41  75 101 144 192 255 306 372 445
#     4  12  24  48  71 108 141 211 252 316 375 466
#     4  11  26  44  66 108 147 188 246 317 390 435
#     4  11  23  43  74 108 141 200 250 305 371 463
#     4  12  27  47  72 107 163 192 254 319 392 451
#
# _framework density 24.414196
#
# number of rings (size 3 to 8) (size 9 to 14) (size 15 to 20)
#    0.000    0.571    4.286    3.429    4.000    2.286 
#    2.571    1.429    0.000    0.000    0.000    0.000 
#    0.000    0.000    0.000    0.000    0.000    0.000 
#
# Total GULP energy -77978.879641 kJ/mol
# GULP energy per Si atom -5569.919974 kJ/mol
# Density = 2.435863 g / cm^3
# Si number density = 24.414196 Si / 1000 Ang^3
#
#
#
# Elastic Constant Matrix: (Units=GPa)
#
#
# Indices 1 2 3 4 5 6 
#
# 1 59.9254 -1.3720 4.0220 0.0000 -7.1411 0.0000
# 2 -1.3720 73.4691 18.9200 0.0000 -4.5891 0.0000
# 3 4.0220 18.9200 67.2074 0.0000 -10.6645 0.0000
# 4 0.0000 0.0000 0.0000 50.5463 0.0000 -10.4061
# 5 -7.1411 -4.5891 -10.6645 0.0000 31.8429 0.0000
# 6 0.0000 0.0000 0.0000 -10.4061 0.0000 35.8201
#
#
#
# Elastic Compliance Matrix: (Units=1/GPa)
#
#
# Indices 1 2 3 4 5 6 
#
# 1 0.017193 0.000719 -0.000637 0.000000 0.003746 0.000000
# 2 0.000719 0.014723 -0.004040 0.000000 0.000930 0.000000
# 3 -0.000637 -0.004040 0.016834 0.000000 0.004913 0.000000
# 4 0.000000 0.000000 0.000000 0.021042 0.000000 0.006113
# 5 0.003746 0.000930 0.004913 0.000000 0.034024 0.000000
# 6 0.000000 0.000000 0.000000 0.006113 0.000000 0.029693
#
#
# Mechanical properties :
#
#
# Convention : Reuss Voigt Hill
#
# Bulk Modulus (GPa) = 24.48917 27.08244 25.78581
# Shear Modulus (GPa) = 32.25027 35.57732 33.91379
#
# Velocity S-wave (km/s) = 3.63845 3.82152 3.73111
# Velocity P-wave (km/s) = 5.26342 5.53073 5.39873
#
# Compressibility (1/GPa) = 0.04083437
#
# Stress axis : x y z
#
# Youngs Moduli (GPa) = 58.16311 67.92026 59.40214
#
# Poissons Ratio (x) = -0.04884 0.03783
# Poissons Ratio (y) = -0.04182 0.24000
# Poissons Ratio (z) = 0.03705 0.27442
#
# Static dielectric constant tensor:
#      x y z
#    x 1.991040 0.000000 -0.008210 
#    y 0.000000 2.082020 0.000000 
#    z -0.008210 0.000000 1.981400 
# 
# From -- ./inp_files/5296.got.cif
#   From: 2010.05.17/outbox.cif.g08.bks.cpg/sg4_3_cif.got.tgz:5296.got - 2010.06.03 18:43:04.
