data_PCOD9118908
_publ_section_title
;
Structure prediction by ZEFSAII (Michael W. Deem and Ramdas Pophale) SiO2 
 PCOD9118908
Probable space group: P 21
;
_chemical_formula_sum "Si O2"
_cell_formula_units_Z 16
_cell_length_a 9.580946
_cell_length_b 10.258168
_cell_length_c 5.841231
_cell_angle_alpha 90.000000
_cell_angle_beta 85.730672
_cell_angle_gamma 90.000000
_cell_volume 572.500400
_symmetry_space_group_name_H-M "P 21"
_symmetry_group_IT_number 4
_symmetry_cell_setting 'monoclinic'
loop_
_space_group_symop_operation_xyz
x,y,z
-x,1/2+y,-z
loop_
_atom_site_type_symbol
_atom_site_label
_atom_site_fract_x
_atom_site_fract_y
_atom_site_fract_z
Si Si1 0.244995 0.131490 0.025493
Si Si2 0.403583 0.956009 0.355603
Si Si3 0.243962 0.796891 0.756723
Si Si4 0.357007 0.528408 0.369724
Si Si5 0.167428 0.320163 0.671093
Si Si6 0.472320 0.326931 0.039406
Si Si7 0.098552 0.655570 0.418284
Si Si8 0.004189 0.977056 0.956289
O O1 0.335464 0.246429 0.119916
O O2 0.324059 0.014921 0.146958
O O3 0.239206 0.187156 0.763056
O O4 0.083398 0.094074 0.082595
O O5 0.293341 0.894913 0.546105
O O6 0.515147 0.049467 0.468783
O O7 0.498865 0.842606 0.232026
O O8 0.389165 0.771067 0.862493
O O9 0.165522 0.672675 0.661896
O O10 0.127200 0.871693 0.913957
O O11 0.257691 0.416338 0.500807
O O12 0.437267 0.467626 0.146254
O O13 0.255138 0.641994 0.289286
O O14 0.018315 0.268347 0.587960
O O15 0.120485 0.406812 0.896970
O O16 0.029717 0.535492 0.289516
#
# Coordination Sequence:
#
# PCOD9118908 Si02
#       8
#     2   2   2   2   2   2   2   2
#     4  11  23  44  72 100 133 187 220 277 358 386
#     4  11  24  46  71  97 139 173 226 293 328 406
#     4  11  25  46  68 103 133 176 231 280 340 403
#     4  11  25  46  68 103 133 176 231 280 340 403
#     4  11  25  45  68 101 140 180 227 279 338 415
#     4  11  24  46  71  97 139 173 226 293 328 406
#     4  11  25  42  70 100 135 183 226 277 344 410
#     4  11  25  45  68 101 140 180 227 279 338 415
#
# _framework density 27.947578
#
# number of rings (size 3 to 8) (size 9 to 14) (size 15 to 20)
#    0.000    1.000    2.500    3.000    0.000    7.000 
#    0.000    0.000    0.000    0.000    0.000    0.000 
#    0.000    0.000    0.000    0.000    0.000    0.000 
#
# Total GULP energy -89245.737578 kJ/mol
# GULP energy per Si atom -5577.858599 kJ/mol
# Density = 2.788397 g / cm^3
# Si number density = 27.947578 Si / 1000 Ang^3
#
#
#
# Elastic Constant Matrix: (Units=GPa)
#
#
# Indices 1 2 3 4 5 6 
#
# 1 175.2695 40.5174 50.6148 0.0000 26.7197 0.0000
# 2 40.5174 66.1101 32.9397 0.0000 3.2382 0.0000
# 3 50.6148 32.9397 59.3183 0.0000 -24.9409 0.0000
# 4 0.0000 0.0000 0.0000 46.0809 0.0000 7.5880
# 5 26.7197 3.2382 -24.9409 0.0000 65.5517 0.0000
# 6 0.0000 0.0000 0.0000 7.5880 0.0000 55.8418
#
#
#
# Elastic Compliance Matrix: (Units=1/GPa)
#
#
# Indices 1 2 3 4 5 6 
#
# 1 0.011100 0.000649 -0.013984 0.000000 -0.009877 0.000000
# 2 0.000649 0.023559 -0.016948 0.000000 -0.007876 0.000000
# 3 -0.013984 -0.016948 0.048749 0.000000 0.025085 0.000000
# 4 0.000000 0.000000 0.000000 0.022198 0.000000 -0.003016
# 5 -0.009877 -0.007876 0.025085 0.000000 0.029215 0.000000
# 6 0.000000 0.000000 0.000000 -0.003016 0.000000 0.018318
#
#
# Mechanical properties :
#
#
# Convention : Reuss Voigt Hill
#
# Bulk Modulus (GPa) = 43.78035 60.98241 52.38138
# Shear Modulus (GPa) = 22.59202 45.26994 33.93098
#
# Velocity S-wave (km/s) = 2.84627 4.02906 3.48816
# Velocity P-wave (km/s) = 5.14790 6.59637 5.91663
#
# Compressibility (1/GPa) = 0.02284130
#
# Stress axis : x y z
#
# Youngs Moduli (GPa) = 90.09245 42.44727 20.51324
#
# Poissons Ratio (x) = -0.02754 0.28686
# Poissons Ratio (y) = -0.05845 0.34765
# Poissons Ratio (z) = 1.25988 0.71938
#
# Static dielectric constant tensor:
#      x y z
#    x 2.125420 0.000000 0.069550 
#    y 0.000000 2.345830 0.000000 
#    z 0.069550 0.000000 2.202700 
# 
# From -- ./inp_files/1402.got.cif
#   From: 2010.05.17/outbox.cif.g08.bks.cpg/sg4_1_cif.got.tgz:1402.got - 2010.06.03 18:43:04.
