data_PCOD9118329
_publ_section_title
;
Structure prediction by ZEFSAII (Michael W. Deem and Ramdas Pophale) SiO2 
 PCOD9118329
Probable space group: P 21
;
_chemical_formula_sum "Si O2"
_cell_formula_units_Z 14
_cell_length_a 21.549750
_cell_length_b 5.101550
_cell_length_c 5.072732
_cell_angle_alpha 90.000000
_cell_angle_beta 116.739423
_cell_angle_gamma 90.000000
_cell_volume 498.044240
_symmetry_space_group_name_H-M "P 21"
_symmetry_group_IT_number 4
_symmetry_cell_setting 'monoclinic'
loop_
_space_group_symop_operation_xyz
x,y,z
-x,1/2+y,-z
loop_
_atom_site_type_symbol
_atom_site_label
_atom_site_fract_x
_atom_site_fract_y
_atom_site_fract_z
Si Si1 0.042587 0.796990 0.663301
Si Si2 0.726844 0.349709 0.502598
Si Si3 0.698633 0.843505 0.123073
Si Si4 0.586974 0.374082 0.493759
Si Si5 0.156441 0.430681 0.776692
Si Si6 0.125766 0.078646 0.206150
Si Si7 0.558893 0.081511 0.935556
O O1 0.115052 0.702998 0.665310
O O2 0.994829 0.541065 0.547432
O O3 0.938843 0.397395 0.006652
O O4 0.714576 0.053650 0.387314
O O5 0.666608 0.442397 0.587746
O O6 0.714093 0.549954 0.237112
O O7 0.805967 0.402475 0.720923
O O8 0.759641 0.937329 0.043222
O O9 0.616298 0.882142 0.924425
O O10 0.575324 0.324598 0.777030
O O11 0.522356 0.539941 0.263749
O O12 0.574650 0.125265 0.272346
O O13 0.128212 0.301811 0.986853
O O14 0.136345 0.242207 0.493762
#
# Coordination Sequence:
#
# PCOD9118329 Si02
#       7
#     2   2   2   2   2   2   2
#     4  12  28  56  82 120 160 212 260 332 402 486
#     4  10  25  46  77 110 149 199 253 314 375 449
#     4  10  25  46  77 110 149 199 253 314 375 449
#     4  11  24  42  68 104 150 198 252 310 376 444
#     4  11  28  52  82 116 157 205 262 322 389 473
#     4  11  28  52  82 116 157 205 262 322 389 473
#     4  11  24  42  68 104 150 198 252 310 376 444
#
# _framework density 28.109952
#
# number of rings (size 3 to 8) (size 9 to 14) (size 15 to 20)
#    0.000    1.143    1.429    1.714   10.000    8.000 
#    5.143    0.000    0.000    0.000    0.000    0.000 
#    0.000    0.000    0.000    0.000    0.000    0.000 
#
# Total GULP energy -78408.686854 kJ/mol
# GULP energy per Si atom -5600.620490 kJ/mol
# Density = 2.804597 g / cm^3
# Si number density = 28.109952 Si / 1000 Ang^3
#
#
#
# Elastic Constant Matrix: (Units=GPa)
#
#
# Indices 1 2 3 4 5 6 
#
# 1 122.3928 32.1931 27.3037 0.0000 11.5540 0.0000
# 2 32.1931 115.4916 60.8314 0.0000 12.9551 0.0000
# 3 27.3037 60.8314 126.8393 0.0000 17.6193 0.0000
# 4 0.0000 0.0000 0.0000 36.3335 0.0000 16.0156
# 5 11.5540 12.9551 17.6193 0.0000 43.3129 0.0000
# 6 0.0000 0.0000 0.0000 16.0156 0.0000 61.1519
#
#
#
# Elastic Compliance Matrix: (Units=1/GPa)
#
#
# Indices 1 2 3 4 5 6 
#
# 1 0.008996 -0.001912 -0.000811 0.000000 -0.001498 0.000000
# 2 -0.001912 0.012059 -0.005237 0.000000 -0.000966 0.000000
# 3 -0.000811 -0.005237 0.010941 0.000000 -0.002668 0.000000
# 4 0.000000 0.000000 0.000000 0.031115 0.000000 -0.008149
# 5 -0.001498 -0.000966 -0.002668 0.000000 0.024862 0.000000
# 6 0.000000 0.000000 0.000000 -0.008149 0.000000 0.018487
#
#
# Mechanical properties :
#
#
# Convention : Reuss Voigt Hill
#
# Bulk Modulus (GPa) = 62.21394 67.26447 64.73920
# Shear Modulus (GPa) = 39.14243 44.45269 41.79756
#
# Velocity S-wave (km/s) = 3.73564 3.98098 3.86026
# Velocity P-wave (km/s) = 6.38647 6.71654 6.55359
#
# Compressibility (1/GPa) = 0.01607357
#
# Stress axis : x y z
#
# Youngs Moduli (GPa) = 111.16346 82.92765 91.39878
#
# Poissons Ratio (x) = 0.15858 0.07415
# Poissons Ratio (y) = 0.21257 0.47870
# Poissons Ratio (z) = 0.09019 0.43433
#
# Static dielectric constant tensor:
#      x y z
#    x 2.310670 0.000000 0.054400 
#    y 0.000000 2.220770 0.000000 
#    z 0.054400 0.000000 2.155290 
# 
# From -- ./inp_files/4405.got.cif
#   From: 2010.05.17/outbox.cif.g08.bks.cpg/sg4_3_cif.got.tgz:4405.got - 2010.06.03 18:43:04.
