data_PCOD9118976
_publ_section_title
;
Structure prediction by ZEFSAII (Michael W. Deem and Ramdas Pophale) SiO2 
 PCOD9118976
Probable space group: P 21
;
_chemical_formula_sum "Si O2"
_cell_formula_units_Z 16
_cell_length_a 22.733797
_cell_length_b 5.346175
_cell_length_c 27.839696
_cell_angle_alpha 90.000000
_cell_angle_beta 12.229442
_cell_angle_gamma 90.000000
_cell_volume 716.738940
_symmetry_space_group_name_H-M "P 21"
_symmetry_group_IT_number 4
_symmetry_cell_setting 'monoclinic'
loop_
_space_group_symop_operation_xyz
x,y,z
-x,1/2+y,-z
loop_
_atom_site_type_symbol
_atom_site_label
_atom_site_fract_x
_atom_site_fract_y
_atom_site_fract_z
Si Si1 0.449390 0.709420 0.737338
Si Si2 0.143755 0.866262 0.886658
Si Si3 0.471553 0.436052 0.860429
Si Si4 0.760090 0.703828 0.045382
Si Si5 0.909152 0.268958 0.780359
Si Si6 0.360115 0.717481 0.615448
Si Si7 0.546001 0.693950 0.026849
Si Si8 0.918829 0.992472 0.668917
O O1 0.270474 0.739623 0.832388
O O2 0.395550 0.436714 0.803383
O O3 0.764828 0.767528 0.471106
O O4 0.355324 0.933816 0.847313
O O5 0.327981 0.855171 0.692441
O O6 0.912212 0.656986 0.057809
O O7 0.307179 0.246099 0.956896
O O8 0.544647 0.378008 0.857797
O O9 0.763677 0.480669 0.600579
O O10 0.248623 0.652469 0.048319
O O11 0.080469 0.720162 0.806733
O O12 0.893904 0.124646 0.740833
O O13 0.744784 0.517089 0.899218
O O14 0.430050 0.428411 0.573183
O O15 0.262320 0.608069 0.228918
O O16 0.745313 0.745593 0.821628
#
# Coordination Sequence:
#
# PCOD9118976 Si02
#       8
#     2   2   2   2   2   2   2   2
#     4  12  25  47  76  99 146 195 243 301 362 440
#     4  12  23  46  71 104 135 186 249 284 354 438
#     4  11  28  43  69 107 143 185 247 299 371 434
#     4  12  26  49  72 103 148 198 235 299 378 425
#     4  11  26  45  70 105 138 189 245 291 368 439
#     4  12  26  44  71 108 147 186 240 305 360 423
#     4  11  25  43  71 102 139 188 246 296 367 437
#     4  11  23  47  68 100 144 187 235 307 360 434
#
# _framework density 22.323329999999999
#
# number of rings (size 3 to 8) (size 9 to 14) (size 15 to 20)
#    0.000    0.500    5.000    2.250    7.000    2.000 
#    0.000    0.000    0.000    0.000    0.000    0.000 
#    0.000    0.000    0.000    0.000    0.000    0.000 
#
# Total GULP energy -89154.874817 kJ/mol
# GULP energy per Si atom -5572.179676 kJ/mol
# Density = 2.227252 g / cm^3
# Si number density = 22.323330 Si / 1000 Ang^3
#
#
#
# Elastic Constant Matrix: (Units=GPa)
#
#
# Indices 1 2 3 4 5 6 
#
# 1 99.0450 7.0819 32.8543 0.0000 9.8668 0.0000
# 2 7.0819 85.5584 53.0341 0.0000 8.3817 0.0000
# 3 32.8543 53.0341 154.8463 0.0000 14.3235 0.0000
# 4 0.0000 0.0000 0.0000 36.4566 0.0000 18.3400
# 5 9.8668 8.3817 14.3235 0.0000 22.6557 0.0000
# 6 0.0000 0.0000 0.0000 18.3400 0.0000 47.3272
#
#
#
# Elastic Compliance Matrix: (Units=1/GPa)
#
#
# Indices 1 2 3 4 5 6 
#
# 1 0.011177 0.000884 -0.002330 0.000000 -0.003722 0.000000
# 2 0.000884 0.015034 -0.005084 0.000000 -0.002733 0.000000
# 3 -0.002330 -0.005084 0.008949 0.000000 -0.002762 0.000000
# 4 0.000000 0.000000 0.000000 0.034072 0.000000 -0.013203
# 5 -0.003722 -0.002733 -0.002762 0.000000 0.048517 0.000000
# 6 0.000000 0.000000 0.000000 -0.013203 0.000000 0.026246
#
#
# Mechanical properties :
#
#
# Convention : Reuss Voigt Hill
#
# Bulk Modulus (GPa) = 45.24952 58.37673 51.81312
# Shear Modulus (GPa) = 30.40977 37.71987 34.06482
#
# Velocity S-wave (km/s) = 3.69486 4.11506 3.91061
# Velocity P-wave (km/s) = 6.20618 6.98467 6.60690
#
# Compressibility (1/GPa) = 0.02209968
#
# Stress axis : x y z
#
# Youngs Moduli (GPa) = 89.47107 66.51758 111.74457
#
# Poissons Ratio (x) = -0.05877 0.26034
# Poissons Ratio (y) = -0.07906 0.56807
# Poissons Ratio (z) = 0.20845 0.33815
#
# Static dielectric constant tensor:
#      x y z
#    x 1.704010 0.000000 0.007700 
#    y 0.000000 1.997740 0.000000 
#    z 0.007700 0.000000 1.936970 
# 
# From -- ./inp_files/15866.got.cif
#   From: 2010.05.17/outbox.cif.g08.bks.cpg/sg4_8_cif.got.tgz:15866.got - 2010.06.03 18:43:04.
