data_PCOD9118032
_publ_section_title
;
Structure prediction by ZEFSAII (Michael W. Deem and Ramdas Pophale) SiO2 
 PCOD9118032
Probable space group: P 21
;
_chemical_formula_sum "Si O2"
_cell_formula_units_Z 16
_cell_length_a 4.891323
_cell_length_b 5.009144
_cell_length_c 20.829804
_cell_angle_alpha 90.000000
_cell_angle_beta 84.422161
_cell_angle_gamma 90.000000
_cell_volume 507.941626
_symmetry_space_group_name_H-M "P 21"
_symmetry_group_IT_number 4
_symmetry_cell_setting 'monoclinic'
loop_
_space_group_symop_operation_xyz
x,y,z
-x,1/2+y,-z
loop_
_atom_site_type_symbol
_atom_site_label
_atom_site_fract_x
_atom_site_fract_y
_atom_site_fract_z
Si Si1 0.928201 0.978590 0.174410
Si Si2 0.239421 0.193328 0.073239
Si Si3 0.835047 0.262267 0.725217
Si Si4 0.699446 0.763860 0.073358
Si Si5 0.104693 0.940185 0.611400
Si Si6 0.158294 0.192291 0.485644
Si Si7 0.572991 0.979516 0.827160
Si Si8 0.392573 0.700278 0.726008
O O1 0.690992 0.714636 0.156896
O O2 0.897884 0.976718 0.254785
O O3 0.666479 0.228296 0.190639
O O4 0.960563 0.978664 0.094266
O O5 0.178832 0.243388 0.156521
O O6 0.471940 0.978724 0.067507
O O7 0.170579 0.228500 0.999943
O O8 0.822531 0.231628 0.809872
O O9 0.611549 0.475317 0.713711
O O10 0.977835 0.173767 0.656391
O O11 0.464394 0.478974 0.086532
O O12 0.841612 0.781032 0.588282
O O13 0.277237 0.802751 0.662088
O O14 0.283901 0.033979 0.544353
O O15 0.095060 0.481404 0.516581
O O16 0.613680 0.975905 0.742095
#
# Coordination Sequence:
#
# PCOD9118032 Si02
#       8
#     2   2   2   2   2   2   2   2
#     4  12  24  45  65 106 140 188 248 316 378 456
#     4  12  25  43  67  94 139 188 250 312 381 457
#     4  12  26  44  75 113 148 195 256 316 387 465
#     4  12  25  43  67  94 139 188 250 312 381 457
#     4  10  24  43  81 112 154 208 248 316 392 466
#     4   8  20  42  74 114 150 200 258 300 378 482
#     4  12  22  46  64  98 142 182 244 316 360 450
#     4  12  26  44  75 113 148 195 256 316 387 465
#
# _framework density 31.499684999999999
#
# number of rings (size 3 to 8) (size 9 to 14) (size 15 to 20)
#    0.750    0.000    6.250    1.500    1.750    3.000 
#    0.000    0.000    2.750    0.000    0.000    0.000 
#    0.000    0.000    0.000    0.000    0.000    0.000 
#
# Total GULP energy -89126.566689 kJ/mol
# GULP energy per Si atom -5570.410418 kJ/mol
# Density = 3.142799 g / cm^3
# Si number density = 31.499685 Si / 1000 Ang^3
#
#
#
# Elastic Constant Matrix: (Units=GPa)
#
#
# Indices 1 2 3 4 5 6 
#
# 1 232.2991 81.1272 83.5175 0.0000 37.6990 0.0000
# 2 81.1272 280.3274 101.0534 0.0000 15.4247 0.0000
# 3 83.5175 101.0534 308.3101 0.0000 76.7462 0.0000
# 4 0.0000 0.0000 0.0000 92.0061 0.0000 5.5460
# 5 37.6990 15.4247 76.7462 0.0000 33.7731 0.0000
# 6 0.0000 0.0000 0.0000 5.5460 0.0000 76.6056
#
#
#
# Elastic Compliance Matrix: (Units=1/GPa)
#
#
# Indices 1 2 3 4 5 6 
#
# 1 0.005792 -0.001563 0.000863 0.000000 -0.007713 0.000000
# 2 -0.001563 0.004575 -0.002280 0.000000 0.004837 0.000000
# 3 0.000863 -0.002280 0.008605 0.000000 -0.019477 0.000000
# 4 0.000000 0.000000 0.000000 0.010916 0.000000 -0.000790
# 5 -0.007713 0.004837 -0.019477 0.000000 0.080271 0.000000
# 6 0.000000 0.000000 0.000000 -0.000790 0.000000 0.013111
#
#
# Mechanical properties :
#
#
# Convention : Reuss Voigt Hill
#
# Bulk Modulus (GPa) = 76.84590 150.25923 113.55256
# Shear Modulus (GPa) = 37.43398 77.49284 57.46341
#
# Velocity S-wave (km/s) = 3.45105 4.96534 4.27576
# Velocity P-wave (km/s) = 6.35046 8.98210 7.77838
#
# Compressibility (1/GPa) = 0.01301306
#
# Stress axis : x y z
#
# Youngs Moduli (GPa) = 172.65079 218.55735 116.20665
#
# Poissons Ratio (x) = 0.34161 -0.10033
# Poissons Ratio (y) = 0.26986 0.26498
# Poissons Ratio (z) = -0.14906 0.49836
#
# Static dielectric constant tensor:
#      x y z
#    x 3.037320 0.000000 -0.003320 
#    y 0.000000 3.247800 0.000000 
#    z -0.003320 0.000000 2.296980 
# 
# From -- ./inp_files/15501.got.cif
#   From: 2010.05.17/outbox.cif.g08.bks.cpg/sg4_8_cif.got.tgz:15501.got - 2010.06.03 18:43:04.
