data_PCOD9118075
_publ_section_title
;
Structure prediction by ZEFSAII (Michael W. Deem and Ramdas Pophale) SiO2 
 PCOD9118075
Probable space group: P 21
;
_chemical_formula_sum "Si O2"
_cell_formula_units_Z 16
_cell_length_a 13.588229
_cell_length_b 9.829273
_cell_length_c 5.126552
_cell_angle_alpha 90.000000
_cell_angle_beta 104.494940
_cell_angle_gamma 90.000000
_cell_volume 662.920013
_symmetry_space_group_name_H-M "P 21"
_symmetry_group_IT_number 4
_symmetry_cell_setting 'monoclinic'
loop_
_space_group_symop_operation_xyz
x,y,z
-x,1/2+y,-z
loop_
_atom_site_type_symbol
_atom_site_label
_atom_site_fract_x
_atom_site_fract_y
_atom_site_fract_z
Si Si1 0.171293 0.159280 0.832003
Si Si2 0.180805 0.812477 0.257468
Si Si3 0.332523 0.949863 0.730891
Si Si4 0.827794 0.135142 0.253822
Si Si5 0.518039 0.343118 0.816228
Si Si6 0.053690 0.073598 0.249571
Si Si7 0.678285 0.903860 0.002677
Si Si8 0.520427 0.070122 0.572414
O O1 0.115894 0.157652 0.513074
O O2 0.251976 0.035511 0.846886
O O3 0.085833 0.132559 0.991327
O O4 0.236985 0.287500 0.974479
O O5 0.277124 0.894205 0.436482
O O6 0.167817 0.689844 0.451016
O O7 0.090542 0.918178 0.251257
O O8 0.186317 0.755247 0.970038
O O9 0.426661 0.041305 0.703014
O O10 0.388316 0.830215 0.925438
O O11 0.936342 0.075177 0.243548
O O12 0.738457 0.026038 0.179003
O O13 0.532713 0.231272 0.600697
O O14 0.515476 0.498241 0.713024
O O15 0.410794 0.333172 0.890430
O O16 0.617833 0.980971 0.729169
#
# Coordination Sequence:
#
# PCOD9118075 Si02
#       8
#     2   2   2   2   2   2   2   2
#     4  11  25  49  76 108 145 194 245 301 375 443
#     4  11  26  48  72 109 141 194 247 299 376 439
#     4  10  24  44  74  98 149 189 247 298 369 447
#     4  12  28  46  77 106 150 188 248 312 371 440
#     4  11  26  46  71 112 149 198 250 306 375 444
#     4  11  27  47  78 106 143 196 243 312 371 447
#     4  11  28  46  70 112 147 195 247 307 373 443
#     4  11  26  42  74 105 150 196 247 305 374 443
#
# _framework density 24.135639999999999
#
# number of rings (size 3 to 8) (size 9 to 14) (size 15 to 20)
#    0.000    1.000    1.250    3.000   15.750    1.000 
#    0.000    0.000    0.000    0.000    0.000    0.000 
#    0.000    0.000    0.000    0.000    0.000    0.000 
#
# Total GULP energy -89523.118367 kJ/mol
# GULP energy per Si atom -5595.194898 kJ/mol
# Density = 2.408071 g / cm^3
# Si number density = 24.135640 Si / 1000 Ang^3
#
#
#
# Elastic Constant Matrix: (Units=GPa)
#
#
# Indices 1 2 3 4 5 6 
#
# 1 66.0604 7.3297 13.4428 0.0000 15.6447 0.0000
# 2 7.3297 59.2763 -6.7493 0.0000 25.7509 0.0000
# 3 13.4428 -6.7493 59.7891 0.0000 6.8437 0.0000
# 4 0.0000 0.0000 0.0000 26.8115 0.0000 -3.0747
# 5 15.6447 25.7509 6.8437 0.0000 32.1186 0.0000
# 6 0.0000 0.0000 0.0000 -3.0747 0.0000 31.3152
#
#
#
# Elastic Compliance Matrix: (Units=1/GPa)
#
#
# Indices 1 2 3 4 5 6 
#
# 1 0.017723 0.001520 -0.002753 0.000000 -0.009265 0.000000
# 2 0.001520 0.027859 0.005581 0.000000 -0.024265 0.000000
# 3 -0.002753 0.005581 0.018791 0.000000 -0.007137 0.000000
# 4 0.000000 0.000000 0.000000 0.037722 0.000000 0.003704
# 5 -0.009265 -0.024265 -0.007137 0.000000 0.056623 0.000000
# 6 0.000000 0.000000 0.000000 0.003704 0.000000 0.032297
#
#
# Mechanical properties :
#
#
# Convention : Reuss Voigt Hill
#
# Bulk Modulus (GPa) = 13.68570 23.68578 18.68574
# Shear Modulus (GPa) = 24.19243 29.45590 26.82417
#
# Velocity S-wave (km/s) = 3.16943 3.49726 3.33737
# Velocity P-wave (km/s) = 4.36765 5.11299 4.75495
#
# Compressibility (1/GPa) = 0.07306899
#
# Stress axis : x y z
#
# Youngs Moduli (GPa) = 56.42278 35.89519 53.21601
#
# Poissons Ratio (x) = -0.05456 0.14649
# Poissons Ratio (y) = -0.08576 -0.29698
# Poissons Ratio (z) = 0.15532 -0.20032
#
# Static dielectric constant tensor:
#      x y z
#    x 1.908710 0.000000 0.006320 
#    y 0.000000 1.931050 0.000000 
#    z 0.006320 0.000000 1.925540 
# 
# From -- ./inp_files/3506.got.cif
#   From: 2010.05.17/outbox.cif.g08.bks.cpg/sg4_2_cif.got.tgz:3506.got - 2010.06.03 18:43:04.
