data_PCOD9118952
_publ_section_title
;
Structure prediction by ZEFSAII (Michael W. Deem and Ramdas Pophale) SiO2 
 PCOD9118952
Probable space group: P 21
;
_chemical_formula_sum "Si O2"
_cell_formula_units_Z 16
_cell_length_a 13.951023
_cell_length_b 6.115150
_cell_length_c 22.631105
_cell_angle_alpha 90.000000
_cell_angle_beta 20.500204
_cell_angle_gamma 90.000000
_cell_volume 676.158263
_symmetry_space_group_name_H-M "P 21"
_symmetry_group_IT_number 4
_symmetry_cell_setting 'monoclinic'
loop_
_space_group_symop_operation_xyz
x,y,z
-x,1/2+y,-z
loop_
_atom_site_type_symbol
_atom_site_label
_atom_site_fract_x
_atom_site_fract_y
_atom_site_fract_z
Si Si1 0.441203 0.223690 0.184677
Si Si2 0.554970 0.352937 0.916104
Si Si3 0.840504 0.952794 0.746201
Si Si4 0.372549 0.526522 0.807451
Si Si5 0.195663 0.863171 0.813702
Si Si6 0.429361 0.757795 0.410642
Si Si7 0.128657 0.062037 0.091320
Si Si8 0.401002 0.448179 0.571374
O O1 0.221878 0.397931 0.286742
O O2 0.434049 0.090865 0.249359
O O3 0.432750 0.060629 0.133714
O O4 0.721784 0.362579 0.027377
O O5 0.838586 0.216677 0.755046
O O6 0.400770 0.396645 0.066865
O O7 0.352296 0.196561 0.996915
O O8 0.110985 0.814130 0.604440
O O9 0.346666 0.721331 0.775822
O O10 0.486940 0.320518 0.704467
O O11 0.060850 0.487541 0.008209
O O12 0.030857 0.728346 0.859096
O O13 0.431486 0.026135 0.654220
O O14 0.574392 0.921827 0.372074
O O15 0.917420 0.961490 0.259705
O O16 0.496810 0.200459 0.498162
#
# Coordination Sequence:
#
# PCOD9118952 Si02
#       8
#     2   2   2   2   2   2   2   2
#     4  11  25  45  73 104 139 201 256 316 377 463
#     4  11  23  45  78 100 146 192 255 317 378 465
#     4  11  26  47  69 108 141 201 257 316 387 453
#     4  12  24  44  73 105 147 196 249 314 388 472
#     4  12  23  46  74 110 152 198 250 318 395 478
#     4  12  28  44  72 110 154 198 253 325 387 468
#     4  11  24  42  74 107 139 194 257 310 388 474
#     4  12  27  45  69 110 156 198 245 322 404 473
#
# _framework density 23.663098999999999
#
# number of rings (size 3 to 8) (size 9 to 14) (size 15 to 20)
#    0.000    0.500    5.000    3.000    3.500    1.000 
#    4.500    0.000    0.000    0.000    0.000    0.000 
#    0.000    0.000    0.000    0.000    0.000    0.000 
#
# Total GULP energy -89187.950942 kJ/mol
# GULP energy per Si atom -5574.246934 kJ/mol
# Density = 2.360924 g / cm^3
# Si number density = 23.663099 Si / 1000 Ang^3
#
#
#
# Elastic Constant Matrix: (Units=GPa)
#
#
# Indices 1 2 3 4 5 6 
#
# 1 97.0471 43.2519 -6.4831 0.0000 8.9970 0.0000
# 2 43.2519 119.7447 38.0432 0.0000 4.9442 0.0000
# 3 -6.4831 38.0432 50.2987 0.0000 -8.0565 0.0000
# 4 0.0000 0.0000 0.0000 39.5228 0.0000 18.3955
# 5 8.9970 4.9442 -8.0565 0.0000 24.5244 0.0000
# 6 0.0000 0.0000 0.0000 18.3955 0.0000 30.9365
#
#
#
# Elastic Compliance Matrix: (Units=1/GPa)
#
#
# Indices 1 2 3 4 5 6 
#
# 1 0.014181 -0.007341 0.007160 0.000000 -0.001370 0.000000
# 2 -0.007341 0.015465 -0.013417 0.000000 -0.004832 0.000000
# 3 0.007160 -0.013417 0.032684 0.000000 0.010815 0.000000
# 4 0.000000 0.000000 0.000000 0.034984 0.000000 -0.020802
# 5 -0.001370 -0.004832 0.010815 0.000000 0.045805 0.000000
# 6 0.000000 0.000000 0.000000 -0.020802 0.000000 0.044694
#
#
# Mechanical properties :
#
#
# Convention : Reuss Voigt Hill
#
# Bulk Modulus (GPa) = 28.46080 46.30161 37.38120
# Shear Modulus (GPa) = 22.05375 31.81532 26.93454
#
# Velocity S-wave (km/s) = 3.05616 3.67074 3.37746
# Velocity P-wave (km/s) = 4.95047 6.12986 5.57146
#
# Compressibility (1/GPa) = 0.03513605
#
# Stress axis : x y z
#
# Youngs Moduli (GPa) = 70.51595 64.66405 30.59593
#
# Poissons Ratio (x) = 0.47467 -0.21908
# Poissons Ratio (y) = 0.51762 0.41050
# Poissons Ratio (z) = -0.50492 0.86758
#
# Static dielectric constant tensor:
#      x y z
#    x 1.958740 0.000000 0.020830 
#    y 0.000000 2.108220 0.000000 
#    z 0.020830 0.000000 1.988370 
# 
# From -- ./inp_files/16127.got.cif
#   From: 2010.05.17/outbox.cif.g08.bks.cpg/sg4_9_cif.got.tgz:16127.got - 2010.06.03 18:43:04.
