data_PCOD9118130
_publ_section_title
;
Structure prediction by ZEFSAII (Michael W. Deem and Ramdas Pophale) SiO2 
 PCOD9118130
Probable space group: P 21
;
_chemical_formula_sum "Si O2"
_cell_formula_units_Z 16
_cell_length_a 17.459177
_cell_length_b 7.476762
_cell_length_c 6.247216
_cell_angle_alpha 90.000000
_cell_angle_beta 121.825804
_cell_angle_gamma 90.000000
_cell_volume 692.893695
_symmetry_space_group_name_H-M "P 21"
_symmetry_group_IT_number 4
_symmetry_cell_setting 'monoclinic'
loop_
_space_group_symop_operation_xyz
x,y,z
-x,1/2+y,-z
loop_
_atom_site_type_symbol
_atom_site_label
_atom_site_fract_x
_atom_site_fract_y
_atom_site_fract_z
Si Si1 0.122080 0.269250 0.770819
Si Si2 0.978158 0.246937 0.910369
Si Si3 0.129028 0.080123 0.364506
Si Si4 0.289712 0.346930 0.329424
Si Si5 0.175441 0.541322 0.502978
Si Si6 0.397767 0.049483 0.245219
Si Si7 0.407845 0.695695 0.532459
Si Si8 0.291366 0.891300 0.702302
O O1 0.131274 0.100352 0.624545
O O2 0.131039 0.445042 0.638468
O O3 0.029128 0.251937 0.758508
O O4 0.203371 0.292631 0.058688
O O5 0.924215 0.429550 0.844500
O O6 0.897800 0.103291 0.781290
O O7 0.058174 0.234211 0.197910
O O8 0.231997 0.025958 0.467382
O O9 0.245846 0.401558 0.496965
O O10 0.340618 0.536726 0.357376
O O11 0.361657 0.194865 0.364905
O O12 0.224190 0.724474 0.651393
O O13 0.411281 0.856670 0.370707
O O14 0.492780 0.117364 0.294084
O O15 0.329422 0.008290 0.951349
O O16 0.369862 0.790700 0.689300
#
# Coordination Sequence:
#
# PCOD9118130 Si02
#       8
#     2   2   2   2   2   2   2   2
#     4  12  22  39  68  97 135 183 234 290 352 433
#     4  11  24  41  64  98 135 183 232 294 354 423
#     4  11  23  40  63  95 135 179 234 283 356 423
#     4  11  24  45  71 106 141 191 236 297 364 432
#     4  10  24  46  69 102 141 182 242 296 363 432
#     4  12  24  47  73 107 141 193 241 299 371 431
#     4  11  26  46  73 106 147 185 242 303 361 440
#     4  10  25  46  69 101 141 186 235 302 359 436
#
# _framework density 23.091563000000001
#
# number of rings (size 3 to 8) (size 9 to 14) (size 15 to 20)
#    0.000    1.000    2.500    3.750    3.500    1.000 
#    4.500    3.750    0.000    0.000    0.000    0.000 
#    0.000    0.000    0.000    0.000    0.000    0.000 
#
# Total GULP energy -89237.517693 kJ/mol
# GULP energy per Si atom -5577.344856 kJ/mol
# Density = 2.303901 g / cm^3
# Si number density = 23.091563 Si / 1000 Ang^3
#
#
#
# Elastic Constant Matrix: (Units=GPa)
#
#
# Indices 1 2 3 4 5 6 
#
# 1 92.8330 21.9140 17.3417 0.0000 14.1615 0.0000
# 2 21.9140 119.7256 32.1461 0.0000 18.1917 0.0000
# 3 17.3417 32.1461 77.5706 0.0000 10.8918 0.0000
# 4 0.0000 0.0000 0.0000 39.1097 0.0000 1.5604
# 5 14.1615 18.1917 10.8918 0.0000 26.2377 0.0000
# 6 0.0000 0.0000 0.0000 1.5604 0.0000 34.2244
#
#
#
# Elastic Compliance Matrix: (Units=1/GPa)
#
#
# Indices 1 2 3 4 5 6 
#
# 1 0.012091 -0.001008 -0.001558 0.000000 -0.005181 0.000000
# 2 -0.001008 0.010202 -0.003277 0.000000 -0.005169 0.000000
# 3 -0.001558 -0.003277 0.015037 0.000000 -0.003129 0.000000
# 4 0.000000 0.000000 0.000000 0.025616 0.000000 -0.001168
# 5 -0.005181 -0.005169 -0.003129 0.000000 0.045793 0.000000
# 6 0.000000 0.000000 0.000000 -0.001168 0.000000 0.029272
#
#
# Mechanical properties :
#
#
# Convention : Reuss Voigt Hill
#
# Bulk Modulus (GPa) = 38.99312 48.10364 43.54838
# Shear Modulus (GPa) = 31.59671 34.49621 33.04646
#
# Velocity S-wave (km/s) = 3.70310 3.86928 3.78710
# Velocity P-wave (km/s) = 5.93354 6.39051 6.16626
#
# Compressibility (1/GPa) = 0.02564555
#
# Stress axis : x y z
#
# Youngs Moduli (GPa) = 82.70436 98.01870 66.50209
#
# Poissons Ratio (x) = 0.09876 0.10362
# Poissons Ratio (y) = 0.08333 0.21791
# Poissons Ratio (z) = 0.12886 0.32118
#
# Static dielectric constant tensor:
#      x y z
#    x 1.914210 0.000000 -0.026410 
#    y 0.000000 2.047780 0.000000 
#    z -0.026410 0.000000 1.847460 
# 
# From -- ./inp_files/4133.got.cif
#   From: 2010.05.17/outbox.cif.g08.bks.cpg/sg4_3_cif.got.tgz:4133.got - 2010.06.03 18:43:04.
