data_PCOD9118277
_publ_section_title
;
Structure prediction by ZEFSAII (Michael W. Deem and Ramdas Pophale) SiO2 
 PCOD9118277
Probable space group: P 21
;
_chemical_formula_sum "Si O2"
_cell_formula_units_Z 16
_cell_length_a 9.043261
_cell_length_b 5.177086
_cell_length_c 13.178023
_cell_angle_alpha 90.000000
_cell_angle_beta 71.746303
_cell_angle_gamma 90.000000
_cell_volume 585.918894
_symmetry_space_group_name_H-M "P 21"
_symmetry_group_IT_number 4
_symmetry_cell_setting 'monoclinic'
loop_
_space_group_symop_operation_xyz
x,y,z
-x,1/2+y,-z
loop_
_atom_site_type_symbol
_atom_site_label
_atom_site_fract_x
_atom_site_fract_y
_atom_site_fract_z
Si Si1 0.287269 0.515100 0.569376
Si Si2 0.561822 0.593228 0.785854
Si Si3 0.549632 0.397683 0.357563
Si Si4 0.398781 0.760296 0.051925
Si Si5 0.056643 0.797242 0.130979
Si Si6 0.134472 0.308406 0.227149
Si Si7 0.715913 0.789719 0.202183
Si Si8 0.930935 0.679406 0.528882
O O1 0.441358 0.529854 0.464244
O O2 0.297212 0.797900 0.617939
O O3 0.275088 0.364651 0.679987
O O4 0.170462 0.358939 0.523739
O O5 0.556094 0.665116 0.667914
O O6 0.633530 0.337518 0.822665
O O7 0.677167 0.797646 0.814413
O O8 0.380591 0.509608 0.835243
O O9 0.604637 0.542718 0.243440
O O10 0.224048 0.741564 0.044067
O O11 0.515269 0.524204 0.005382
O O12 0.060904 0.582994 0.219394
O O13 0.886646 0.753867 0.119219
O O14 0.065273 0.092317 0.166990
O O15 0.104488 0.216242 0.346364
O O16 0.917414 0.373205 0.512032
#
# Coordination Sequence:
#
# PCOD9118277 Si02
#       8
#     2   2   2   2   2   2   2   2
#     4  11  23  39  59  93 138 197 245 291 328 405
#     4  10  25  43  72 103 133 190 239 294 360 438
#     4  11  23  40  65  94 144 194 254 286 343 408
#     4  11  25  50  81 110 136 175 233 296 376 464
#     4  11  26  46  72 106 144 184 230 305 377 430
#     4  11  23  44  66  98 140 191 242 291 355 426
#     4  11  25  42  67  99 147 194 243 296 354 415
#     4  12  26  38  60  91 134 187 246 303 343 394
#
# _framework density 27.307534
#
# number of rings (size 3 to 8) (size 9 to 14) (size 15 to 20)
#    0.000    1.000    2.500    3.750   12.250    1.000 
#    0.000    1.250    0.000    0.000    0.000    0.000 
#    0.000    0.000    0.000    0.000    0.000    0.000 
#
# Total GULP energy -89068.042546 kJ/mol
# GULP energy per Si atom -5566.752659 kJ/mol
# Density = 2.724538 g / cm^3
# Si number density = 27.307534 Si / 1000 Ang^3
#
#
#
# Elastic Constant Matrix: (Units=GPa)
#
#
# Indices 1 2 3 4 5 6 
#
# 1 105.2385 6.4233 -13.0723 0.0000 -16.4738 0.0000
# 2 6.4233 84.4232 21.6029 0.0000 -21.6769 0.0000
# 3 -13.0723 21.6029 68.1139 0.0000 -14.7667 0.0000
# 4 0.0000 0.0000 0.0000 36.3044 0.0000 -7.8349
# 5 -16.4738 -21.6769 -14.7667 0.0000 37.5007 0.0000
# 6 0.0000 0.0000 0.0000 -7.8349 0.0000 26.8775
#
#
#
# Elastic Compliance Matrix: (Units=1/GPa)
#
#
# Indices 1 2 3 4 5 6 
#
# 1 0.010888 -0.000158 0.003451 0.000000 0.006051 0.000000
# 2 -0.000158 0.014463 -0.003083 0.000000 0.007077 0.000000
# 3 0.003451 -0.003083 0.017782 0.000000 0.006736 0.000000
# 4 0.000000 0.000000 0.000000 0.029394 0.000000 0.008569
# 5 0.006051 0.007077 0.006736 0.000000 0.036067 0.000000
# 6 0.000000 0.000000 0.000000 0.008569 0.000000 0.039704
#
#
# Mechanical properties :
#
#
# Convention : Reuss Voigt Hill
#
# Bulk Modulus (GPa) = 22.96040 31.96480 27.46260
# Shear Modulus (GPa) = 30.78912 36.32463 33.55688
#
# Velocity S-wave (km/s) = 3.36146 3.65115 3.50930
# Velocity P-wave (km/s) = 4.84688 5.43189 5.14770
#
# Compressibility (1/GPa) = 0.04355324
#
# Stress axis : x y z
#
# Youngs Moduli (GPa) = 91.84632 69.14137 56.23702
#
# Poissons Ratio (x) = 0.01092 -0.19410
# Poissons Ratio (y) = 0.01451 0.17339
# Poissons Ratio (z) = -0.31700 0.21318
#
# Static dielectric constant tensor:
#      x y z
#    x 2.419680 0.000000 -0.105880 
#    y 0.000000 2.447950 0.000000 
#    z -0.105880 0.000000 2.174210 
# 
# From -- ./inp_files/13588.got.cif
#   From: 2010.05.17/outbox.cif.g08.bks.cpg/sg4_7_cif.got.tgz:13588.got - 2010.06.03 18:43:04.
