data_PCOD9118934
_publ_section_title
;
Structure prediction by ZEFSAII (Michael W. Deem and Ramdas Pophale) SiO2 
 PCOD9118934
Probable space group: P 21
;
_chemical_formula_sum "Si O2"
_cell_formula_units_Z 16
_cell_length_a 11.127970
_cell_length_b 8.158015
_cell_length_c 13.692134
_cell_angle_alpha 90.000000
_cell_angle_beta 147.180684
_cell_angle_gamma 90.000000
_cell_volume 673.696217
_symmetry_space_group_name_H-M "P 21"
_symmetry_group_IT_number 4
_symmetry_cell_setting 'monoclinic'
loop_
_space_group_symop_operation_xyz
x,y,z
-x,1/2+y,-z
loop_
_atom_site_type_symbol
_atom_site_label
_atom_site_fract_x
_atom_site_fract_y
_atom_site_fract_z
Si Si1 0.264759 0.077230 0.637740
Si Si2 0.910828 0.713610 0.979825
Si Si3 0.659175 0.731989 0.510898
Si Si4 0.737522 0.081093 0.274713
Si Si5 0.603719 0.236112 0.368225
Si Si6 0.927378 0.363892 0.098216
Si Si7 0.758875 0.369726 0.664716
Si Si8 0.482087 0.775077 0.042834
O O1 0.339744 0.201264 0.603457
O O2 0.390971 0.121814 0.822314
O O3 0.000588 0.094420 0.462921
O O4 0.326937 0.897610 0.643733
O O5 0.930351 0.538829 0.046042
O O6 0.009368 0.846350 0.122691
O O7 0.654279 0.744687 0.780810
O O8 0.045281 0.733174 0.971204
O O9 0.702226 0.551157 0.587817
O O10 0.431800 0.810667 0.391785
O O11 0.860642 0.841700 0.687093
O O12 0.644232 0.089662 0.320898
O O13 0.666396 0.916364 0.170668
O O14 0.626266 0.222286 0.132747
O O15 0.743976 0.247021 0.562483
O O16 0.713781 0.332872 0.018591
#
# Coordination Sequence:
#
# PCOD9118934 Si02
#       8
#     2   2   2   2   2   2   2   2
#     4  11  26  45  74 100 140 187 236 298 350 422
#     4  12  26  44  74 103 147 186 232 295 367 428
#     4  11  23  45  71 106 143 182 236 288 363 427
#     4  12  26  50  70 106 137 192 239 297 347 419
#     4  11  26  46  68 105 140 181 242 285 355 423
#     4  12  25  47  72 109 143 186 235 297 359 435
#     4  11  25  42  71 104 144 186 225 295 354 433
#     4  12  27  47  76 101 146 186 243 293 355 419
#
# _framework density 23.749578
#
# number of rings (size 3 to 8) (size 9 to 14) (size 15 to 20)
#    0.000    0.500    3.750    3.750    5.250    5.000 
#    2.250    0.000    0.000    0.000    0.000    0.000 
#    0.000    0.000    0.000    0.000    0.000    0.000 
#
# Total GULP energy -89680.647882 kJ/mol
# GULP energy per Si atom -5605.040493 kJ/mol
# Density = 2.369552 g / cm^3
# Si number density = 23.749578 Si / 1000 Ang^3
#
#
#
# Elastic Constant Matrix: (Units=GPa)
#
#
# Indices 1 2 3 4 5 6 
#
# 1 62.2084 -16.5816 25.6594 0.0000 2.6846 0.0000
# 2 -16.5816 42.2265 33.8753 0.0000 17.1776 0.0000
# 3 25.6594 33.8753 28.0785 0.0000 -38.5966 0.0000
# 4 0.0000 0.0000 0.0000 40.4229 0.0000 -6.0178
# 5 2.6846 17.1776 -38.5966 0.0000 11.6795 0.0000
# 6 0.0000 0.0000 0.0000 -6.0178 0.0000 28.3523
#
#
#
# Elastic Compliance Matrix: (Units=1/GPa)
#
#
# Indices 1 2 3 4 5 6 
#
# 1 0.013816 -0.001518 0.003413 0.000000 0.010336 0.000000
# 2 -0.001518 0.010211 0.008778 0.000000 0.014339 0.000000
# 3 0.003413 0.008778 -0.000870 0.000000 -0.016568 0.000000
# 4 0.000000 0.000000 0.000000 0.025546 0.000000 0.005422
# 5 0.010336 0.014339 -0.016568 0.000000 0.007403 0.000000
# 6 0.000000 0.000000 0.000000 0.005422 0.000000 0.036421
#
#
# Mechanical properties :
#
#
# Convention : Reuss Voigt Hill
#
# Bulk Modulus (GPa) = 22.46935 24.26883 23.36909
# Shear Modulus (GPa) = 58.12865 22.06164 40.09514
#
# Velocity S-wave (km/s) = 4.95265 3.05114 4.11329
# Velocity P-wave (km/s) = 6.49512 4.75956 5.69385
#
# Compressibility (1/GPa) = 0.04450508
#
# Stress axis : x y z
#
# Youngs Moduli (GPa) = 72.37754 97.93353 -1149.97017
#
# Poissons Ratio (x) = 0.14863 3.92533
# Poissons Ratio (y) = 0.10985 10.09430
# Poissons Ratio (z) = -0.24705 -0.85965
#
# Static dielectric constant tensor:
#      x y z
#    x 1.864060 0.000000 -0.012390 
#    y 0.000000 1.942810 0.000000 
#    z -0.012390 0.000000 1.852830 
# 
# From -- ./inp_files/12648.got.cif
#   From: 2010.05.17/outbox.cif.g08.bks.cpg/sg4_7_cif.got.tgz:12648.got - 2010.06.03 18:43:04.
