data_PCOD9118852
_publ_section_title
;
Structure prediction by ZEFSAII (Michael W. Deem and Ramdas Pophale) SiO2 
 PCOD9118852
Probable space group: P 21
;
_chemical_formula_sum "Si O2"
_cell_formula_units_Z 16
_cell_length_a 16.672845
_cell_length_b 9.869948
_cell_length_c 11.207106
_cell_angle_alpha 90.000000
_cell_angle_beta 18.304920
_cell_angle_gamma 90.000000
_cell_volume 579.228627
_symmetry_space_group_name_H-M "P 21"
_symmetry_group_IT_number 4
_symmetry_cell_setting 'monoclinic'
loop_
_space_group_symop_operation_xyz
x,y,z
-x,1/2+y,-z
loop_
_atom_site_type_symbol
_atom_site_label
_atom_site_fract_x
_atom_site_fract_y
_atom_site_fract_z
Si Si1 0.211904 0.953400 0.638840
Si Si2 0.927572 0.848916 0.840039
Si Si3 0.611263 0.730582 0.086252
Si Si4 0.779610 0.878416 0.419961
Si Si5 0.818525 0.249241 0.013842
Si Si6 0.310930 0.630593 0.305349
Si Si7 0.621793 0.177326 0.066183
Si Si8 0.472610 0.013462 0.604226
O O1 0.352477 0.814863 0.479333
O O2 0.151037 0.944361 0.582236
O O3 0.417228 0.063071 0.386384
O O4 0.953464 0.959474 0.080099
O O5 0.043312 0.704983 0.719312
O O6 0.833623 0.821055 0.836461
O O7 0.690984 0.911218 0.244673
O O8 0.552088 0.701571 0.030594
O O9 0.600131 0.586028 0.167644
O O10 0.532380 0.817041 0.706358
O O11 0.695933 0.977382 0.642725
O O12 0.936452 0.749091 0.247910
O O13 0.853472 0.191919 0.830445
O O14 0.585661 0.153033 0.384681
O O15 0.760622 0.410899 0.093669
O O16 0.313568 0.650053 0.161089
#
# Coordination Sequence:
#
# PCOD9118852 Si02
#       8
#     2   2   2   2   2   2   2   2
#     4  11  25  44  77 110 144 192 257 317 372 442
#     4  11  23  42  74 103 147 196 244 295 385 446
#     4  11  23  45  74 110 153 194 248 314 373 445
#     4  12  26  46  77 110 147 195 262 309 388 450
#     4  12  25  45  76 114 149 196 251 322 384 451
#     4  11  29  47  71 108 155 206 244 311 376 465
#     4  12  29  49  72 109 156 195 254 313 379 460
#     4  12  22  44  77 114 147 186 250 327 379 439
#
# _framework density 27.622942999999999
#
# number of rings (size 3 to 8) (size 9 to 14) (size 15 to 20)
#    0.000    0.500    2.500    5.250    8.750    1.000 
#    2.250    0.000    0.000    0.000    0.000    0.000 
#    0.000    0.000    0.000    0.000    0.000    0.000 
#
# Total GULP energy -89317.911803 kJ/mol
# GULP energy per Si atom -5582.369488 kJ/mol
# Density = 2.756007 g / cm^3
# Si number density = 27.622943 Si / 1000 Ang^3
#
#
#
# Elastic Constant Matrix: (Units=GPa)
#
#
# Indices 1 2 3 4 5 6 
#
# 1 180.7089 6.3268 14.5409 0.0000 -13.4907 0.0000
# 2 6.3268 116.2456 18.7884 0.0000 9.5000 0.0000
# 3 14.5409 18.7884 57.0621 0.0000 -6.5904 0.0000
# 4 0.0000 0.0000 0.0000 29.7158 0.0000 -5.3140
# 5 -13.4907 9.5000 -6.5904 0.0000 44.4774 0.0000
# 6 0.0000 0.0000 0.0000 -5.3140 0.0000 48.5451
#
#
#
# Elastic Compliance Matrix: (Units=1/GPa)
#
#
# Indices 1 2 3 4 5 6 
#
# 1 0.005760 -0.000253 -0.001197 0.000000 0.001624 0.000000
# 2 -0.000253 0.009362 -0.003315 0.000000 -0.002567 0.000000
# 3 -0.001197 -0.003315 0.019291 0.000000 0.003203 0.000000
# 4 0.000000 0.000000 0.000000 0.034324 0.000000 0.003757
# 5 0.001624 -0.002567 0.003203 0.000000 0.023999 0.000000
# 6 0.000000 0.000000 0.000000 0.003757 0.000000 0.021011
#
#
# Mechanical properties :
#
#
# Convention : Reuss Voigt Hill
#
# Bulk Modulus (GPa) = 40.18603 48.14764 44.16683
# Shear Modulus (GPa) = 38.00250 45.50503 41.75377
#
# Velocity S-wave (km/s) = 3.71315 4.06318 3.89210
# Velocity P-wave (km/s) = 5.74133 6.28337 6.01845
#
# Compressibility (1/GPa) = 0.02488427
#
# Stress axis : x y z
#
# Youngs Moduli (GPa) = 173.60642 106.81729 51.83715
#
# Poissons Ratio (x) = 0.02699 0.06205
# Poissons Ratio (y) = 0.04387 0.17182
# Poissons Ratio (z) = 0.20782 0.35406
#
# Static dielectric constant tensor:
#      x y z
#    x 2.306610 0.000000 -0.023690 
#    y 0.000000 2.136370 0.000000 
#    z -0.023690 0.000000 2.189380 
# 
# From -- ./inp_files/12903.got.cif
#   From: 2010.05.17/outbox.cif.g08.bks.cpg/sg4_7_cif.got.tgz:12903.got - 2010.06.03 18:43:04.
