data_PCOD9118475
_publ_section_title
;
Structure prediction by ZEFSAII (Michael W. Deem and Ramdas Pophale) SiO2 
 PCOD9118475
Probable space group: P 21
;
_chemical_formula_sum "Si O2"
_cell_formula_units_Z 16
_cell_length_a 9.679769
_cell_length_b 13.563026
_cell_length_c 8.899873
_cell_angle_alpha 90.000000
_cell_angle_beta 30.484612
_cell_angle_gamma 90.000000
_cell_volume 592.756325
_symmetry_space_group_name_H-M "P 21"
_symmetry_group_IT_number 4
_symmetry_cell_setting 'monoclinic'
loop_
_space_group_symop_operation_xyz
x,y,z
-x,1/2+y,-z
loop_
_atom_site_type_symbol
_atom_site_label
_atom_site_fract_x
_atom_site_fract_y
_atom_site_fract_z
Si Si1 0.988436 0.391040 0.787004
Si Si2 0.404364 0.578708 0.009132
Si Si3 0.966848 0.582841 0.643222
Si Si4 0.807628 0.155661 0.257282
Si Si5 0.447438 0.270936 0.253165
Si Si6 0.743166 0.536766 0.268907
Si Si7 0.779173 0.853315 0.844030
Si Si8 0.664855 0.347012 0.522949
O O1 0.057638 0.470149 0.591504
O O2 0.252394 0.322835 0.558031
O O3 0.735363 0.324476 0.981270
O O4 0.886876 0.462955 0.013830
O O5 0.502139 0.653781 0.787847
O O6 0.652839 0.577080 0.894513
O O7 0.143412 0.622860 0.339850
O O8 0.319306 0.467165 0.055345
O O9 0.038814 0.639835 0.727197
O O10 0.741153 0.271037 0.318717
O O11 0.530801 0.091992 0.524471
O O12 0.014309 0.115708 0.937052
O O13 0.310298 0.296306 0.220882
O O14 0.661162 0.459151 0.471787
O O15 0.097946 0.846568 0.574900
O O16 0.612416 0.810414 0.142394
#
# Coordination Sequence:
#
# PCOD9118475 Si02
#       8
#     2   2   2   2   2   2   2   2
#     4  11  21  41  65  92 131 171 227 282 329 390
#     4  12  23  38  63  99 139 176 214 270 354 408
#     4  11  19  39  65  93 132 173 222 278 311 409
#     4  11  23  44  74 103 124 187 241 277 338 400
#     4  12  23  40  65 101 133 177 221 271 348 417
#     4  11  25  46  71  99 132 179 235 293 332 398
#     4  12  24  43  67 101 142 181 217 286 346 408
#     4  12  26  47  70 100 141 180 229 285 346 410
#
# _framework density 26.992540999999999
#
# number of rings (size 3 to 8) (size 9 to 14) (size 15 to 20)
#    0.000    0.500    2.500    8.250    0.000    0.000 
#    6.750    0.000    0.000    0.000    0.000    0.000 
#    0.000    0.000    0.000    0.000    0.000    0.000 
#
# Total GULP energy -89767.633224 kJ/mol
# GULP energy per Si atom -5610.477076 kJ/mol
# Density = 2.693111 g / cm^3
# Si number density = 26.992541 Si / 1000 Ang^3
#
#
#
# Elastic Constant Matrix: (Units=GPa)
#
#
# Indices 1 2 3 4 5 6 
#
# 1 45.8272 21.6214 18.0620 0.0000 -4.8605 0.0000
# 2 21.6214 178.2893 29.5592 0.0000 -12.8751 0.0000
# 3 18.0620 29.5592 142.3042 0.0000 -7.2037 0.0000
# 4 0.0000 0.0000 0.0000 52.0299 0.0000 3.7209
# 5 -4.8605 -12.8751 -7.2037 0.0000 43.9513 0.0000
# 6 0.0000 0.0000 0.0000 3.7209 0.0000 38.8007
#
#
#
# Elastic Compliance Matrix: (Units=1/GPa)
#
#
# Indices 1 2 3 4 5 6 
#
# 1 0.024096 -0.002398 -0.002481 0.000000 0.001555 0.000000
# 2 -0.002398 0.006150 -0.000903 0.000000 0.001388 0.000000
# 3 -0.002481 -0.000903 0.007565 0.000000 0.000701 0.000000
# 4 0.000000 0.000000 0.000000 0.019352 0.000000 -0.001856
# 5 0.001555 0.001388 0.000701 0.000000 0.023446 0.000000
# 6 0.000000 0.000000 0.000000 -0.001856 0.000000 0.025951
#
#
# Mechanical properties :
#
#
# Convention : Reuss Voigt Hill
#
# Bulk Modulus (GPa) = 38.10188 56.10065 47.10127
# Shear Modulus (GPa) = 39.40945 46.76825 43.08885
#
# Velocity S-wave (km/s) = 3.82516 4.16701 3.99974
# Velocity P-wave (km/s) = 5.80133 6.63181 6.23042
#
# Compressibility (1/GPa) = 0.02624542
#
# Stress axis : x y z
#
# Youngs Moduli (GPa) = 41.50127 162.61134 132.18503
#
# Poissons Ratio (x) = 0.39000 0.32801
# Poissons Ratio (y) = 0.09954 0.11932
# Poissons Ratio (z) = 0.10298 0.14679
#
# Static dielectric constant tensor:
#      x y z
#    x 2.128680 0.000000 0.079880 
#    y 0.000000 2.139760 0.000000 
#    z 0.079880 0.000000 2.047880 
# 
# From -- ./inp_files/12350.got.cif
#   From: 2010.05.17/outbox.cif.g08.bks.cpg/sg4_7_cif.got.tgz:12350.got - 2010.06.03 18:43:04.
