data_PCOD9118869
_publ_section_title
;
Structure prediction by ZEFSAII (Michael W. Deem and Ramdas Pophale) SiO2 
 PCOD9118869
Probable space group: P 21
;
_chemical_formula_sum "Si O2"
_cell_formula_units_Z 14
_cell_length_a 11.571693
_cell_length_b 9.250832
_cell_length_c 5.463124
_cell_angle_alpha 90.000000
_cell_angle_beta 77.567981
_cell_angle_gamma 90.000000
_cell_volume 571.102662
_symmetry_space_group_name_H-M "P 21"
_symmetry_group_IT_number 4
_symmetry_cell_setting 'monoclinic'
loop_
_space_group_symop_operation_xyz
x,y,z
-x,1/2+y,-z
loop_
_atom_site_type_symbol
_atom_site_label
_atom_site_fract_x
_atom_site_fract_y
_atom_site_fract_z
Si Si1 0.894803 0.444910 0.658642
Si Si2 0.554436 0.249919 0.223258
Si Si3 0.210686 0.198249 0.030908
Si Si4 0.216902 0.709328 0.600214
Si Si5 0.033654 0.720619 0.041884
Si Si6 0.466644 0.094233 0.765647
Si Si7 0.151133 0.479513 0.317922
O O1 0.838453 0.599767 0.725392
O O2 0.796751 0.345877 0.570621
O O3 0.922724 0.380672 0.915034
O O4 0.024491 0.425148 0.479178
O O5 0.693768 0.242127 0.223995
O O6 0.500806 0.166375 0.487400
O O7 0.518269 0.419725 0.236774
O O8 0.527683 0.171868 0.975851
O O9 0.217597 0.359361 0.132641
O O10 0.328629 0.131295 0.872632
O O11 0.105361 0.204657 0.881611
O O12 0.241421 0.555721 0.463641
O O13 0.083146 0.685673 0.754027
O O14 0.103410 0.611950 0.179909
#
# Coordination Sequence:
#
# PCOD9118869 Si02
#       7
#     2   2   2   2   2   2   2
#     4  11  23  44  68 113 156 200 253 314 409 484
#     4  12  31  58  84 119 158 221 282 346 410 480
#     4  12  25  45  76 115 155 201 270 327 402 483
#     4  11  26  46  77 105 158 204 250 329 404 478
#     4  11  23  43  70 109 152 198 249 317 402 483
#     4  12  32  56  87 117 162 218 285 346 407 484
#     4  11  24  42  70 116 155 200 249 323 402 496
#
# _framework density 24.513981999999999
#
# number of rings (size 3 to 8) (size 9 to 14) (size 15 to 20)
#    0.000    0.571    2.857    3.429   12.000    2.286 
#    0.000    0.000    0.000    0.000    0.000    0.000 
#    0.000    0.000    0.000    0.000    0.000    0.000 
#
# Total GULP energy -78282.547418 kJ/mol
# GULP energy per Si atom -5591.610530 kJ/mol
# Density = 2.445819 g / cm^3
# Si number density = 24.513982 Si / 1000 Ang^3
#
#
#
# Elastic Constant Matrix: (Units=GPa)
#
#
# Indices 1 2 3 4 5 6 
#
# 1 106.3885 31.9873 25.3851 0.0000 10.4094 0.0000
# 2 31.9873 137.8562 42.2676 0.0000 19.8048 0.0000
# 3 25.3851 42.2676 96.0307 0.0000 3.9325 0.0000
# 4 0.0000 0.0000 0.0000 35.2706 0.0000 -2.9065
# 5 10.4094 19.8048 3.9325 0.0000 39.0187 0.0000
# 6 0.0000 0.0000 0.0000 -2.9065 0.0000 27.0781
#
#
#
# Elastic Compliance Matrix: (Units=1/GPa)
#
#
# Indices 1 2 3 4 5 6 
#
# 1 0.010529 -0.001563 -0.002021 0.000000 -0.001812 0.000000
# 2 -0.001563 0.009254 -0.003499 0.000000 -0.003927 0.000000
# 3 -0.002021 -0.003499 0.012444 0.000000 0.001061 0.000000
# 4 0.000000 0.000000 0.000000 0.028605 0.000000 0.003070
# 5 -0.001812 -0.003927 0.001061 0.000000 0.027999 0.000000
# 6 0.000000 0.000000 0.000000 0.003070 0.000000 0.037260
#
#
# Mechanical properties :
#
#
# Convention : Reuss Voigt Hill
#
# Bulk Modulus (GPa) = 55.36923 59.95060 57.65991
# Shear Modulus (GPa) = 34.18177 36.31585 35.24881
#
# Velocity S-wave (km/s) = 3.73819 3.85312 3.79609
# Velocity P-wave (km/s) = 6.42401 6.65613 6.54110
#
# Compressibility (1/GPa) = 0.01806057
#
# Stress axis : x y z
#
# Youngs Moduli (GPa) = 94.97572 108.06580 80.35883
#
# Poissons Ratio (x) = 0.16892 0.16241
# Poissons Ratio (y) = 0.14846 0.28117
# Poissons Ratio (z) = 0.19195 0.37811
#
# Static dielectric constant tensor:
#      x y z
#    x 1.922430 0.000000 -0.012890 
#    y 0.000000 1.975020 0.000000 
#    z -0.012890 0.000000 2.045700 
# 
# From -- ./inp_files/2425.got.cif
#   From: 2010.05.17/outbox.cif.g08.bks.cpg/sg4_2_cif.got.tgz:2425.got - 2010.06.03 18:43:04.
