data_PCOD9118676
_publ_section_title
;
Structure prediction by ZEFSAII (Michael W. Deem and Ramdas Pophale) SiO2 
 PCOD9118676
Probable space group: P 21
;
_chemical_formula_sum "Si O2"
_cell_formula_units_Z 16
_cell_length_a 9.811653
_cell_length_b 5.616605
_cell_length_c 13.999691
_cell_angle_alpha 90.000000
_cell_angle_beta 112.479632
_cell_angle_gamma 90.000000
_cell_volume 712.875642
_symmetry_space_group_name_H-M "P 21"
_symmetry_group_IT_number 4
_symmetry_cell_setting 'monoclinic'
loop_
_space_group_symop_operation_xyz
x,y,z
-x,1/2+y,-z
loop_
_atom_site_type_symbol
_atom_site_label
_atom_site_fract_x
_atom_site_fract_y
_atom_site_fract_z
Si Si1 0.875754 0.040010 0.050538
Si Si2 0.334216 0.812214 0.872163
Si Si3 0.082201 0.782793 0.663257
Si Si4 0.337890 0.149313 0.054198
Si Si5 0.177695 0.854391 0.143548
Si Si6 0.856766 0.425480 0.535517
Si Si7 0.191774 0.523548 0.325520
Si Si8 0.588551 0.702635 0.528652
O O1 0.752158 0.102320 0.095533
O O2 0.880647 0.238759 0.970731
O O3 0.035826 0.005008 0.138283
O O4 0.804547 0.814769 0.979387
O O5 0.242493 0.821516 0.750554
O O6 0.505307 0.773312 0.900259
O O7 0.325700 0.021596 0.947979
O O8 0.089993 0.868926 0.556198
O O9 0.998212 0.529876 0.630283
O O10 0.972467 0.926560 0.703247
O O11 0.322040 0.983073 0.142659
O O12 0.210596 0.669696 0.234668
O O13 0.794729 0.201602 0.579276
O O14 0.722758 0.617830 0.495110
O O15 0.310938 0.310360 0.358995
O O16 0.501272 0.449430 0.523367
#
# Coordination Sequence:
#
# PCOD9118676 Si02
#       8
#     2   2   2   2   2   2   2   2
#     4  11  22  42  68  99 144 185 241 298 369 446
#     4  11  24  44  70  99 145 192 237 302 380 442
#     4  11  24  43  73 106 139 193 251 313 384 449
#     4  11  23  44  67 103 145 182 242 305 362 458
#     4  11  24  41  70 105 137 191 242 302 371 447
#     4  11  23  46  74 108 148 188 260 319 367 463
#     4  11  24  45  73 105 147 189 251 315 373 452
#     4  11  24  49  75 103 147 202 240 310 384 443
#
# _framework density 22.444310000000002
#
# number of rings (size 3 to 8) (size 9 to 14) (size 15 to 20)
#    0.000    1.000    5.000    1.500    1.750    2.000 
#    6.750    0.000    0.000    0.000    0.000    0.000 
#    0.000    0.000    0.000    0.000    0.000    0.000 
#
# Total GULP energy -89219.438813 kJ/mol
# GULP energy per Si atom -5576.214926 kJ/mol
# Density = 2.239323 g / cm^3
# Si number density = 22.444310 Si / 1000 Ang^3
#
#
#
# Elastic Constant Matrix: (Units=GPa)
#
#
# Indices 1 2 3 4 5 6 
#
# 1 93.0294 22.6789 15.0184 0.0000 14.6052 0.0000
# 2 22.6789 66.2825 4.6283 0.0000 4.9953 0.0000
# 3 15.0184 4.6283 63.1685 0.0000 -1.2128 0.0000
# 4 0.0000 0.0000 0.0000 27.2277 0.0000 -3.4701
# 5 14.6052 4.9953 -1.2128 0.0000 35.4609 0.0000
# 6 0.0000 0.0000 0.0000 -3.4701 0.0000 34.8179
#
#
#
# Elastic Compliance Matrix: (Units=1/GPa)
#
#
# Indices 1 2 3 4 5 6 
#
# 1 0.012919 -0.003852 -0.002883 0.000000 -0.004877 0.000000
# 2 -0.003852 0.016482 -0.000306 0.000000 -0.000746 0.000000
# 3 -0.002883 -0.000306 0.016573 0.000000 0.001797 0.000000
# 4 0.000000 0.000000 0.000000 0.037200 0.000000 0.003708
# 5 -0.004877 -0.000746 0.001797 0.000000 0.030375 0.000000
# 6 0.000000 0.000000 0.000000 0.003708 0.000000 0.029090
#
#
# Mechanical properties :
#
#
# Convention : Reuss Voigt Hill
#
# Bulk Modulus (GPa) = 31.35475 34.12575 32.74025
# Shear Modulus (GPa) = 29.87695 31.51161 30.69428
#
# Velocity S-wave (km/s) = 3.65246 3.75105 3.70209
# Velocity P-wave (km/s) = 5.63806 5.83079 5.73523
#
# Compressibility (1/GPa) = 0.03189310
#
# Stress axis : x y z
#
# Youngs Moduli (GPa) = 77.40328 60.67087 60.33889
#
# Poissons Ratio (x) = 0.23368 0.17396
# Poissons Ratio (y) = 0.29812 0.01848
# Poissons Ratio (z) = 0.22316 0.01858
#
# Static dielectric constant tensor:
#      x y z
#    x 1.807000 0.000000 0.016780 
#    y 0.000000 1.966820 0.000000 
#    z 0.016780 0.000000 1.842620 
# 
# From -- ./inp_files/13604.got.cif
#   From: 2010.05.17/outbox.cif.g08.bks.cpg/sg4_7_cif.got.tgz:13604.got - 2010.06.03 18:43:04.
