data_PCOD9118451
_publ_section_title
;
Structure prediction by ZEFSAII (Michael W. Deem and Ramdas Pophale) SiO2 
 PCOD9118451
Probable space group: P 21
;
_chemical_formula_sum "Si O2"
_cell_formula_units_Z 16
_cell_length_a 10.767801
_cell_length_b 11.513634
_cell_length_c 4.864163
_cell_angle_alpha 90.000000
_cell_angle_beta 78.312882
_cell_angle_gamma 90.000000
_cell_volume 590.539962
_symmetry_space_group_name_H-M "P 21"
_symmetry_group_IT_number 4
_symmetry_cell_setting 'monoclinic'
loop_
_space_group_symop_operation_xyz
x,y,z
-x,1/2+y,-z
loop_
_atom_site_type_symbol
_atom_site_label
_atom_site_fract_x
_atom_site_fract_y
_atom_site_fract_z
Si Si1 0.957613 0.753670 0.044048
Si Si2 0.653706 0.496139 0.623836
Si Si3 0.820386 0.926790 0.757996
Si Si4 0.407214 0.368717 0.513281
Si Si5 0.216702 0.879202 0.922564
Si Si6 0.285256 0.649930 0.069176
Si Si7 0.034534 0.623760 0.500282
Si Si8 0.439345 0.210819 0.002862
O O1 0.067687 0.851863 0.008887
O O2 0.006560 0.649598 0.825935
O O3 0.848868 0.813927 0.918611
O O4 0.939185 0.696201 0.348325
O O5 0.512619 0.455495 0.592307
O O6 0.740163 0.474807 0.316583
O O7 0.642091 0.618011 0.788260
O O8 0.719477 0.413946 0.819242
O O9 0.726699 0.912177 0.544266
O O10 0.947135 0.989695 0.587363
O O11 0.750993 0.019053 0.989747
O O12 0.462675 0.315583 0.205090
O O13 0.272228 0.749012 0.846630
O O14 0.393037 0.265327 0.740024
O O15 0.425580 0.652133 0.121995
O O16 0.172041 0.672651 0.339215
#
# Coordination Sequence:
#
# PCOD9118451 Si02
#       8
#     2   2   2   2   2   2   2   2
#     4  11  23  49  71 108 141 187 258 312 359 446
#     4  12  25  44  71 106 149 198 240 313 390 440
#     4  10  27  49  77 110 148 201 254 312 388 450
#     4  12  27  46  72 112 150 197 248 325 370 471
#     4  11  22  44  74 103 144 193 254 300 370 455
#     4   9  21  45  73 108 136 202 251 300 364 476
#     4   9  24  43  76 106 134 198 247 303 369 440
#     4  12  27  44  70 111 156 192 250 311 392 448
#
# _framework density 27.093845000000002
#
# number of rings (size 3 to 8) (size 9 to 14) (size 15 to 20)
#    0.750    0.500    2.500    2.250    5.250    5.000 
#    6.750    0.000    0.000    0.000    0.000    0.000 
#    0.000    0.000    0.000    0.000    0.000    0.000 
#
# Total GULP energy -89559.099842 kJ/mol
# GULP energy per Si atom -5597.443740 kJ/mol
# Density = 2.703218 g / cm^3
# Si number density = 27.093845 Si / 1000 Ang^3
#
#
#
# Elastic Constant Matrix: (Units=GPa)
#
#
# Indices 1 2 3 4 5 6 
#
# 1 86.7518 29.7753 30.0355 0.0000 27.8939 0.0000
# 2 29.7753 62.1498 6.0149 0.0000 14.1173 0.0000
# 3 30.0355 6.0149 118.2648 0.0000 28.3482 0.0000
# 4 0.0000 0.0000 0.0000 41.6861 0.0000 7.3834
# 5 27.8939 14.1173 28.3482 0.0000 44.2708 0.0000
# 6 0.0000 0.0000 0.0000 7.3834 0.0000 43.7155
#
#
#
# Elastic Compliance Matrix: (Units=1/GPa)
#
#
# Indices 1 2 3 4 5 6 
#
# 1 0.016708 -0.006168 -0.002218 0.000000 -0.007140 0.000000
# 2 -0.006168 0.019651 0.001344 0.000000 -0.003241 0.000000
# 3 -0.002218 0.001344 0.010299 0.000000 -0.005626 0.000000
# 4 0.000000 0.000000 0.000000 0.024729 0.000000 -0.004177
# 5 -0.007140 -0.003241 -0.005626 0.000000 0.031723 0.000000
# 6 0.000000 0.000000 0.000000 -0.004177 0.000000 0.023581
#
#
# Mechanical properties :
#
#
# Convention : Reuss Voigt Hill
#
# Bulk Modulus (GPa) = 30.69974 44.31308 37.50641
# Shear Modulus (GPa) = 32.97442 39.35720 36.16581
#
# Velocity S-wave (km/s) = 3.49240 3.81547 3.65750
# Velocity P-wave (km/s) = 5.25528 5.98342 5.63113
#
# Compressibility (1/GPa) = 0.03257357
#
# Stress axis : x y z
#
# Youngs Moduli (GPa) = 59.85199 50.88737 97.09579
#
# Poissons Ratio (x) = 0.31388 0.21537
# Poissons Ratio (y) = 0.36917 -0.13048
# Poissons Ratio (z) = 0.13276 -0.06838
#
# Static dielectric constant tensor:
#      x y z
#    x 2.179090 0.000000 -0.054440 
#    y 0.000000 2.181880 0.000000 
#    z -0.054440 0.000000 2.032070 
# 
# From -- ./inp_files/3057.got.cif
#   From: 2010.05.17/outbox.cif.g08.bks.cpg/sg4_2_cif.got.tgz:3057.got - 2010.06.03 18:43:04.
