data_PCOD9118352
_publ_section_title
;
Structure prediction by ZEFSAII (Michael W. Deem and Ramdas Pophale) SiO2 
 PCOD9118352
Probable space group: P 21
;
_chemical_formula_sum "Si O2"
_cell_formula_units_Z 14
_cell_length_a 8.895036
_cell_length_b 9.992788
_cell_length_c 13.590714
_cell_angle_alpha 90.000000
_cell_angle_beta 151.318629
_cell_angle_gamma 90.000000
_cell_volume 579.778421
_symmetry_space_group_name_H-M "P 21"
_symmetry_group_IT_number 4
_symmetry_cell_setting 'monoclinic'
loop_
_space_group_symop_operation_xyz
x,y,z
-x,1/2+y,-z
loop_
_atom_site_type_symbol
_atom_site_label
_atom_site_fract_x
_atom_site_fract_y
_atom_site_fract_z
Si Si1 0.882973 0.493960 0.767492
Si Si2 0.233595 0.257190 0.875883
Si Si3 0.958524 0.458841 0.428263
Si Si4 0.976112 0.842936 0.951772
Si Si5 0.412404 0.675841 0.101629
Si Si6 0.618224 0.213498 0.294262
Si Si7 0.146316 0.483948 0.326196
O O1 0.517197 0.502828 0.543429
O O2 0.024546 0.384834 0.775785
O O3 0.974620 0.443510 0.929623
O O4 0.084987 0.625737 0.867640
O O5 0.423674 0.266266 0.885080
O O6 0.013699 0.127787 0.751181
O O7 0.466549 0.233169 0.100315
O O8 0.641530 0.549915 0.250022
O O9 0.884566 0.329079 0.451528
O O10 0.232639 0.566279 0.609965
O O11 0.031293 0.409723 0.359065
O O12 0.667252 0.752785 0.796467
O O13 0.942656 0.919730 0.829269
O O14 0.292674 0.754142 0.127989
#
# Coordination Sequence:
#
# PCOD9118352 Si02
#       7
#     2   2   2   2   2   2   2
#     4  11  26  47  70 107 142 179 244 288 357 431
#     4  10  25  48  71  98 148 186 237 294 359 428
#     4  11  25  47  72 109 144 193 244 292 367 432
#     4  11  26  45  75 103 144 185 237 303 361 423
#     4  11  24  46  71 101 141 189 236 294 359 431
#     4  11  25  47  73 110 147 189 245 300 357 435
#     4  11  27  44  74 102 142 189 235 295 366 424
#
# _framework density 24.147154
#
# number of rings (size 3 to 8) (size 9 to 14) (size 15 to 20)
#    0.000    1.143    2.857    1.714   16.000    1.143 
#    0.000    0.000    0.000    0.000    0.000    0.000 
#    0.000    0.000    0.000    0.000    0.000    0.000 
#
# Total GULP energy -78423.323089 kJ/mol
# GULP energy per Si atom -5601.665935 kJ/mol
# Density = 2.409219 g / cm^3
# Si number density = 24.147154 Si / 1000 Ang^3
#
#
#
# Elastic Constant Matrix: (Units=GPa)
#
#
# Indices 1 2 3 4 5 6 
#
# 1 136.6580 42.6327 42.8261 0.0000 35.6616 0.0000
# 2 42.6327 67.8584 20.2876 0.0000 20.3023 0.0000
# 3 42.8261 20.2876 112.7037 0.0000 21.9966 0.0000
# 4 0.0000 0.0000 0.0000 40.8063 0.0000 10.2855
# 5 35.6616 20.3023 21.9966 0.0000 29.7472 0.0000
# 6 0.0000 0.0000 0.0000 10.2855 0.0000 40.2063
#
#
#
# Elastic Compliance Matrix: (Units=1/GPa)
#
#
# Indices 1 2 3 4 5 6 
#
# 1 0.011701 -0.003789 -0.001789 0.000000 -0.010118 0.000000
# 2 -0.003789 0.019844 -0.000439 0.000000 -0.008677 0.000000
# 3 -0.001789 -0.000439 0.010699 0.000000 -0.005467 0.000000
# 4 0.000000 0.000000 0.000000 0.026195 0.000000 -0.006701
# 5 -0.010118 -0.008677 -0.005467 0.000000 0.055710 0.000000
# 6 0.000000 0.000000 0.000000 -0.006701 0.000000 0.026586
#
#
# Mechanical properties :
#
#
# Convention : Reuss Voigt Hill
#
# Bulk Modulus (GPa) = 33.10256 58.74587 45.92422
# Shear Modulus (GPa) = 28.92867 36.25020 32.58944
#
# Velocity S-wave (km/s) = 3.46499 3.87876 3.67770
# Velocity P-wave (km/s) = 5.45405 6.66640 6.09046
#
# Compressibility (1/GPa) = 0.03020914
#
# Stress axis : x y z
#
# Youngs Moduli (GPa) = 85.46547 50.39265 93.46959
#
# Poissons Ratio (x) = 0.19093 0.16725
# Poissons Ratio (y) = 0.32382 0.04102
# Poissons Ratio (z) = 0.15293 0.02212
#
# Static dielectric constant tensor:
#      x y z
#    x 1.937950 0.000000 -0.021970 
#    y 0.000000 1.982660 0.000000 
#    z -0.021970 0.000000 1.940750 
# 
# From -- ./inp_files/5307.got.cif
#   From: 2010.05.17/outbox.cif.g08.bks.cpg/sg4_3_cif.got.tgz:5307.got - 2010.06.03 18:43:04.
