data_PCOD9118659
_publ_section_title
;
Structure prediction by ZEFSAII (Michael W. Deem and Ramdas Pophale) SiO2 
 PCOD9118659
Probable space group: P 21
;
_chemical_formula_sum "Si O2"
_cell_formula_units_Z 16
_cell_length_a 13.725752
_cell_length_b 5.449554
_cell_length_c 25.233841
_cell_angle_alpha 90.000000
_cell_angle_beta 159.275556
_cell_angle_gamma 90.000000
_cell_volume 667.927002
_symmetry_space_group_name_H-M "P 21"
_symmetry_group_IT_number 4
_symmetry_cell_setting 'monoclinic'
loop_
_space_group_symop_operation_xyz
x,y,z
-x,1/2+y,-z
loop_
_atom_site_type_symbol
_atom_site_label
_atom_site_fract_x
_atom_site_fract_y
_atom_site_fract_z
Si Si1 0.313951 0.155870 0.651642
Si Si2 0.357737 0.167288 0.914310
Si Si3 0.035159 0.500676 0.689107
Si Si4 0.484445 0.672547 0.581127
Si Si5 0.206823 0.807460 0.682553
Si Si6 0.251261 0.299305 0.183559
Si Si7 0.728231 0.544601 0.908033
Si Si8 0.829006 0.871075 0.662741
O O1 0.518871 0.377519 0.767199
O O2 0.028688 0.197233 0.476213
O O3 0.236188 0.073410 0.671945
O O4 0.494941 0.962468 0.709652
O O5 0.286356 0.309700 0.823308
O O6 0.062968 0.077488 0.786348
O O7 0.489263 0.402173 0.012284
O O8 0.778245 0.341833 0.539445
O O9 0.100480 0.731699 0.685531
O O10 0.961080 0.619942 0.708151
O O11 0.632946 0.620204 0.712121
O O12 0.379490 0.453771 0.490154
O O13 0.678609 0.828175 0.641062
O O14 0.513495 0.699382 0.833030
O O15 0.130339 0.194695 0.067392
O O16 0.980358 0.432638 0.068798
#
# Coordination Sequence:
#
# PCOD9118659 Si02
#       8
#     2   2   2   2   2   2   2   2
#     4  11  22  41  67  97 142 180 228 290 363 433
#     4  11  24  48  74 102 147 201 238 307 382 440
#     4  11  24  44  72 107 145 186 251 311 370 451
#     4  11  24  42  72 105 139 195 249 311 385 443
#     4  11  24  40  70 103 138 186 237 295 365 444
#     4  11  24  43  70  97 141 189 238 300 375 431
#     4  11  24  44  65 103 143 180 243 303 356 453
#     4  11  24  44  72 108 149 187 256 319 366 463
#
# _framework density 23.954715
#
# number of rings (size 3 to 8) (size 9 to 14) (size 15 to 20)
#    0.000    1.000    6.250    0.000    1.750    3.000 
#    0.000    0.000    0.000    0.000    0.000    0.000 
#    0.000    0.000    0.000    0.000    0.000    0.000 
#
# Total GULP energy -89255.152301 kJ/mol
# GULP energy per Si atom -5578.447019 kJ/mol
# Density = 2.390019 g / cm^3
# Si number density = 23.954715 Si / 1000 Ang^3
#
#
#
# Elastic Constant Matrix: (Units=GPa)
#
#
# Indices 1 2 3 4 5 6 
#
# 1 56.4689 -12.4693 10.6571 0.0000 0.5925 0.0000
# 2 -12.4693 57.7676 12.8482 0.0000 6.5700 0.0000
# 3 10.6571 12.8482 91.2187 0.0000 6.0608 0.0000
# 4 0.0000 0.0000 0.0000 39.5701 0.0000 6.0255
# 5 0.5925 6.5700 6.0608 0.0000 18.6428 0.0000
# 6 0.0000 0.0000 0.0000 6.0255 0.0000 28.5895
#
#
#
# Elastic Compliance Matrix: (Units=1/GPa)
#
#
# Indices 1 2 3 4 5 6 
#
# 1 0.019365 0.004982 -0.002869 0.000000 -0.001439 0.000000
# 2 0.004982 0.019743 -0.002954 0.000000 -0.006156 0.000000
# 3 -0.002869 -0.002954 0.011896 0.000000 -0.002735 0.000000
# 4 0.000000 0.000000 0.000000 0.026110 0.000000 -0.005503
# 5 -0.001439 -0.006156 -0.002735 0.000000 0.056744 0.000000
# 6 0.000000 0.000000 0.000000 -0.005503 0.000000 0.036138
#
#
# Mechanical properties :
#
#
# Convention : Reuss Voigt Hill
#
# Bulk Modulus (GPa) = 20.27466 25.28080 22.77773
# Shear Modulus (GPa) = 26.57911 30.32178 28.45045
#
# Velocity S-wave (km/s) = 3.33461 3.56166 3.45001
# Velocity P-wave (km/s) = 4.82787 5.24313 5.03978
#
# Compressibility (1/GPa) = 0.04932264
#
# Stress axis : x y z
#
# Youngs Moduli (GPa) = 51.63858 50.65058 84.06488
#
# Poissons Ratio (x) = -0.25232 0.24114
# Poissons Ratio (y) = -0.25725 0.24831
# Poissons Ratio (z) = 0.14813 0.14961
#
# Static dielectric constant tensor:
#      x y z
#    x 1.891240 0.000000 -0.008160 
#    y 0.000000 1.997500 0.000000 
#    z -0.008160 0.000000 1.955540 
# 
# From -- ./inp_files/13476.got.cif
#   From: 2010.05.17/outbox.cif.g08.bks.cpg/sg4_7_cif.got.tgz:13476.got - 2010.06.03 18:43:04.
