data_PCOD9118508
_publ_section_title
;
Structure prediction by ZEFSAII (Michael W. Deem and Ramdas Pophale) SiO2 
 PCOD9118508
Probable space group: P 21
;
_chemical_formula_sum "Si O2"
_cell_formula_units_Z 14
_cell_length_a 9.856439
_cell_length_b 8.210253
_cell_length_c 6.816531
_cell_angle_alpha 90.000000
_cell_angle_beta 110.060683
_cell_angle_gamma 90.000000
_cell_volume 518.153121
_symmetry_space_group_name_H-M "P 21"
_symmetry_group_IT_number 4
_symmetry_cell_setting 'monoclinic'
loop_
_space_group_symop_operation_xyz
x,y,z
-x,1/2+y,-z
loop_
_atom_site_type_symbol
_atom_site_label
_atom_site_fract_x
_atom_site_fract_y
_atom_site_fract_z
Si Si1 0.916022 0.789760 0.148371
Si Si2 0.851287 0.472888 0.591657
Si Si3 0.418540 0.630325 0.133958
Si Si4 0.151366 0.519772 0.224211
Si Si5 0.382199 0.836141 0.788521
Si Si6 0.337939 0.263484 0.501389
Si Si7 0.692540 0.570172 0.890916
O O1 0.981151 0.925175 0.326990
O O2 0.026548 0.640205 0.228362
O O3 0.757204 0.714870 0.059574
O O4 0.917073 0.869549 0.930880
O O5 0.749246 0.343567 0.428953
O O6 0.792134 0.645711 0.485875
O O7 0.809593 0.486931 0.800344
O O8 0.256260 0.615589 0.126685
O O9 0.494898 0.458937 0.224986
O O10 0.521644 0.759095 0.295363
O O11 0.425009 0.664027 0.904092
O O12 0.262632 0.435323 0.429082
O O13 0.338085 0.930884 0.967217
O O14 0.388153 0.167366 0.326605
#
# Coordination Sequence:
#
# PCOD9118508 Si02
#       7
#     2   2   2   2   2   2   2
#     4  11  20  40  68  97 132 173 229 275 331 408
#     4   9  20  43  65  95 129 178 219 280 331 402
#     4  11  26  40  68 101 140 177 229 279 345 409
#     4  11  22  39  71 102 128 184 226 280 339 405
#     4  11  25  44  62 100 137 176 223 281 335 406
#     4   8  21  41  66  96 131 171 224 277 333 402
#     4   9  20  41  66  87 131 175 212 280 330 392
#
# _framework density 27.019037000000001
#
# number of rings (size 3 to 8) (size 9 to 14) (size 15 to 20)
#    0.857    1.143    1.429    0.857    6.000    2.286 
#    2.571    1.429    0.000    0.000    0.000    0.000 
#    0.000    0.000    0.000    0.000    0.000    0.000 
#
# Total GULP energy -78137.356479 kJ/mol
# GULP energy per Si atom -5581.239748 kJ/mol
# Density = 2.695754 g / cm^3
# Si number density = 27.019037 Si / 1000 Ang^3
#
#
#
# Elastic Constant Matrix: (Units=GPa)
#
#
# Indices 1 2 3 4 5 6 
#
# 1 29.7631 -20.8422 9.1779 0.0000 -10.0594 0.0000
# 2 -20.8422 64.1765 11.5669 0.0000 2.1107 0.0000
# 3 9.1779 11.5669 119.4330 0.0000 16.6433 0.0000
# 4 0.0000 0.0000 0.0000 58.7701 0.0000 11.4872
# 5 -10.0594 2.1107 16.6433 0.0000 35.8838 0.0000
# 6 0.0000 0.0000 0.0000 11.4872 0.0000 43.8023
#
#
#
# Elastic Compliance Matrix: (Units=1/GPa)
#
#
# Indices 1 2 3 4 5 6 
#
# 1 0.056012 0.019156 -0.008757 0.000000 0.018637 0.000000
# 2 0.019156 0.022412 -0.004498 0.000000 0.006138 0.000000
# 3 -0.008757 -0.004498 0.010463 0.000000 -0.007043 0.000000
# 4 0.000000 0.000000 0.000000 0.017935 0.000000 -0.004703
# 5 0.018637 0.006138 -0.007043 0.000000 0.035998 0.000000
# 6 0.000000 0.000000 0.000000 -0.004703 0.000000 0.024063
#
#
# Mechanical properties :
#
#
# Convention : Reuss Voigt Hill
#
# Bulk Modulus (GPa) = 9.93143 23.68641 16.80892
# Shear Modulus (GPa) = 26.50498 41.92256 34.21377
#
# Velocity S-wave (km/s) = 3.13545 3.94330 3.56235
# Velocity P-wave (km/s) = 4.09777 5.43309 4.81197
#
# Compressibility (1/GPa) = 0.10069042
#
# Stress axis : x y z
#
# Youngs Moduli (GPa) = 17.85319 44.61878 95.57586
#
# Poissons Ratio (x) = -0.85472 0.83692
# Poissons Ratio (y) = -0.34200 0.42990
# Poissons Ratio (z) = 0.15633 0.20070
#
# Static dielectric constant tensor:
#      x y z
#    x 2.233610 0.000000 -0.043730 
#    y 0.000000 2.216890 0.000000 
#    z -0.043730 0.000000 2.016800 
# 
# From -- ./inp_files/9173.got.cif
#   From: 2010.05.17/outbox.cif.g08.bks.cpg/sg4_5_cif.got.tgz:9173.got - 2010.06.03 18:43:04.
