data_PCOD9118517
_publ_section_title
;
Structure prediction by ZEFSAII (Michael W. Deem and Ramdas Pophale) SiO2 
 PCOD9118517
Probable space group: P 21
;
_chemical_formula_sum "Si O2"
_cell_formula_units_Z 14
_cell_length_a 8.971962
_cell_length_b 5.055228
_cell_length_c 23.179798
_cell_angle_alpha 90.000000
_cell_angle_beta 150.738479
_cell_angle_gamma 90.000000
_cell_volume 513.885142
_symmetry_space_group_name_H-M "P 21"
_symmetry_group_IT_number 4
_symmetry_cell_setting 'monoclinic'
loop_
_space_group_symop_operation_xyz
x,y,z
-x,1/2+y,-z
loop_
_atom_site_type_symbol
_atom_site_label
_atom_site_fract_x
_atom_site_fract_y
_atom_site_fract_z
Si Si1 0.205305 0.079480 0.429054
Si Si2 0.465697 0.791570 0.671462
Si Si3 0.840646 0.889644 0.694699
Si Si4 0.519112 0.563501 0.046563
Si Si5 0.054458 0.531980 0.467909
Si Si6 0.372235 0.328040 0.723083
Si Si7 0.156142 0.646222 0.030613
O O1 0.131262 0.128154 0.337316
O O2 0.076795 0.332364 0.419383
O O3 0.556043 0.028518 0.563754
O O4 0.994121 0.846705 0.388022
O O5 0.743979 0.918586 0.729557
O O6 0.418279 0.566205 0.601806
O O7 0.502879 0.580784 0.736151
O O8 0.064502 0.802991 0.522212
O O9 0.184230 0.003130 0.813999
O O10 0.228886 0.598257 0.989692
O O11 0.450159 0.324429 0.980548
O O12 0.644413 0.570910 0.324649
O O13 0.548161 0.269637 0.839226
O O14 0.089914 0.369585 0.038949
#
# Coordination Sequence:
#
# PCOD9118517 Si02
#       7
#     2   2   2   2   2   2   2
#     4  11  26  45  72 116 158 213 259 343 427 511
#     4  11  22  40  69 112 150 204 253 331 408 500
#     4  12  27  47  79 118 167 214 275 342 445 506
#     4  12  32  59  89 123 176 225 292 362 429 513
#     4  11  20  42  66 106 153 198 256 315 401 495
#     4  11  26  46  77 107 160 203 275 340 413 500
#     4  12  31  57  86 118 158 227 298 353 419 503
#
# _framework density 27.243445000000001
#
# number of rings (size 3 to 8) (size 9 to 14) (size 15 to 20)
#    0.000    0.571    2.857    3.429   12.000    2.286 
#    0.000    0.000    0.000    0.000    0.000    0.000 
#    0.000    0.000    0.000    0.000    0.000    0.000 
#
# Total GULP energy -78162.523247 kJ/mol
# GULP energy per Si atom -5583.037375 kJ/mol
# Density = 2.718144 g / cm^3
# Si number density = 27.243445 Si / 1000 Ang^3
#
#
#
# Elastic Constant Matrix: (Units=GPa)
#
#
# Indices 1 2 3 4 5 6 
#
# 1 203.1278 38.2219 -13.1609 0.0000 -14.6552 0.0000
# 2 38.2219 124.5888 -17.1972 0.0000 -25.8161 0.0000
# 3 -13.1609 -17.1972 97.0028 0.0000 -8.3085 0.0000
# 4 0.0000 0.0000 0.0000 43.4382 0.0000 -23.2231
# 5 -14.6552 -25.8161 -8.3085 0.0000 58.0618 0.0000
# 6 0.0000 0.0000 0.0000 -23.2231 0.0000 36.1382
#
#
#
# Elastic Compliance Matrix: (Units=1/GPa)
#
#
# Indices 1 2 3 4 5 6 
#
# 1 0.005275 -0.001379 0.000539 0.000000 0.000795 0.000000
# 2 -0.001379 0.009572 0.001868 0.000000 0.004175 0.000000
# 3 0.000539 0.001868 0.010930 0.000000 0.002531 0.000000
# 4 0.000000 0.000000 0.000000 0.035070 0.000000 0.022537
# 5 0.000795 0.004175 0.002531 0.000000 0.019642 0.000000
# 6 0.000000 0.000000 0.000000 0.022537 0.000000 0.042154
#
#
# Mechanical properties :
#
#
# Convention : Reuss Voigt Hill
#
# Bulk Modulus (GPa) = 35.92842 48.93857 42.43349
# Shear Modulus (GPa) = 38.50145 55.31802 46.90973
#
# Velocity S-wave (km/s) = 3.76338 4.51100 4.15405
# Velocity P-wave (km/s) = 5.66574 6.71823 6.21431
#
# Compressibility (1/GPa) = 0.02783312
#
# Stress axis : x y z
#
# Youngs Moduli (GPa) = 189.58000 104.46683 91.49136
#
# Poissons Ratio (x) = 0.14406 -0.04934
# Poissons Ratio (y) = 0.26142 -0.17087
# Poissons Ratio (z) = -0.10225 -0.19510
#
# Static dielectric constant tensor:
#      x y z
#    x 2.349170 0.000000 0.054850 
#    y 0.000000 2.302080 0.000000 
#    z 0.054850 0.000000 2.177750 
# 
# From -- ./inp_files/16066.got.cif
#   From: 2010.05.17/outbox.cif.g08.bks.cpg/sg4_9_cif.got.tgz:16066.got - 2010.06.03 18:43:04.
