data_PCOD9118721
_publ_section_title
;
Structure prediction by ZEFSAII (Michael W. Deem and Ramdas Pophale) SiO2 
 PCOD9118721
Probable space group: P 21
;
_chemical_formula_sum "Si O2"
_cell_formula_units_Z 16
_cell_length_a 11.642216
_cell_length_b 8.071443
_cell_length_c 14.463231
_cell_angle_alpha 90.000000
_cell_angle_beta 32.785272
_cell_angle_gamma 90.000000
_cell_volume 735.943210
_symmetry_space_group_name_H-M "P 21"
_symmetry_group_IT_number 4
_symmetry_cell_setting 'monoclinic'
loop_
_space_group_symop_operation_xyz
x,y,z
-x,1/2+y,-z
loop_
_atom_site_type_symbol
_atom_site_label
_atom_site_fract_x
_atom_site_fract_y
_atom_site_fract_z
Si Si1 0.719063 0.627730 0.283382
Si Si2 0.855013 0.705788 0.990965
Si Si3 0.658990 0.374786 0.043239
Si Si4 0.028387 0.188662 0.699364
Si Si5 0.347644 0.566622 0.139265
Si Si6 0.441067 0.137335 0.328240
Si Si7 0.509014 0.400699 0.855165
Si Si8 0.659157 0.246181 0.351894
O O1 0.832356 0.706396 0.117504
O O2 0.871987 0.635923 0.269757
O O3 0.657788 0.434034 0.313631
O O4 0.503167 0.725798 0.453817
O O5 0.744893 0.536272 0.035507
O O6 0.719525 0.847626 0.032039
O O7 0.096903 0.707826 0.795353
O O8 0.440924 0.423832 0.140525
O O9 0.603359 0.235760 0.154237
O O10 0.845743 0.319966 0.847643
O O11 0.230399 0.236880 0.500909
O O12 0.893685 0.056202 0.731432
O O13 0.391798 0.737841 0.164090
O O14 0.481048 0.538019 0.954279
O O15 0.567910 0.117358 0.337825
O O16 0.376747 0.978032 0.311531
#
# Coordination Sequence:
#
# PCOD9118721 Si02
#       8
#     2   2   2   2   2   2   2   2
#     4  11  26  43  67 101 142 181 227 286 332 415
#     4  11  26  40  72  97 132 184 232 272 347 402
#     4  11  23  44  67  95 132 178 229 286 332 406
#     4  11  24  41  70  94 138 176 221 280 346 390
#     4  11  22  44  70  94 132 175 230 283 340 393
#     4  11  24  41  67  97 136 175 223 277 344 403
#     4  11  23  43  69 101 130 178 228 285 334 412
#     4  11  26  42  66 101 140 181 228 279 341 407
#
# _framework density 21.740805999999999
#
# number of rings (size 3 to 8) (size 9 to 14) (size 15 to 20)
#    0.000    1.000    3.750    1.500    8.750    1.000 
#    0.000    0.000    0.000    0.000    0.000    0.000 
#    0.000    0.000    0.000    0.000    0.000    0.000 
#
# Total GULP energy -89291.674105 kJ/mol
# GULP energy per Si atom -5580.729632 kJ/mol
# Density = 2.169132 g / cm^3
# Si number density = 21.740806 Si / 1000 Ang^3
#
#
#
# Elastic Constant Matrix: (Units=GPa)
#
#
# Indices 1 2 3 4 5 6 
#
# 1 103.3263 21.4744 34.4476 0.0000 -12.3799 0.0000
# 2 21.4744 69.5888 9.9052 0.0000 6.5732 0.0000
# 3 34.4476 9.9052 82.7650 0.0000 -22.4146 0.0000
# 4 0.0000 0.0000 0.0000 24.0952 0.0000 -1.3745
# 5 -12.3799 6.5732 -22.4146 0.0000 23.4231 0.0000
# 6 0.0000 0.0000 0.0000 -1.3745 0.0000 24.1496
#
#
#
# Elastic Compliance Matrix: (Units=1/GPa)
#
#
# Indices 1 2 3 4 5 6 
#
# 1 0.012081 -0.003613 -0.003499 0.000000 0.004051 0.000000
# 2 -0.003613 0.016837 -0.003115 0.000000 -0.009616 0.000000
# 3 -0.003499 -0.003115 0.018422 0.000000 0.016654 0.000000
# 4 0.000000 0.000000 0.000000 0.041637 0.000000 0.002370
# 5 0.004051 -0.009616 0.016654 0.000000 0.063469 0.000000
# 6 0.000000 0.000000 0.000000 0.002370 0.000000 0.041543
#
#
# Mechanical properties :
#
#
# Convention : Reuss Voigt Hill
#
# Bulk Modulus (GPa) = 37.19502 43.03717 40.11609
# Shear Modulus (GPa) = 22.38103 26.99045 24.68574
#
# Velocity S-wave (km/s) = 3.21198 3.52727 3.37331
# Velocity P-wave (km/s) = 5.55889 6.03551 5.80210
#
# Compressibility (1/GPa) = 0.02688532
#
# Stress axis : x y z
#
# Youngs Moduli (GPa) = 82.77702 59.39422 54.28413
#
# Poissons Ratio (x) = 0.21457 0.18992
# Poissons Ratio (y) = 0.29904 0.16912
# Poissons Ratio (z) = 0.28961 0.18504
#
# Static dielectric constant tensor:
#      x y z
#    x 1.836810 0.000000 0.024820 
#    y 0.000000 1.836400 0.000000 
#    z 0.024820 0.000000 1.782490 
# 
# From -- ./inp_files/13895.got.cif
#   From: 2010.05.17/outbox.cif.g08.bks.cpg/sg4_7_cif.got.tgz:13895.got - 2010.06.03 18:43:04.
