data_PCOD9118188
_publ_section_title
;
Structure prediction by ZEFSAII (Michael W. Deem and Ramdas Pophale) SiO2 
 PCOD9118188
Probable space group: P 21
;
_chemical_formula_sum "Si O2"
_cell_formula_units_Z 16
_cell_length_a 8.394872
_cell_length_b 5.555128
_cell_length_c 17.720447
_cell_angle_alpha 90.000000
_cell_angle_beta 48.014768
_cell_angle_gamma 90.000000
_cell_volume 614.266802
_symmetry_space_group_name_H-M "P 21"
_symmetry_group_IT_number 4
_symmetry_cell_setting 'monoclinic'
loop_
_space_group_symop_operation_xyz
x,y,z
-x,1/2+y,-z
loop_
_atom_site_type_symbol
_atom_site_label
_atom_site_fract_x
_atom_site_fract_y
_atom_site_fract_z
Si Si1 0.557703 0.129740 0.444860
Si Si2 0.011647 0.109704 0.365552
Si Si3 0.435764 0.051156 0.720072
Si Si4 0.013640 0.827384 0.872416
Si Si5 0.764738 0.420571 0.556115
Si Si6 0.567212 0.778333 0.810630
Si Si7 0.175392 0.430671 0.904549
Si Si8 0.592562 0.055426 0.943043
O O1 0.547097 0.405623 0.475575
O O2 0.397413 0.125398 0.423073
O O3 0.807146 0.049883 0.377572
O O4 0.107374 0.949642 0.405168
O O5 0.211716 0.143101 0.246216
O O6 0.932571 0.342555 0.438731
O O7 0.230541 0.898108 0.760035
O O8 0.589672 0.206884 0.620502
O O9 0.310939 0.225212 0.819730
O O10 0.581525 0.876644 0.722533
O O11 0.034150 0.542884 0.880921
O O12 0.827440 0.967166 0.890268
O O13 0.971980 0.889239 0.975382
O O14 0.359739 0.611380 0.877018
O O15 0.549322 0.006063 0.869839
O O16 0.456203 0.830975 0.022194
#
# Coordination Sequence:
#
# PCOD9118188 Si02
#       8
#     2   2   2   2   2   2   2   2
#     4  10  24  47  72 107 145 189 245 302 355 427
#     4  11  23  45  74 106 143 199 231 306 367 422
#     4  11  24  43  69 103 135 184 242 295 348 439
#     4  11  24  40  69  97 133 188 226 296 363 418
#     4  11  23  45  73 107 145 188 250 292 364 436
#     4  11  25  45  67 105 141 183 242 293 358 435
#     4  11  21  42  67  95 137 174 237 288 353 424
#     4  12  28  47  71 104 145 187 237 298 360 437
#
# _framework density 26.047315999999999
#
# number of rings (size 3 to 8) (size 9 to 14) (size 15 to 20)
#    0.000    1.000    3.750    2.250    3.500    3.000 
#   11.250    0.000    0.000    0.000    0.000    0.000 
#    0.000    0.000    0.000    0.000    0.000    0.000 
#
# Total GULP energy -89242.684745 kJ/mol
# GULP energy per Si atom -5577.667797 kJ/mol
# Density = 2.598803 g / cm^3
# Si number density = 26.047316 Si / 1000 Ang^3
#
#
#
# Elastic Constant Matrix: (Units=GPa)
#
#
# Indices 1 2 3 4 5 6 
#
# 1 84.9856 17.8457 27.9639 0.0000 -7.5085 0.0000
# 2 17.8457 40.8507 16.2681 0.0000 1.9832 0.0000
# 3 27.9639 16.2681 92.8818 0.0000 -28.3858 0.0000
# 4 0.0000 0.0000 0.0000 35.6871 0.0000 -5.5600
# 5 -7.5085 1.9832 -28.3858 0.0000 49.7052 0.0000
# 6 0.0000 0.0000 0.0000 -5.5600 0.0000 32.3615
#
#
#
# Elastic Compliance Matrix: (Units=1/GPa)
#
#
# Indices 1 2 3 4 5 6 
#
# 1 0.013868 -0.004810 -0.003191 0.000000 0.000465 0.000000
# 2 -0.004810 0.028826 -0.005057 0.000000 -0.004765 0.000000
# 3 -0.003191 -0.005057 0.015176 0.000000 0.008386 0.000000
# 4 0.000000 0.000000 0.000000 0.028792 0.000000 0.004947
# 5 0.000465 -0.004765 0.008386 0.000000 0.025168 0.000000
# 6 0.000000 0.000000 0.000000 0.004947 0.000000 0.031751
#
#
# Mechanical properties :
#
#
# Convention : Reuss Voigt Hill
#
# Bulk Modulus (GPa) = 31.49196 38.09706 34.79451
# Shear Modulus (GPa) = 27.73472 33.99347 30.86409
#
# Velocity S-wave (km/s) = 3.26664 3.61649 3.44601
# Velocity P-wave (km/s) = 5.13268 5.66538 5.40560
#
# Compressibility (1/GPa) = 0.03175414
#
# Stress axis : x y z
#
# Youngs Moduli (GPa) = 72.11029 34.69123 65.89531
#
# Poissons Ratio (x) = 0.16687 0.21025
# Poissons Ratio (y) = 0.34686 0.33321
# Poissons Ratio (z) = 0.23008 0.17542
#
# Static dielectric constant tensor:
#      x y z
#    x 2.116890 0.000000 0.075480 
#    y 0.000000 2.158210 0.000000 
#    z 0.075480 0.000000 2.079140 
# 
# From -- ./inp_files/8636.got.cif
#   From: 2010.05.17/outbox.cif.g08.bks.cpg/sg4_5_cif.got.tgz:8636.got - 2010.06.03 18:43:04.
