data_PCOD9118163
_publ_section_title
;
Structure prediction by ZEFSAII (Michael W. Deem and Ramdas Pophale) SiO2 
 PCOD9118163
Probable space group: P 21
;
_chemical_formula_sum "Si O2"
_cell_formula_units_Z 8
_cell_length_a 5.703188
_cell_length_b 8.739339
_cell_length_c 7.029755
_cell_angle_alpha 90.000000
_cell_angle_beta 129.330166
_cell_angle_gamma 90.000000
_cell_volume 271.019478
_symmetry_space_group_name_H-M "P 21"
_symmetry_group_IT_number 4
_symmetry_cell_setting 'monoclinic'
loop_
_space_group_symop_operation_xyz
x,y,z
-x,1/2+y,-z
loop_
_atom_site_type_symbol
_atom_site_label
_atom_site_fract_x
_atom_site_fract_y
_atom_site_fract_z
Si Si1 0.667266 0.094000 0.702400
Si Si2 0.622028 0.901103 0.319574
Si Si3 0.809327 0.772365 0.920067
Si Si4 0.787201 0.327233 0.221719
O O1 0.452728 0.220465 0.683649
O O2 0.968041 0.195520 0.813635
O O3 0.525140 0.997581 0.455740
O O4 0.788495 0.956791 0.897685
O O5 0.985676 0.914925 0.519923
O O6 0.423317 0.926402 0.030104
O O7 0.459635 0.734234 0.784805
O O8 0.988155 0.743460 0.812978
#
# Coordination Sequence:
#
# PCOD9118163 Si02
#       4
#     2   2   2   2
#     4  10  24  48  76 110 148 194 244 302 364 434
#     4  10  24  46  76 108 146 192 244 300 362 432
#     4  10  24  48  74 108 148 192 242 300 364 432
#     4  10  24  46  74 106 146 190 242 298 362 430
#
# _framework density 29.518179
#
# number of rings (size 3 to 8) (size 9 to 14) (size 15 to 20)
#    0.000    2.000    0.000    0.000    0.000   34.000 
#    0.000   15.000    0.000    0.000    0.000    0.000 
#    0.000    0.000    0.000    0.000    0.000    0.000 
#
# Total GULP energy -44654.564319 kJ/mol
# GULP energy per Si atom -5581.820540 kJ/mol
# Density = 2.945099 g / cm^3
# Si number density = 29.518179 Si / 1000 Ang^3
#
#
#
# Elastic Constant Matrix: (Units=GPa)
#
#
# Indices 1 2 3 4 5 6 
#
# 1 204.5524 15.0881 36.4729 0.0000 20.3461 0.0000
# 2 15.0881 169.7565 40.8286 0.0000 -12.9402 0.0000
# 3 36.4729 40.8286 206.6338 0.0000 38.8625 0.0000
# 4 0.0000 0.0000 0.0000 62.3314 0.0000 5.5905
# 5 20.3461 -12.9402 38.8625 0.0000 34.6675 0.0000
# 6 0.0000 0.0000 0.0000 5.5905 0.0000 38.8190
#
#
#
# Elastic Compliance Matrix: (Units=1/GPa)
#
#
# Indices 1 2 3 4 5 6 
#
# 1 0.005284 -0.000652 -0.000221 0.000000 -0.003097 0.000000
# 2 -0.000652 0.006923 -0.002294 0.000000 0.005539 0.000000
# 3 -0.000221 -0.002294 0.006930 0.000000 -0.008495 0.000000
# 4 0.000000 0.000000 0.000000 0.016253 0.000000 -0.002341
# 5 -0.003097 0.005539 -0.008495 0.000000 0.042253 0.000000
# 6 0.000000 0.000000 0.000000 -0.002341 0.000000 0.026098
#
#
# Mechanical properties :
#
#
# Convention : Reuss Voigt Hill
#
# Bulk Modulus (GPa) = 78.12499 85.08022 81.60261
# Shear Modulus (GPa) = 43.72769 59.73378 51.73074
#
# Velocity S-wave (km/s) = 3.85305 4.50335 4.19083
# Velocity P-wave (km/s) = 6.80579 7.47836 7.14999
#
# Compressibility (1/GPa) = 0.01280000
#
# Stress axis : x y z
#
# Youngs Moduli (GPa) = 189.23814 144.44863 144.30994
#
# Poissons Ratio (x) = 0.09425 0.03195
# Poissons Ratio (y) = 0.12347 0.33112
# Poissons Ratio (z) = 0.04190 0.33144
#
# Static dielectric constant tensor:
#      x y z
#    x 2.402480 0.000000 0.000290 
#    y 0.000000 2.276640 0.000000 
#    z 0.000290 0.000000 2.384490 
# 
# From -- ./inp_files/4495.got.cif
#   From: 2010.05.17/outbox.cif.g08.bks.cpg/sg4_3_cif.got.tgz:4495.got - 2010.06.03 18:43:04.
