data_PCOD9118672
_publ_section_title
;
Structure prediction by ZEFSAII (Michael W. Deem and Ramdas Pophale) SiO2 
 PCOD9118672
Probable space group: P 21
;
_chemical_formula_sum "Si O2"
_cell_formula_units_Z 16
_cell_length_a 18.732948
_cell_length_b 5.292901
_cell_length_c 9.570313
_cell_angle_alpha 90.000000
_cell_angle_beta 42.641043
_cell_angle_gamma 90.000000
_cell_volume 642.796070
_symmetry_space_group_name_H-M "P 21"
_symmetry_group_IT_number 4
_symmetry_cell_setting 'monoclinic'
loop_
_space_group_symop_operation_xyz
x,y,z
-x,1/2+y,-z
loop_
_atom_site_type_symbol
_atom_site_label
_atom_site_fract_x
_atom_site_fract_y
_atom_site_fract_z
Si Si1 0.850263 0.827190 0.524428
Si Si2 0.981549 0.498539 0.943193
Si Si3 0.644004 0.878412 0.647654
Si Si4 0.198919 0.843117 0.240602
Si Si5 0.608829 0.828063 0.166696
Si Si6 0.393964 0.623807 0.562216
Si Si7 0.590582 0.199390 0.957281
Si Si8 0.769809 0.502781 0.097718
O O1 0.749024 0.778457 0.569387
O O2 0.861418 0.581878 0.606709
O O3 0.946704 0.889103 0.284336
O O4 0.832554 0.082359 0.639830
O O5 0.868376 0.579012 0.046884
O O6 0.030694 0.754865 0.937327
O O7 0.532809 0.745180 0.843410
O O8 0.658748 0.915106 0.461468
O O9 0.623760 0.153207 0.750113
O O10 0.324325 0.884610 0.095529
O O11 0.189418 0.822052 0.087614
O O12 0.507158 0.656232 0.328947
O O13 0.712265 0.715063 0.088278
O O14 0.582712 0.055301 0.311700
O O15 0.615501 0.941182 0.004756
O O16 0.316876 0.860466 0.684141
#
# Coordination Sequence:
#
# PCOD9118672 Si02
#       8
#     2   2   2   2   2   2   2   2
#     4  11  26  48  73 107 149 191 249 312 357 445
#     4  12  30  52  78 110 147 192 253 311 380 450
#     4  11  23  38  68 102 146 195 238 300 368 436
#     4  11  24  46  73 107 145 191 249 304 373 440
#     4  12  24  44  67 106 149 193 251 305 370 453
#     4  12  24  41  66 107 147 190 247 298 374 445
#     4  11  22  42  67 109 148 195 253 293 376 450
#     4  12  27  45  76 100 147 195 242 315 378 439
#
# _framework density 24.891254
#
# number of rings (size 3 to 8) (size 9 to 14) (size 15 to 20)
#    0.000    0.500    2.500    6.000    3.500    3.000 
#    0.000    0.000    0.000    0.000    0.000    0.000 
#    0.000    0.000    0.000    0.000    0.000    0.000 
#
# Total GULP energy -89576.192426 kJ/mol
# GULP energy per Si atom -5598.512027 kJ/mol
# Density = 2.483460 g / cm^3
# Si number density = 24.891254 Si / 1000 Ang^3
#
#
#
# Elastic Constant Matrix: (Units=GPa)
#
#
# Indices 1 2 3 4 5 6 
#
# 1 104.2356 20.9107 18.6268 0.0000 -3.8233 0.0000
# 2 20.9107 97.9728 15.6750 0.0000 5.3486 0.0000
# 3 18.6268 15.6750 82.3949 0.0000 -1.4755 0.0000
# 4 0.0000 0.0000 0.0000 39.6522 0.0000 4.5969
# 5 -3.8233 5.3486 -1.4755 0.0000 35.3656 0.0000
# 6 0.0000 0.0000 0.0000 4.5969 0.0000 32.0555
#
#
#
# Elastic Compliance Matrix: (Units=1/GPa)
#
#
# Indices 1 2 3 4 5 6 
#
# 1 0.010388 -0.001979 -0.001948 0.000000 0.001341 0.000000
# 2 -0.001979 0.011005 -0.001681 0.000000 -0.001948 0.000000
# 3 -0.001948 -0.001681 0.012907 0.000000 0.000582 0.000000
# 4 0.000000 0.000000 0.000000 0.025646 0.000000 -0.003678
# 5 0.001341 -0.001948 0.000582 0.000000 0.028740 0.000000
# 6 0.000000 0.000000 0.000000 -0.003678 0.000000 0.031723
#
#
# Mechanical properties :
#
#
# Convention : Reuss Voigt Hill
#
# Bulk Modulus (GPa) = 43.31948 43.89204 43.60576
# Shear Modulus (GPa) = 35.88894 36.70741 36.29817
#
# Velocity S-wave (km/s) = 3.80126 3.84436 3.82287
# Velocity P-wave (km/s) = 6.05866 6.11370 6.08624
#
# Compressibility (1/GPa) = 0.02308430
#
# Stress axis : x y z
#
# Youngs Moduli (GPa) = 96.26614 90.87142 77.47567
#
# Poissons Ratio (x) = 0.17980 0.15092
# Poissons Ratio (y) = 0.19048 0.13025
# Poissons Ratio (z) = 0.18752 0.15277
#
# Static dielectric constant tensor:
#      x y z
#    x 1.944010 0.000000 -0.022790 
#    y 0.000000 2.054680 0.000000 
#    z -0.022790 0.000000 1.973390 
# 
# From -- ./inp_files/9465.got.cif
#   From: 2010.05.17/outbox.cif.g08.bks.cpg/sg4_5_cif.got.tgz:9465.got - 2010.06.03 18:43:04.
