data_PCOD9118816
_publ_section_title
;
Structure prediction by ZEFSAII (Michael W. Deem and Ramdas Pophale) SiO2 
 PCOD9118816
Probable space group: P 21
;
_chemical_formula_sum "Si O2"
_cell_formula_units_Z 14
_cell_length_a 11.663240
_cell_length_b 10.059166
_cell_length_c 9.570018
_cell_angle_alpha 90.000000
_cell_angle_beta 33.256581
_cell_angle_gamma 90.000000
_cell_volume 615.719489
_symmetry_space_group_name_H-M "P 21"
_symmetry_group_IT_number 4
_symmetry_cell_setting 'monoclinic'
loop_
_space_group_symop_operation_xyz
x,y,z
-x,1/2+y,-z
loop_
_atom_site_type_symbol
_atom_site_label
_atom_site_fract_x
_atom_site_fract_y
_atom_site_fract_z
Si Si1 0.964573 0.081200 0.792551
Si Si2 0.681443 0.767652 0.651803
Si Si3 0.821530 0.616493 0.938899
Si Si4 0.321742 0.827494 0.812623
Si Si5 0.141832 0.826778 0.704313
Si Si6 0.561451 0.229053 0.816398
Si Si7 0.128738 0.509812 0.416902
O O1 0.193439 0.136761 0.518162
O O2 0.004702 0.959908 0.856490
O O3 0.865139 0.016641 0.754876
O O4 0.822216 0.204290 0.986809
O O5 0.546923 0.812572 0.655607
O O6 0.860911 0.866810 0.523923
O O7 0.524225 0.766145 0.944122
O O8 0.988654 0.699554 0.857936
O O9 0.928519 0.586119 0.680017
O O10 0.762090 0.473891 0.061588
O O11 0.624565 0.707131 0.102787
O O12 0.305704 0.818475 0.662396
O O13 0.265636 0.823271 0.430279
O O14 0.672479 0.087436 0.724939
#
# Coordination Sequence:
#
# PCOD9118816 Si02
#       7
#     2   2   2   2   2   2   2
#     4  12  26  45  73 106 143 181 241 292 353 415
#     4  12  25  42  73 104 137 181 237 296 347 419
#     4  11  23  47  73  97 144 183 233 293 350 414
#     4  12  26  47  70 105 144 188 236 286 351 424
#     4  11  29  45  69 104 145 194 231 282 356 426
#     4  11  24  43  70 101 136 179 234 291 350 408
#     4  11  23  41  68 107 131 178 234 292 351 404
#
# _framework density 22.737627
#
# number of rings (size 3 to 8) (size 9 to 14) (size 15 to 20)
#    0.000    0.571    5.714    1.714    6.000    3.429 
#    0.000    0.000    0.000    0.000    0.000    0.000 
#    0.000    0.000    0.000    0.000    0.000    0.000 
#
# Total GULP energy -78277.697505 kJ/mol
# GULP energy per Si atom -5591.264108 kJ/mol
# Density = 2.268587 g / cm^3
# Si number density = 22.737627 Si / 1000 Ang^3
#
#
#
# Elastic Constant Matrix: (Units=GPa)
#
#
# Indices 1 2 3 4 5 6 
#
# 1 97.1982 21.3119 0.2457 0.0000 11.4342 0.0000
# 2 21.3119 105.9104 0.8544 0.0000 -3.6705 0.0000
# 3 0.2457 0.8544 20.5586 0.0000 -6.5318 0.0000
# 4 0.0000 0.0000 0.0000 25.5606 0.0000 -3.7956
# 5 11.4342 -3.6705 -6.5318 0.0000 25.4999 0.0000
# 6 0.0000 0.0000 0.0000 -3.7956 0.0000 28.4685
#
#
#
# Elastic Compliance Matrix: (Units=1/GPa)
#
#
# Indices 1 2 3 4 5 6 
#
# 1 0.011557 -0.002519 -0.001954 0.000000 -0.006045 0.000000
# 2 -0.002519 0.010038 0.000469 0.000000 0.002695 0.000000
# 3 -0.001954 0.000469 0.053281 0.000000 0.014592 0.000000
# 4 0.000000 0.000000 0.000000 0.039913 0.000000 0.005321
# 5 -0.006045 0.002695 0.014592 0.000000 0.046052 0.000000
# 6 0.000000 0.000000 0.000000 0.005321 0.000000 0.035836
#
#
# Mechanical properties :
#
#
# Convention : Reuss Voigt Hill
#
# Bulk Modulus (GPa) = 14.95484 29.83237 22.39360
# Shear Modulus (GPa) = 22.02881 29.32281 25.67581
#
# Velocity S-wave (km/s) = 3.11597 3.59502 3.36403
# Velocity P-wave (km/s) = 4.42008 5.51189 4.99590
#
# Compressibility (1/GPa) = 0.06686800
#
# Stress axis : x y z
#
# Youngs Moduli (GPa) = 86.52977 99.61659 18.76830
#
# Poissons Ratio (x) = 0.25096 0.03667
# Poissons Ratio (y) = 0.21799 -0.00880
# Poissons Ratio (z) = 0.16909 -0.04673
#
# Static dielectric constant tensor:
#      x y z
#    x 1.814380 0.000000 0.000650 
#    y 0.000000 1.850980 0.000000 
#    z 0.000650 0.000000 1.865710 
# 
# From -- ./inp_files/1182.got.cif
#   From: 2010.05.17/outbox.cif.g08.bks.cpg/sg4_1_cif.got.tgz:1182.got - 2010.06.03 18:43:04.
