data_PCOD9118845
_publ_section_title
;
Structure prediction by ZEFSAII (Michael W. Deem and Ramdas Pophale) SiO2 
 PCOD9118845
Probable space group: P 21
;
_chemical_formula_sum "Si O2"
_cell_formula_units_Z 12
_cell_length_a 9.752776
_cell_length_b 8.069310
_cell_length_c 14.953210
_cell_angle_alpha 90.000000
_cell_angle_beta 154.660934
_cell_angle_gamma 90.000000
_cell_volume 503.635884
_symmetry_space_group_name_H-M "P 21"
_symmetry_group_IT_number 4
_symmetry_cell_setting 'monoclinic'
loop_
_space_group_symop_operation_xyz
x,y,z
-x,1/2+y,-z
loop_
_atom_site_type_symbol
_atom_site_label
_atom_site_fract_x
_atom_site_fract_y
_atom_site_fract_z
Si Si1 0.704014 0.348390 0.481080
Si Si2 0.769181 0.087566 0.030533
Si Si3 0.735641 0.835216 0.603831
Si Si4 0.595427 0.178870 0.747674
Si Si5 0.273755 0.227375 0.074542
Si Si6 0.755551 0.621267 0.132600
O O1 0.502400 0.356952 0.453793
O O2 0.655785 0.527574 0.407877
O O3 0.048098 0.277658 0.711164
O O4 0.525169 0.230663 0.303492
O O5 0.655716 0.216180 0.886636
O O6 0.493589 0.063841 0.940593
O O7 0.069304 0.168674 0.256422
O O8 0.822830 0.917364 0.008360
O O9 0.547447 0.816820 0.400578
O O10 0.982043 0.983178 0.735634
O O11 0.946492 0.138818 0.913112
O O12 0.401971 0.160402 0.055976
#
# Coordination Sequence:
#
# PCOD9118845 Si02
#       6
#     2   2   2   2   2   2
#     4  11  23  42  71  97 129 175 227 272 325 400
#     4  11  27  44  66 101 139 173 222 281 334 393
#     4  12  23  41  71  99 129 181 221 271 333 396
#     4  11  24  42  70  97 129 176 226 270 327 396
#     4  11  23  44  71  95 134 179 223 274 327 399
#     4  12  26  43  67 103 138 172 221 280 340 390
#
# _framework density 23.826739
#
# number of rings (size 3 to 8) (size 9 to 14) (size 15 to 20)
#    0.000    0.667    5.000    2.000    2.333    5.333 
#    0.000    0.000    0.000    0.000    0.000    0.000 
#    0.000    0.000    0.000    0.000    0.000    0.000 
#
# Total GULP energy -67176.602176 kJ/mol
# GULP energy per Si atom -5598.050181 kJ/mol
# Density = 2.377251 g / cm^3
# Si number density = 23.826739 Si / 1000 Ang^3
#
#
#
# Elastic Constant Matrix: (Units=GPa)
#
#
# Indices 1 2 3 4 5 6 
#
# 1 125.9961 24.7707 45.1038 0.0000 -24.3290 0.0000
# 2 24.7707 31.5854 18.9810 0.0000 2.8614 0.0000
# 3 45.1038 18.9810 82.8592 0.0000 -28.3294 0.0000
# 4 0.0000 0.0000 0.0000 31.8217 0.0000 0.3136
# 5 -24.3290 2.8614 -28.3294 0.0000 45.6344 0.0000
# 6 0.0000 0.0000 0.0000 0.3136 0.0000 27.5439
#
#
#
# Elastic Compliance Matrix: (Units=1/GPa)
#
#
# Indices 1 2 3 4 5 6 
#
# 1 0.011374 -0.007683 -0.002784 0.000000 0.004817 0.000000
# 2 -0.007683 0.045505 -0.010940 0.000000 -0.013741 0.000000
# 3 -0.002784 -0.010940 0.020079 0.000000 0.011666 0.000000
# 4 0.000000 0.000000 0.000000 0.031429 0.000000 -0.000358
# 5 0.004817 -0.013741 0.011666 0.000000 0.032585 0.000000
# 6 0.000000 0.000000 0.000000 -0.000358 0.000000 0.036310
#
#
# Mechanical properties :
#
#
# Convention : Reuss Voigt Hill
#
# Bulk Modulus (GPa) = 29.28829 46.46129 37.87479
# Shear Modulus (GPa) = 21.60039 31.10568 26.35303
#
# Velocity S-wave (km/s) = 3.01418 3.61708 3.32931
# Velocity P-wave (km/s) = 4.94293 6.08164 5.54161
#
# Compressibility (1/GPa) = 0.03414334
#
# Stress axis : x y z
#
# Youngs Moduli (GPa) = 87.91832 21.97578 49.80311
#
# Poissons Ratio (x) = 0.16885 0.13868
# Poissons Ratio (y) = 0.67550 0.54482
# Poissons Ratio (z) = 0.24481 0.24041
#
# Static dielectric constant tensor:
#      x y z
#    x 1.830170 0.000000 -0.034790 
#    y 0.000000 2.012630 0.000000 
#    z -0.034790 0.000000 1.888470 
# 
# From -- ./inp_files/5762.got.cif
#   From: 2010.05.17/outbox.cif.g08.bks.cpg/sg4_3_cif.got.tgz:5762.got - 2010.06.03 18:43:04.
