data_PCOD9118340
_publ_section_title
;
Structure prediction by ZEFSAII (Michael W. Deem and Ramdas Pophale) SiO2 
 PCOD9118340
Probable space group: P 21
;
_chemical_formula_sum "Si O2"
_cell_formula_units_Z 16
_cell_length_a 12.714079
_cell_length_b 5.785461
_cell_length_c 18.456723
_cell_angle_alpha 90.000000
_cell_angle_beta 150.767905
_cell_angle_gamma 90.000000
_cell_volume 662.990619
_symmetry_space_group_name_H-M "P 21"
_symmetry_group_IT_number 4
_symmetry_cell_setting 'monoclinic'
loop_
_space_group_symop_operation_xyz
x,y,z
-x,1/2+y,-z
loop_
_atom_site_type_symbol
_atom_site_label
_atom_site_fract_x
_atom_site_fract_y
_atom_site_fract_z
Si Si1 0.997447 0.871720 0.369152
Si Si2 0.026434 0.178144 0.130514
Si Si3 0.358508 0.008876 0.834036
Si Si4 0.823746 0.172189 0.153627
Si Si5 0.449080 0.933760 0.430590
Si Si6 0.396272 0.530348 0.634615
Si Si7 0.282418 0.406361 0.164488
Si Si8 0.298686 0.096596 0.640871
O O1 0.186024 0.688485 0.495787
O O2 0.768642 0.751200 0.237992
O O3 0.061730 0.057153 0.468265
O O4 0.997990 0.999766 0.293005
O O5 0.915278 0.279674 0.135290
O O6 0.202322 0.990880 0.262009
O O7 0.146787 0.374507 0.155968
O O8 0.857290 0.041739 0.978243
O O9 0.339324 0.953612 0.737561
O O10 0.244238 0.845234 0.823375
O O11 0.607367 0.036270 0.002484
O O12 0.520580 0.181212 0.512746
O O13 0.570636 0.928896 0.426273
O O14 0.624630 0.648722 0.792723
O O15 0.337832 0.366877 0.666196
O O16 0.513753 0.531150 0.304247
#
# Coordination Sequence:
#
# PCOD9118340 Si02
#       8
#     2   2   2   2   2   2   2   2
#     4  11  26  46  77 108 147 203 255 316 387 462
#     4  11  26  47  78 109 157 198 262 322 398 475
#     4  12  27  48  74 110 151 203 245 324 387 473
#     4  12  26  51  70 111 155 192 258 317 391 466
#     4  11  27  46  74 114 161 209 259 326 402 482
#     4  10  25  47  76 107 151 198 264 323 378 476
#     4  10  25  47  73 118 140 204 253 317 390 471
#     4  11  26  50  78 109 152 193 266 313 393 469
#
# _framework density 24.133071999999999
#
# number of rings (size 3 to 8) (size 9 to 14) (size 15 to 20)
#    0.000    1.000    2.500    1.500   15.750    1.000 
#    6.750    0.000    0.000    0.000    0.000    0.000 
#    0.000    0.000    0.000    0.000    0.000    0.000 
#
# Total GULP energy -89312.905754 kJ/mol
# GULP energy per Si atom -5582.056610 kJ/mol
# Density = 2.407814 g / cm^3
# Si number density = 24.133072 Si / 1000 Ang^3
#
#
#
# Elastic Constant Matrix: (Units=GPa)
#
#
# Indices 1 2 3 4 5 6 
#
# 1 134.0089 42.0843 11.3271 0.0000 -1.9955 0.0000
# 2 42.0843 56.8093 17.5899 0.0000 -11.7741 0.0000
# 3 11.3271 17.5899 96.0884 0.0000 -4.8705 0.0000
# 4 0.0000 0.0000 0.0000 36.8517 0.0000 -2.7483
# 5 -1.9955 -11.7741 -4.8705 0.0000 23.7307 0.0000
# 6 0.0000 0.0000 0.0000 -2.7483 0.0000 31.3139
#
#
#
# Elastic Compliance Matrix: (Units=1/GPa)
#
#
# Indices 1 2 3 4 5 6 
#
# 1 0.009932 -0.008051 0.000144 0.000000 -0.003130 0.000000
# 2 -0.008051 0.027125 -0.003404 0.000000 0.012082 0.000000
# 3 0.000144 -0.003404 0.011043 0.000000 0.000590 0.000000
# 4 0.000000 0.000000 0.000000 0.027315 0.000000 0.002397
# 5 -0.003130 0.012082 0.000590 0.000000 0.047992 0.000000
# 6 0.000000 0.000000 0.000000 0.002397 0.000000 0.032145
#
#
# Mechanical properties :
#
#
# Convention : Reuss Voigt Hill
#
# Bulk Modulus (GPa) = 39.24811 47.65657 43.45234
# Shear Modulus (GPa) = 26.78596 32.77294 29.77945
#
# Velocity S-wave (km/s) = 3.33517 3.68912 3.51660
# Velocity P-wave (km/s) = 5.57940 6.15925 5.87648
#
# Compressibility (1/GPa) = 0.02547893
#
# Stress axis : x y z
#
# Youngs Moduli (GPa) = 100.68848 36.86661 90.55430
#
# Poissons Ratio (x) = 0.29680 -0.01307
# Poissons Ratio (y) = 0.81061 0.30825
# Poissons Ratio (z) = -0.01454 0.12549
#
# Static dielectric constant tensor:
#      x y z
#    x 1.982540 0.000000 -0.037290 
#    y 0.000000 2.150390 0.000000 
#    z -0.037290 0.000000 1.884530 
# 
# From -- ./inp_files/15092.got.cif
#   From: 2010.05.17/outbox.cif.g08.bks.cpg/sg4_8_cif.got.tgz:15092.got - 2010.06.03 18:43:04.
