data_PCOD9118019
_publ_section_title
;
Structure prediction by ZEFSAII (Michael W. Deem and Ramdas Pophale) SiO2 
 PCOD9118019
Probable space group: P 21
;
_chemical_formula_sum "Si O2"
_cell_formula_units_Z 12
_cell_length_a 9.838356
_cell_length_b 8.648051
_cell_length_c 5.257596
_cell_angle_alpha 90.000000
_cell_angle_beta 87.068652
_cell_angle_gamma 90.000000
_cell_volume 446.744642
_symmetry_space_group_name_H-M "P 21"
_symmetry_group_IT_number 4
_symmetry_cell_setting 'monoclinic'
loop_
_space_group_symop_operation_xyz
x,y,z
-x,1/2+y,-z
loop_
_atom_site_type_symbol
_atom_site_label
_atom_site_fract_x
_atom_site_fract_y
_atom_site_fract_z
Si Si1 0.627923 0.197910 0.772779
Si Si2 0.627113 0.663047 0.915553
Si Si3 0.823147 0.408656 0.006359
Si Si4 0.040319 0.028987 0.526969
Si Si5 0.200764 0.336655 0.486367
Si Si6 0.517276 0.935284 0.465225
O O1 0.760697 0.246980 0.913942
O O2 0.600488 0.304614 0.526627
O O3 0.581138 0.028327 0.697286
O O4 0.503140 0.248693 0.963636
O O5 0.701946 0.531911 0.073482
O O6 0.742169 0.771466 0.785280
O O7 0.559104 0.562993 0.694400
O O8 0.898103 0.477392 0.749877
O O9 0.913773 0.414906 0.248249
O O10 0.879732 0.997593 0.520269
O O11 0.097323 0.200122 0.584454
O O12 0.337709 0.359235 0.637151
#
# Coordination Sequence:
#
# PCOD9118019 Si02
#       6
#     2   2   2   2   2   2
#     4  11  25  41  76 108 150 196 256 320 390 443
#     4  10  24  43  71 109 143 197 247 326 378 452
#     4  10  26  45  74 101 154 196 252 305 377 449
#     4  11  27  51  70 108 151 205 251 307 369 461
#     4  11  26  48  77 107 155 197 258 308 384 453
#     4  11  24  44  70 109 145 193 248 322 382 446
#
# _framework density 26.860983000000001
#
# number of rings (size 3 to 8) (size 9 to 14) (size 15 to 20)
#    0.000    1.333    1.667    1.000   14.000    4.000 
#    0.000    0.000    0.000    0.000    0.000    0.000 
#    0.000    0.000    0.000    0.000    0.000    0.000 
#
# Total GULP energy -67007.782618 kJ/mol
# GULP energy per Si atom -5583.981885 kJ/mol
# Density = 2.679985 g / cm^3
# Si number density = 26.860983 Si / 1000 Ang^3
#
#
#
# Elastic Constant Matrix: (Units=GPa)
#
#
# Indices 1 2 3 4 5 6 
#
# 1 58.1603 -8.5442 -6.5997 0.0000 3.3475 0.0000
# 2 -8.5442 70.4939 6.3379 0.0000 -5.0413 0.0000
# 3 -6.5997 6.3379 73.8388 0.0000 11.1034 0.0000
# 4 0.0000 0.0000 0.0000 27.4395 0.0000 -6.0245
# 5 3.3475 -5.0413 11.1034 0.0000 39.7115 0.0000
# 6 0.0000 0.0000 0.0000 -6.0245 0.0000 51.0380
#
#
#
# Elastic Compliance Matrix: (Units=1/GPa)
#
#
# Indices 1 2 3 4 5 6 
#
# 1 0.017761 0.001877 0.001687 0.000000 -0.001730 0.000000
# 2 0.001877 0.014690 -0.001409 0.000000 0.002101 0.000000
# 3 0.001687 -0.001409 0.014471 0.000000 -0.004367 0.000000
# 4 0.000000 0.000000 0.000000 0.037414 0.000000 0.004416
# 5 -0.001730 0.002101 -0.004367 0.000000 0.026815 0.000000
# 6 0.000000 0.000000 0.000000 0.004416 0.000000 0.020115
#
#
# Mechanical properties :
#
#
# Convention : Reuss Voigt Hill
#
# Bulk Modulus (GPa) = 19.51915 20.54233 20.03074
# Shear Modulus (GPa) = 34.71427 37.72439 36.21933
#
# Velocity S-wave (km/s) = 3.59885 3.75164 3.67604
# Velocity P-wave (km/s) = 4.95495 5.14107 5.04887
#
# Compressibility (1/GPa) = 0.05123174
#
# Stress axis : x y z
#
# Youngs Moduli (GPa) = 56.30432 68.07319 69.10178
#
# Poissons Ratio (x) = -0.12779 -0.11654
# Poissons Ratio (y) = -0.10570 0.09736
# Poissons Ratio (z) = -0.09496 0.09591
#
# Static dielectric constant tensor:
#      x y z
#    x 2.095170 0.000000 -0.118590 
#    y 0.000000 2.199110 0.000000 
#    z -0.118590 0.000000 2.184700 
# 
# From -- ./inp_files/2442.got.cif
#   From: 2010.05.17/outbox.cif.g08.bks.cpg/sg4_2_cif.got.tgz:2442.got - 2010.06.03 18:43:04.
