data_PCOD9118102
_publ_section_title
;
Structure prediction by ZEFSAII (Michael W. Deem and Ramdas Pophale) SiO2 
 PCOD9118102
Probable space group: P 21
;
_chemical_formula_sum "Si O2"
_cell_formula_units_Z 14
_cell_length_a 6.113855
_cell_length_b 8.079783
_cell_length_c 11.215748
_cell_angle_alpha 90.000000
_cell_angle_beta 88.753690
_cell_angle_gamma 90.000000
_cell_volume 553.911423
_symmetry_space_group_name_H-M "P 21"
_symmetry_group_IT_number 4
_symmetry_cell_setting 'monoclinic'
loop_
_space_group_symop_operation_xyz
x,y,z
-x,1/2+y,-z
loop_
_atom_site_type_symbol
_atom_site_label
_atom_site_fract_x
_atom_site_fract_y
_atom_site_fract_z
Si Si1 0.827617 0.889210 0.515374
Si Si2 0.815650 0.437214 0.297697
Si Si3 0.494052 0.913561 0.902426
Si Si4 0.891075 0.687726 0.848526
Si Si5 0.849224 0.354318 0.706609
Si Si6 0.814179 0.192413 0.942097
Si Si7 0.577421 0.542398 0.535837
O O1 0.700430 0.717412 0.548306
O O2 0.964146 0.957805 0.624389
O O3 0.681254 0.042737 0.472423
O O4 0.976927 0.841379 0.401034
O O5 0.656887 0.507355 0.193845
O O6 0.652359 0.458053 0.411297
O O7 0.911263 0.282728 0.221106
O O8 0.669832 0.030550 0.962777
O O9 0.653033 0.774313 0.840384
O O10 0.336476 0.837223 0.003557
O O11 0.897998 0.508501 0.791713
O O12 0.964355 0.685809 0.985522
O O13 0.847854 0.206328 0.800306
O O14 0.632076 0.412884 0.640335
#
# Coordination Sequence:
#
# PCOD9118102 Si02
#       7
#     2   2   2   2   2   2   2
#     4  11  26  47  73 107 146 189 244 300 373 432
#     4  10  24  45  71 104 144 187 234 297 361 431
#     4  11  25  46  76 105 149 191 244 295 367 427
#     4  11  23  46  74 102 147 189 240 299 362 425
#     4  11  26  46  72 106 147 189 239 305 362 438
#     4  11  26  46  73 110 142 194 244 300 359 438
#     4  11  26  44  73 104 143 187 243 300 368 435
#
# _framework density 25.274799999999999
#
# number of rings (size 3 to 8) (size 9 to 14) (size 15 to 20)
#    0.000    1.143    1.429    2.571    6.000    5.714 
#    0.000    0.000    0.000    0.000    0.000    0.000 
#    0.000    0.000    0.000    0.000    0.000    0.000 
#
# Total GULP energy -78153.665320 kJ/mol
# GULP energy per Si atom -5582.404666 kJ/mol
# Density = 2.521727 g / cm^3
# Si number density = 25.274800 Si / 1000 Ang^3
#
#
#
# Elastic Constant Matrix: (Units=GPa)
#
#
# Indices 1 2 3 4 5 6 
#
# 1 82.0753 25.7212 41.2164 0.0000 27.6318 0.0000
# 2 25.7212 47.3076 40.4991 0.0000 -4.5272 0.0000
# 3 41.2164 40.4991 154.4522 0.0000 5.5001 0.0000
# 4 0.0000 0.0000 0.0000 37.0380 0.0000 -1.5635
# 5 27.6318 -4.5272 5.5001 0.0000 34.6162 0.0000
# 6 0.0000 0.0000 0.0000 -1.5635 0.0000 32.0876
#
#
#
# Elastic Compliance Matrix: (Units=1/GPa)
#
#
# Indices 1 2 3 4 5 6 
#
# 1 0.024645 -0.013446 -0.002301 0.000000 -0.021065 0.000000
# 2 -0.013446 0.035384 -0.006272 0.000000 0.016357 0.000000
# 3 -0.002301 -0.006272 0.008747 0.000000 -0.000373 0.000000
# 4 0.000000 0.000000 0.000000 0.027055 0.000000 0.001318
# 5 -0.021065 0.016357 -0.000373 0.000000 0.047902 0.000000
# 6 0.000000 0.000000 0.000000 0.001318 0.000000 0.031229
#
#
# Mechanical properties :
#
#
# Convention : Reuss Voigt Hill
#
# Bulk Modulus (GPa) = 40.42494 55.41206 47.91850
# Shear Modulus (GPa) = 22.00269 32.50825 27.25547
#
# Velocity S-wave (km/s) = 2.95369 3.59024 3.28741
# Velocity P-wave (km/s) = 5.25940 6.25763 5.78010
#
# Compressibility (1/GPa) = 0.02473720
#
# Stress axis : x y z
#
# Youngs Moduli (GPa) = 40.57605 28.26156 114.33140
#
# Poissons Ratio (x) = 0.38000 0.26307
# Poissons Ratio (y) = 0.54557 0.71714
# Poissons Ratio (z) = 0.09336 0.17727
#
# Static dielectric constant tensor:
#      x y z
#    x 2.059380 0.000000 -0.008860 
#    y 0.000000 2.060990 0.000000 
#    z -0.008860 0.000000 1.967840 
# 
# From -- ./inp_files/2514.got.cif
#   From: 2010.05.17/outbox.cif.g08.bks.cpg/sg4_2_cif.got.tgz:2514.got - 2010.06.03 18:43:04.
