data_PCOD9118316
_publ_section_title
;
Structure prediction by ZEFSAII (Michael W. Deem and Ramdas Pophale) SiO2 
 PCOD9118316
Probable space group: P 21
;
_chemical_formula_sum "Si O2"
_cell_formula_units_Z 14
_cell_length_a 13.299129
_cell_length_b 4.955907
_cell_length_c 8.107381
_cell_angle_alpha 90.000000
_cell_angle_beta 103.954311
_cell_angle_gamma 90.000000
_cell_volume 518.581773
_symmetry_space_group_name_H-M "P 21"
_symmetry_group_IT_number 4
_symmetry_cell_setting 'monoclinic'
loop_
_space_group_symop_operation_xyz
x,y,z
-x,1/2+y,-z
loop_
_atom_site_type_symbol
_atom_site_label
_atom_site_fract_x
_atom_site_fract_y
_atom_site_fract_z
Si Si1 0.554521 0.872060 0.960341
Si Si2 0.243202 0.646830 0.362577
Si Si3 0.443161 0.282827 0.415000
Si Si4 0.023809 0.420242 0.911483
Si Si5 0.170312 0.971182 0.649967
Si Si6 0.242976 0.707336 0.987876
Si Si7 0.065308 0.283622 0.380916
O O1 0.555815 0.747269 0.779744
O O2 0.525671 0.622773 0.064835
O O3 0.662545 0.020832 0.030868
O O4 0.337464 0.435373 0.421049
O O5 0.229295 0.829518 0.520137
O O6 0.137887 0.473587 0.301175
O O7 0.258696 0.785752 0.187334
O O8 0.533635 0.495615 0.496147
O O9 0.954012 0.507387 0.728244
O O10 0.138159 0.534323 0.934676
O O11 0.974240 0.611051 0.034619
O O12 0.228315 0.936679 0.844247
O O13 0.138991 0.263930 0.570676
O O14 0.050870 0.867736 0.622138
#
# Coordination Sequence:
#
# PCOD9118316 Si02
#       7
#     2   2   2   2   2   2   2
#     4  11  26  49  76 106 147 185 248 311 364 440
#     4  11  24  47  69 101 148 184 244 299 360 443
#     4  11  27  48  77 108 141 195 245 303 378 430
#     4  11  23  42  71 104 148 187 240 292 355 437
#     4  11  24  43  68 103 146 184 243 293 361 435
#     4  10  25  46  69 106 137 200 236 294 372 427
#     4  11  23  41  70 104 147 191 238 298 362 430
#
# _framework density 26.996707000000001
#
# number of rings (size 3 to 8) (size 9 to 14) (size 15 to 20)
#    0.000    1.143    2.857    1.714    6.000    1.143 
#    2.571    0.000    0.000    0.000    0.000    0.000 
#    0.000    0.000    0.000    0.000    0.000    0.000 
#
# Total GULP energy -78455.524824 kJ/mol
# GULP energy per Si atom -5603.966059 kJ/mol
# Density = 2.693526 g / cm^3
# Si number density = 26.996707 Si / 1000 Ang^3
#
#
#
# Elastic Constant Matrix: (Units=GPa)
#
#
# Indices 1 2 3 4 5 6 
#
# 1 129.2520 22.1676 22.4104 0.0000 -12.6446 0.0000
# 2 22.1676 79.9715 24.5933 0.0000 -10.0776 0.0000
# 3 22.4104 24.5933 106.2281 0.0000 -5.8862 0.0000
# 4 0.0000 0.0000 0.0000 34.1814 0.0000 -2.6072
# 5 -12.6446 -10.0776 -5.8862 0.0000 32.9138 0.0000
# 6 0.0000 0.0000 0.0000 -2.6072 0.0000 44.5317
#
#
#
# Elastic Compliance Matrix: (Units=1/GPa)
#
#
# Indices 1 2 3 4 5 6 
#
# 1 0.008486 -0.001643 -0.001270 0.000000 0.002530 0.000000
# 2 -0.001643 0.014217 -0.002766 0.000000 0.003227 0.000000
# 3 -0.001270 -0.002766 0.010351 0.000000 0.000516 0.000000
# 4 0.000000 0.000000 0.000000 0.029387 0.000000 0.001721
# 5 0.002530 0.003227 0.000516 0.000000 0.032435 0.000000
# 6 0.000000 0.000000 0.000000 0.001721 0.000000 0.022557
#
#
# Mechanical properties :
#
#
# Convention : Reuss Voigt Hill
#
# Bulk Modulus (GPa) = 46.09054 50.42156 48.25605
# Shear Modulus (GPa) = 36.75871 38.74407 37.75139
#
# Velocity S-wave (km/s) = 3.69399 3.79243 3.74354
# Velocity P-wave (km/s) = 5.94170 6.15583 6.04971
#
# Compressibility (1/GPa) = 0.02169643
#
# Stress axis : x y z
#
# Youngs Moduli (GPa) = 117.83723 70.33739 96.61308
#
# Poissons Ratio (x) = 0.11557 0.12267
# Poissons Ratio (y) = 0.19361 0.26723
# Poissons Ratio (z) = 0.14962 0.19456
#
# Static dielectric constant tensor:
#      x y z
#    x 2.090570 0.000000 -0.039140 
#    y 0.000000 2.117260 0.000000 
#    z -0.039140 0.000000 2.211060 
# 
# From -- ./inp_files/7404.got.cif
#   From: 2010.05.17/outbox.cif.g08.bks.cpg/sg4_4_cif.got.tgz:7404.got - 2010.06.03 18:43:04.
