data_PCOD9118229
_publ_section_title
;
Structure prediction by ZEFSAII (Michael W. Deem and Ramdas Pophale) SiO2 
 PCOD9118229
Probable space group: P 21
;
_chemical_formula_sum "Si O2"
_cell_formula_units_Z 14
_cell_length_a 11.005150
_cell_length_b 5.055443
_cell_length_c 11.561283
_cell_angle_alpha 90.000000
_cell_angle_beta 129.280770
_cell_angle_gamma 90.000000
_cell_volume 497.888129
_symmetry_space_group_name_H-M "P 21"
_symmetry_group_IT_number 4
_symmetry_cell_setting 'monoclinic'
loop_
_space_group_symop_operation_xyz
x,y,z
-x,1/2+y,-z
loop_
_atom_site_type_symbol
_atom_site_label
_atom_site_fract_x
_atom_site_fract_y
_atom_site_fract_z
Si Si1 0.593387 0.587420 0.018404
Si Si2 0.058264 0.852170 0.965493
Si Si3 0.081978 0.075159 0.414155
Si Si4 0.230576 0.409525 0.337175
Si Si5 0.647290 0.988642 0.845087
Si Si6 0.342800 0.733904 0.613297
Si Si7 0.784064 0.875412 0.298300
O O1 0.732579 0.623286 0.195720
O O2 0.536384 0.285779 0.999096
O O3 0.659149 0.756042 0.947759
O O4 0.956546 0.975546 0.797167
O O5 0.235960 0.736788 0.057850
O O6 0.033261 0.085299 0.044875
O O7 0.199682 0.130294 0.378905
O O8 0.163394 0.818993 0.514806
O O9 0.900431 0.036614 0.285399
O O10 0.119093 0.294951 0.530358
O O11 0.298239 0.407613 0.250786
O O12 0.341530 0.578796 0.490111
O O13 0.459283 0.978670 0.706509
O O14 0.361887 0.535986 0.733836
#
# Coordination Sequence:
#
# PCOD9118229 Si02
#       7
#     2   2   2   2   2   2   2
#     4  12  27  49  75 108 151 200 261 318 389 461
#     4  10  24  49  77 110 158 208 264 313 395 479
#     4  11  23  43  75 105 154 195 261 315 392 473
#     4  10  26  45  75 116 150 209 253 326 398 480
#     4  11  25  50  76 112 159 203 258 336 388 480
#     4  11  24  47  73 114 153 200 263 318 403 464
#     4  11  23  45  75 107 145 205 256 324 383 465
#
# _framework density 28.118766000000001
#
# number of rings (size 3 to 8) (size 9 to 14) (size 15 to 20)
#    0.000    1.143    2.857    1.714    6.000    2.286 
#   12.857    0.000    0.000    0.000    0.000    0.000 
#    0.000    0.000    0.000    0.000    0.000    0.000 
#
# Total GULP energy -78073.360264 kJ/mol
# GULP energy per Si atom -5576.668590 kJ/mol
# Density = 2.805477 g / cm^3
# Si number density = 28.118766 Si / 1000 Ang^3
#
#
#
# Elastic Constant Matrix: (Units=GPa)
#
#
# Indices 1 2 3 4 5 6 
#
# 1 102.5660 17.8600 5.2487 0.0000 -6.4877 0.0000
# 2 17.8600 123.8314 24.1423 0.0000 10.7680 0.0000
# 3 5.2487 24.1423 107.7388 0.0000 1.3575 0.0000
# 4 0.0000 0.0000 0.0000 45.3402 0.0000 11.9413
# 5 -6.4877 10.7680 1.3575 0.0000 48.0494 0.0000
# 6 0.0000 0.0000 0.0000 11.9413 0.0000 38.1446
#
#
#
# Elastic Compliance Matrix: (Units=1/GPa)
#
#
# Indices 1 2 3 4 5 6 
#
# 1 0.010143 -0.001582 -0.000161 0.000000 0.001729 0.000000
# 2 -0.001582 0.008857 -0.001881 0.000000 -0.002145 0.000000
# 3 -0.000161 -0.001881 0.009709 0.000000 0.000125 0.000000
# 4 0.000000 0.000000 0.000000 0.024037 0.000000 -0.007525
# 5 0.001729 -0.002145 0.000125 0.000000 0.021523 0.000000
# 6 0.000000 0.000000 0.000000 -0.007525 0.000000 0.028572
#
#
# Mechanical properties :
#
#
# Convention : Reuss Voigt Hill
#
# Bulk Modulus (GPa) = 46.59496 47.62647 47.11072
# Shear Modulus (GPa) = 42.64684 45.43252 44.03968
#
# Velocity S-wave (km/s) = 3.89867 4.02398 3.96182
# Velocity P-wave (km/s) = 6.07231 6.21002 6.14155
#
# Compressibility (1/GPa) = 0.02146155
#
# Stress axis : x y z
#
# Youngs Moduli (GPa) = 98.59169 112.90744 102.99304
#
# Poissons Ratio (x) = 0.17859 0.01663
# Poissons Ratio (y) = 0.15594 0.19369
# Poissons Ratio (z) = 0.01592 0.21233
#
# Static dielectric constant tensor:
#      x y z
#    x 2.309630 0.000000 -0.031320 
#    y 0.000000 2.199290 0.000000 
#    z -0.031320 0.000000 2.423020 
# 
# From -- ./inp_files/11550.got.cif
#   From: 2010.05.17/outbox.cif.g08.bks.cpg/sg4_6_cif.got.tgz:11550.got - 2010.06.03 18:43:04.
