data_PCOD9118258
_publ_section_title
;
Structure prediction by ZEFSAII (Michael W. Deem and Ramdas Pophale) SiO2 
 PCOD9118258
Probable space group: P 21
;
_chemical_formula_sum "Si O2"
_cell_formula_units_Z 10
_cell_length_a 15.823647
_cell_length_b 5.037403
_cell_length_c 7.941812
_cell_angle_alpha 90.000000
_cell_angle_beta 39.698866
_cell_angle_gamma 90.000000
_cell_volume 404.357552
_symmetry_space_group_name_H-M "P 21"
_symmetry_group_IT_number 4
_symmetry_cell_setting 'monoclinic'
loop_
_space_group_symop_operation_xyz
x,y,z
-x,1/2+y,-z
loop_
_atom_site_type_symbol
_atom_site_label
_atom_site_fract_x
_atom_site_fract_y
_atom_site_fract_z
Si Si1 0.912745 0.101370 0.408470
Si Si2 0.691082 0.378325 0.553727
Si Si3 0.435465 0.606214 0.518750
Si Si4 0.216047 0.245696 0.893787
Si Si5 0.782514 0.576753 0.741047
O O1 0.814519 0.183024 0.406889
O O2 0.864609 0.303741 0.627496
O O3 0.878949 0.805543 0.518734
O O4 0.060438 0.185844 0.136782
O O5 0.568630 0.220751 0.663291
O O6 0.676608 0.520798 0.756090
O O7 0.729921 0.589084 0.350945
O O8 0.508392 0.330772 0.444428
O O9 0.279782 0.538279 0.787714
O O10 0.265662 0.152899 0.002048
#
# Coordination Sequence:
#
# PCOD9118258 Si02
#       5
#     2   2   2   2   2
#     4  10  25  41  69 115 149 173 224 296 356 446
#     4  10  26  44  73 104 145 184 236 293 350 428
#     4  12  27  47  75 101 139 196 254 296 339 414
#     4  12  25  45  78 102 146 193 232 284 376 414
#     4  10  25  43  69 110 149 176 230 289 365 436
#
# _framework density 24.730587
#
# number of rings (size 3 to 8) (size 9 to 14) (size 15 to 20)
#    1.200    0.000    2.000    2.400   11.200    0.000 
#    0.000    0.000   13.200    0.000    0.000    0.000 
#    0.000    0.000    0.000    0.000    0.000    0.000 
#
# Total GULP energy -55843.861343 kJ/mol
# GULP energy per Si atom -5584.386134 kJ/mol
# Density = 2.467430 g / cm^3
# Si number density = 24.730587 Si / 1000 Ang^3
#
#
#
# Elastic Constant Matrix: (Units=GPa)
#
#
# Indices 1 2 3 4 5 6 
#
# 1 177.2181 39.1343 33.6301 0.0000 25.9383 0.0000
# 2 39.1343 105.6735 7.6730 0.0000 -10.3524 0.0000
# 3 33.6301 7.6730 70.7657 0.0000 3.8339 0.0000
# 4 0.0000 0.0000 0.0000 31.9667 0.0000 0.8692
# 5 25.9383 -10.3524 3.8339 0.0000 33.0453 0.0000
# 6 0.0000 0.0000 0.0000 0.8692 0.0000 33.0564
#
#
#
# Elastic Compliance Matrix: (Units=1/GPa)
#
#
# Indices 1 2 3 4 5 6 
#
# 1 0.008004 -0.003429 -0.003053 0.000000 -0.007003 0.000000
# 2 -0.003429 0.011339 0.000062 0.000000 0.006236 0.000000
# 3 -0.003053 0.000062 0.015542 0.000000 0.000612 0.000000
# 4 0.000000 0.000000 0.000000 0.031305 0.000000 -0.000823
# 5 -0.007003 0.006236 0.000612 0.000000 0.037641 0.000000
# 6 0.000000 0.000000 0.000000 -0.000823 0.000000 0.030273
#
#
# Mechanical properties :
#
#
# Convention : Reuss Voigt Hill
#
# Bulk Modulus (GPa) = 45.35788 57.17024 51.26406
# Shear Modulus (GPa) = 32.40622 37.82832 35.11727
#
# Velocity S-wave (km/s) = 3.62383 3.91527 3.77237
# Velocity P-wave (km/s) = 5.99084 6.60353 6.30463
#
# Compressibility (1/GPa) = 0.02204688
#
# Stress axis : x y z
#
# Youngs Moduli (GPa) = 124.93618 88.18928 64.34189
#
# Poissons Ratio (x) = 0.30236 0.19641
# Poissons Ratio (y) = 0.42835 -0.00399
# Poissons Ratio (z) = 0.38139 -0.00547
#
# Static dielectric constant tensor:
#      x y z
#    x 1.996810 0.000000 -0.059740 
#    y 0.000000 1.980070 0.000000 
#    z -0.059740 0.000000 1.934140 
# 
# From -- ./inp_files/9331.got.cif
#   From: 2010.05.17/outbox.cif.g08.bks.cpg/sg4_5_cif.got.tgz:9331.got - 2010.06.03 18:43:04.
