data_PCOD9118726
_publ_section_title
;
Structure prediction by ZEFSAII (Michael W. Deem and Ramdas Pophale) SiO2 
 PCOD9118726
Probable space group: P 21
;
_chemical_formula_sum "Si O2"
_cell_formula_units_Z 16
_cell_length_a 6.171734
_cell_length_b 9.212066
_cell_length_c 13.443467
_cell_angle_alpha 90.000000
_cell_angle_beta 114.216490
_cell_angle_gamma 90.000000
_cell_volume 697.061930
_symmetry_space_group_name_H-M "P 21"
_symmetry_group_IT_number 4
_symmetry_cell_setting 'monoclinic'
loop_
_space_group_symop_operation_xyz
x,y,z
-x,1/2+y,-z
loop_
_atom_site_type_symbol
_atom_site_label
_atom_site_fract_x
_atom_site_fract_y
_atom_site_fract_z
Si Si1 0.836857 0.205390 0.456775
Si Si2 0.442257 0.434547 0.363141
Si Si3 0.717453 0.859485 0.119649
Si Si4 0.483414 0.178687 0.099927
Si Si5 0.738424 0.686662 0.331775
Si Si6 0.045664 0.800138 0.725827
Si Si7 0.837806 0.538125 0.802066
Si Si8 0.585959 0.942350 0.414642
O O1 0.577906 0.279981 0.403352
O O2 0.966782 0.295983 0.395469
O O3 0.982929 0.193713 0.585974
O O4 0.805279 0.039508 0.417061
O O5 0.598727 0.534711 0.318404
O O6 0.454417 0.488611 0.479784
O O7 0.164240 0.411750 0.281343
O O8 0.710228 0.771772 0.222840
O O9 0.586632 0.016001 0.101817
O O10 0.601107 0.756020 0.015933
O O11 0.982987 0.908570 0.137365
O O12 0.679739 0.288788 0.185587
O O13 0.262169 0.141039 0.129720
O O14 0.629035 0.775709 0.403014
O O15 0.964045 0.645424 0.750207
O O16 0.623210 0.475379 0.699806
#
# Coordination Sequence:
#
# PCOD9118726 Si02
#       8
#     2   2   2   2   2   2   2   2
#     4  12  23  45  70 104 154 193 240 298 369 452
#     4  12  25  40  70 114 148 193 239 302 369 460
#     4  11  27  49  74 105 143 196 250 316 369 436
#     4  11  25  50  75 103 141 194 251 312 371 437
#     4  12  25  44  70 112 154 189 245 307 371 441
#     4  11  22  44  73 103 141 195 237 296 371 444
#     4  11  22  46  77  99 135 195 245 301 367 445
#     4  12  21  44  71 102 148 191 241 288 377 445
#
# _framework density 22.953486000000002
#
# number of rings (size 3 to 8) (size 9 to 14) (size 15 to 20)
#    0.000    0.500    5.000    3.750    0.000    4.000 
#    2.250    0.000    0.000    0.000    0.000    0.000 
#    0.000    0.000    0.000    0.000    0.000    0.000 
#
# Total GULP energy -89234.486462 kJ/mol
# GULP energy per Si atom -5577.155404 kJ/mol
# Density = 2.290124 g / cm^3
# Si number density = 22.953486 Si / 1000 Ang^3
#
#
#
# Elastic Constant Matrix: (Units=GPa)
#
#
# Indices 1 2 3 4 5 6 
#
# 1 72.2110 37.3791 56.9665 0.0000 -5.8660 0.0000
# 2 37.3791 120.4129 62.6805 0.0000 7.2310 0.0000
# 3 56.9665 62.6805 167.1393 0.0000 8.1685 0.0000
# 4 0.0000 0.0000 0.0000 39.6555 0.0000 -6.1190
# 5 -5.8660 7.2310 8.1685 0.0000 14.2063 0.0000
# 6 0.0000 0.0000 0.0000 -6.1190 0.0000 28.9191
#
#
#
# Elastic Compliance Matrix: (Units=1/GPa)
#
#
# Indices 1 2 3 4 5 6 
#
# 1 0.022858 -0.004451 -0.006887 0.000000 0.015664 0.000000
# 2 -0.004451 0.011322 -0.002425 0.000000 -0.006206 0.000000
# 3 -0.006887 -0.002425 0.009588 0.000000 -0.007122 0.000000
# 4 0.000000 0.000000 0.000000 0.026068 0.000000 0.005516
# 5 0.015664 -0.006206 -0.007122 0.000000 0.084113 0.000000
# 6 0.000000 0.000000 0.000000 0.005516 0.000000 0.035746
#
#
# Mechanical properties :
#
#
# Convention : Reuss Voigt Hill
#
# Bulk Modulus (GPa) = 61.57506 74.86839 68.22172
# Shear Modulus (GPa) = 22.45813 30.07198 26.26505
#
# Velocity S-wave (km/s) = 3.13136 3.62349 3.38638
# Velocity P-wave (km/s) = 6.32125 7.08481 6.71389
#
# Compressibility (1/GPa) = 0.01624034
#
# Stress axis : x y z
#
# Youngs Moduli (GPa) = 43.74845 88.32518 104.29723
#
# Poissons Ratio (x) = 0.39317 0.71829
# Poissons Ratio (y) = 0.19474 0.25297
# Poissons Ratio (z) = 0.30129 0.21423
#
# Static dielectric constant tensor:
#      x y z
#    x 1.997180 0.000000 0.057490 
#    y 0.000000 1.894440 0.000000 
#    z 0.057490 0.000000 1.826850 
# 
# From -- ./inp_files/13313.got.cif
#   From: 2010.05.17/outbox.cif.g08.bks.cpg/sg4_7_cif.got.tgz:13313.got - 2010.06.03 18:43:04.
