data_PCOD9118757
_publ_section_title
;
Structure prediction by ZEFSAII (Michael W. Deem and Ramdas Pophale) SiO2 
 PCOD9118757
Probable space group: P 21
;
_chemical_formula_sum "Si O2"
_cell_formula_units_Z 16
_cell_length_a 5.760090
_cell_length_b 6.476729
_cell_length_c 21.092469
_cell_angle_alpha 90.000000
_cell_angle_beta 53.632853
_cell_angle_gamma 90.000000
_cell_volume 633.628173
_symmetry_space_group_name_H-M "P 21"
_symmetry_group_IT_number 4
_symmetry_cell_setting 'monoclinic'
loop_
_space_group_symop_operation_xyz
x,y,z
-x,1/2+y,-z
loop_
_atom_site_type_symbol
_atom_site_label
_atom_site_fract_x
_atom_site_fract_y
_atom_site_fract_z
Si Si1 0.616136 0.610050 0.386836
Si Si2 0.249837 0.082140 0.820519
Si Si3 0.937812 0.711822 0.917840
Si Si4 0.682456 0.866619 0.084662
Si Si5 0.152152 0.319623 0.276609
Si Si6 0.811169 0.831564 0.589329
Si Si7 0.570795 0.496824 0.539424
Si Si8 0.930584 0.437533 0.803996
O O1 0.361906 0.546918 0.380377
O O2 0.520520 0.549516 0.474540
O O3 0.897388 0.486894 0.322217
O O4 0.659194 0.852028 0.389411
O O5 0.156195 0.190662 0.901303
O O6 0.180675 0.267966 0.780431
O O7 0.549766 0.950799 0.777725
O O8 0.028679 0.891787 0.854329
O O9 0.832461 0.536149 0.887482
O O10 0.198799 0.591818 0.913109
O O11 0.730813 0.804744 0.004409
O O12 0.366705 0.829293 0.165708
O O13 0.169407 0.229908 0.345512
O O14 0.057934 0.133959 0.245328
O O15 0.623510 0.694995 0.572956
O O16 0.122763 0.877728 0.510756
#
# Coordination Sequence:
#
# PCOD9118757 Si02
#       8
#     2   2   2   2   2   2   2   2
#     4  11  24  45  75 108 142 186 238 306 379 440
#     4  11  26  49  73 102 155 198 248 313 377 452
#     4  11  24  44  74 109 144 189 256 312 373 449
#     4  11  24  45  74 109 144 194 247 323 378 437
#     4  11  28  52  68 107 156 201 250 309 374 478
#     4  11  24  45  75 105 145 187 240 303 377 447
#     4  11  22  46  74 108 139 177 238 309 364 441
#     4  11  28  46  73 108 151 202 253 307 384 464
#
# _framework density 25.251401999999999
#
# number of rings (size 3 to 8) (size 9 to 14) (size 15 to 20)
#    0.000    1.000    5.000    0.000    5.250    0.000 
#    6.750    0.000    0.000    0.000    0.000    0.000 
#    0.000    0.000    0.000    0.000    0.000    0.000 
#
# Total GULP energy -89269.915887 kJ/mol
# GULP energy per Si atom -5579.369743 kJ/mol
# Density = 2.519393 g / cm^3
# Si number density = 25.251402 Si / 1000 Ang^3
#
#
#
# Elastic Constant Matrix: (Units=GPa)
#
#
# Indices 1 2 3 4 5 6 
#
# 1 48.2208 33.0621 23.2521 0.0000 2.1669 0.0000
# 2 33.0621 132.9902 53.5307 0.0000 -2.5234 0.0000
# 3 23.2521 53.5307 93.0022 0.0000 11.0519 0.0000
# 4 0.0000 0.0000 0.0000 47.4754 0.0000 10.4585
# 5 2.1669 -2.5234 11.0519 0.0000 45.3803 0.0000
# 6 0.0000 0.0000 0.0000 10.4585 0.0000 46.2588
#
#
#
# Elastic Compliance Matrix: (Units=1/GPa)
#
#
# Indices 1 2 3 4 5 6 
#
# 1 0.025914 -0.005049 -0.003494 0.000000 -0.000667 0.000000
# 2 -0.005049 0.010945 -0.005292 0.000000 0.002138 0.000000
# 3 -0.003494 -0.005292 0.015125 0.000000 -0.003811 0.000000
# 4 0.000000 0.000000 0.000000 0.022168 0.000000 -0.005012
# 5 -0.000667 0.002138 -0.003811 0.000000 0.023115 0.000000
# 6 0.000000 0.000000 0.000000 -0.005012 0.000000 0.022751
#
#
# Mechanical properties :
#
#
# Convention : Reuss Voigt Hill
#
# Bulk Modulus (GPa) = 41.12589 54.87811 48.00200
# Shear Modulus (GPa) = 32.09440 38.78077 35.43759
#
# Velocity S-wave (km/s) = 3.56897 3.92316 3.75025
# Velocity P-wave (km/s) = 5.77108 6.50396 6.14845
#
# Compressibility (1/GPa) = 0.02431558
#
# Stress axis : x y z
#
# Youngs Moduli (GPa) = 38.58887 91.36535 66.11759
#
# Poissons Ratio (x) = 0.46129 0.23099
# Poissons Ratio (y) = 0.19483 0.34987
# Poissons Ratio (z) = 0.13482 0.48347
#
# Static dielectric constant tensor:
#      x y z
#    x 2.009880 0.000000 -0.015940 
#    y 0.000000 2.009970 0.000000 
#    z -0.015940 0.000000 2.011770 
# 
# From -- ./inp_files/15461.got.cif
#   From: 2010.05.17/outbox.cif.g08.bks.cpg/sg4_8_cif.got.tgz:15461.got - 2010.06.03 18:43:04.
