data_PCOD9118152
_publ_section_title
;
Structure prediction by ZEFSAII (Michael W. Deem and Ramdas Pophale) SiO2 
 PCOD9118152
Probable space group: P 21
;
_chemical_formula_sum "Si O2"
_cell_formula_units_Z 14
_cell_length_a 5.108370
_cell_length_b 7.851683
_cell_length_c 13.445018
_cell_angle_alpha 90.000000
_cell_angle_beta 85.123402
_cell_angle_gamma 90.000000
_cell_volume 537.318182
_symmetry_space_group_name_H-M "P 21"
_symmetry_group_IT_number 4
_symmetry_cell_setting 'monoclinic'
loop_
_space_group_symop_operation_xyz
x,y,z
-x,1/2+y,-z
loop_
_atom_site_type_symbol
_atom_site_label
_atom_site_fract_x
_atom_site_fract_y
_atom_site_fract_z
Si Si1 0.770952 0.031870 0.383617
Si Si2 0.180955 0.003074 0.918568
Si Si3 0.578669 0.281152 0.695246
Si Si4 0.211032 0.125127 0.224118
Si Si5 0.753949 0.457124 0.508192
Si Si6 0.311798 0.314785 0.019532
Si Si7 0.598569 0.416764 0.286437
O O1 0.965543 0.026015 0.470197
O O2 0.936314 0.129702 0.293242
O O3 0.707896 0.850329 0.331542
O O4 0.484839 0.071371 0.439895
O O5 0.401674 0.886237 0.965354
O O6 0.181363 0.943094 0.804674
O O7 0.894947 0.968420 0.972452
O O8 0.274801 0.197818 0.924652
O O9 0.685406 0.430906 0.763796
O O10 0.733453 0.301841 0.586733
O O11 0.575572 0.087530 0.725853
O O12 0.219518 0.184840 0.110254
O O13 0.415624 0.256217 0.267953
O O14 0.703185 0.422578 0.395473
#
# Coordination Sequence:
#
# PCOD9118152 Si02
#       7
#     2   2   2   2   2   2   2
#     4   9  21  43  66  98 142 197 233 285 373 415
#     4  11  27  49  77 113 142 196 244 313 378 448
#     4   9  23  45  66 107 139 206 231 306 361 430
#     4  10  24  46  73 102 150 190 249 307 374 431
#     4   9  22  43  64 102 146 191 240 297 356 432
#     4  11  26  49  77 110 147 190 244 311 385 442
#     4  11  25  47  73 112 146 192 263 299 363 454
#
# _framework density 26.055323999999999
#
# number of rings (size 3 to 8) (size 9 to 14) (size 15 to 20)
#    0.857    1.143    0.000    0.857   10.000    3.429 
#   23.143    0.000    0.000    0.000    0.000    0.000 
#    0.000    0.000    0.000    0.000    0.000    0.000 
#
# Total GULP energy -78250.903549 kJ/mol
# GULP energy per Si atom -5589.350254 kJ/mol
# Density = 2.599602 g / cm^3
# Si number density = 26.055324 Si / 1000 Ang^3
#
#
#
# Elastic Constant Matrix: (Units=GPa)
#
#
# Indices 1 2 3 4 5 6 
#
# 1 115.7647 -4.0397 10.6028 0.0000 0.7668 0.0000
# 2 -4.0397 67.8256 -7.5330 0.0000 -7.1139 0.0000
# 3 10.6028 -7.5330 62.3414 0.0000 2.3972 0.0000
# 4 0.0000 0.0000 0.0000 43.1460 0.0000 -3.1777
# 5 0.7668 -7.1139 2.3972 0.0000 25.4605 0.0000
# 6 0.0000 0.0000 0.0000 -3.1777 0.0000 27.8861
#
#
#
# Elastic Compliance Matrix: (Units=1/GPa)
#
#
# Indices 1 2 3 4 5 6 
#
# 1 0.008784 0.000359 -0.001449 0.000000 -0.000028 0.000000
# 2 0.000359 0.015380 0.001638 0.000000 0.004132 0.000000
# 3 -0.001449 0.001638 0.016526 0.000000 -0.001054 0.000000
# 4 0.000000 0.000000 0.000000 0.023373 0.000000 0.002663
# 5 -0.000028 0.004132 -0.001054 0.000000 0.040531 0.000000
# 6 0.000000 0.000000 0.000000 0.002663 0.000000 0.036164
#
#
# Mechanical properties :
#
#
# Convention : Reuss Voigt Hill
#
# Bulk Modulus (GPa) = 23.93112 27.11023 25.52067
# Shear Modulus (GPa) = 32.55414 35.75864 34.15639
#
# Velocity S-wave (km/s) = 3.53855 3.70863 3.62459
# Velocity P-wave (km/s) = 5.08919 5.36340 5.22809
#
# Compressibility (1/GPa) = 0.04178660
#
# Stress axis : x y z
#
# Youngs Moduli (GPa) = 113.84742 65.01744 60.51165
#
# Poissons Ratio (x) = -0.02336 0.08771
# Poissons Ratio (y) = -0.04090 -0.09915
# Poissons Ratio (z) = 0.16501 -0.10653
#
# Static dielectric constant tensor:
#      x y z
#    x 2.056400 0.000000 0.009780 
#    y 0.000000 2.156690 0.000000 
#    z 0.009780 0.000000 2.052740 
# 
# From -- ./inp_files/13204.got.cif
#   From: 2010.05.17/outbox.cif.g08.bks.cpg/sg4_7_cif.got.tgz:13204.got - 2010.06.03 18:43:04.
