data_PCOD9118808
_publ_section_title
;
Structure prediction by ZEFSAII (Michael W. Deem and Ramdas Pophale) SiO2 
 PCOD9118808
Probable space group: P 21
;
_chemical_formula_sum "Si O2"
_cell_formula_units_Z 10
_cell_length_a 16.467025
_cell_length_b 4.854222
_cell_length_c 8.218133
_cell_angle_alpha 90.000000
_cell_angle_beta 32.714630
_cell_angle_gamma 90.000000
_cell_volume 355.032103
_symmetry_space_group_name_H-M "P 21"
_symmetry_group_IT_number 4
_symmetry_cell_setting 'monoclinic'
loop_
_space_group_symop_operation_xyz
x,y,z
-x,1/2+y,-z
loop_
_atom_site_type_symbol
_atom_site_label
_atom_site_fract_x
_atom_site_fract_y
_atom_site_fract_z
Si Si1 0.082391 0.636890 0.321382
Si Si2 0.111980 0.932345 0.814362
Si Si3 0.673578 0.288126 0.840651
Si Si4 0.711457 0.828128 0.249062
Si Si5 0.478114 0.265260 0.765133
O O1 0.217106 0.777100 0.188631
O O2 0.024475 0.390983 0.534568
O O3 0.140229 0.467918 0.072901
O O4 0.217094 0.787357 0.499138
O O5 0.227639 0.068974 0.751756
O O6 0.986322 0.702791 0.070031
O O7 0.605232 0.589229 0.957003
O O8 0.546614 0.068346 0.115079
O O9 0.609463 0.757501 0.261860
O O10 0.621452 0.070530 0.490769
#
# Coordination Sequence:
#
# PCOD9118808 Si02
#       5
#     2   2   2   2   2
#     4  11  23  40  74 114 152 200 262 327 390 468
#     4  12  29  50  78 120 170 213 257 325 416 494
#     4  11  25  47  74 112 157 206 260 328 404 474
#     4  11  26  49  82 118 155 210 272 335 391 473
#     4  11  25  48  80 114 152 205 277 333 387 463
#
# _framework density 28.166466
#
# number of rings (size 3 to 8) (size 9 to 14) (size 15 to 20)
#    0.000    0.800    0.000    7.200    0.000   16.000 
#    0.000    6.000    0.000    7.200    0.000    0.000 
#    0.000    0.000    0.000    0.000    0.000    0.000 
#
# Total GULP energy -55940.874636 kJ/mol
# GULP energy per Si atom -5594.087464 kJ/mol
# Density = 2.810236 g / cm^3
# Si number density = 28.166466 Si / 1000 Ang^3
#
#
#
# Elastic Constant Matrix: (Units=GPa)
#
#
# Indices 1 2 3 4 5 6 
#
# 1 130.0450 58.5331 21.7807 0.0000 16.9487 0.0000
# 2 58.5331 211.7905 62.4793 0.0000 -10.1371 0.0000
# 3 21.7807 62.4793 129.3492 0.0000 6.8128 0.0000
# 4 0.0000 0.0000 0.0000 62.6178 0.0000 1.4432
# 5 16.9487 -10.1371 6.8128 0.0000 15.9439 0.0000
# 6 0.0000 0.0000 0.0000 1.4432 0.0000 45.5370
#
#
#
# Elastic Compliance Matrix: (Units=1/GPa)
#
#
# Indices 1 2 3 4 5 6 
#
# 1 0.011361 -0.004117 0.000869 0.000000 -0.015066 0.000000
# 2 -0.004117 0.007373 -0.003423 0.000000 0.010527 0.000000
# 3 0.000869 -0.003423 0.009618 0.000000 -0.007210 0.000000
# 4 0.000000 0.000000 0.000000 0.015982 0.000000 -0.000507
# 5 -0.015066 0.010527 -0.007210 0.000000 0.088509 0.000000
# 6 0.000000 0.000000 0.000000 -0.000507 0.000000 0.021976
#
#
# Mechanical properties :
#
#
# Convention : Reuss Voigt Hill
#
# Bulk Modulus (GPa) = 66.62118 84.08566 75.35342
# Shear Modulus (GPa) = 28.87448 46.71253 37.79351
#
# Velocity S-wave (km/s) = 3.20525 4.07682 3.66702
# Velocity P-wave (km/s) = 6.11573 7.21654 6.68882
#
# Compressibility (1/GPa) = 0.01501024
#
# Stress axis : x y z
#
# Youngs Moduli (GPa) = 88.02169 135.62764 103.97647
#
# Poissons Ratio (x) = 0.55843 -0.09039
# Poissons Ratio (y) = 0.36242 0.35587
# Poissons Ratio (z) = -0.07652 0.46420
#
# Static dielectric constant tensor:
#      x y z
#    x 2.282880 0.000000 -0.053240 
#    y 0.000000 2.120010 0.000000 
#    z -0.053240 0.000000 2.258240 
# 
# From -- ./inp_files/9329.got.cif
#   From: 2010.05.17/outbox.cif.g08.bks.cpg/sg4_5_cif.got.tgz:9329.got - 2010.06.03 18:43:04.
