data_PCOD9118478
_publ_section_title
;
Structure prediction by ZEFSAII (Michael W. Deem and Ramdas Pophale) SiO2 
 PCOD9118478
Probable space group: P 21
;
_chemical_formula_sum "Si O2"
_cell_formula_units_Z 16
_cell_length_a 11.997085
_cell_length_b 13.210121
_cell_length_c 6.465191
_cell_angle_alpha 90.000000
_cell_angle_beta 47.507390
_cell_angle_gamma 90.000000
_cell_volume 755.520230
_symmetry_space_group_name_H-M "P 21"
_symmetry_group_IT_number 4
_symmetry_cell_setting 'monoclinic'
loop_
_space_group_symop_operation_xyz
x,y,z
-x,1/2+y,-z
loop_
_atom_site_type_symbol
_atom_site_label
_atom_site_fract_x
_atom_site_fract_y
_atom_site_fract_z
Si Si1 0.043301 0.868050 0.311981
Si Si2 0.026264 0.608009 0.993555
Si Si3 0.835523 0.896023 0.202363
Si Si4 0.273867 0.150725 0.364179
Si Si5 0.527105 0.821688 0.663381
Si Si6 0.097312 0.216591 0.209968
Si Si7 0.705502 0.427150 0.733195
Si Si8 0.735229 0.285622 0.301139
O O1 0.132057 0.941383 0.356085
O O2 0.889944 0.886065 0.375002
O O3 0.018148 0.768355 0.484239
O O4 0.160526 0.852240 0.980312
O O5 0.081961 0.496568 0.976617
O O6 0.171054 0.681838 0.810553
O O7 0.962779 0.620045 0.839626
O O8 0.887521 0.641447 0.313689
O O9 0.655082 0.899069 0.425608
O O10 0.876870 0.802057 0.999903
O O11 0.380835 0.231408 0.341844
O O12 0.239264 0.187011 0.173589
O O13 0.341663 0.038041 0.282548
O O14 0.426961 0.777930 0.602747
O O15 0.414983 0.878549 0.959838
O O16 0.724376 0.346262 0.526988
#
# Coordination Sequence:
#
# PCOD9118478 Si02
#       8
#     2   2   2   2   2   2   2   2
#     4  11  19  44  67  99 136 168 234 286 337 396
#     4  12  24  43  75 104 132 181 240 290 349 403
#     4  12  25  44  70 104 139 182 229 293 347 412
#     4  12  25  46  71 106 132 185 240 282 352 414
#     4  11  27  46  63 101 152 176 228 283 342 432
#     4  12  21  43  75  98 139 176 232 303 337 399
#     4  11  26  44  73  99 139 191 224 289 348 416
#     4  11  23  44  66 101 141 179 221 286 340 412
#
# _framework density 21.177461000000001
#
# number of rings (size 3 to 8) (size 9 to 14) (size 15 to 20)
#    0.000    0.500    6.250    2.250    1.750    3.000 
#    0.000    0.000    0.000    0.000    0.000    0.000 
#    0.000    0.000    0.000    0.000    0.000    0.000 
#
# Total GULP energy -89332.788060 kJ/mol
# GULP energy per Si atom -5583.299254 kJ/mol
# Density = 2.112926 g / cm^3
# Si number density = 21.177461 Si / 1000 Ang^3
#
#
#
# Elastic Constant Matrix: (Units=GPa)
#
#
# Indices 1 2 3 4 5 6 
#
# 1 147.7718 41.1819 35.1610 0.0000 0.2909 0.0000
# 2 41.1819 109.5921 28.7394 0.0000 -1.0572 0.0000
# 3 35.1610 28.7394 98.8963 0.0000 -0.2800 0.0000
# 4 0.0000 0.0000 0.0000 32.8136 0.0000 -2.4463
# 5 0.2909 -1.0572 -0.2800 0.0000 24.9491 0.0000
# 6 0.0000 0.0000 0.0000 -2.4463 0.0000 25.8534
#
#
#
# Elastic Compliance Matrix: (Units=1/GPa)
#
#
# Indices 1 2 3 4 5 6 
#
# 1 0.007950 -0.002434 -0.002120 0.000000 -0.000220 0.000000
# 2 -0.002434 0.010626 -0.002221 0.000000 0.000454 0.000000
# 3 -0.002120 -0.002221 0.011511 0.000000 0.000060 0.000000
# 4 0.000000 0.000000 0.000000 0.030692 0.000000 0.002904
# 5 -0.000220 0.000454 0.000060 0.000000 0.040104 0.000000
# 6 0.000000 0.000000 0.000000 0.002904 0.000000 0.038954
#
#
# Mechanical properties :
#
#
# Convention : Reuss Voigt Hill
#
# Bulk Modulus (GPa) = 60.46935 62.93608 61.70271
# Shear Modulus (GPa) = 31.46626 33.46841 32.46734
#
# Velocity S-wave (km/s) = 3.85884 3.97971 3.91974
# Velocity P-wave (km/s) = 6.96203 7.13445 7.04877
#
# Compressibility (1/GPa) = 0.01653730
#
# Stress axis : x y z
#
# Youngs Moduli (GPa) = 125.78160 94.10709 86.87301
#
# Poissons Ratio (x) = 0.22903 0.18417
# Poissons Ratio (y) = 0.30611 0.19298
# Poissons Ratio (z) = 0.26666 0.20905
#
# Static dielectric constant tensor:
#      x y z
#    x 1.811230 0.000000 0.010360 
#    y 0.000000 1.781290 0.000000 
#    z 0.010360 0.000000 1.753820 
# 
# From -- ./inp_files/1654.got.cif
#   From: 2010.05.17/outbox.cif.g08.bks.cpg/sg4_1_cif.got.tgz:1654.got - 2010.06.03 18:43:04.
