data_PCOD9118470
_publ_section_title
;
Structure prediction by ZEFSAII (Michael W. Deem and Ramdas Pophale) SiO2 
 PCOD9118470
Probable space group: P 21
;
_chemical_formula_sum "Si O2"
_cell_formula_units_Z 10
_cell_length_a 9.820581
_cell_length_b 5.567718
_cell_length_c 16.412503
_cell_angle_alpha 90.000000
_cell_angle_beta 152.391735
_cell_angle_gamma 90.000000
_cell_volume 415.879609
_symmetry_space_group_name_H-M "P 21"
_symmetry_group_IT_number 4
_symmetry_cell_setting 'monoclinic'
loop_
_space_group_symop_operation_xyz
x,y,z
-x,1/2+y,-z
loop_
_atom_site_type_symbol
_atom_site_label
_atom_site_fract_x
_atom_site_fract_y
_atom_site_fract_z
Si Si1 0.141155 0.227560 0.290448
Si Si2 0.324455 0.369325 0.991396
Si Si3 0.920497 0.170185 0.915253
Si Si4 0.109719 0.107701 0.723241
Si Si5 0.384909 0.920302 0.566670
O O1 0.356765 0.250778 0.329178
O O2 0.092362 0.458811 0.320830
O O3 0.268212 0.037318 0.421489
O O4 0.840991 0.123548 0.096491
O O5 0.300616 0.272345 0.886364
O O6 0.125085 0.202595 0.943285
O O7 0.660402 0.420443 0.194049
O O8 0.572605 0.115885 0.715881
O O9 0.963656 0.427141 0.980896
O O10 0.895479 0.266207 0.552899
#
# Coordination Sequence:
#
# PCOD9118470 Si02
#       5
#     2   2   2   2   2
#     4  11  19  36  69 103 143 172 224 318 370 434
#     4  11  23  41  68 112 145 181 239 297 393 426
#     4  12  28  47  75  99 148 208 256 288 341 450
#     4  11  22  37  72 111 145 172 226 327 386 420
#     4  11  22  39  68 107 139 185 245 298 372 428
#
# _framework density 24.045421999999999
#
# number of rings (size 3 to 8) (size 9 to 14) (size 15 to 20)
#    0.000    0.800    6.000    2.400    2.800    0.000 
#    0.000    0.000    4.400    0.000    0.000    0.000 
#    0.000    0.000    0.000    0.000    0.000    0.000 
#
# Total GULP energy -55812.092149 kJ/mol
# GULP energy per Si atom -5581.209215 kJ/mol
# Density = 2.399069 g / cm^3
# Si number density = 24.045422 Si / 1000 Ang^3
#
#
#
# Elastic Constant Matrix: (Units=GPa)
#
#
# Indices 1 2 3 4 5 6 
#
# 1 33.3332 22.8640 36.8240 0.0000 3.7912 0.0000
# 2 22.8640 90.7089 38.9016 0.0000 0.5264 0.0000
# 3 36.8240 38.9016 125.2693 0.0000 24.3855 0.0000
# 4 0.0000 0.0000 0.0000 43.0360 0.0000 1.1481
# 5 3.7912 0.5264 24.3855 0.0000 26.1763 0.0000
# 6 0.0000 0.0000 0.0000 1.1481 0.0000 35.2719
#
#
#
# Elastic Compliance Matrix: (Units=1/GPa)
#
#
# Indices 1 2 3 4 5 6 
#
# 1 0.048588 -0.006570 -0.013313 0.000000 0.005497 0.000000
# 2 -0.006570 0.013993 -0.003108 0.000000 0.003566 0.000000
# 3 -0.013313 -0.003108 0.015237 0.000000 -0.012204 0.000000
# 4 0.000000 0.000000 0.000000 0.023257 0.000000 -0.000757
# 5 0.005497 0.003566 -0.012204 0.000000 0.048704 0.000000
# 6 0.000000 0.000000 0.000000 -0.000757 0.000000 0.028376
#
#
# Mechanical properties :
#
#
# Convention : Reuss Voigt Hill
#
# Bulk Modulus (GPa) = 31.41049 49.61007 40.51028
# Shear Modulus (GPa) = 21.29951 30.94498 26.12225
#
# Velocity S-wave (km/s) = 2.97947 3.59128 3.29959
# Velocity P-wave (km/s) = 4.99276 6.15411 5.60360
#
# Compressibility (1/GPa) = 0.03183650
#
# Stress axis : x y z
#
# Youngs Moduli (GPa) = 20.58119 71.46679 65.62911
#
# Poissons Ratio (x) = 0.46951 0.87370
# Poissons Ratio (y) = 0.13521 0.20399
# Poissons Ratio (z) = 0.27399 0.22213
#
# Static dielectric constant tensor:
#      x y z
#    x 1.964380 0.000000 0.012030 
#    y 0.000000 1.989180 0.000000 
#    z 0.012030 0.000000 1.967920 
# 
# From -- ./inp_files/5055.got.cif
#   From: 2010.05.17/outbox.cif.g08.bks.cpg/sg4_3_cif.got.tgz:5055.got - 2010.06.03 18:43:04.
