data_PCOD9118946
_publ_section_title
;
Structure prediction by ZEFSAII (Michael W. Deem and Ramdas Pophale) SiO2 
 PCOD9118946
Probable space group: P 21
;
_chemical_formula_sum "Si O2"
_cell_formula_units_Z 16
_cell_length_a 9.531303
_cell_length_b 5.098779
_cell_length_c 23.654489
_cell_angle_alpha 90.000000
_cell_angle_beta 34.191909
_cell_angle_gamma 90.000000
_cell_volume 646.014880
_symmetry_space_group_name_H-M "P 21"
_symmetry_group_IT_number 4
_symmetry_cell_setting 'monoclinic'
loop_
_space_group_symop_operation_xyz
x,y,z
-x,1/2+y,-z
loop_
_atom_site_type_symbol
_atom_site_label
_atom_site_fract_x
_atom_site_fract_y
_atom_site_fract_z
Si Si1 0.259291 0.880430 0.796994
Si Si2 0.906846 0.681999 0.996423
Si Si3 0.884685 0.272718 0.871231
Si Si4 0.308954 0.267323 0.264684
Si Si5 0.503579 0.919024 0.597857
Si Si6 0.983521 0.280045 0.624432
Si Si7 0.788635 0.943276 0.332378
Si Si8 0.553740 0.945992 0.899367
O O1 0.447355 0.881623 0.786442
O O2 0.423922 0.831761 0.687143
O O3 0.046530 0.682749 0.889353
O O4 0.100740 0.137818 0.835834
O O5 0.615985 0.658901 0.078049
O O6 0.019371 0.444265 0.995134
O O7 0.776635 0.063319 0.861377
O O8 0.015529 0.475087 0.784523
O O9 0.646204 0.327457 0.990099
O O10 0.350162 0.265263 0.183495
O O11 0.094214 0.477586 0.351293
O O12 0.245797 0.979477 0.308453
O O13 0.792287 0.865593 0.490875
O O14 0.350578 0.716049 0.609552
O O15 0.408563 0.214588 0.619223
O O16 0.077170 0.344491 0.656303
#
# Coordination Sequence:
#
# PCOD9118946 Si02
#       8
#     2   2   2   2   2   2   2   2
#     4  11  27  48  71 108 144 194 242 300 359 437
#     4  12  26  45  75 104 148 194 240 286 362 437
#     4  11  26  45  74 109 150 188 249 298 367 424
#     4  12  29  44  75 103 152 188 243 290 368 433
#     4  11  25  46  76 105 145 186 244 304 367 419
#     4  12  26  47  73 107 142 193 241 303 362 438
#     4  11  23  45  75 108 144 187 239 303 364 437
#     4  12  26  46  73 112 147 198 236 306 355 433
#
# _framework density 24.767233000000001
#
# number of rings (size 3 to 8) (size 9 to 14) (size 15 to 20)
#    0.000    0.500    2.500    4.500    5.250    4.000 
#    0.000    0.000    0.000    0.000    0.000    0.000 
#    0.000    0.000    0.000    0.000    0.000    0.000 
#
# Total GULP energy -89631.867939 kJ/mol
# GULP energy per Si atom -5601.991746 kJ/mol
# Density = 2.471086 g / cm^3
# Si number density = 24.767233 Si / 1000 Ang^3
#
#
#
# Elastic Constant Matrix: (Units=GPa)
#
#
# Indices 1 2 3 4 5 6 
#
# 1 36.2519 -8.6170 -20.3565 0.0000 4.1830 0.0000
# 2 -8.6170 87.0260 13.8326 0.0000 4.6269 0.0000
# 3 -20.3565 13.8326 118.0033 0.0000 20.7112 0.0000
# 4 0.0000 0.0000 0.0000 38.9920 0.0000 -3.2037
# 5 4.1830 4.6269 20.7112 0.0000 33.0675 0.0000
# 6 0.0000 0.0000 0.0000 -3.2037 0.0000 27.9200
#
#
#
# Elastic Compliance Matrix: (Units=1/GPa)
#
#
# Indices 1 2 3 4 5 6 
#
# 1 0.033165 0.002650 0.006979 0.000000 -0.008937 0.000000
# 2 0.002650 0.011943 -0.000664 0.000000 -0.001591 0.000000
# 3 0.006979 -0.000664 0.011117 0.000000 -0.007753 0.000000
# 4 0.000000 0.000000 0.000000 0.025890 0.000000 0.002971
# 5 -0.008937 -0.001591 -0.007753 0.000000 0.036450 0.000000
# 6 0.000000 0.000000 0.000000 0.002971 0.000000 0.036158
#
#
# Mechanical properties :
#
#
# Convention : Reuss Voigt Hill
#
# Bulk Modulus (GPa) = 13.48520 23.44438 18.46479
# Shear Modulus (GPa) = 30.95762 37.09070 34.02416
#
# Velocity S-wave (km/s) = 3.53929 3.87405 3.71044
# Velocity P-wave (km/s) = 4.70730 5.43115 5.08213
#
# Compressibility (1/GPa) = 0.07415539
#
# Stress axis : x y z
#
# Youngs Moduli (GPa) = 30.15236 83.72924 89.95361
#
# Poissons Ratio (x) = -0.22186 -0.62781
# Poissons Ratio (y) = -0.07990 0.05971
# Poissons Ratio (z) = -0.21044 0.05557
#
# Static dielectric constant tensor:
#      x y z
#    x 1.957470 0.000000 0.013040 
#    y 0.000000 1.985370 0.000000 
#    z 0.013040 0.000000 1.976210 
# 
# From -- ./inp_files/16044.got.cif
#   From: 2010.05.17/outbox.cif.g08.bks.cpg/sg4_9_cif.got.tgz:16044.got - 2010.06.03 18:43:04.
