data_PCOD9118157
_publ_section_title
;
Structure prediction by ZEFSAII (Michael W. Deem and Ramdas Pophale) SiO2 
 PCOD9118157
Probable space group: P 21
;
_chemical_formula_sum "Si O2"
_cell_formula_units_Z 16
_cell_length_a 10.483753
_cell_length_b 11.229416
_cell_length_c 5.455688
_cell_angle_alpha 90.000000
_cell_angle_beta 65.794259
_cell_angle_gamma 90.000000
_cell_volume 585.808881
_symmetry_space_group_name_H-M "P 21"
_symmetry_group_IT_number 4
_symmetry_cell_setting 'monoclinic'
loop_
_space_group_symop_operation_xyz
x,y,z
-x,1/2+y,-z
loop_
_atom_site_type_symbol
_atom_site_label
_atom_site_fract_x
_atom_site_fract_y
_atom_site_fract_z
Si Si1 0.096466 0.550170 0.020845
Si Si2 0.399345 0.476078 0.141621
Si Si3 0.362525 0.624215 0.667422
Si Si4 0.914754 0.232379 0.555125
Si Si5 0.358262 0.145847 0.599343
Si Si6 0.160490 0.347398 0.599643
Si Si7 0.310048 0.924521 0.306972
Si Si8 0.150091 0.103671 0.109093
O O1 0.099769 0.605162 0.291429
O O2 0.197801 0.646203 0.800166
O O3 0.160413 0.430828 0.842762
O O4 0.937616 0.548521 0.049303
O O5 0.405426 0.551781 0.388903
O O6 0.258155 0.403082 0.310488
O O7 0.377297 0.556137 0.916737
O O8 0.547218 0.412103 0.964674
O O9 0.494808 0.711627 0.565075
O O10 0.769952 0.298602 0.603016
O O11 0.000572 0.319617 0.668978
O O12 0.042354 0.205597 0.269964
O O13 0.237439 0.223049 0.574117
O O14 0.352888 0.010171 0.501821
O O15 0.304072 0.149210 0.917877
O O16 0.191902 0.004792 0.269616
#
# Coordination Sequence:
#
# PCOD9118157 Si02
#       8
#     2   2   2   2   2   2   2   2
#     4  11  26  46  68 112 152 192 258 321 388 466
#     4  10  24  46  73 108 143 204 251 324 379 462
#     4  10  24  46  75 103 152 191 261 317 386 459
#     4  12  27  44  74 112 149 206 252 326 393 469
#     4  11  24  46  71 108 145 204 251 317 388 470
#     4  11  24  45  72 109 150 203 253 318 393 466
#     4  11  24  47  72 106 154 194 264 314 398 458
#     4  12  23  44  73 104 149 198 250 311 391 468
#
# _framework density 27.312662
#
# number of rings (size 3 to 8) (size 9 to 14) (size 15 to 20)
#    0.000    1.000    5.000    0.000    5.250    6.000 
#    0.000    1.250    0.000    0.000    0.000    0.000 
#    0.000    0.000    0.000    0.000    0.000    0.000 
#
# Total GULP energy -89206.875337 kJ/mol
# GULP energy per Si atom -5575.429709 kJ/mol
# Density = 2.725050 g / cm^3
# Si number density = 27.312662 Si / 1000 Ang^3
#
#
#
# Elastic Constant Matrix: (Units=GPa)
#
#
# Indices 1 2 3 4 5 6 
#
# 1 103.5776 14.8673 9.1858 0.0000 -32.7519 0.0000
# 2 14.8673 73.4719 43.1844 0.0000 -4.0057 0.0000
# 3 9.1858 43.1844 129.0804 0.0000 -25.0566 0.0000
# 4 0.0000 0.0000 0.0000 43.6366 0.0000 -9.8315
# 5 -32.7519 -4.0057 -25.0566 0.0000 55.0400 0.0000
# 6 0.0000 0.0000 0.0000 -9.8315 0.0000 26.8248
#
#
#
# Elastic Compliance Matrix: (Units=1/GPa)
#
#
# Indices 1 2 3 4 5 6 
#
# 1 0.012465 -0.003081 0.001689 0.000000 0.007962 0.000000
# 2 -0.003081 0.017814 -0.006411 0.000000 -0.003456 0.000000
# 3 0.001689 -0.006411 0.010834 0.000000 0.005471 0.000000
# 4 0.000000 0.000000 0.000000 0.024979 0.000000 0.009155
# 5 0.007962 -0.003456 0.005471 0.000000 0.025145 0.000000
# 6 0.000000 0.000000 0.000000 0.009155 0.000000 0.040634
#
#
# Mechanical properties :
#
#
# Convention : Reuss Voigt Hill
#
# Bulk Modulus (GPa) = 39.20598 48.95609 44.08104
# Shear Modulus (GPa) = 32.05544 41.02646 36.54095
#
# Velocity S-wave (km/s) = 3.42957 3.87990 3.66167
# Velocity P-wave (km/s) = 5.48345 6.16723 5.83537
#
# Compressibility (1/GPa) = 0.02550631
#
# Stress axis : x y z
#
# Youngs Moduli (GPa) = 80.22678 56.13541 92.30411
#
# Poissons Ratio (x) = 0.17296 -0.15593
# Poissons Ratio (y) = 0.24719 0.59179
# Poissons Ratio (z) = -0.13553 0.35990
#
# Static dielectric constant tensor:
#      x y z
#    x 2.306070 0.000000 0.069690 
#    y 0.000000 2.202510 0.000000 
#    z 0.069690 0.000000 2.352340 
# 
# From -- ./inp_files/3038.got.cif
#   From: 2010.05.17/outbox.cif.g08.bks.cpg/sg4_2_cif.got.tgz:3038.got - 2010.06.03 18:43:04.
