data_PCOD9118896
_publ_section_title
;
Structure prediction by ZEFSAII (Michael W. Deem and Ramdas Pophale) SiO2 
 PCOD9118896
Probable space group: P 21
;
_chemical_formula_sum "Si O2"
_cell_formula_units_Z 16
_cell_length_a 21.429402
_cell_length_b 5.254431
_cell_length_c 7.562671
_cell_angle_alpha 90.000000
_cell_angle_beta 55.152522
_cell_angle_gamma 90.000000
_cell_volume 698.847941
_symmetry_space_group_name_H-M "P 21"
_symmetry_group_IT_number 4
_symmetry_cell_setting 'monoclinic'
loop_
_space_group_symop_operation_xyz
x,y,z
-x,1/2+y,-z
loop_
_atom_site_type_symbol
_atom_site_label
_atom_site_fract_x
_atom_site_fract_y
_atom_site_fract_z
Si Si1 0.661448 0.440340 0.541372
Si Si2 0.757382 0.605150 0.080468
Si Si3 0.079218 0.828548 0.504860
Si Si4 0.913395 0.827127 0.746750
Si Si5 0.344970 0.439217 0.948099
Si Si6 0.240724 0.779309 0.287788
Si Si7 0.449334 0.742693 0.561284
Si Si8 0.550834 0.735441 0.924283
O O1 0.732739 0.454915 0.293507
O O2 0.696384 0.354805 0.671308
O O3 0.598428 0.274304 0.541058
O O4 0.613518 0.692548 0.670131
O O5 0.685398 0.790231 0.170389
O O6 0.835997 0.758142 0.972765
O O7 0.760763 0.441581 0.893189
O O8 0.089239 0.604745 0.340424
O O9 0.154897 0.794959 0.498265
O O10 0.993968 0.802242 0.718108
O O11 0.081373 0.107216 0.411961
O O12 0.387914 0.691526 0.815121
O O13 0.502421 0.495167 0.482362
O O14 0.268868 0.502468 0.180590
O O15 0.596836 0.786202 0.028376
O O16 0.503006 0.476785 0.015054
#
# Coordination Sequence:
#
# PCOD9118896 Si02
#       8
#     2   2   2   2   2   2   2   2
#     4  12  27  46  76 100 136 184 234 292 358 414
#     4  11  23  44  68 104 141 180 229 289 344 413
#     4   9  18  36  66 101 138 185 228 270 337 414
#     4   9  18  36  66 101 138 185 228 270 337 414
#     4  12  25  44  70  92 142 174 226 292 350 402
#     4  11  23  44  68 104 141 180 229 289 344 413
#     4  12  29  49  70 101 135 183 235 291 356 423
#     4  12  29  49  70 101 135 183 235 291 356 423
#
# _framework density 22.894825999999998
#
# number of rings (size 3 to 8) (size 9 to 14) (size 15 to 20)
#    0.000    1.000    3.750    2.250    0.000   10.000 
#    0.000    0.000    0.000   15.000    0.000    0.000 
#    0.000    0.000    0.000    0.000    0.000    0.000 
#
# Total GULP energy -89420.862686 kJ/mol
# GULP energy per Si atom -5588.803918 kJ/mol
# Density = 2.284272 g / cm^3
# Si number density = 22.894826 Si / 1000 Ang^3
#
#
#
# Elastic Constant Matrix: (Units=GPa)
#
#
# Indices 1 2 3 4 5 6 
#
# 1 110.6854 26.5717 47.8833 0.0000 -24.4644 0.0000
# 2 26.5717 94.1374 11.1047 0.0000 -4.3026 0.0000
# 3 47.8833 11.1047 85.3807 0.0000 -7.1857 0.0000
# 4 0.0000 0.0000 0.0000 31.2521 0.0000 -6.5531
# 5 -24.4644 -4.3026 -7.1857 0.0000 40.4399 0.0000
# 6 0.0000 0.0000 0.0000 -6.5531 0.0000 26.1957
#
#
#
# Elastic Compliance Matrix: (Units=1/GPa)
#
#
# Indices 1 2 3 4 5 6 
#
# 1 0.014368 -0.002895 -0.007082 0.000000 0.007126 0.000000
# 2 -0.002895 0.011405 0.000096 0.000000 -0.000521 0.000000
# 3 -0.007082 0.000096 0.015544 0.000000 -0.001512 0.000000
# 4 0.000000 0.000000 0.000000 0.033769 0.000000 0.008448
# 5 0.007126 -0.000521 -0.001512 0.000000 0.028715 0.000000
# 6 0.000000 0.000000 0.000000 0.008448 0.000000 0.040287
#
#
# Mechanical properties :
#
#
# Convention : Reuss Voigt Hill
#
# Bulk Modulus (GPa) = 46.38938 51.25811 48.82375
# Shear Modulus (GPa) = 29.23394 33.22046 31.22720
#
# Velocity S-wave (km/s) = 3.57722 3.81334 3.69716
# Velocity P-wave (km/s) = 6.11293 6.46729 6.29261
#
# Compressibility (1/GPa) = 0.02155666
#
# Stress axis : x y z
#
# Youngs Moduli (GPa) = 69.59861 87.68350 64.33309
#
# Poissons Ratio (x) = 0.25380 0.45559
# Poissons Ratio (y) = 0.20146 -0.00619
# Poissons Ratio (z) = 0.49288 -0.00844
#
# Static dielectric constant tensor:
#      x y z
#    x 1.843150 0.000000 -0.048590 
#    y 0.000000 1.886400 0.000000 
#    z -0.048590 0.000000 1.921670 
# 
# From -- ./inp_files/10058.got.cif
#   From: 2010.05.17/outbox.cif.g08.bks.cpg/sg4_6_cif.got.tgz:10058.got - 2010.06.03 18:43:04.
