data_PCOD9118096
_publ_section_title
;
Structure prediction by ZEFSAII (Michael W. Deem and Ramdas Pophale) SiO2 
 PCOD9118096
Probable space group: P 21
;
_chemical_formula_sum "Si O2"
_cell_formula_units_Z 16
_cell_length_a 7.445470
_cell_length_b 8.946497
_cell_length_c 13.756524
_cell_angle_alpha 90.000000
_cell_angle_beta 137.750106
_cell_angle_gamma 90.000000
_cell_volume 616.111379
_symmetry_space_group_name_H-M "P 21"
_symmetry_group_IT_number 4
_symmetry_cell_setting 'monoclinic'
loop_
_space_group_symop_operation_xyz
x,y,z
-x,1/2+y,-z
loop_
_atom_site_type_symbol
_atom_site_label
_atom_site_fract_x
_atom_site_fract_y
_atom_site_fract_z
Si Si1 0.818944 0.163600 0.285433
Si Si2 0.159698 0.149429 0.861414
Si Si3 0.418859 0.355465 0.846923
Si Si4 0.997236 0.905290 0.952290
Si Si5 0.748171 0.683429 0.391711
Si Si6 0.633361 0.351673 0.613641
Si Si7 0.492867 0.952914 0.840076
Si Si8 0.722778 0.708796 0.681584
O O1 0.613478 0.290910 0.225483
O O2 0.986673 0.126589 0.449502
O O3 0.027577 0.222560 0.290988
O O4 0.665347 0.024323 0.180369
O O5 0.391647 0.275540 0.940049
O O6 0.898547 0.250669 0.733214
O O7 0.298262 0.028716 0.842720
O O8 0.070759 0.052216 0.917925
O O9 0.211421 0.281109 0.688644
O O10 0.708458 0.337443 0.914789
O O11 0.816213 0.948347 0.972406
O O12 0.832106 0.783747 0.823509
O O13 0.586312 0.785162 0.401347
O O14 0.568224 0.549204 0.281326
O O15 0.660407 0.529458 0.648269
O O16 0.513134 0.310328 0.459226
#
# Coordination Sequence:
#
# PCOD9118096 Si02
#       8
#     2   2   2   2   2   2   2   2
#     4  11  23  44  72 107 143 189 249 305 365 436
#     4  11  24  47  71 102 147 195 243 307 364 447
#     4  11  27  46  72 109 147 198 247 303 374 449
#     4  12  27  48  70 108 153 190 251 303 378 451
#     4  10  24  45  69 110 142 190 245 311 365 435
#     4  11  23  45  77 104 151 185 255 308 378 430
#     4  11  25  44  71 102 146 195 239 303 367 439
#     4  11  25  43  74 110 143 198 237 314 375 447
#
# _framework density 25.969332999999999
#
# number of rings (size 3 to 8) (size 9 to 14) (size 15 to 20)
#    0.000    1.000    3.750    1.500    7.000    4.000 
#    2.250    0.000    0.000    0.000    0.000    0.000 
#    0.000    0.000    0.000    0.000    0.000    0.000 
#
# Total GULP energy -89491.585142 kJ/mol
# GULP energy per Si atom -5593.224071 kJ/mol
# Density = 2.591023 g / cm^3
# Si number density = 25.969333 Si / 1000 Ang^3
#
#
#
# Elastic Constant Matrix: (Units=GPa)
#
#
# Indices 1 2 3 4 5 6 
#
# 1 110.9894 32.0974 12.2857 0.0000 15.8139 0.0000
# 2 32.0974 159.9079 43.2447 0.0000 10.4502 0.0000
# 3 12.2857 43.2447 101.3246 0.0000 3.4966 0.0000
# 4 0.0000 0.0000 0.0000 36.5239 0.0000 9.7290
# 5 15.8139 10.4502 3.4966 0.0000 35.2022 0.0000
# 6 0.0000 0.0000 0.0000 9.7290 0.0000 40.3886
#
#
#
# Elastic Compliance Matrix: (Units=1/GPa)
#
#
# Indices 1 2 3 4 5 6 
#
# 1 0.010104 -0.001664 -0.000376 0.000000 -0.004007 0.000000
# 2 -0.001664 0.007460 -0.002942 0.000000 -0.001175 0.000000
# 3 -0.000376 -0.002942 0.011173 0.000000 -0.000067 0.000000
# 4 0.000000 0.000000 0.000000 0.029257 0.000000 -0.007047
# 5 -0.004007 -0.001175 -0.000067 0.000000 0.030563 0.000000
# 6 0.000000 0.000000 0.000000 -0.007047 0.000000 0.026457
#
#
# Mechanical properties :
#
#
# Convention : Reuss Voigt Hill
#
# Bulk Modulus (GPa) = 53.27151 60.83082 57.05117
# Shear Modulus (GPa) = 38.09956 41.39590 39.74773
#
# Velocity S-wave (km/s) = 3.83443 3.99686 3.91649
# Velocity P-wave (km/s) = 6.33731 6.69140 6.51676
#
# Compressibility (1/GPa) = 0.01877176
#
# Stress axis : x y z
#
# Youngs Moduli (GPa) = 98.97203 134.04935 89.50415
#
# Poissons Ratio (x) = 0.22311 0.03369
# Poissons Ratio (y) = 0.16473 0.26328
# Poissons Ratio (z) = 0.03726 0.39431
#
# Static dielectric constant tensor:
#      x y z
#    x 2.052730 0.000000 -0.072380 
#    y 0.000000 2.057820 0.000000 
#    z -0.072380 0.000000 2.092400 
# 
# From -- ./inp_files/14978.got.cif
#   From: 2010.05.17/outbox.cif.g08.bks.cpg/sg4_8_cif.got.tgz:14978.got - 2010.06.03 18:43:04.
