data_PCOD9118070
_publ_section_title
;
Structure prediction by ZEFSAII (Michael W. Deem and Ramdas Pophale) SiO2 
 PCOD9118070
Probable space group: P 21
;
_chemical_formula_sum "Si O2"
_cell_formula_units_Z 14
_cell_length_a 11.248603
_cell_length_b 7.304994
_cell_length_c 11.248015
_cell_angle_alpha 90.000000
_cell_angle_beta 36.794925
_cell_angle_gamma 90.000000
_cell_volume 553.588227
_symmetry_space_group_name_H-M "P 21"
_symmetry_group_IT_number 4
_symmetry_cell_setting 'monoclinic'
loop_
_space_group_symop_operation_xyz
x,y,z
-x,1/2+y,-z
loop_
_atom_site_type_symbol
_atom_site_label
_atom_site_fract_x
_atom_site_fract_y
_atom_site_fract_z
Si Si1 0.852934 0.720410 0.819805
Si Si2 0.759999 0.287873 0.634478
Si Si3 0.819779 0.280175 0.852970
Si Si4 0.405134 0.197024 0.774099
Si Si5 0.365505 0.212698 0.240029
Si Si6 0.774142 0.803489 0.405058
Si Si7 0.493606 0.000240 0.493649
O O1 0.839028 0.500293 0.839079
O O2 0.702194 0.780290 0.835661
O O3 0.067262 0.774063 0.600786
O O4 0.782662 0.779475 0.006867
O O5 0.835693 0.220297 0.702176
O O6 0.567548 0.175968 0.746826
O O7 0.698066 0.500284 0.698053
O O8 0.006801 0.221110 0.782746
O O9 0.600757 0.226506 0.067283
O O10 0.370947 0.021672 0.716681
O O11 0.507306 0.337258 0.600571
O O12 0.253163 0.324586 0.432497
O O13 0.600671 0.663196 0.507212
O O14 0.716660 0.978811 0.370913
#
# Coordination Sequence:
#
# PCOD9118070 Si02
#       7
#     2   2   2   2   2   2   2
#     4  11  24  43  72 112 150 198 247 314 394 446
#     4  11  23  43  70 112 148 191 245 317 378 451
#     4  11  24  43  72 112 150 198 247 314 394 446
#     4  11  22  47  69 105 147 191 249 313 365 455
#     4  11  23  43  70 112 148 191 245 317 378 451
#     4  11  22  47  69 105 147 191 249 313 365 455
#     4  10  24  44  72  96 148 200 244 308 360 438
#
# _framework density 25.289556999999999
#
# number of rings (size 3 to 8) (size 9 to 14) (size 15 to 20)
#    0.000    1.143    4.286    1.714    0.000    1.143 
#    0.000   14.286    0.000    0.000    0.000    0.000 
#    0.000    0.000    0.000    0.000    0.000    0.000 
#
# Total GULP energy -78192.772051 kJ/mol
# GULP energy per Si atom -5585.198004 kJ/mol
# Density = 2.523200 g / cm^3
# Si number density = 25.289557 Si / 1000 Ang^3
#
#
#
# Elastic Constant Matrix: (Units=GPa)
#
#
# Indices 1 2 3 4 5 6 
#
# 1 110.5872 3.0063 45.8577 0.0000 7.9981 0.0000
# 2 3.0063 82.9182 21.2061 0.0000 -5.2478 0.0000
# 3 45.8577 21.2061 157.1309 0.0000 -21.4804 0.0000
# 4 0.0000 0.0000 0.0000 33.6966 0.0000 0.5746
# 5 7.9981 -5.2478 -21.4804 0.0000 26.9922 0.0000
# 6 0.0000 0.0000 0.0000 0.5746 0.0000 35.6861
#
#
#
# Elastic Compliance Matrix: (Units=1/GPa)
#
#
# Indices 1 2 3 4 5 6 
#
# 1 0.011274 0.000253 -0.004235 0.000000 -0.006662 0.000000
# 2 0.000253 0.012533 -0.001618 0.000000 0.001074 0.000000
# 3 -0.004235 -0.001618 0.008917 0.000000 0.008036 0.000000
# 4 0.000000 0.000000 0.000000 0.029685 0.000000 -0.000478
# 5 -0.006662 0.001074 0.008036 0.000000 0.045626 0.000000
# 6 0.000000 0.000000 0.000000 -0.000478 0.000000 0.028030
#
#
# Mechanical properties :
#
#
# Convention : Reuss Voigt Hill
#
# Bulk Modulus (GPa) = 46.46319 54.53073 50.49696
# Shear Modulus (GPa) = 32.37524 37.97939 35.17731
#
# Velocity S-wave (km/s) = 3.58184 3.87949 3.73363
# Velocity P-wave (km/s) = 5.95974 6.45574 6.21269
#
# Compressibility (1/GPa) = 0.02152242
#
# Stress axis : x y z
#
# Youngs Moduli (GPa) = 88.70230 79.79078 112.14434
#
# Poissons Ratio (x) = -0.02017 0.47492
# Poissons Ratio (y) = -0.02242 0.18149
# Poissons Ratio (z) = 0.37565 0.12913
#
# Static dielectric constant tensor:
#      x y z
#    x 2.005380 0.000000 0.003020 
#    y 0.000000 2.195450 0.000000 
#    z 0.003020 0.000000 1.995090 
# 
# From -- ./inp_files/2528.got.cif
#   From: 2010.05.17/outbox.cif.g08.bks.cpg/sg4_2_cif.got.tgz:2528.got - 2010.06.03 18:43:04.
