data_PCOD9118344
_publ_section_title
;
Structure prediction by ZEFSAII (Michael W. Deem and Ramdas Pophale) SiO2 
 PCOD9118344
Probable space group: P 21
;
_chemical_formula_sum "Si O2"
_cell_formula_units_Z 16
_cell_length_a 13.686413
_cell_length_b 5.060505
_cell_length_c 10.109755
_cell_angle_alpha 90.000000
_cell_angle_beta 60.168123
_cell_angle_gamma 90.000000
_cell_volume 607.418505
_symmetry_space_group_name_H-M "P 21"
_symmetry_group_IT_number 4
_symmetry_cell_setting 'monoclinic'
loop_
_space_group_symop_operation_xyz
x,y,z
-x,1/2+y,-z
loop_
_atom_site_type_symbol
_atom_site_label
_atom_site_fract_x
_atom_site_fract_y
_atom_site_fract_z
Si Si1 0.465165 0.086620 0.182043
Si Si2 0.768742 0.944275 0.339919
Si Si3 0.817891 0.283469 0.071884
Si Si4 0.682095 0.283315 0.928154
Si Si5 0.268715 0.444134 0.339877
Si Si6 0.564513 0.562823 0.505059
Si Si7 0.935489 0.562636 0.494914
Si Si8 0.965182 0.586758 0.182007
O O1 0.399789 0.365336 0.241110
O O2 0.440818 0.962176 0.340698
O O3 0.400755 0.959378 0.103002
O O4 0.596347 0.092896 0.064278
O O5 0.750018 0.055220 0.500032
O O6 0.687439 0.685370 0.389426
O O7 0.899814 0.865467 0.241138
O O8 0.746052 0.125669 0.229155
O O9 0.900754 0.459631 0.102960
O O10 0.749976 0.422495 0.000022
O O11 0.903640 0.093016 0.935777
O O12 0.753971 0.125455 0.770915
O O13 0.187428 0.185201 0.389432
O O14 0.515655 0.321533 0.453734
O O15 0.940829 0.462174 0.340636
O O16 0.984321 0.321287 0.546226
#
# Coordination Sequence:
#
# PCOD9118344 Si02
#       8
#     2   2   2   2   2   2   2   2
#     4  11  26  47  75 114 161 202 266 329 386 476
#     4  10  25  47  74 109 154 207 256 329 386 460
#     4  12  26  48  78 112 159 210 261 322 404 466
#     4  12  26  48  78 112 159 210 261 322 404 466
#     4  10  25  47  74 109 154 207 256 329 386 460
#     4  11  27  48  81 118 158 208 268 322 396 468
#     4  11  27  48  81 118 158 208 268 322 396 468
#     4  11  26  47  75 114 161 202 266 329 386 476
#
# _framework density 26.340983000000001
#
# number of rings (size 3 to 8) (size 9 to 14) (size 15 to 20)
#    0.000    1.000    2.500    1.500   14.000    2.000 
#    0.000    0.000    0.000    0.000    0.000    0.000 
#    0.000    0.000    0.000    0.000    0.000    0.000 
#
# Total GULP energy -89577.334201 kJ/mol
# GULP energy per Si atom -5598.583388 kJ/mol
# Density = 2.628103 g / cm^3
# Si number density = 26.340983 Si / 1000 Ang^3
#
#
#
# Elastic Constant Matrix: (Units=GPa)
#
#
# Indices 1 2 3 4 5 6 
#
# 1 112.4115 23.5689 41.5653 0.0000 19.7271 0.0000
# 2 23.5689 80.4913 33.1217 0.0000 -0.7774 0.0000
# 3 41.5653 33.1217 135.1448 0.0000 3.3735 0.0000
# 4 0.0000 0.0000 0.0000 28.0450 0.0000 7.1516
# 5 19.7271 -0.7774 3.3735 0.0000 63.4042 0.0000
# 6 0.0000 0.0000 0.0000 7.1516 0.0000 47.3889
#
#
#
# Elastic Compliance Matrix: (Units=1/GPa)
#
#
# Indices 1 2 3 4 5 6 
#
# 1 0.010934 -0.002094 -0.002768 0.000000 -0.003280 0.000000
# 2 -0.002094 0.014226 -0.002867 0.000000 0.000979 0.000000
# 3 -0.002768 -0.002867 0.008945 0.000000 0.000350 0.000000
# 4 0.000000 0.000000 0.000000 0.037084 0.000000 -0.005597
# 5 -0.003280 0.000979 0.000350 0.000000 0.016786 0.000000
# 6 0.000000 0.000000 0.000000 -0.005597 0.000000 0.021947
#
#
# Mechanical properties :
#
#
# Convention : Reuss Voigt Hill
#
# Bulk Modulus (GPa) = 53.62842 58.28437 55.95640
# Shear Modulus (GPa) = 37.99539 43.08707 40.54123
#
# Velocity S-wave (km/s) = 3.80207 4.04882 3.92738
# Velocity P-wave (km/s) = 6.29904 6.63567 6.46954
#
# Compressibility (1/GPa) = 0.01864683
#
# Stress axis : x y z
#
# Youngs Moduli (GPa) = 91.45715 70.29319 111.79946
#
# Poissons Ratio (x) = 0.14722 0.30943
# Poissons Ratio (y) = 0.19155 0.32051
# Poissons Ratio (z) = 0.25313 0.20152
#
# Static dielectric constant tensor:
#      x y z
#    x 2.055130 0.000000 -0.023150 
#    y 0.000000 2.117350 0.000000 
#    z -0.023150 0.000000 2.050740 
# 
# From -- ./inp_files/8931.got.cif
#   From: 2010.05.17/outbox.cif.g08.bks.cpg/sg4_5_cif.got.tgz:8931.got - 2010.06.03 18:43:04.
