data_PCOD9118149
_publ_section_title
;
Structure prediction by ZEFSAII (Michael W. Deem and Ramdas Pophale) SiO2 
 PCOD9118149
Probable space group: P 21
;
_chemical_formula_sum "Si O2"
_cell_formula_units_Z 16
_cell_length_a 4.746246
_cell_length_b 14.432282
_cell_length_c 9.158441
_cell_angle_alpha 90.000000
_cell_angle_beta 63.217085
_cell_angle_gamma 90.000000
_cell_volume 560.044036
_symmetry_space_group_name_H-M "P 21"
_symmetry_group_IT_number 4
_symmetry_cell_setting 'monoclinic'
loop_
_space_group_symop_operation_xyz
x,y,z
-x,1/2+y,-z
loop_
_atom_site_type_symbol
_atom_site_label
_atom_site_fract_x
_atom_site_fract_y
_atom_site_fract_z
Si Si1 0.645700 0.141580 0.809773
Si Si2 0.950314 0.308263 0.127346
Si Si3 0.119874 0.846195 0.187270
Si Si4 0.699047 0.111678 0.125834
Si Si5 0.801164 0.678576 0.538387
Si Si6 0.554980 0.059715 0.590999
Si Si7 0.274436 0.364480 0.330008
Si Si8 0.460631 0.442285 0.678954
O O1 0.698321 0.249046 0.830229
O O2 0.366397 0.094599 0.782532
O O3 0.887764 0.129673 0.608427
O O4 0.669806 0.095418 0.960443
O O5 0.933483 0.197962 0.101859
O O6 0.627384 0.332042 0.282244
O O7 0.216359 0.347728 0.170615
O O8 0.918824 0.355039 0.977543
O O9 0.301324 0.917684 0.247939
O O10 0.749884 0.854269 0.314784
O O11 0.352078 0.141414 0.274369
O O12 0.774930 0.020458 0.199467
O O13 0.519281 0.654243 0.492968
O O14 0.917636 0.782322 0.546507
O O15 0.746957 0.968721 0.614984
O O16 0.410926 0.992827 0.493635
#
# Coordination Sequence:
#
# PCOD9118149 Si02
#       8
#     2   2   2   2   2   2   2   2
#     4  11  26  47  74 110 146 203 254 316 382 461
#     4  10  24  46  72 110 147 202 254 310 389 453
#     4  11  26  46  76 106 155 201 254 318 390 461
#     4   9  24  48  73 108 152 197 255 317 383 457
#     4  10  25  48  73 107 155 199 252 321 384 456
#     4  11  28  42  72 113 146 198 259 308 386 462
#     4  11  25  44  76 105 155 199 250 322 380 458
#     4  11  26  47  74 109 154 201 250 320 390 464
#
# _framework density 28.569182000000001
#
# number of rings (size 3 to 8) (size 9 to 14) (size 15 to 20)
#    0.000    1.500    0.000    1.500   17.500    1.000 
#    4.500    0.000    0.000    0.000    0.000    0.000 
#    0.000    0.000    0.000    0.000    0.000    0.000 
#
# Total GULP energy -89210.340781 kJ/mol
# GULP energy per Si atom -5575.646299 kJ/mol
# Density = 2.850416 g / cm^3
# Si number density = 28.569182 Si / 1000 Ang^3
#
#
#
# Elastic Constant Matrix: (Units=GPa)
#
#
# Indices 1 2 3 4 5 6 
#
# 1 128.0279 46.0727 81.1653 0.0000 38.7709 0.0000
# 2 46.0727 161.7189 56.2203 0.0000 39.2464 0.0000
# 3 81.1653 56.2203 162.7756 0.0000 57.2911 0.0000
# 4 0.0000 0.0000 0.0000 57.2130 0.0000 15.2419
# 5 38.7709 39.2464 57.2911 0.0000 62.4296 0.0000
# 6 0.0000 0.0000 0.0000 15.2419 0.0000 35.0218
#
#
#
# Elastic Compliance Matrix: (Units=1/GPa)
#
#
# Indices 1 2 3 4 5 6 
#
# 1 0.011939 -0.001195 -0.004720 0.000000 -0.002332 0.000000
# 2 -0.001195 0.007619 -0.000903 0.000000 -0.003219 0.000000
# 3 -0.004720 -0.000903 0.011192 0.000000 -0.006772 0.000000
# 4 0.000000 0.000000 0.000000 0.019771 0.000000 -0.008604
# 5 -0.002332 -0.003219 -0.006772 0.000000 0.025705 0.000000
# 6 0.000000 0.000000 0.000000 -0.008604 0.000000 0.032298
#
#
# Mechanical properties :
#
#
# Convention : Reuss Voigt Hill
#
# Bulk Modulus (GPa) = 58.42367 91.04879 74.73623
# Shear Modulus (GPa) = 39.10382 48.87049 43.98716
#
# Velocity S-wave (km/s) = 3.70366 4.14043 3.92812
# Velocity P-wave (km/s) = 6.22766 7.40245 6.84033
#
# Compressibility (1/GPa) = 0.01711635
#
# Stress axis : x y z
#
# Youngs Moduli (GPa) = 83.75794 131.25049 89.34710
#
# Poissons Ratio (x) = 0.15679 0.42170
# Poissons Ratio (y) = 0.10006 0.08066
# Poissons Ratio (z) = 0.39532 0.11848
#
# Static dielectric constant tensor:
#      x y z
#    x 2.366610 0.000000 -0.119150 
#    y 0.000000 2.300010 0.000000 
#    z -0.119150 0.000000 2.343490 
# 
# From -- ./inp_files/4832.got.cif
#   From: 2010.05.17/outbox.cif.g08.bks.cpg/sg4_3_cif.got.tgz:4832.got - 2010.06.03 18:43:04.
