data_PCOD9118685
_publ_section_title
;
Structure prediction by ZEFSAII (Michael W. Deem and Ramdas Pophale) SiO2 
 PCOD9118685
Probable space group: P 21
;
_chemical_formula_sum "Si O2"
_cell_formula_units_Z 16
_cell_length_a 9.502688
_cell_length_b 11.234035
_cell_length_c 5.526986
_cell_angle_alpha 90.000000
_cell_angle_beta 75.174259
_cell_angle_gamma 90.000000
_cell_volume 570.382454
_symmetry_space_group_name_H-M "P 21"
_symmetry_group_IT_number 4
_symmetry_cell_setting 'monoclinic'
loop_
_space_group_symop_operation_xyz
x,y,z
-x,1/2+y,-z
loop_
_atom_site_type_symbol
_atom_site_label
_atom_site_fract_x
_atom_site_fract_y
_atom_site_fract_z
Si Si1 0.486662 0.697960 0.554438
Si Si2 0.174266 0.041687 0.713648
Si Si3 0.161229 0.470199 0.129419
Si Si4 0.543277 0.083526 0.923011
Si Si5 0.403788 0.892693 0.301123
Si Si6 0.148935 0.643695 0.739906
Si Si7 0.906258 0.756877 0.536619
Si Si8 0.152206 0.851456 0.116785
O O1 0.511300 0.665265 0.823238
O O2 0.507200 0.831987 0.453133
O O3 0.311509 0.684548 0.612404
O O4 0.530927 0.618641 0.298617
O O5 0.184437 0.179322 0.618929
O O6 0.005069 0.007512 0.749537
O O7 0.284123 0.971943 0.490408
O O8 0.189753 0.977335 0.970745
O O9 0.177343 0.337318 0.228290
O O10 0.284680 0.555240 0.187547
O O11 0.168981 0.512241 0.844573
O O12 0.496294 0.959193 0.061734
O O13 0.298885 0.810232 0.186514
O O14 0.015097 0.663853 0.620622
O O15 0.110726 0.747383 0.950800
O O16 0.016788 0.846411 0.354719
#
# Coordination Sequence:
#
# PCOD9118685 Si02
#       8
#     2   2   2   2   2   2   2   2
#     4  11  23  48  74 107 149 205 263 312 389 475
#     4  12  26  41  77 112 147 196 266 320 397 478
#     4  11  23  47  69 109 151 199 252 333 393 468
#     4  11  29  45  77 112 152 206 264 319 392 483
#     4  12  26  47  77 109 152 204 260 322 396 478
#     4  11  22  42  74 109 145 206 264 317 396 493
#     4  12  25  44  72 117 152 196 259 343 403 467
#     4  12  22  44  76 111 150 206 258 328 398 482
#
# _framework density 28.051352999999999
#
# number of rings (size 3 to 8) (size 9 to 14) (size 15 to 20)
#    0.000    0.500    6.250    2.250    3.500    3.000 
#    0.000    2.500    0.000    0.000    0.000    0.000 
#    0.000    0.000    0.000    0.000    0.000    0.000 
#
# Total GULP energy -89342.457662 kJ/mol
# GULP energy per Si atom -5583.903604 kJ/mol
# Density = 2.798751 g / cm^3
# Si number density = 28.051353 Si / 1000 Ang^3
#
#
#
# Elastic Constant Matrix: (Units=GPa)
#
#
# Indices 1 2 3 4 5 6 
#
# 1 42.0997 12.3575 6.8483 0.0000 20.9276 0.0000
# 2 12.3575 113.6768 33.1386 0.0000 6.3269 0.0000
# 3 6.8483 33.1386 106.3376 0.0000 11.8840 0.0000
# 4 0.0000 0.0000 0.0000 79.9622 0.0000 6.1961
# 5 20.9276 6.3269 11.8840 0.0000 42.5548 0.0000
# 6 0.0000 0.0000 0.0000 6.1961 0.0000 41.6333
#
#
#
# Elastic Compliance Matrix: (Units=1/GPa)
#
#
# Indices 1 2 3 4 5 6 
#
# 1 0.032234 -0.002793 0.000536 0.000000 -0.015586 0.000000
# 2 -0.002793 0.009934 -0.002998 0.000000 0.000734 0.000000
# 3 0.000536 -0.002998 0.010615 0.000000 -0.002782 0.000000
# 4 0.000000 0.000000 0.000000 0.012652 0.000000 -0.001883
# 5 -0.015586 0.000734 -0.002782 0.000000 0.031832 0.000000
# 6 0.000000 0.000000 0.000000 -0.001883 0.000000 0.024299
#
#
# Mechanical properties :
#
#
# Convention : Reuss Voigt Hill
#
# Bulk Modulus (GPa) = 23.65562 40.75587 32.20575
# Shear Modulus (GPa) = 34.20792 46.81472 40.51132
#
# Velocity S-wave (km/s) = 3.49589 4.08964 3.80437
# Velocity P-wave (km/s) = 4.97456 6.07131 5.55009
#
# Compressibility (1/GPa) = 0.04227325
#
# Stress axis : x y z
#
# Youngs Moduli (GPa) = 31.02343 100.66906 94.20957
#
# Poissons Ratio (x) = 0.28116 -0.05053
# Poissons Ratio (y) = 0.08665 0.28242
# Poissons Ratio (z) = -0.01664 0.30178
#
# Static dielectric constant tensor:
#      x y z
#    x 2.198900 0.000000 -0.007440 
#    y 0.000000 2.354950 0.000000 
#    z -0.007440 0.000000 2.239480 
# 
# From -- ./inp_files/2848.got.cif
#   From: 2010.05.17/outbox.cif.g08.bks.cpg/sg4_2_cif.got.tgz:2848.got - 2010.06.03 18:43:04.
