data_PCOD9118495
_publ_section_title
;
Structure prediction by ZEFSAII (Michael W. Deem and Ramdas Pophale) SiO2 
 PCOD9118495
Probable space group: P 21
;
_chemical_formula_sum "Si O2"
_cell_formula_units_Z 14
_cell_length_a 13.198441
_cell_length_b 5.608764
_cell_length_c 9.866807
_cell_angle_alpha 90.000000
_cell_angle_beta 131.812351
_cell_angle_gamma 90.000000
_cell_volume 544.397821
_symmetry_space_group_name_H-M "P 21"
_symmetry_group_IT_number 4
_symmetry_cell_setting 'monoclinic'
loop_
_space_group_symop_operation_xyz
x,y,z
-x,1/2+y,-z
loop_
_atom_site_type_symbol
_atom_site_label
_atom_site_fract_x
_atom_site_fract_y
_atom_site_fract_z
Si Si1 0.684995 0.623250 0.241669
Si Si2 0.364637 0.747921 0.574868
Si Si3 0.963523 0.203452 0.715886
Si Si4 0.149107 0.205481 0.131866
Si Si5 0.558836 0.384563 0.899976
Si Si6 0.305292 0.707035 0.228822
Si Si7 0.941176 0.710623 0.632727
O O1 0.639634 0.480320 0.336145
O O2 0.561124 0.801905 0.106913
O O3 0.825824 0.728757 0.415963
O O4 0.680908 0.465568 0.104829
O O5 0.201865 0.680000 0.435920
O O6 0.476396 0.576880 0.738471
O O7 0.395366 0.752080 0.443180
O O8 0.005607 0.448278 0.679834
O O9 0.018687 0.959545 0.701560
O O10 0.017598 0.218783 0.917673
O O11 0.231836 0.450458 0.179060
O O12 0.117726 0.197294 0.264354
O O13 0.220226 0.956606 0.152777
O O14 0.617554 0.201667 0.843879
#
# Coordination Sequence:
#
# PCOD9118495 Si02
#       7
#     2   2   2   2   2   2   2
#     4  11  23  43  66  96 133 182 240 274 345 414
#     4  11  24  42  65 101 132 182 227 289 337 409
#     4  11  21  37  70 101 135 173 232 288 334 404
#     4  12  22  43  64 105 142 177 222 290 351 411
#     4  12  26  43  69  99 140 185 228 293 343 427
#     4  12  28  40  67 102 146 177 224 285 366 404
#     4  11  20  38  65 102 128 174 229 287 330 401
#
# _framework density 25.716487999999998
#
# number of rings (size 3 to 8) (size 9 to 14) (size 15 to 20)
#    0.000    0.571    7.143    1.714    4.000    0.000 
#    0.000    0.000    0.000   10.286    0.000    0.000 
#    0.000    0.000    0.000    0.000    0.000    0.000 
#
# Total GULP energy -78275.188072 kJ/mol
# GULP energy per Si atom -5591.084862 kJ/mol
# Density = 2.565796 g / cm^3
# Si number density = 25.716488 Si / 1000 Ang^3
#
#
#
# Elastic Constant Matrix: (Units=GPa)
#
#
# Indices 1 2 3 4 5 6 
#
# 1 70.7429 34.7192 41.4146 0.0000 -11.8454 0.0000
# 2 34.7192 166.7711 33.7382 0.0000 4.4924 0.0000
# 3 41.4146 33.7382 189.8331 0.0000 -5.0150 0.0000
# 4 0.0000 0.0000 0.0000 45.4957 0.0000 4.2730
# 5 -11.8454 4.4924 -5.0150 0.0000 26.1142 0.0000
# 6 0.0000 0.0000 0.0000 4.2730 0.0000 23.1765
#
#
#
# Elastic Compliance Matrix: (Units=1/GPa)
#
#
# Indices 1 2 3 4 5 6 
#
# 1 0.019314 -0.003579 -0.003347 0.000000 0.008734 0.000000
# 2 -0.003579 0.006927 -0.000527 0.000000 -0.002916 0.000000
# 3 -0.003347 -0.000527 0.006085 0.000000 -0.000259 0.000000
# 4 0.000000 0.000000 0.000000 0.022367 0.000000 -0.004124
# 5 0.008734 -0.002916 -0.000259 0.000000 0.042707 0.000000
# 6 0.000000 0.000000 0.000000 -0.004124 0.000000 0.043908
#
#
# Mechanical properties :
#
#
# Convention : Reuss Voigt Hill
#
# Bulk Modulus (GPa) = 57.40825 71.89903 64.65364
# Shear Modulus (GPa) = 30.86044 40.12228 35.49136
#
# Velocity S-wave (km/s) = 3.46790 3.95419 3.71900
# Velocity P-wave (km/s) = 6.19734 6.99046 6.60582
#
# Compressibility (1/GPa) = 0.01741910
#
# Stress axis : x y z
#
# Youngs Moduli (GPa) = 51.77616 144.37152 164.34407
#
# Poissons Ratio (x) = 0.51672 0.55002
# Poissons Ratio (y) = 0.18531 0.08665
# Poissons Ratio (z) = 0.17328 0.07612
#
# Static dielectric constant tensor:
#      x y z
#    x 2.081720 0.000000 0.019700 
#    y 0.000000 2.147490 0.000000 
#    z 0.019700 0.000000 1.986120 
# 
# From -- ./inp_files/7352.got.cif
#   From: 2010.05.17/outbox.cif.g08.bks.cpg/sg4_4_cif.got.tgz:7352.got - 2010.06.03 18:43:04.
