data_PCOD9118209
_publ_section_title
;
Structure prediction by ZEFSAII (Michael W. Deem and Ramdas Pophale) SiO2 
 PCOD9118209
Probable space group: P 21
;
_chemical_formula_sum "Si O2"
_cell_formula_units_Z 12
_cell_length_a 11.710674
_cell_length_b 4.883456
_cell_length_c 8.358932
_cell_angle_alpha 90.000000
_cell_angle_beta 117.469344
_cell_angle_gamma 90.000000
_cell_volume 424.140526
_symmetry_space_group_name_H-M "P 21"
_symmetry_group_IT_number 4
_symmetry_cell_setting 'monoclinic'
loop_
_space_group_symop_operation_xyz
x,y,z
-x,1/2+y,-z
loop_
_atom_site_type_symbol
_atom_site_label
_atom_site_fract_x
_atom_site_fract_y
_atom_site_fract_z
Si Si1 0.676377 0.852910 0.457140
Si Si2 0.170031 0.376970 0.967749
Si Si3 0.584272 0.004797 0.732143
Si Si4 0.891599 0.521708 0.764002
Si Si5 0.537814 0.127723 0.131011
Si Si6 0.984319 0.630657 0.377626
O O1 0.549893 0.662041 0.351191
O O2 0.797916 0.664834 0.574726
O O3 0.644027 0.023203 0.595949
O O4 0.672484 0.040018 0.296874
O O5 0.150067 0.206082 0.793286
O O6 0.044859 0.575869 0.888157
O O7 0.296729 0.557623 0.072008
O O8 0.163213 0.153483 0.107584
O O9 0.547596 0.699413 0.767236
O O10 0.914594 0.214571 0.701171
O O11 0.527150 0.396665 0.017885
O O12 0.986981 0.338999 0.459877
#
# Coordination Sequence:
#
# PCOD9118209 Si02
#       6
#     2   2   2   2   2   2
#     4  11  23  47  74 106 143 197 252 307 361 444
#     4   9  23  45  73 103 143 189 253 297 365 431
#     4  11  23  47  74 106 143 197 252 307 361 444
#     4   9  23  45  73 103 143 189 253 297 365 431
#     4  12  26  48  72 114 154 194 240 310 376 442
#     4  10  24  48  70 104 146 186 234 298 370 440
#
# _framework density 28.292508999999999
#
# number of rings (size 3 to 8) (size 9 to 14) (size 15 to 20)
#    1.000    0.667    3.333    0.000    2.333    2.667 
#   12.000    0.000    0.000    0.000    0.000    0.000 
#    0.000    0.000    0.000    0.000    0.000    0.000 
#
# Total GULP energy -67055.865223 kJ/mol
# GULP energy per Si atom -5587.988769 kJ/mol
# Density = 2.822811 g / cm^3
# Si number density = 28.292509 Si / 1000 Ang^3
#
#
#
# Elastic Constant Matrix: (Units=GPa)
#
#
# Indices 1 2 3 4 5 6 
#
# 1 104.4371 28.6797 29.4532 0.0000 19.1992 0.0000
# 2 28.6797 85.3396 15.3816 0.0000 2.4907 0.0000
# 3 29.4532 15.3816 175.6627 0.0000 5.2810 0.0000
# 4 0.0000 0.0000 0.0000 39.1399 0.0000 -6.3061
# 5 19.1992 2.4907 5.2810 0.0000 57.1912 0.0000
# 6 0.0000 0.0000 0.0000 -6.3061 0.0000 52.5906
#
#
#
# Elastic Compliance Matrix: (Units=1/GPa)
#
#
# Indices 1 2 3 4 5 6 
#
# 1 0.011641 -0.003530 -0.001534 0.000000 -0.003613 0.000000
# 2 -0.003530 0.012987 -0.000565 0.000000 0.000672 0.000000
# 3 -0.001534 -0.000565 0.006000 0.000000 -0.000014 0.000000
# 4 0.000000 0.000000 0.000000 0.026053 0.000000 0.003124
# 5 -0.003613 0.000672 -0.000014 0.000000 0.018670 0.000000
# 6 0.000000 0.000000 0.000000 0.003124 0.000000 0.019389
#
#
# Mechanical properties :
#
#
# Convention : Reuss Voigt Hill
#
# Bulk Modulus (GPa) = 51.63128 56.94093 54.28610
# Shear Modulus (GPa) = 44.46189 49.24602 46.85396
#
# Velocity S-wave (km/s) = 3.96852 4.17658 4.07388
# Velocity P-wave (km/s) = 6.26799 6.58999 6.43100
#
# Compressibility (1/GPa) = 0.01936810
#
# Stress axis : x y z
#
# Youngs Moduli (GPa) = 85.90031 77.00244 166.66936
#
# Poissons Ratio (x) = 0.27184 0.25570
# Poissons Ratio (y) = 0.30325 0.09424
# Poissons Ratio (z) = 0.13179 0.04354
#
# Static dielectric constant tensor:
#      x y z
#    x 2.278860 0.000000 -0.021660 
#    y 0.000000 2.282010 0.000000 
#    z -0.021660 0.000000 2.220330 
# 
# From -- ./inp_files/9068.got.cif
#   From: 2010.05.17/outbox.cif.g08.bks.cpg/sg4_5_cif.got.tgz:9068.got - 2010.06.03 18:43:04.
