data_PCOD9118666
_publ_section_title
;
Structure prediction by ZEFSAII (Michael W. Deem and Ramdas Pophale) SiO2 
 PCOD9118666
Probable space group: P 21
;
_chemical_formula_sum "Si O2"
_cell_formula_units_Z 16
_cell_length_a 4.966469
_cell_length_b 9.606219
_cell_length_c 15.670774
_cell_angle_alpha 90.000000
_cell_angle_beta 116.508161
_cell_angle_gamma 90.000000
_cell_volume 669.038324
_symmetry_space_group_name_H-M "P 21"
_symmetry_group_IT_number 4
_symmetry_cell_setting 'monoclinic'
loop_
_space_group_symop_operation_xyz
x,y,z
-x,1/2+y,-z
loop_
_atom_site_type_symbol
_atom_site_label
_atom_site_fract_x
_atom_site_fract_y
_atom_site_fract_z
Si Si1 0.560800 0.002810 0.087386
Si Si2 0.674529 0.163376 0.771545
Si Si3 0.718234 0.907699 0.342003
Si Si4 0.619049 0.035026 0.576169
Si Si5 0.614706 0.677682 0.102866
Si Si6 0.084307 0.860033 0.556555
Si Si7 0.763918 0.590015 0.788657
Si Si8 0.813303 0.633339 0.632959
O O1 0.425782 0.078824 0.152610
O O2 0.920548 0.021983 0.142809
O O3 0.490224 0.836994 0.074092
O O4 0.442614 0.086362 0.989229
O O5 0.449149 0.295174 0.737967
O O6 0.549680 0.097576 0.841569
O O7 0.027255 0.191132 0.832839
O O8 0.642836 0.104294 0.671844
O O9 0.851091 0.843529 0.445719
O O10 0.447511 0.017199 0.314954
O O11 0.989161 0.989319 0.337927
O O12 0.945746 0.990828 0.588785
O O13 0.403692 0.901962 0.563173
O O14 0.454352 0.116669 0.475769
O O15 0.052546 0.729359 0.612099
O O16 0.827300 0.711493 0.729416
#
# Coordination Sequence:
#
# PCOD9118666 Si02
#       8
#     2   2   2   2   2   2   2   2
#     4  12  26  47  73 101 131 176 233 298 355 413
#     4  12  24  47  74  97 136 187 230 276 342 432
#     4  11  22  41  71 100 127 196 232 263 330 413
#     4  11  25  42  65 104 141 186 229 273 343 407
#     4  12  26  48  74 101 135 175 238 298 354 418
#     4  11  25  41  63 100 157 180 224 288 326 396
#     4  12  22  44  70  99 131 180 232 271 342 421
#     4  11  24  42  68 106 142 182 234 281 334 408
#
# _framework density 23.914926000000001
#
# number of rings (size 3 to 8) (size 9 to 14) (size 15 to 20)
#    0.000    0.500    6.250    1.500    1.750    0.000 
#    6.750    0.000    0.000    0.000    0.000    0.000 
#    0.000    0.000    0.000    0.000    0.000    0.000 
#
# Total GULP energy -89252.248063 kJ/mol
# GULP energy per Si atom -5578.265504 kJ/mol
# Density = 2.386049 g / cm^3
# Si number density = 23.914926 Si / 1000 Ang^3
#
#
#
# Elastic Constant Matrix: (Units=GPa)
#
#
# Indices 1 2 3 4 5 6 
#
# 1 157.3819 28.5079 50.6556 0.0000 -36.5382 0.0000
# 2 28.5079 69.9993 54.5249 0.0000 -22.9393 0.0000
# 3 50.6556 54.5249 189.4766 0.0000 -26.0192 0.0000
# 4 0.0000 0.0000 0.0000 -0.7621 0.0000 33.4120
# 5 -36.5382 -22.9393 -26.0192 0.0000 70.8937 0.0000
# 6 0.0000 0.0000 0.0000 33.4120 0.0000 -38.3311
#
#
#
# Elastic Compliance Matrix: (Units=1/GPa)
#
#
# Indices 1 2 3 4 5 6 
#
# 1 0.007702 -0.001083 -0.001317 0.000000 0.003136 0.000000
# 2 -0.001083 0.019852 -0.004863 0.000000 0.004080 0.000000
# 3 -0.001317 -0.004863 0.007076 0.000000 0.000345 0.000000
# 4 0.000000 0.000000 0.000000 0.035258 0.000000 0.030734
# 5 0.003136 0.004080 0.000345 0.000000 0.017169 0.000000
# 6 0.000000 0.000000 0.000000 0.030734 0.000000 0.000701
#
#
# Mechanical properties :
#
#
# Convention : Reuss Voigt Hill
#
# Bulk Modulus (GPa) = 49.73974 76.02607 62.88290
# Shear Modulus (GPa) = 45.87738 25.23806 35.55772
#
# Velocity S-wave (km/s) = 4.38466 3.25210 3.86014
# Velocity P-wave (km/s) = 6.81743 6.77944 6.79846
#
# Compressibility (1/GPa) = 0.02010465
#
# Stress axis : x y z
#
# Youngs Moduli (GPa) = 129.83573 50.37256 141.31417
#
# Poissons Ratio (x) = 0.05458 0.18607
# Poissons Ratio (y) = 0.14068 0.68718
# Poissons Ratio (z) = 0.17095 0.24495
#
# Static dielectric constant tensor:
#      x y z
#    x 4.943530 0.000000 -2.098210 
#    y 0.000000 1.383610 0.000000 
#    z -2.098210 0.000000 3.321420 
# 
# From -- ./inp_files/13394.got.cif
#   From: 2010.05.17/outbox.cif.g08.bks.cpg/sg4_7_cif.got.tgz:13394.got - 2010.06.03 18:43:04.
