data_PCOD9118235
_publ_section_title
;
Structure prediction by ZEFSAII (Michael W. Deem and Ramdas Pophale) SiO2 
 PCOD9118235
Probable space group: P 21
;
_chemical_formula_sum "Si O2"
_cell_formula_units_Z 14
_cell_length_a 8.686762
_cell_length_b 6.254892
_cell_length_c 10.557560
_cell_angle_alpha 90.000000
_cell_angle_beta 100.309648
_cell_angle_gamma 90.000000
_cell_volume 564.380963
_symmetry_space_group_name_H-M "P 21"
_symmetry_group_IT_number 4
_symmetry_cell_setting 'monoclinic'
loop_
_space_group_symop_operation_xyz
x,y,z
-x,1/2+y,-z
loop_
_atom_site_type_symbol
_atom_site_label
_atom_site_fract_x
_atom_site_fract_y
_atom_site_fract_z
Si Si1 0.845980 0.759420 0.007989
Si Si2 0.662895 0.387974 0.874295
Si Si3 0.358409 0.572165 0.895211
Si Si4 0.885373 0.099573 0.789201
Si Si5 0.820343 0.095943 0.367642
Si Si6 0.841970 0.783980 0.569854
Si Si7 0.501389 0.225513 0.447792
O O1 0.971343 0.738806 0.138212
O O2 0.690557 0.849819 0.049525
O O3 0.803946 0.536195 0.939360
O O4 0.881320 0.918904 0.898225
O O5 0.510154 0.531208 0.831475
O O6 0.725129 0.235193 0.773999
O O7 0.627319 0.239282 0.990413
O O8 0.215509 0.632749 0.784614
O O9 0.897931 0.994019 0.655565
O O10 0.676462 0.227034 0.410504
O O11 0.003785 0.141435 0.412800
O O12 0.797045 0.857626 0.421227
O O13 0.685366 0.709425 0.620125
O O14 0.492192 0.480817 0.489997
#
# Coordination Sequence:
#
# PCOD9118235 Si02
#       7
#     2   2   2   2   2   2   2
#     4  11  23  44  67 102 139 182 241 304 373 448
#     4  11  23  44  68 102 142 184 239 305 378 438
#     4  11  25  43  71 105 140 187 244 305 372 455
#     4  11  25  42  70 101 138 188 243 304 375 454
#     4  11  26  46  73 110 149 196 250 309 379 459
#     4  11  26  47  71 108 149 196 248 310 383 455
#     4  10  24  50  76 108 153 201 259 311 374 457
#
# _framework density 24.805941000000001
#
# number of rings (size 3 to 8) (size 9 to 14) (size 15 to 20)
#    0.000    1.143    2.857    1.714    6.000    4.571 
#    7.714    0.000    0.000    0.000    0.000    0.000 
#    0.000    0.000    0.000    0.000    0.000    0.000 
#
# Total GULP energy -77989.769883 kJ/mol
# GULP energy per Si atom -5570.697849 kJ/mol
# Density = 2.474948 g / cm^3
# Si number density = 24.805941 Si / 1000 Ang^3
#
#
#
# Elastic Constant Matrix: (Units=GPa)
#
#
# Indices 1 2 3 4 5 6 
#
# 1 137.2879 30.3571 7.6961 0.0000 8.8791 0.0000
# 2 30.3571 80.0840 -4.1626 0.0000 -4.1221 0.0000
# 3 7.6961 -4.1626 29.2937 0.0000 5.5687 0.0000
# 4 0.0000 0.0000 0.0000 26.6892 0.0000 8.4633
# 5 8.8791 -4.1221 5.5687 0.0000 31.7702 0.0000
# 6 0.0000 0.0000 0.0000 8.4633 0.0000 34.0385
#
#
#
# Elastic Compliance Matrix: (Units=1/GPa)
#
#
# Indices 1 2 3 4 5 6 
#
# 1 0.008311 -0.003388 -0.002213 0.000000 -0.002374 0.000000
# 2 -0.003388 0.014018 0.002437 0.000000 0.002338 0.000000
# 3 -0.002213 0.002437 0.036090 0.000000 -0.005391 0.000000
# 4 0.000000 0.000000 0.000000 0.040675 0.000000 -0.010113
# 5 -0.002374 0.002338 -0.005391 0.000000 0.033388 0.000000
# 6 0.000000 0.000000 0.000000 -0.010113 0.000000 0.031893
#
#
# Mechanical properties :
#
#
# Convention : Reuss Voigt Hill
#
# Bulk Modulus (GPa) = 19.19705 34.93852 27.06779
# Shear Modulus (GPa) = 26.58644 32.68456 29.63550
#
# Velocity S-wave (km/s) = 3.27735 3.63383 3.46018
# Velocity P-wave (km/s) = 4.69863 5.63219 5.18646
#
# Compressibility (1/GPa) = 0.05209134
#
# Stress axis : x y z
#
# Youngs Moduli (GPa) = 120.32762 71.33667 27.70869
#
# Poissons Ratio (x) = 0.24166 0.06133
# Poissons Ratio (y) = 0.40761 -0.06754
# Poissons Ratio (z) = 0.26633 -0.17388
#
# Static dielectric constant tensor:
#      x y z
#    x 1.974940 0.000000 -0.014490 
#    y 0.000000 1.986950 0.000000 
#    z -0.014490 0.000000 2.011930 
# 
# From -- ./inp_files/7092.got.cif
#   From: 2010.05.17/outbox.cif.g08.bks.cpg/sg4_4_cif.got.tgz:7092.got - 2010.06.03 18:43:04.
