data_PCOD9118704
_publ_section_title
;
Structure prediction by ZEFSAII (Michael W. Deem and Ramdas Pophale) SiO2 
 PCOD9118704
Probable space group: P 21
;
_chemical_formula_sum "Si O2"
_cell_formula_units_Z 16
_cell_length_a 5.028565
_cell_length_b 9.454487
_cell_length_c 13.002178
_cell_angle_alpha 90.000000
_cell_angle_beta 80.739350
_cell_angle_gamma 90.000000
_cell_volume 610.099324
_symmetry_space_group_name_H-M "P 21"
_symmetry_group_IT_number 4
_symmetry_cell_setting 'monoclinic'
loop_
_space_group_symop_operation_xyz
x,y,z
-x,1/2+y,-z
loop_
_atom_site_type_symbol
_atom_site_label
_atom_site_fract_x
_atom_site_fract_y
_atom_site_fract_z
Si Si1 0.831315 0.729530 0.919107
Si Si2 0.312318 0.552225 0.997942
Si Si3 0.056703 0.781089 0.458949
Si Si4 0.774793 0.837512 0.284120
Si Si5 0.375041 0.734033 0.195675
Si Si6 0.841537 0.784153 0.685936
Si Si7 0.454881 0.025889 0.396521
Si Si8 0.570909 0.053203 0.623352
O O1 0.925438 0.771175 0.797955
O O2 0.747514 0.883912 0.975036
O O3 0.367565 0.619791 0.108613
O O4 0.058014 0.640158 0.966923
O O5 0.578588 0.620052 0.926652
O O6 0.407115 0.356533 0.811919
O O7 0.144752 0.624095 0.424033
O O8 0.786508 0.801242 0.411537
O O9 0.056333 0.806649 0.580255
O O10 0.275815 0.884805 0.394388
O O11 0.069447 0.782638 0.230075
O O12 0.545920 0.665611 0.285838
O O13 0.738027 0.004304 0.321957
O O14 0.690739 0.649750 0.651612
O O15 0.633232 0.913959 0.682427
O O16 0.454643 0.041827 0.518513
#
# Coordination Sequence:
#
# PCOD9118704 Si02
#       8
#     2   2   2   2   2   2   2   2
#     4  12  30  56  85 116 160 209 275 345 416 473
#     4  12  28  58  81 118 153 210 272 354 410 469
#     4  11  24  47  70 109 162 206 247 299 376 480
#     4  11  22  43  72 113 142 205 246 299 374 472
#     4  11  24  46  80 100 142 196 267 301 387 471
#     4  12  26  45  73 116 153 204 254 322 385 462
#     4  12  24  43  70 114 165 196 251 313 370 465
#     4  11  22  44  69 108 149 208 244 295 380 472
#
# _framework density 26.225239999999999
#
# number of rings (size 3 to 8) (size 9 to 14) (size 15 to 20)
#    0.000    0.500    5.000    3.750    0.000    6.000 
#    4.500    0.000    0.000    0.000    0.000    0.000 
#    0.000    0.000    0.000    0.000    0.000    0.000 
#
# Total GULP energy -89090.160118 kJ/mol
# GULP energy per Si atom -5568.135007 kJ/mol
# Density = 2.616555 g / cm^3
# Si number density = 26.225240 Si / 1000 Ang^3
#
#
#
# Elastic Constant Matrix: (Units=GPa)
#
#
# Indices 1 2 3 4 5 6 
#
# 1 121.8136 38.3839 22.9750 0.0000 24.0819 0.0000
# 2 38.3839 129.4472 33.9030 0.0000 23.7080 0.0000
# 3 22.9750 33.9030 159.7036 0.0000 23.2749 0.0000
# 4 0.0000 0.0000 0.0000 29.9116 0.0000 35.6753
# 5 24.0819 23.7080 23.2749 0.0000 45.0896 0.0000
# 6 0.0000 0.0000 0.0000 35.6753 0.0000 -120.6997
#
#
#
# Elastic Compliance Matrix: (Units=1/GPa)
#
#
# Indices 1 2 3 4 5 6 
#
# 1 0.009703 -0.002061 -0.000390 0.000000 -0.003897 0.000000
# 2 -0.002061 0.009225 -0.001206 0.000000 -0.003127 0.000000
# 3 -0.000390 -0.001206 0.006976 0.000000 -0.002758 0.000000
# 4 0.000000 0.000000 0.000000 0.024718 0.000000 0.007306
# 5 -0.003897 -0.003127 -0.002758 0.000000 0.027327 0.000000
# 6 0.000000 0.000000 0.000000 0.007306 0.000000 -0.006126
#
#
# Mechanical properties :
#
#
# Convention : Reuss Voigt Hill
#
# Bulk Modulus (GPa) = 53.79732 66.83202 60.31467
# Shear Modulus (GPa) = 58.59296 11.90713 35.25004
#
# Velocity S-wave (km/s) = 4.73188 2.13312 3.67021
# Velocity P-wave (km/s) = 7.10017 5.62193 6.40385
#
# Compressibility (1/GPa) = 0.01858828
#
# Stress axis : x y z
#
# Youngs Moduli (GPa) = 103.06350 108.40200 143.35346
#
# Poissons Ratio (x) = 0.22343 0.05596
# Poissons Ratio (y) = 0.21243 0.17290
# Poissons Ratio (z) = 0.04023 0.13074
#
# Static dielectric constant tensor:
#      x y z
#    x 5.201790 0.000000 1.346260 
#    y 0.000000 2.385680 0.000000 
#    z 1.346260 0.000000 2.851730 
# 
# From -- ./inp_files/13268.got.cif
#   From: 2010.05.17/outbox.cif.g08.bks.cpg/sg4_7_cif.got.tgz:13268.got - 2010.06.03 18:43:04.
