data_PCOD9118637
_publ_section_title
;
Structure prediction by ZEFSAII (Michael W. Deem and Ramdas Pophale) SiO2 
 PCOD9118637
Probable space group: P 21
;
_chemical_formula_sum "Si O2"
_cell_formula_units_Z 16
_cell_length_a 10.293073
_cell_length_b 8.440693
_cell_length_c 20.109332
_cell_angle_alpha 90.000000
_cell_angle_beta 153.936169
_cell_angle_gamma 90.000000
_cell_volume 767.632516
_symmetry_space_group_name_H-M "P 21"
_symmetry_group_IT_number 4
_symmetry_cell_setting 'monoclinic'
loop_
_space_group_symop_operation_xyz
x,y,z
-x,1/2+y,-z
loop_
_atom_site_type_symbol
_atom_site_label
_atom_site_fract_x
_atom_site_fract_y
_atom_site_fract_z
Si Si1 0.610846 0.380260 0.792432
Si Si2 0.539457 0.781997 0.141735
Si Si3 0.592008 0.241348 0.643402
Si Si4 0.056753 0.242235 0.305942
Si Si5 0.757246 0.747355 0.875872
Si Si6 0.896425 0.913185 0.807083
Si Si7 0.898514 0.907414 0.189243
Si Si8 0.472843 0.908792 0.870220
O O1 0.394435 0.348940 0.754704
O O2 0.501642 0.322920 0.670982
O O3 0.703685 0.563597 0.836348
O O4 0.907771 0.279869 0.945477
O O5 0.789891 0.809383 0.202464
O O6 0.484965 0.595134 0.123140
O O7 0.243918 0.874661 0.980529
O O8 0.312660 0.185935 0.472780
O O9 0.771866 0.367410 0.681958
O O10 0.811180 0.095367 0.759100
O O11 0.179199 0.324045 0.295862
O O12 0.847543 0.363655 0.249135
O O13 0.870434 0.091012 0.195877
O O14 0.729003 0.843937 0.794293
O O15 0.551433 0.811728 0.840204
O O16 0.696980 0.869070 0.033054
#
# Coordination Sequence:
#
# PCOD9118637 Si02
#       8
#     2   2   2   2   2   2   2   2
#     4  11  22  40  63  99 133 170 220 275 340 391
#     4  11  23  39  69 100 127 166 225 283 324 374
#     4  12  26  43  66  97 141 181 213 270 345 412
#     4  12  26  44  65 100 139 176 220 274 340 403
#     4  11  22  38  69  98 128 170 226 283 324 388
#     4  11  22  41  66  98 134 172 222 277 329 392
#     4  12  23  41  68 100 128 175 226 273 329 391
#     4  12  22  42  68 100 128 170 228 277 323 387
#
# _framework density 20.843309000000001
#
# number of rings (size 3 to 8) (size 9 to 14) (size 15 to 20)
#    0.000    0.500    3.750    6.750    1.750    0.000 
#    0.000    7.500    0.000    0.000    0.000    0.000 
#    0.000    0.000    0.000    0.000    0.000    0.000 
#
# Total GULP energy -89510.936661 kJ/mol
# GULP energy per Si atom -5594.433541 kJ/mol
# Density = 2.079587 g / cm^3
# Si number density = 20.843309 Si / 1000 Ang^3
#
#
#
# Elastic Constant Matrix: (Units=GPa)
#
#
# Indices 1 2 3 4 5 6 
#
# 1 148.4244 25.1218 28.9178 0.0000 -32.1454 0.0000
# 2 25.1218 82.8537 12.4327 0.0000 -12.8355 0.0000
# 3 28.9178 12.4327 45.6824 0.0000 -12.8263 0.0000
# 4 0.0000 0.0000 0.0000 14.5459 0.0000 -2.0227
# 5 -32.1454 -12.8355 -12.8263 0.0000 22.6181 0.0000
# 6 0.0000 0.0000 0.0000 -2.0227 0.0000 37.9519
#
#
#
# Elastic Compliance Matrix: (Units=1/GPa)
#
#
# Indices 1 2 3 4 5 6 
#
# 1 0.010064 -0.000732 -0.002702 0.000000 0.012355 0.000000
# 2 -0.000732 0.013408 -0.001596 0.000000 0.005664 0.000000
# 3 -0.002702 -0.001596 0.027002 0.000000 0.010566 0.000000
# 4 0.000000 0.000000 0.000000 0.069261 0.000000 0.003691
# 5 0.012355 0.005664 0.010566 0.000000 0.070977 0.000000
# 6 0.000000 0.000000 0.000000 0.003691 0.000000 0.026546
#
#
# Mechanical properties :
#
#
# Convention : Reuss Voigt Hill
#
# Bulk Modulus (GPa) = 24.74386 45.54499 35.14443
# Shear Modulus (GPa) = 20.76506 29.05574 24.91040
#
# Velocity S-wave (km/s) = 3.15976 3.73769 3.46081
# Velocity P-wave (km/s) = 5.02088 6.36598 5.73302
#
# Compressibility (1/GPa) = 0.04041407
#
# Stress axis : x y z
#
# Youngs Moduli (GPa) = 99.36807 74.58095 37.03459
#
# Poissons Ratio (x) = 0.05458 0.10008
# Poissons Ratio (y) = 0.07272 0.05909
# Poissons Ratio (z) = 0.26853 0.11900
#
# Static dielectric constant tensor:
#      x y z
#    x 1.757130 0.000000 0.005940 
#    y 0.000000 1.743520 0.000000 
#    z 0.005940 0.000000 1.722040 
# 
# From -- ./inp_files/9206.got.cif
#   From: 2010.05.17/outbox.cif.g08.bks.cpg/sg4_5_cif.got.tgz:9206.got - 2010.06.03 18:43:04.
