data_PCOD9118652
_publ_section_title
;
Structure prediction by ZEFSAII (Michael W. Deem and Ramdas Pophale) SiO2 
 PCOD9118652
Probable space group: P 21
;
_chemical_formula_sum "Si O2"
_cell_formula_units_Z 12
_cell_length_a 13.916305
_cell_length_b 4.822970
_cell_length_c 7.887052
_cell_angle_alpha 90.000000
_cell_angle_beta 124.620537
_cell_angle_gamma 90.000000
_cell_volume 435.629784
_symmetry_space_group_name_H-M "P 21"
_symmetry_group_IT_number 4
_symmetry_cell_setting 'monoclinic'
loop_
_space_group_symop_operation_xyz
x,y,z
-x,1/2+y,-z
loop_
_atom_site_type_symbol
_atom_site_label
_atom_site_fract_x
_atom_site_fract_y
_atom_site_fract_z
Si Si1 0.472318 0.132840 0.354470
Si Si2 0.030665 0.038500 0.579080
Si Si3 0.672269 0.214759 0.301327
Si Si4 0.815367 0.717356 0.548977
Si Si5 0.251945 0.830987 0.981074
Si Si6 0.918885 0.292451 0.917367
O O1 0.465410 0.413453 0.456376
O O2 0.545549 0.183508 0.256222
O O3 0.350745 0.999415 0.176432
O O4 0.929673 0.786156 0.541805
O O5 0.050462 0.798080 0.453934
O O6 0.149483 0.027542 0.804282
O O7 0.713977 0.531150 0.360733
O O8 0.694091 0.159235 0.122652
O O9 0.750885 0.010600 0.496023
O O10 0.849766 0.521313 0.738439
O O11 0.170925 0.670130 0.033633
O O12 0.982097 0.012926 0.913902
#
# Coordination Sequence:
#
# PCOD9118652 Si02
#       6
#     2   2   2   2   2   2
#     4  12  28  50  77 110 152 197 245 306 377 448
#     4  11  22  40  64  98 138 186 241 299 359 429
#     4  11  25  46  72 104 142 192 246 304 366 443
#     4  11  23  43  67  98 143 189 239 301 367 433
#     4  11  27  46  75 108 147 196 249 305 369 438
#     4  12  25  43  69 106 148 196 248 305 368 441
#
# _framework density 27.546323000000001
#
# number of rings (size 3 to 8) (size 9 to 14) (size 15 to 20)
#    0.000    0.667    0.000    8.000    0.000   12.000 
#    0.000    0.000    0.000    0.000    0.000    0.000 
#    0.000    0.000    0.000    0.000    0.000    0.000 
#
# Total GULP energy -67067.403150 kJ/mol
# GULP energy per Si atom -5588.950263 kJ/mol
# Density = 2.748363 g / cm^3
# Si number density = 27.546323 Si / 1000 Ang^3
#
#
#
# Elastic Constant Matrix: (Units=GPa)
#
#
# Indices 1 2 3 4 5 6 
#
# 1 231.4701 30.7973 38.4385 0.0000 -10.4469 0.0000
# 2 30.7973 191.9034 11.2136 0.0000 2.3615 0.0000
# 3 38.4385 11.2136 77.5821 0.0000 8.6587 0.0000
# 4 0.0000 0.0000 0.0000 16.3765 0.0000 -19.6536
# 5 -10.4469 2.3615 8.6587 0.0000 45.9675 0.0000
# 6 0.0000 0.0000 0.0000 -19.6536 0.0000 30.4439
#
#
#
# Elastic Compliance Matrix: (Units=1/GPa)
#
#
# Indices 1 2 3 4 5 6 
#
# 1 0.004898 -0.000659 -0.002512 0.000000 0.001620 0.000000
# 2 -0.000659 0.005345 -0.000407 0.000000 -0.000348 0.000000
# 3 -0.002512 -0.000407 0.014561 0.000000 -0.003293 0.000000
# 4 0.000000 0.000000 0.000000 0.271095 0.000000 0.175011
# 5 0.001620 -0.000348 -0.003293 0.000000 0.022761 0.000000
# 6 0.000000 0.000000 0.000000 0.175011 0.000000 0.145828
#
#
# Mechanical properties :
#
#
# Convention : Reuss Voigt Hill
#
# Bulk Modulus (GPa) = 56.66920 73.53939 65.10429
# Shear Modulus (GPa) = 10.47059 46.59134 28.53096
#
# Velocity S-wave (km/s) = 1.95175 4.11710 3.22179
# Velocity P-wave (km/s) = 5.06913 7.02533 6.12582
#
# Compressibility (1/GPa) = 0.01764627
#
# Stress axis : x y z
#
# Youngs Moduli (GPa) = 204.15350 187.09712 68.67795
#
# Poissons Ratio (x) = 0.12334 0.17255
# Poissons Ratio (y) = 0.13458 0.02796
# Poissons Ratio (z) = 0.51292 0.07617
#
# Static dielectric constant tensor:
#      x y z
#    x 2.173050 0.000000 -0.092880 
#    y 0.000000 2.095490 0.000000 
#    z -0.092880 0.000000 2.754600 
# 
# From -- ./inp_files/8738.got.cif
#   From: 2010.05.17/outbox.cif.g08.bks.cpg/sg4_5_cif.got.tgz:8738.got - 2010.06.03 18:43:04.
