data_PCOD9118834
_publ_section_title
;
Structure prediction by ZEFSAII (Michael W. Deem and Ramdas Pophale) SiO2 
 PCOD9118834
Probable space group: P 21
;
_chemical_formula_sum "Si O2"
_cell_formula_units_Z 16
_cell_length_a 11.419320
_cell_length_b 9.102757
_cell_length_c 12.811360
_cell_angle_alpha 90.000000
_cell_angle_beta 34.691583
_cell_angle_gamma 90.000000
_cell_volume 757.952234
_symmetry_space_group_name_H-M "P 21"
_symmetry_group_IT_number 4
_symmetry_cell_setting 'monoclinic'
loop_
_space_group_symop_operation_xyz
x,y,z
-x,1/2+y,-z
loop_
_atom_site_type_symbol
_atom_site_label
_atom_site_fract_x
_atom_site_fract_y
_atom_site_fract_z
Si Si1 0.472718 0.678810 0.430251
Si Si2 0.598204 0.215026 0.914765
Si Si3 0.051736 0.492757 0.407597
Si Si4 0.950378 0.436534 0.718026
Si Si5 0.633921 0.844304 0.116705
Si Si6 0.994284 0.263019 0.272944
Si Si7 0.366980 0.340165 0.486129
Si Si8 0.388626 0.139390 0.280826
O O1 0.605495 0.743633 0.238198
O O2 0.454528 0.503418 0.437616
O O3 0.560478 0.734455 0.475116
O O4 0.243273 0.744308 0.581695
O O5 0.747648 0.342873 0.848018
O O6 0.487547 0.273444 0.892500
O O7 0.444861 0.175087 0.120431
O O8 0.745349 0.078012 0.778068
O O9 0.055197 0.459654 0.527558
O O10 0.849451 0.591884 0.536469
O O11 0.016834 0.345537 0.366707
O O12 0.914695 0.598833 0.788157
O O13 0.119228 0.355919 0.664815
O O14 0.528727 0.001333 0.211233
O O15 0.870128 0.854020 0.908194
O O16 0.431013 0.271690 0.328420
#
# Coordination Sequence:
#
# PCOD9118834 Si02
#       8
#     2   2   2   2   2   2   2   2
#     4  11  25  50  69  99 138 185 240 289 347 407
#     4  12  25  39  68 107 145 182 228 286 354 421
#     4  12  22  44  66 103 145 186 225 280 356 418
#     4  11  23  42  68 104 140 180 226 285 353 418
#     4  12  25  43  68 103 142 188 231 289 346 418
#     4  11  25  42  68  98 138 181 230 286 345 405
#     4  11  26  46  76  98 138 189 234 290 348 416
#     4  12  25  42  69 104 142 185 230 285 353 421
#
# _framework density 21.109508000000002
#
# number of rings (size 3 to 8) (size 9 to 14) (size 15 to 20)
#    0.000    0.500    5.000    3.750    3.500    0.000 
#    2.250    0.000    0.000    0.000    0.000    0.000 
#    0.000    0.000    0.000    0.000    0.000    0.000 
#
# Total GULP energy -89641.478478 kJ/mol
# GULP energy per Si atom -5602.592405 kJ/mol
# Density = 2.106146 g / cm^3
# Si number density = 21.109508 Si / 1000 Ang^3
#
#
#
# Elastic Constant Matrix: (Units=GPa)
#
#
# Indices 1 2 3 4 5 6 
#
# 1 54.2253 29.1803 7.8175 0.0000 0.8122 0.0000
# 2 29.1803 85.2694 19.0207 0.0000 -4.2732 0.0000
# 3 7.8175 19.0207 68.0193 0.0000 -1.5410 0.0000
# 4 0.0000 0.0000 0.0000 32.8724 0.0000 9.8884
# 5 0.8122 -4.2732 -1.5410 0.0000 18.8953 0.0000
# 6 0.0000 0.0000 0.0000 9.8884 0.0000 40.4626
#
#
#
# Elastic Compliance Matrix: (Units=1/GPa)
#
#
# Indices 1 2 3 4 5 6 
#
# 1 0.022762 -0.007819 -0.000493 0.000000 -0.002787 0.000000
# 2 -0.007819 0.015317 -0.003305 0.000000 0.003531 0.000000
# 3 -0.000493 -0.003305 0.015695 0.000000 0.000554 0.000000
# 4 0.000000 0.000000 0.000000 0.032834 0.000000 -0.008024
# 5 -0.002787 0.003531 0.000554 0.000000 0.053887 0.000000
# 6 0.000000 0.000000 0.000000 -0.008024 0.000000 0.026675
#
#
# Mechanical properties :
#
#
# Convention : Reuss Voigt Hill
#
# Bulk Modulus (GPa) = 32.74242 35.50565 34.12404
# Shear Modulus (GPa) = 24.92716 28.54577 26.73646
#
# Velocity S-wave (km/s) = 3.44008 3.68131 3.56274
# Velocity P-wave (km/s) = 5.59672 5.90980 5.75539
#
# Compressibility (1/GPa) = 0.03054142
#
# Stress axis : x y z
#
# Youngs Moduli (GPa) = 43.93269 65.28491 63.71460
#
# Poissons Ratio (x) = 0.51048 0.03139
# Poissons Ratio (y) = 0.34352 0.21056
# Poissons Ratio (z) = 0.02164 0.21574
#
# Static dielectric constant tensor:
#      x y z
#    x 1.734580 0.000000 -0.024770 
#    y 0.000000 1.774790 0.000000 
#    z -0.024770 0.000000 1.746840 
# 
# From -- ./inp_files/11977.got.cif
#   From: 2010.05.17/outbox.cif.g08.bks.cpg/sg4_6_cif.got.tgz:11977.got - 2010.06.03 18:43:04.
