data_PCOD9118766
_publ_section_title
;
Structure prediction by ZEFSAII (Michael W. Deem and Ramdas Pophale) SiO2 
 PCOD9118766
Probable space group: P 21
;
_chemical_formula_sum "Si O2"
_cell_formula_units_Z 12
_cell_length_a 14.117667
_cell_length_b 9.400586
_cell_length_c 6.538971
_cell_angle_alpha 90.000000
_cell_angle_beta 137.939054
_cell_angle_gamma 90.000000
_cell_volume 581.367407
_symmetry_space_group_name_H-M "P 21"
_symmetry_group_IT_number 4
_symmetry_cell_setting 'monoclinic'
loop_
_space_group_symop_operation_xyz
x,y,z
-x,1/2+y,-z
loop_
_atom_site_type_symbol
_atom_site_label
_atom_site_fract_x
_atom_site_fract_y
_atom_site_fract_z
Si Si1 0.157188 0.277440 0.708739
Si Si2 0.265471 0.034537 0.594228
Si Si3 0.390761 0.183029 0.404464
Si Si4 0.473584 0.476069 0.696158
Si Si5 0.842245 0.986583 0.652547
Si Si6 0.956859 0.291506 0.753016
O O1 0.172577 0.144105 0.580092
O O2 0.168312 0.417656 0.589223
O O3 0.016063 0.280556 0.617455
O O4 0.286196 0.257599 0.073874
O O5 0.298773 0.101748 0.427586
O O6 0.183192 0.886641 0.454579
O O7 0.413814 0.013467 0.948394
O O8 0.478511 0.308880 0.650624
O O9 0.484838 0.070358 0.432732
O O10 0.314951 0.506717 0.514211
O O11 0.925485 0.134066 0.781250
O O12 0.926700 0.874724 0.927491
#
# Coordination Sequence:
#
# PCOD9118766 Si02
#       6
#     2   2   2   2   2   2
#     4  11  22  47  69  98 140 180 229 293 342 406
#     4  11  26  45  72 103 142 176 238 292 343 418
#     4  11  25  47  70 103 142 179 234 291 342 412
#     4  11  27  44  73 102 138 189 228 295 347 412
#     4  12  26  45  72 101 142 185 234 287 350 414
#     4  12  26  44  70 105 136 189 229 288 352 416
#
# _framework density 20.640992000000001
#
# number of rings (size 3 to 8) (size 9 to 14) (size 15 to 20)
#    0.000    0.667    3.333    3.000    7.000    1.333 
#    3.000    0.000    0.000    0.000    0.000    0.000 
#    0.000    0.000    0.000    0.000    0.000    0.000 
#
# Total GULP energy -67169.654240 kJ/mol
# GULP energy per Si atom -5597.471187 kJ/mol
# Density = 2.059401 g / cm^3
# Si number density = 20.640992 Si / 1000 Ang^3
#
#
#
# Elastic Constant Matrix: (Units=GPa)
#
#
# Indices 1 2 3 4 5 6 
#
# 1 168.0985 83.8954 61.0158 0.0000 -3.8479 0.0000
# 2 83.8954 147.9891 41.8640 0.0000 0.9033 0.0000
# 3 61.0158 41.8640 71.1694 0.0000 -7.0974 0.0000
# 4 0.0000 0.0000 0.0000 36.6048 0.0000 2.7883
# 5 -3.8479 0.9033 -7.0974 0.0000 26.9021 0.0000
# 6 0.0000 0.0000 0.0000 2.7883 0.0000 48.8538
#
#
#
# Elastic Compliance Matrix: (Units=1/GPa)
#
#
# Indices 1 2 3 4 5 6 
#
# 1 0.010298 -0.004003 -0.006485 0.000000 -0.000103 0.000000
# 2 -0.004003 0.009727 -0.002444 0.000000 -0.001544 0.000000
# 3 -0.006485 -0.002444 0.021530 0.000000 0.004835 0.000000
# 4 0.000000 0.000000 0.000000 0.027438 0.000000 -0.001566
# 5 -0.000103 -0.001544 0.004835 0.000000 0.038484 0.000000
# 6 0.000000 0.000000 0.000000 -0.001566 0.000000 0.020559
#
#
# Mechanical properties :
#
#
# Convention : Reuss Voigt Hill
#
# Bulk Modulus (GPa) = 63.72441 84.53417 74.12929
# Shear Modulus (GPa) = 31.42072 35.83758 33.62915
#
# Velocity S-wave (km/s) = 3.90583 4.17133 4.04076
# Velocity P-wave (km/s) = 7.16104 8.01520 7.60013
#
# Compressibility (1/GPa) = 0.01569257
#
# Stress axis : x y z
#
# Youngs Moduli (GPa) = 97.10532 102.80274 46.44648
#
# Poissons Ratio (x) = 0.41152 0.30118
# Poissons Ratio (y) = 0.38871 0.11352
# Poissons Ratio (z) = 0.62968 0.25125
#
# Static dielectric constant tensor:
#      x y z
#    x 1.708210 0.000000 -0.006230 
#    y 0.000000 1.715960 0.000000 
#    z -0.006230 0.000000 1.738070 
# 
# From -- ./inp_files/1012.got.cif
#   From: 2010.05.17/outbox.cif.g08.bks.cpg/sg4_1_cif.got.tgz:1012.got - 2010.06.03 18:43:04.
