data_PCOD9118015
_publ_section_title
;
Structure prediction by ZEFSAII (Michael W. Deem and Ramdas Pophale) SiO2 
 PCOD9118015
Probable space group: P 21
;
_chemical_formula_sum "Si O2"
_cell_formula_units_Z 16
_cell_length_a 18.038124
_cell_length_b 7.783564
_cell_length_c 11.686773
_cell_angle_alpha 90.000000
_cell_angle_beta 156.847419
_cell_angle_gamma 90.000000
_cell_volume 645.144636
_symmetry_space_group_name_H-M "P 21"
_symmetry_group_IT_number 4
_symmetry_cell_setting 'monoclinic'
loop_
_space_group_symop_operation_xyz
x,y,z
-x,1/2+y,-z
loop_
_atom_site_type_symbol
_atom_site_label
_atom_site_fract_x
_atom_site_fract_y
_atom_site_fract_z
Si Si1 0.131855 0.802230 0.772694
Si Si2 0.774035 0.951276 0.205614
Si Si3 0.035613 0.666116 0.227343
Si Si4 0.318144 0.273899 0.148050
Si Si5 0.710373 0.157123 0.788922
Si Si6 0.396473 0.153936 0.736584
Si Si7 0.710348 0.387941 0.243330
Si Si8 0.057549 0.299057 0.140958
O O1 0.121862 0.606987 0.712639
O O2 0.212058 0.896352 0.774602
O O3 0.928246 0.880911 0.513309
O O4 0.274583 0.782873 0.079703
O O5 0.737940 0.802503 0.062590
O O6 0.571655 0.030247 0.951613
O O7 0.179900 0.744928 0.524773
O O8 0.081666 0.486010 0.232140
O O9 0.834969 0.657688 0.005939
O O10 0.010896 0.799125 0.086770
O O11 0.526593 0.202893 0.456525
O O12 0.303988 0.462599 0.186481
O O13 0.898305 0.197146 0.985313
O O14 0.256329 0.200075 0.435367
O O15 0.283059 0.060645 0.675754
O O16 0.496462 0.323841 0.925529
#
# Coordination Sequence:
#
# PCOD9118015 Si02
#       8
#     2   2   2   2   2   2   2   2
#     4  10  24  43  70  99 141 188 235 297 359 418
#     4  10  24  44  70 104 142 186 241 297 354 431
#     4  12  26  48  74 102 145 191 245 303 369 436
#     4  11  24  46  71 108 142 191 246 299 359 432
#     4  11  26  44  71 107 145 191 244 298 362 433
#     4  11  26  45  71 105 149 188 248 294 367 443
#     4  11  24  45  68 107 141 194 239 305 362 437
#     4  12  28  47  73 104 145 195 240 305 368 436
#
# _framework density 24.800640999999999
#
# number of rings (size 3 to 8) (size 9 to 14) (size 15 to 20)
#    0.000    1.000    1.250    3.750   15.750    1.000 
#    2.250    0.000    0.000    0.000    0.000    0.000 
#    0.000    0.000    0.000    0.000    0.000    0.000 
#
# Total GULP energy -89646.984167 kJ/mol
# GULP energy per Si atom -5602.936510 kJ/mol
# Density = 2.474419 g / cm^3
# Si number density = 24.800641 Si / 1000 Ang^3
#
#
#
# Elastic Constant Matrix: (Units=GPa)
#
#
# Indices 1 2 3 4 5 6 
#
# 1 56.2491 16.5385 12.9555 0.0000 -7.3559 0.0000
# 2 16.5385 72.8771 19.3985 0.0000 12.4259 0.0000
# 3 12.9555 19.3985 124.4256 0.0000 5.0755 0.0000
# 4 0.0000 0.0000 0.0000 44.5523 0.0000 10.7048
# 5 -7.3559 12.4259 5.0755 0.0000 30.6580 0.0000
# 6 0.0000 0.0000 0.0000 10.7048 0.0000 35.2240
#
#
#
# Elastic Compliance Matrix: (Units=1/GPa)
#
#
# Indices 1 2 3 4 5 6 
#
# 1 0.020764 -0.005565 -0.001600 0.000000 0.007503 0.000000
# 2 -0.005565 0.016780 -0.001716 0.000000 -0.007852 0.000000
# 3 -0.001600 -0.001716 0.008516 0.000000 -0.001098 0.000000
# 4 0.000000 0.000000 0.000000 0.024214 0.000000 -0.007359
# 5 0.007503 -0.007852 -0.001098 0.000000 0.037782 0.000000
# 6 0.000000 0.000000 0.000000 -0.007359 0.000000 0.030626
#
#
# Mechanical properties :
#
#
# Convention : Reuss Voigt Hill
#
# Bulk Modulus (GPa) = 35.34032 39.03743 37.18888
# Shear Modulus (GPa) = 30.14241 35.73081 32.93661
#
# Velocity S-wave (km/s) = 3.49002 3.79980 3.64820
# Velocity P-wave (km/s) = 5.52459 5.91828 5.72482
#
# Compressibility (1/GPa) = 0.02829629
#
# Stress axis : x y z
#
# Youngs Moduli (GPa) = 48.15986 59.59307 117.42669
#
# Poissons Ratio (x) = 0.33166 0.18793
# Poissons Ratio (y) = 0.26803 0.20155
# Poissons Ratio (z) = 0.07707 0.10228
#
# Static dielectric constant tensor:
#      x y z
#    x 2.000020 0.000000 0.024170 
#    y 0.000000 1.990730 0.000000 
#    z 0.024170 0.000000 1.892150 
# 
# From -- ./inp_files/12937.got.cif
#   From: 2010.05.17/outbox.cif.g08.bks.cpg/sg4_7_cif.got.tgz:12937.got - 2010.06.03 18:43:04.
