data_PCOD9118061
_publ_section_title
;
Structure prediction by ZEFSAII (Michael W. Deem and Ramdas Pophale) SiO2 
 PCOD9118061
Probable space group: P 21
;
_chemical_formula_sum "Si O2"
_cell_formula_units_Z 16
_cell_length_a 9.139195
_cell_length_b 7.779245
_cell_length_c 18.054314
_cell_angle_alpha 90.000000
_cell_angle_beta 30.583586
_cell_angle_gamma 90.000000
_cell_volume 653.084021
_symmetry_space_group_name_H-M "P 21"
_symmetry_group_IT_number 4
_symmetry_cell_setting 'monoclinic'
loop_
_space_group_symop_operation_xyz
x,y,z
-x,1/2+y,-z
loop_
_atom_site_type_symbol
_atom_site_label
_atom_site_fract_x
_atom_site_fract_y
_atom_site_fract_z
Si Si1 0.048656 0.800740 0.071411
Si Si2 0.993645 0.289453 0.622000
Si Si3 0.263446 0.657207 0.826676
Si Si4 0.672762 0.442478 0.902606
Si Si5 0.507640 0.922818 0.515396
Si Si6 0.883430 0.501774 0.529933
Si Si7 0.939919 0.810342 0.827835
Si Si8 0.505973 0.244910 0.614779
O O1 0.233486 0.841511 0.063737
O O2 0.765230 0.690825 0.217854
O O3 0.222288 0.726355 0.927279
O O4 0.904353 0.977303 0.106204
O O5 0.790206 0.348214 0.777641
O O6 0.004244 0.437602 0.555006
O O7 0.306233 0.279612 0.523050
O O8 0.924307 0.110808 0.610874
O O9 0.599322 0.617823 0.667130
O O10 0.111865 0.772812 0.829379
O O11 0.808390 0.631609 0.854000
O O12 0.328890 0.436975 0.045660
O O13 0.599583 0.904877 0.390604
O O14 0.171754 0.889918 0.671045
O O15 0.581300 0.098169 0.524130
O O16 0.769017 0.324641 0.543806
#
# Coordination Sequence:
#
# PCOD9118061 Si02
#       8
#     2   2   2   2   2   2   2   2
#     4  10  24  44  70 104 145 191 240 296 370 436
#     4  12  25  47  74 102 152 192 245 316 366 447
#     4  10  24  46  70 105 148 188 245 300 369 449
#     4  11  27  47  72 109 146 193 254 311 366 444
#     4  12  24  46  75 105 146 194 244 303 378 440
#     4  11  26  47  70 111 144 191 253 305 372 446
#     4  11  27  47  73 110 147 196 247 310 372 444
#     4  11  25  42  76 104 140 193 244 301 371 448
#
# _framework density 24.499146
#
# number of rings (size 3 to 8) (size 9 to 14) (size 15 to 20)
#    0.000    1.000    2.500    2.250   10.500    0.000 
#    4.500    0.000    0.000    0.000    0.000    0.000 
#    0.000    0.000    0.000    0.000    0.000    0.000 
#
# Total GULP energy -89613.922004 kJ/mol
# GULP energy per Si atom -5600.870125 kJ/mol
# Density = 2.444338 g / cm^3
# Si number density = 24.499146 Si / 1000 Ang^3
#
#
#
# Elastic Constant Matrix: (Units=GPa)
#
#
# Indices 1 2 3 4 5 6 
#
# 1 129.0670 25.0095 29.9236 0.0000 5.9646 0.0000
# 2 25.0095 74.0171 27.9202 0.0000 5.9449 0.0000
# 3 29.9236 27.9202 106.4297 0.0000 7.2277 0.0000
# 4 0.0000 0.0000 0.0000 35.2820 0.0000 2.7242
# 5 5.9646 5.9449 7.2277 0.0000 40.9426 0.0000
# 6 0.0000 0.0000 0.0000 2.7242 0.0000 46.9379
#
#
#
# Elastic Compliance Matrix: (Units=1/GPa)
#
#
# Indices 1 2 3 4 5 6 
#
# 1 0.008618 -0.002180 -0.001809 0.000000 -0.000620 0.000000
# 2 -0.002180 0.015637 -0.003397 0.000000 -0.001353 0.000000
# 3 -0.001809 -0.003397 0.010875 0.000000 -0.001163 0.000000
# 4 0.000000 0.000000 0.000000 0.028471 0.000000 -0.001652
# 5 -0.000620 -0.001353 -0.001163 0.000000 0.024916 0.000000
# 6 0.000000 0.000000 0.000000 -0.001652 0.000000 0.021401
#
#
# Mechanical properties :
#
#
# Convention : Reuss Voigt Hill
#
# Bulk Modulus (GPa) = 49.12202 52.80227 50.96214
# Shear Modulus (GPa) = 38.02950 39.74318 38.88634
#
# Velocity S-wave (km/s) = 3.94417 4.03206 3.98836
# Velocity P-wave (km/s) = 6.39031 6.57846 6.48507
#
# Compressibility (1/GPa) = 0.02035747
#
# Stress axis : x y z
#
# Youngs Moduli (GPa) = 116.03083 63.95020 91.95594
#
# Poissons Ratio (x) = 0.13940 0.16637
# Poissons Ratio (y) = 0.25293 0.31241
# Poissons Ratio (z) = 0.20992 0.21726
#
# Static dielectric constant tensor:
#      x y z
#    x 1.953270 0.000000 -0.001000 
#    y 0.000000 2.014040 0.000000 
#    z -0.001000 0.000000 1.900820 
# 
# From -- ./inp_files/14964.got.cif
#   From: 2010.05.17/outbox.cif.g08.bks.cpg/sg4_8_cif.got.tgz:14964.got - 2010.06.03 18:43:04.
