data_PCOD9118793
_publ_section_title
;
Structure prediction by ZEFSAII (Michael W. Deem and Ramdas Pophale) SiO2 
 PCOD9118793
Probable space group: P 21
;
_chemical_formula_sum "Si O2"
_cell_formula_units_Z 10
_cell_length_a 13.836045
_cell_length_b 5.192805
_cell_length_c 13.861580
_cell_angle_alpha 90.000000
_cell_angle_beta 20.757552
_cell_angle_gamma 90.000000
_cell_volume 352.970121
_symmetry_space_group_name_H-M "P 21"
_symmetry_group_IT_number 4
_symmetry_cell_setting 'monoclinic'
loop_
_space_group_symop_operation_xyz
x,y,z
-x,1/2+y,-z
loop_
_atom_site_type_symbol
_atom_site_label
_atom_site_fract_x
_atom_site_fract_y
_atom_site_fract_z
Si Si1 0.330349 0.800370 0.190072
Si Si2 0.884766 0.897380 0.235410
Si Si3 0.079498 0.915782 0.247438
Si Si4 0.393096 0.425053 0.893003
Si Si5 0.624764 0.694917 0.290148
O O1 0.058929 0.862891 0.380945
O O2 0.465819 0.526534 0.038650
O O3 0.335808 0.839953 0.300814
O O4 0.764098 0.725161 0.263677
O O5 0.855007 0.839283 0.376835
O O6 0.692975 0.144625 0.399540
O O7 0.196441 0.964996 0.922409
O O8 0.310052 0.705993 0.004606
O O9 0.183965 0.202238 0.125930
O O10 0.369603 0.405483 0.799742
#
# Coordination Sequence:
#
# PCOD9118793 Si02
#       5
#     2   2   2   2   2
#     4   8  14  28  54  86 120 158 200 248 302 362
#     4  11  23  40  63  92 127 166 211 260 314 373
#     4   9  18  34  59  90 124 162 205 253 307 367
#     4   9  18  34  59  90 124 162 205 253 307 367
#     4  11  23  40  63  92 127 166 211 260 314 373
#
# _framework density 28.331011
#
# number of rings (size 3 to 8) (size 9 to 14) (size 15 to 20)
#    0.000    2.400    0.000    2.400    0.000    3.200 
#    0.000    0.000    0.000   33.600    0.000    0.000 
#    0.000    0.000    0.000    0.000    0.000    0.000 
#
# Total GULP energy -55891.984518 kJ/mol
# GULP energy per Si atom -5589.198452 kJ/mol
# Density = 2.826653 g / cm^3
# Si number density = 28.331011 Si / 1000 Ang^3
#
#
#
# Elastic Constant Matrix: (Units=GPa)
#
#
# Indices 1 2 3 4 5 6 
#
# 1 273.1338 21.3708 35.6081 0.0000 -22.9242 0.0000
# 2 21.3708 130.5744 40.7965 0.0000 13.5285 0.0000
# 3 35.6081 40.7965 72.6513 0.0000 7.9600 0.0000
# 4 0.0000 0.0000 0.0000 9.1669 0.0000 -4.5127
# 5 -22.9242 13.5285 7.9600 0.0000 24.2979 0.0000
# 6 0.0000 0.0000 0.0000 -4.5127 0.0000 60.1245
#
#
#
# Elastic Compliance Matrix: (Units=1/GPa)
#
#
# Indices 1 2 3 4 5 6 
#
# 1 0.004472 -0.000504 -0.002491 0.000000 0.005316 0.000000
# 2 -0.000504 0.009657 -0.004703 0.000000 -0.004312 0.000000
# 3 -0.002491 -0.004703 0.018252 0.000000 -0.005711 0.000000
# 4 0.000000 0.000000 0.000000 0.113273 0.000000 0.008502
# 5 0.005316 -0.004312 -0.005711 0.000000 0.050442 0.000000
# 6 0.000000 0.000000 0.000000 0.008502 0.000000 0.017270
#
#
# Mechanical properties :
#
#
# Convention : Reuss Voigt Hill
#
# Bulk Modulus (GPa) = 58.87935 74.65669 66.76802
# Shear Modulus (GPa) = 21.32881 43.95681 32.64281
#
# Velocity S-wave (km/s) = 2.74678 3.94324 3.39808
# Velocity P-wave (km/s) = 5.55765 6.86593 6.24614
#
# Compressibility (1/GPa) = 0.01698388
#
# Stress axis : x y z
#
# Youngs Moduli (GPa) = 223.63741 103.54903 54.78871
#
# Poissons Ratio (x) = 0.05223 0.13647
# Poissons Ratio (y) = 0.11279 0.25769
# Poissons Ratio (z) = 0.55703 0.48702
#
# Static dielectric constant tensor:
#      x y z
#    x 2.452150 0.000000 0.068200 
#    y 0.000000 2.234070 0.000000 
#    z 0.068200 0.000000 2.159300 
# 
# From -- ./inp_files/3256.got.cif
#   From: 2010.05.17/outbox.cif.g08.bks.cpg/sg4_2_cif.got.tgz:3256.got - 2010.06.03 18:43:04.
