data_PCOD9118856
_publ_section_title
;
Structure prediction by ZEFSAII (Michael W. Deem and Ramdas Pophale) SiO2 
 PCOD9118856
Probable space group: P 21
;
_chemical_formula_sum "Si O2"
_cell_formula_units_Z 16
_cell_length_a 7.658328
_cell_length_b 8.405799
_cell_length_c 13.099657
_cell_angle_alpha 90.000000
_cell_angle_beta 132.262558
_cell_angle_gamma 90.000000
_cell_volume 624.088418
_symmetry_space_group_name_H-M "P 21"
_symmetry_group_IT_number 4
_symmetry_cell_setting 'monoclinic'
loop_
_space_group_symop_operation_xyz
x,y,z
-x,1/2+y,-z
loop_
_atom_site_type_symbol
_atom_site_label
_atom_site_fract_x
_atom_site_fract_y
_atom_site_fract_z
Si Si1 0.213118 0.558170 0.192371
Si Si2 0.446395 0.770426 0.425676
Si Si3 0.825140 0.736744 0.941012
Si Si4 0.923939 0.202577 0.415176
Si Si5 0.176178 0.909654 0.814013
Si Si6 0.949069 0.858290 0.334145
Si Si7 0.442380 0.212359 0.952639
Si Si8 0.555012 0.607861 0.665576
O O1 0.434850 0.627721 0.339704
O O2 0.233284 0.409291 0.126034
O O3 0.031060 0.495316 0.206632
O O4 0.087162 0.704172 0.084709
O O5 0.178993 0.800636 0.362031
O O6 0.594035 0.716945 0.581692
O O7 0.515683 0.934675 0.401328
O O8 0.771220 0.613858 0.828134
O O9 0.657207 0.703616 0.971175
O O10 0.913116 0.339862 0.326835
O O11 0.072535 0.252189 0.572384
O O12 0.661606 0.179295 0.356581
O O13 0.988383 0.037820 0.386399
O O14 0.381813 0.041640 0.880950
O O15 0.292388 0.772078 0.929612
O O16 0.717597 0.836039 0.174215
#
# Coordination Sequence:
#
# PCOD9118856 Si02
#       8
#     2   2   2   2   2   2   2   2
#     4  11  25  43  69  96 135 177 223 276 333 399
#     4  11  24  47  68  96 136 176 223 279 333 393
#     4  11  23  43  65  99 131 175 224 270 333 400
#     4  11  25  43  69 100 132 175 223 276 333 402
#     4  11  23  44  67  98 134 173 221 276 332 394
#     4  11  24  43  68  97 133 175 223 273 336 396
#     4  11  23  43  65  97 136 172 218 277 329 393
#     4  11  25  44  67  99 135 173 227 275 333 399
#
# _framework density 25.637392999999999
#
# number of rings (size 3 to 8) (size 9 to 14) (size 15 to 20)
#    0.000    1.000    3.750    3.000    5.250    2.000 
#    2.250    0.000    0.000    0.000    0.000    0.000 
#    0.000    0.000    0.000    0.000    0.000    0.000 
#
# Total GULP energy -89759.728473 kJ/mol
# GULP energy per Si atom -5609.983030 kJ/mol
# Density = 2.557904 g / cm^3
# Si number density = 25.637393 Si / 1000 Ang^3
#
#
#
# Elastic Constant Matrix: (Units=GPa)
#
#
# Indices 1 2 3 4 5 6 
#
# 1 60.6536 23.0201 25.5149 0.0000 -8.0536 0.0000
# 2 23.0201 124.2990 32.1207 0.0000 -29.5913 0.0000
# 3 25.5149 32.1207 157.3662 0.0000 -25.0143 0.0000
# 4 0.0000 0.0000 0.0000 55.9656 0.0000 -11.5857
# 5 -8.0536 -29.5913 -25.0143 0.0000 26.8668 0.0000
# 6 0.0000 0.0000 0.0000 -11.5857 0.0000 36.7256
#
#
#
# Elastic Compliance Matrix: (Units=1/GPa)
#
#
# Indices 1 2 3 4 5 6 
#
# 1 0.018581 -0.002747 -0.002403 0.000000 0.000307 0.000000
# 2 -0.002747 0.011329 -0.000017 0.000000 0.011639 0.000000
# 3 -0.002403 -0.000017 0.007782 0.000000 0.006506 0.000000
# 4 0.000000 0.000000 0.000000 0.019117 0.000000 0.006031
# 5 0.000307 0.011639 0.006506 0.000000 0.056189 0.000000
# 6 0.000000 0.000000 0.000000 0.006031 0.000000 0.029131
#
#
# Mechanical properties :
#
#
# Convention : Reuss Voigt Hill
#
# Bulk Modulus (GPa) = 36.55313 55.95891 46.25602
# Shear Modulus (GPa) = 30.94377 41.35580 36.14978
#
# Velocity S-wave (km/s) = 3.47793 4.02070 3.75913
# Velocity P-wave (km/s) = 5.51513 6.59008 6.07642
#
# Compressibility (1/GPa) = 0.02735744
#
# Stress axis : x y z
#
# Youngs Moduli (GPa) = 53.81725 88.26890 128.50274
#
# Poissons Ratio (x) = 0.24250 0.30882
# Poissons Ratio (y) = 0.14785 0.00218
# Poissons Ratio (z) = 0.12934 0.00150
#
# Static dielectric constant tensor:
#      x y z
#    x 2.014340 0.000000 0.004390 
#    y 0.000000 2.010380 0.000000 
#    z 0.004390 0.000000 1.954010 
# 
# From -- ./inp_files/5682.got.cif
#   From: 2010.05.17/outbox.cif.g08.bks.cpg/sg4_3_cif.got.tgz:5682.got - 2010.06.03 18:43:04.
