data_PCOD9118621
_publ_section_title
;
Structure prediction by ZEFSAII (Michael W. Deem and Ramdas Pophale) SiO2 
 PCOD9118621
Probable space group: P 21
;
_chemical_formula_sum "Si O2"
_cell_formula_units_Z 16
_cell_length_a 11.130131
_cell_length_b 7.922825
_cell_length_c 8.698948
_cell_angle_alpha 90.000000
_cell_angle_beta 124.725740
_cell_angle_gamma 90.000000
_cell_volume 630.463320
_symmetry_space_group_name_H-M "P 21"
_symmetry_group_IT_number 4
_symmetry_cell_setting 'monoclinic'
loop_
_space_group_symop_operation_xyz
x,y,z
-x,1/2+y,-z
loop_
_atom_site_type_symbol
_atom_site_label
_atom_site_fract_x
_atom_site_fract_y
_atom_site_fract_z
Si Si1 0.635351 0.707480 0.462507
Si Si2 0.475672 0.488164 0.112898
Si Si3 0.446414 0.689719 0.610410
Si Si4 0.178796 0.497251 0.338819
Si Si5 0.909398 0.345299 0.279557
Si Si6 0.177058 0.357501 0.987556
Si Si7 0.660049 0.504227 0.940504
Si Si8 0.088732 0.995760 0.382724
O O1 0.520590 0.639383 0.257482
O O2 0.547975 0.757783 0.549691
O O3 0.758092 0.560335 0.576839
O O4 0.736640 0.862474 0.490719
O O5 0.540610 0.319267 0.240409
O O6 0.302411 0.457673 0.982980
O O7 0.561056 0.522491 0.020255
O O8 0.283289 0.656908 0.433636
O O9 0.536437 0.519809 0.721064
O O10 0.176349 0.428501 0.161945
O O11 0.018678 0.486256 0.289179
O O12 0.769124 0.353688 0.065019
O O13 0.879347 0.406188 0.431195
O O14 0.990270 0.165507 0.336936
O O15 0.236556 0.166283 0.020379
O O16 0.016526 0.383788 0.800866
#
# Coordination Sequence:
#
# PCOD9118621 Si02
#       8
#     2   2   2   2   2   2   2   2
#     4  11  21  47  68  97 139 181 231 284 348 419
#     4  11  24  43  71 102 137 183 233 290 352 410
#     4  11  24  45  71 101 138 181 233 289 351 413
#     4  11  25  43  69  99 139 182 228 289 343 415
#     4  11  26  44  66 103 135 182 233 283 350 415
#     4  11  25  46  66 102 138 181 232 286 348 413
#     4  11  25  45  69 100 142 182 232 292 343 421
#     4  11  26  43  70  98 138 182 230 287 351 412
#
# _framework density 25.378164000000002
#
# number of rings (size 3 to 8) (size 9 to 14) (size 15 to 20)
#    0.000    1.000    5.000    0.750    7.000    4.000 
#    2.250    0.000    0.000    0.000    0.000    0.000 
#    0.000    0.000    0.000    0.000    0.000    0.000 
#
# Total GULP energy -89498.740446 kJ/mol
# GULP energy per Si atom -5593.671278 kJ/mol
# Density = 2.532040 g / cm^3
# Si number density = 25.378164 Si / 1000 Ang^3
#
#
#
# Elastic Constant Matrix: (Units=GPa)
#
#
# Indices 1 2 3 4 5 6 
#
# 1 87.2233 -6.2629 47.9644 0.0000 5.9086 0.0000
# 2 -6.2629 72.4563 21.7049 0.0000 -3.2277 0.0000
# 3 47.9644 21.7049 99.5370 0.0000 16.9836 0.0000
# 4 0.0000 0.0000 0.0000 49.1201 0.0000 13.3849
# 5 5.9086 -3.2277 16.9836 0.0000 49.2580 0.0000
# 6 0.0000 0.0000 0.0000 13.3849 0.0000 28.9501
#
#
#
# Elastic Compliance Matrix: (Units=1/GPa)
#
#
# Indices 1 2 3 4 5 6 
#
# 1 0.016769 0.004290 -0.009266 0.000000 0.001464 0.000000
# 2 0.004290 0.016093 -0.006023 0.000000 0.002617 0.000000
# 3 -0.009266 -0.006023 0.016684 0.000000 -0.005036 0.000000
# 4 0.000000 0.000000 0.000000 0.023293 0.000000 -0.010769
# 5 0.001464 0.002617 -0.005036 0.000000 0.022033 0.000000
# 6 0.000000 0.000000 0.000000 -0.010769 0.000000 0.039521
#
#
# Mechanical properties :
#
#
# Convention : Reuss Voigt Hill
#
# Bulk Modulus (GPa) = 36.29908 42.89217 39.59562
# Shear Modulus (GPa) = 30.19787 38.51966 34.35876
#
# Velocity S-wave (km/s) = 3.45326 3.90016 3.68349
# Velocity P-wave (km/s) = 5.49857 6.10078 5.80749
#
# Compressibility (1/GPa) = 0.02754891
#
# Stress axis : x y z
#
# Youngs Moduli (GPa) = 59.63327 62.13831 59.93674
#
# Poissons Ratio (x) = -0.26660 0.55538
# Poissons Ratio (y) = -0.25585 0.36101
# Poissons Ratio (z) = 0.55257 0.37427
#
# Static dielectric constant tensor:
#      x y z
#    x 1.976860 0.000000 0.030080 
#    y 0.000000 2.093390 0.000000 
#    z 0.030080 0.000000 2.000520 
# 
# From -- ./inp_files/7650.got.cif
#   From: 2010.05.17/outbox.cif.g08.bks.cpg/sg4_4_cif.got.tgz:7650.got - 2010.06.03 18:43:04.
