data_PCOD9118065
_publ_section_title
;
Structure prediction by ZEFSAII (Michael W. Deem and Ramdas Pophale) SiO2 
 PCOD9118065
Probable space group: P 21
;
_chemical_formula_sum "Si O2"
_cell_formula_units_Z 12
_cell_length_a 5.174286
_cell_length_b 18.454895
_cell_length_c 5.466246
_cell_angle_alpha 90.000000
_cell_angle_beta 59.954859
_cell_angle_gamma 90.000000
_cell_volume 451.839386
_symmetry_space_group_name_H-M "P 21"
_symmetry_group_IT_number 4
_symmetry_cell_setting 'monoclinic'
loop_
_space_group_symop_operation_xyz
x,y,z
-x,1/2+y,-z
loop_
_atom_site_type_symbol
_atom_site_label
_atom_site_fract_x
_atom_site_fract_y
_atom_site_fract_z
Si Si1 0.446103 0.310410 0.585914
Si Si2 0.606531 0.559777 0.920021
Si Si3 0.102732 0.893399 0.938827
Si Si4 0.435102 0.774640 0.963832
Si Si5 0.051259 0.642827 0.033690
Si Si6 0.976130 0.019384 0.641866
O O1 0.352324 0.272032 0.374232
O O2 0.764446 0.346112 0.356847
O O3 0.204848 0.368526 0.790170
O O4 0.480771 0.257327 0.799685
O O5 0.823883 0.503352 0.685089
O O6 0.815374 0.619960 0.943258
O O7 0.362830 0.597284 0.856806
O O8 0.380324 0.520584 0.217747
O O9 0.347199 0.860081 0.009316
O O10 0.053936 0.970312 0.837057
O O11 0.157258 0.724098 0.019890
O O12 0.944419 0.602874 0.331233
#
# Coordination Sequence:
#
# PCOD9118065 Si02
#       6
#     2   2   2   2   2   2
#     4  10  25  43  70 102 138 187 238 297 363 431
#     4  10  25  43  70 102 138 187 238 297 363 431
#     4  10  24  44  71 103 143 189 239 298 363 430
#     4  10  26  44  74 102 146 187 244 299 365 431
#     4  10  26  44  74 102 146 187 244 299 365 431
#     4  10  24  44  71 103 143 189 239 298 363 430
#
# _framework density 26.558109000000002
#
# number of rings (size 3 to 8) (size 9 to 14) (size 15 to 20)
#    2.000    0.000    0.000    1.000    9.333    4.000 
#    0.000    0.000    0.000    0.000    0.000    0.000 
#    0.000    0.000    0.000    0.000    0.000    0.000 
#
# Total GULP energy -66843.708130 kJ/mol
# GULP energy per Si atom -5570.309011 kJ/mol
# Density = 2.649766 g / cm^3
# Si number density = 26.558109 Si / 1000 Ang^3
#
#
#
# Elastic Constant Matrix: (Units=GPa)
#
#
# Indices 1 2 3 4 5 6 
#
# 1 75.3103 -2.8246 36.8696 0.0000 -11.0647 0.0000
# 2 -2.8246 89.6677 19.9770 0.0000 -9.3426 0.0000
# 3 36.8696 19.9770 177.9003 0.0000 -11.8882 0.0000
# 4 0.0000 0.0000 0.0000 27.5367 0.0000 -5.1665
# 5 -11.0647 -9.3426 -11.8882 0.0000 38.4381 0.0000
# 6 0.0000 0.0000 0.0000 -5.1665 0.0000 25.7944
#
#
#
# Elastic Compliance Matrix: (Units=1/GPa)
#
#
# Indices 1 2 3 4 5 6 
#
# 1 0.015432 0.001583 -0.003118 0.000000 0.003863 0.000000
# 2 0.001583 0.011828 -0.001464 0.000000 0.002878 0.000000
# 3 -0.003118 -0.001464 0.006482 0.000000 0.000751 0.000000
# 4 0.000000 0.000000 0.000000 0.037733 0.000000 0.007558
# 5 0.003863 0.002878 0.000751 0.000000 0.028060 0.000000
# 6 0.000000 0.000000 0.000000 0.007558 0.000000 0.040282
#
#
# Mechanical properties :
#
#
# Convention : Reuss Voigt Hill
#
# Bulk Modulus (GPa) = 36.04336 50.10248 43.07292
# Shear Modulus (GPa) = 32.24518 37.61093 34.92805
#
# Velocity S-wave (km/s) = 3.48823 3.76729 3.63044
# Velocity P-wave (km/s) = 5.46119 6.15057 5.81610
#
# Compressibility (1/GPa) = 0.02774436
#
# Stress axis : x y z
#
# Youngs Moduli (GPa) = 64.80179 84.54395 154.27560
#
# Poissons Ratio (x) = -0.13385 0.48101
# Poissons Ratio (y) = -0.10259 0.22586
# Poissons Ratio (z) = 0.20204 0.12377
#
# Static dielectric constant tensor:
#      x y z
#    x 2.138110 0.000000 0.012580 
#    y 0.000000 2.198160 0.000000 
#    z 0.012580 0.000000 2.109650 
# 
# From -- ./inp_files/584.got.cif
#   From: 2010.05.17/outbox.cif.g08.bks.cpg/sg4_1_cif.got.tgz:584.got - 2010.06.03 18:43:04.
