data_PCOD9118447
_publ_section_title
;
Structure prediction by ZEFSAII (Michael W. Deem and Ramdas Pophale) SiO2 
 PCOD9118447
Probable space group: P 21
;
_chemical_formula_sum "Si O2"
_cell_formula_units_Z 16
_cell_length_a 12.143103
_cell_length_b 12.064603
_cell_length_c 5.618330
_cell_angle_alpha 90.000000
_cell_angle_beta 127.660965
_cell_angle_gamma 90.000000
_cell_volume 651.594899
_symmetry_space_group_name_H-M "P 21"
_symmetry_group_IT_number 4
_symmetry_cell_setting 'monoclinic'
loop_
_space_group_symop_operation_xyz
x,y,z
-x,1/2+y,-z
loop_
_atom_site_type_symbol
_atom_site_label
_atom_site_fract_x
_atom_site_fract_y
_atom_site_fract_z
Si Si1 0.022014 0.917030 0.139072
Si Si2 0.970352 0.545480 0.364255
Si Si3 0.289254 0.587542 0.759368
Si Si4 0.285432 0.794865 0.466125
Si Si5 0.745628 0.709915 0.228574
Si Si6 0.463107 0.231746 0.428578
Si Si7 0.582996 0.536607 0.345938
Si Si8 0.738564 0.884992 0.590833
O O1 0.036836 0.991746 0.913464
O O2 0.859622 0.887588 0.945040
O O3 0.122088 0.812581 0.224293
O O4 0.066774 0.969510 0.452773
O O5 0.130316 0.577872 0.630114
O O6 0.867347 0.650407 0.242335
O O7 0.315757 0.714246 0.724960
O O8 0.291284 0.508844 0.528461
O O9 0.419157 0.540182 0.074744
O O10 0.372305 0.738707 0.369151
O O11 0.352477 0.916261 0.568236
O O12 0.670910 0.613587 0.283453
O O13 0.803925 0.808937 0.467896
O O14 0.618106 0.763239 0.916655
O O15 0.409609 0.107427 0.402949
O O16 0.400577 0.319552 0.528941
#
# Coordination Sequence:
#
# PCOD9118447 Si02
#       8
#     2   2   2   2   2   2   2   2
#     4  11  27  49  74 115 148 204 249 323 376 457
#     4  11  27  49  80 109 158 197 262 314 382 460
#     4  11  27  46  72 113 148 195 255 319 379 459
#     4  12  26  46  75 111 150 198 256 318 383 461
#     4  11  23  49  74 103 147 202 246 311 387 451
#     4  11  26  43  77 105 142 206 245 322 376 464
#     4  11  25  47  70 108 148 190 260 308 387 453
#     4  10  27  45  74 102 151 194 253 309 388 455
#
# _framework density 24.555133999999999
#
# number of rings (size 3 to 8) (size 9 to 14) (size 15 to 20)
#    0.000    1.000    2.500    1.500   12.250    5.000 
#    0.000    0.000    0.000    0.000    0.000    0.000 
#    0.000    0.000    0.000    0.000    0.000    0.000 
#
# Total GULP energy -89405.728594 kJ/mol
# GULP energy per Si atom -5587.858037 kJ/mol
# Density = 2.449925 g / cm^3
# Si number density = 24.555134 Si / 1000 Ang^3
#
#
#
# Elastic Constant Matrix: (Units=GPa)
#
#
# Indices 1 2 3 4 5 6 
#
# 1 102.4323 18.9102 3.6603 0.0000 7.5934 0.0000
# 2 18.9102 101.9922 5.0583 0.0000 -7.0301 0.0000
# 3 3.6603 5.0583 60.8277 0.0000 5.4485 0.0000
# 4 0.0000 0.0000 0.0000 26.6574 0.0000 5.9347
# 5 7.5934 -7.0301 5.4485 0.0000 41.1931 0.0000
# 6 0.0000 0.0000 0.0000 5.9347 0.0000 35.9667
#
#
#
# Elastic Compliance Matrix: (Units=1/GPa)
#
#
# Indices 1 2 3 4 5 6 
#
# 1 0.010315 -0.002053 -0.000251 0.000000 -0.002219 0.000000
# 2 -0.002053 0.010389 -0.000944 0.000000 0.002276 0.000000
# 3 -0.000251 -0.000944 0.016742 0.000000 -0.002329 0.000000
# 4 0.000000 0.000000 0.000000 0.038944 0.000000 -0.006426
# 5 -0.002219 0.002276 -0.002329 0.000000 0.025381 0.000000
# 6 0.000000 0.000000 0.000000 -0.006426 0.000000 0.028864
#
#
# Mechanical properties :
#
#
# Convention : Reuss Voigt Hill
#
# Bulk Modulus (GPa) = 32.31103 35.61221 33.96162
# Shear Modulus (GPa) = 33.91015 36.60499 35.25757
#
# Velocity S-wave (km/s) = 3.72019 3.86518 3.79338
# Velocity P-wave (km/s) = 5.62496 5.86975 5.74866
#
# Compressibility (1/GPa) = 0.03094919
#
# Stress axis : x y z
#
# Youngs Moduli (GPa) = 96.94636 96.25529 59.72947
#
# Poissons Ratio (x) = 0.19761 0.01501
# Poissons Ratio (y) = 0.19903 0.05640
# Poissons Ratio (z) = 0.02436 0.09089
#
# Static dielectric constant tensor:
#      x y z
#    x 2.024650 0.000000 -0.059400 
#    y 0.000000 1.936810 0.000000 
#    z -0.059400 0.000000 1.955070 
# 
# From -- ./inp_files/2915.got.cif
#   From: 2010.05.17/outbox.cif.g08.bks.cpg/sg4_2_cif.got.tgz:2915.got - 2010.06.03 18:43:04.
