data_PCOD9118597
_publ_section_title
;
Structure prediction by ZEFSAII (Michael W. Deem and Ramdas Pophale) SiO2 
 PCOD9118597
Probable space group: P 21
;
_chemical_formula_sum "Si O2"
_cell_formula_units_Z 16
_cell_length_a 11.958832
_cell_length_b 8.931963
_cell_length_c 14.807841
_cell_angle_alpha 90.000000
_cell_angle_beta 153.038110
_cell_angle_gamma 90.000000
_cell_volume 717.144685
_symmetry_space_group_name_H-M "P 21"
_symmetry_group_IT_number 4
_symmetry_cell_setting 'monoclinic'
loop_
_space_group_symop_operation_xyz
x,y,z
-x,1/2+y,-z
loop_
_atom_site_type_symbol
_atom_site_label
_atom_site_fract_x
_atom_site_fract_y
_atom_site_fract_z
Si Si1 0.737451 0.778230 0.266289
Si Si2 0.986095 0.881202 0.773087
Si Si3 0.388061 0.399254 0.637106
Si Si4 0.357312 0.624524 0.378520
Si Si5 0.101839 0.825379 0.044601
Si Si6 0.461401 0.361811 0.345121
Si Si7 0.439253 0.047883 0.004358
Si Si8 0.702872 0.216099 0.350614
O O1 0.614914 0.799172 0.275775
O O2 0.030523 0.769464 0.489310
O O3 0.661134 0.928637 0.156741
O O4 0.640359 0.634812 0.142182
O O5 0.779445 0.819476 0.557525
O O6 0.056690 0.775981 0.907882
O O7 0.845079 0.021768 0.717064
O O8 0.215911 0.948116 0.883887
O O9 0.664382 0.436174 0.802214
O O10 0.265567 0.556347 0.575870
O O11 0.213022 0.715067 0.197909
O O12 0.534471 0.510135 0.452946
O O13 0.482686 0.728676 0.543433
O O14 0.832917 0.874660 0.883374
O O15 0.592764 0.327846 0.345620
O O16 0.523988 0.171879 0.139225
#
# Coordination Sequence:
#
# PCOD9118597 Si02
#       8
#     2   2   2   2   2   2   2   2
#     4  11  25  44  73 104 133 188 235 292 343 428
#     4  11  21  44  73  95 137 189 225 279 354 414
#     4  11  23  45  73 100 136 188 230 281 358 407
#     4  11  24  41  68 105 134 180 231 284 342 417
#     4  11  23  40  68 104 132 184 228 279 348 421
#     4  11  25  43  70  98 142 179 230 286 348 420
#     4  11  24  44  72 102 135 189 232 287 358 414
#     4  11  23  45  71 100 141 183 231 290 355 409
#
# _framework density 22.310701000000002
#
# number of rings (size 3 to 8) (size 9 to 14) (size 15 to 20)
#    0.000    1.000    5.000    2.250    3.500    0.000 
#    9.000    0.000    0.000    0.000    0.000    0.000 
#    0.000    0.000    0.000    0.000    0.000    0.000 
#
# Total GULP energy -89350.229124 kJ/mol
# GULP energy per Si atom -5584.389320 kJ/mol
# Density = 2.225992 g / cm^3
# Si number density = 22.310701 Si / 1000 Ang^3
#
#
#
# Elastic Constant Matrix: (Units=GPa)
#
#
# Indices 1 2 3 4 5 6 
#
# 1 55.5386 13.8395 32.0704 0.0000 1.4687 0.0000
# 2 13.8395 38.1457 6.1999 0.0000 0.9259 0.0000
# 3 32.0704 6.1999 110.2430 0.0000 0.6219 0.0000
# 4 0.0000 0.0000 0.0000 42.0569 0.0000 -6.1456
# 5 1.4687 0.9259 0.6219 0.0000 41.7051 0.0000
# 6 0.0000 0.0000 0.0000 -6.1456 0.0000 38.1314
#
#
#
# Elastic Compliance Matrix: (Units=1/GPa)
#
#
# Indices 1 2 3 4 5 6 
#
# 1 0.023611 -0.007505 -0.006443 0.000000 -0.000569 0.000000
# 2 -0.007505 0.028856 0.000563 0.000000 -0.000385 0.000000
# 3 -0.006443 0.000563 0.010913 0.000000 0.000052 0.000000
# 4 0.000000 0.000000 0.000000 0.024351 0.000000 0.003925
# 5 -0.000569 -0.000385 0.000052 0.000000 0.024006 0.000000
# 6 0.000000 0.000000 0.000000 0.003925 0.000000 0.026858
#
#
# Mechanical properties :
#
#
# Convention : Reuss Voigt Hill
#
# Bulk Modulus (GPa) = 27.31581 34.23856 30.77718
# Shear Modulus (GPa) = 28.15788 34.49984 31.32886
#
# Velocity S-wave (km/s) = 3.55643 3.93661 3.75134
# Velocity P-wave (km/s) = 5.39761 6.00351 5.70860
#
# Compressibility (1/GPa) = 0.03660884
#
# Stress axis : x y z
#
# Youngs Moduli (GPa) = 42.35225 34.65470 91.63070
#
# Poissons Ratio (x) = 0.26009 0.59042
# Poissons Ratio (y) = 0.31787 -0.05156
# Poissons Ratio (z) = 0.27289 -0.01950
#
# Static dielectric constant tensor:
#      x y z
#    x 1.831590 0.000000 -0.026570 
#    y 0.000000 1.837090 0.000000 
#    z -0.026570 0.000000 1.851140 
# 
# From -- ./inp_files/13916.got.cif
#   From: 2010.05.17/outbox.cif.g08.bks.cpg/sg4_7_cif.got.tgz:13916.got - 2010.06.03 18:43:04.
