data_PCOD9118253
_publ_section_title
;
Structure prediction by ZEFSAII (Michael W. Deem and Ramdas Pophale) SiO2 
 PCOD9118253
Probable space group: P 21
;
_chemical_formula_sum "Si O2"
_cell_formula_units_Z 14
_cell_length_a 9.185877
_cell_length_b 5.119955
_cell_length_c 18.624346
_cell_angle_alpha 90.000000
_cell_angle_beta 138.335486
_cell_angle_gamma 90.000000
_cell_volume 582.287913
_symmetry_space_group_name_H-M "P 21"
_symmetry_group_IT_number 4
_symmetry_cell_setting 'monoclinic'
loop_
_space_group_symop_operation_xyz
x,y,z
-x,1/2+y,-z
loop_
_atom_site_type_symbol
_atom_site_label
_atom_site_fract_x
_atom_site_fract_y
_atom_site_fract_z
Si Si1 0.021314 0.328650 0.560569
Si Si2 0.474722 0.475836 0.278066
Si Si3 0.232365 0.715754 0.728676
Si Si4 0.782527 0.006370 0.586554
Si Si5 0.377406 0.869649 0.937334
Si Si6 0.082321 0.619122 0.202827
Si Si7 0.572100 0.467480 0.649052
O O1 0.220968 0.442993 0.682500
O O2 0.855497 0.253257 0.564598
O O3 0.970655 0.567360 0.486461
O O4 0.464407 0.232242 0.654665
O O5 0.608508 0.405535 0.257475
O O6 0.211705 0.520595 0.180161
O O7 0.498078 0.227188 0.337633
O O8 0.318626 0.729258 0.840786
O O9 0.980347 0.810995 0.638379
O O10 0.538802 0.944619 0.469394
O O11 0.807221 0.020433 0.681273
O O12 0.460702 0.619395 0.013448
O O13 0.162604 0.020977 0.887233
O O14 0.166005 0.919644 0.244383
#
# Coordination Sequence:
#
# PCOD9118253 Si02
#       7
#     2   2   2   2   2   2   2
#     4  12  26  39  64 107 149 199 246 294 350 431
#     4  10  25  41  68 100 148 184 229 292 361 424
#     4  11  27  45  73 110 148 189 258 302 361 435
#     4  11  25  41  67 100 152 201 250 281 351 437
#     4  11  28  51  83 107 136 189 258 327 383 430
#     4   9  26  48  70 104 148 186 248 306 366 441
#     4  10  25  39  65  98 151 194 229 272 362 432
#
# _framework density 24.043088000000001
#
# number of rings (size 3 to 8) (size 9 to 14) (size 15 to 20)
#    0.857    0.571    1.429    0.857   16.000    1.143 
#    0.000    1.429    0.000    0.000    0.000    0.000 
#    0.000    0.000    0.000    0.000    0.000    0.000 
#
# Total GULP energy -77994.686753 kJ/mol
# GULP energy per Si atom -5571.049054 kJ/mol
# Density = 2.398836 g / cm^3
# Si number density = 24.043088 Si / 1000 Ang^3
#
#
#
# Elastic Constant Matrix: (Units=GPa)
#
#
# Indices 1 2 3 4 5 6 
#
# 1 74.6378 26.4004 -1.0970 0.0000 2.3951 0.0000
# 2 26.4004 149.5391 25.7869 0.0000 -0.4148 0.0000
# 3 -1.0970 25.7869 68.0355 0.0000 15.2101 0.0000
# 4 0.0000 0.0000 0.0000 23.6693 0.0000 -1.3208
# 5 2.3951 -0.4148 15.2101 0.0000 17.9371 0.0000
# 6 0.0000 0.0000 0.0000 -1.3208 0.0000 38.0740
#
#
#
# Elastic Compliance Matrix: (Units=1/GPa)
#
#
# Indices 1 2 3 4 5 6 
#
# 1 0.014609 -0.002976 0.002240 0.000000 -0.003919 0.000000
# 2 -0.002976 0.007898 -0.003913 0.000000 0.003898 0.000000
# 3 0.002240 -0.003913 0.020119 0.000000 -0.017450 0.000000
# 4 0.000000 0.000000 0.000000 0.042331 0.000000 0.001468
# 5 -0.003919 0.003898 -0.017450 0.000000 0.071161 0.000000
# 6 0.000000 0.000000 0.000000 0.001468 0.000000 0.026316
#
#
# Mechanical properties :
#
#
# Convention : Reuss Voigt Hill
#
# Bulk Modulus (GPa) = 30.00579 43.82147 36.91363
# Shear Modulus (GPa) = 24.64978 32.01087 28.33033
#
# Velocity S-wave (km/s) = 3.20540 3.65279 3.43638
# Velocity P-wave (km/s) = 5.11923 6.00469 5.57955
#
# Compressibility (1/GPa) = 0.03332690
#
# Stress axis : x y z
#
# Youngs Moduli (GPa) = 68.44865 126.60996 49.70546
#
# Poissons Ratio (x) = 0.37683 -0.11133
# Poissons Ratio (y) = 0.20373 0.19450
# Poissons Ratio (z) = -0.15331 0.49544
#
# Static dielectric constant tensor:
#      x y z
#    x 2.011020 0.000000 0.112220 
#    y 0.000000 2.057240 0.000000 
#    z 0.112220 0.000000 1.977210 
# 
# From -- ./inp_files/14866.got.cif
#   From: 2010.05.17/outbox.cif.g08.bks.cpg/sg4_8_cif.got.tgz:14866.got - 2010.06.03 18:43:04.
