data_PCOD9118855
_publ_section_title
;
Structure prediction by ZEFSAII (Michael W. Deem and Ramdas Pophale) SiO2 
 PCOD9118855
Probable space group: P 21
;
_chemical_formula_sum "Si O2"
_cell_formula_units_Z 12
_cell_length_a 14.098896
_cell_length_b 7.504503
_cell_length_c 13.696242
_cell_angle_alpha 90.000000
_cell_angle_beta 159.704926
_cell_angle_gamma 90.000000
_cell_volume 502.639300
_symmetry_space_group_name_H-M "P 21"
_symmetry_group_IT_number 4
_symmetry_cell_setting 'monoclinic'
loop_
_space_group_symop_operation_xyz
x,y,z
-x,1/2+y,-z
loop_
_atom_site_type_symbol
_atom_site_label
_atom_site_fract_x
_atom_site_fract_y
_atom_site_fract_z
Si Si1 0.662485 0.206110 0.338381
Si Si2 0.798765 0.875646 0.854220
Si Si3 0.709937 0.139650 0.604284
Si Si4 0.623010 0.071816 0.871975
Si Si5 0.121961 0.214747 0.477385
Si Si6 0.168866 0.079346 0.736698
O O1 0.719444 0.116209 0.497685
O O2 0.514084 0.389666 0.221811
O O3 0.953418 0.225663 0.567623
O O4 0.456517 0.101084 0.068710
O O5 0.590540 0.710015 0.658521
O O6 0.796257 0.965196 0.746431
O O7 0.697550 0.028117 0.832250
O O8 0.085868 0.799134 0.167879
O O9 0.395363 0.220147 0.675739
O O10 0.893912 0.116558 0.193079
O O11 0.201105 0.111896 0.653380
O O12 0.981281 0.397375 0.377445
#
# Coordination Sequence:
#
# PCOD9118855 Si02
#       6
#     2   2   2   2   2   2
#     4  11  23  43  65  92 130 170 212 264 320 377
#     4  11  24  43  67  97 130 170 212 263 321 379
#     4  11  24  43  67  97 130 170 212 263 321 379
#     4  11  23  43  65  92 130 170 212 264 320 377
#     4  12  25  42  65  95 128 170 216 265 317 378
#     4  12  25  42  65  95 128 170 216 265 317 378
#
# _framework density 23.873977
#
# number of rings (size 3 to 8) (size 9 to 14) (size 15 to 20)
#    0.000    0.667    0.000   10.000    0.000    4.000 
#    0.000    0.000    0.000    0.000    0.000    0.000 
#    0.000    0.000    0.000    0.000    0.000    0.000 
#
# Total GULP energy -67248.330810 kJ/mol
# GULP energy per Si atom -5604.027567 kJ/mol
# Density = 2.381964 g / cm^3
# Si number density = 23.873977 Si / 1000 Ang^3
#
#
#
# Elastic Constant Matrix: (Units=GPa)
#
#
# Indices 1 2 3 4 5 6 
#
# 1 60.5405 -9.8673 24.5002 0.0000 -21.0504 0.0000
# 2 -9.8673 37.8471 -15.6752 0.0000 -18.4951 0.0000
# 3 24.5002 -15.6752 120.6467 0.0000 -21.6915 0.0000
# 4 0.0000 0.0000 0.0000 35.5497 0.0000 1.4999
# 5 -21.0504 -18.4951 -21.6915 0.0000 37.6202 0.0000
# 6 0.0000 0.0000 0.0000 1.4999 0.0000 34.1619
#
#
#
# Elastic Compliance Matrix: (Units=1/GPa)
#
#
# Indices 1 2 3 4 5 6 
#
# 1 0.029328 0.022588 0.002149 0.000000 0.028754 0.000000
# 2 0.022588 0.062162 0.012558 0.000000 0.050440 0.000000
# 3 0.002149 0.012558 0.012060 0.000000 0.014330 0.000000
# 4 0.000000 0.000000 0.000000 0.028182 0.000000 -0.001237
# 5 0.028754 0.050440 0.014330 0.000000 0.075731 0.000000
# 6 0.000000 0.000000 0.000000 -0.001237 0.000000 0.029327
#
#
# Mechanical properties :
#
#
# Convention : Reuss Voigt Hill
#
# Bulk Modulus (GPa) = 5.61357 24.10553 14.85955
# Shear Modulus (GPa) = 22.56522 36.13814 29.35168
#
# Velocity S-wave (km/s) = 3.07771 3.89486 3.51014
# Velocity P-wave (km/s) = 3.87120 5.50867 4.76086
#
# Compressibility (1/GPa) = 0.17813971
#
# Stress axis : x y z
#
# Youngs Moduli (GPa) = 34.09734 16.08710 82.91565
#
# Poissons Ratio (x) = -0.36337 -0.17817
# Poissons Ratio (y) = -0.77018 -1.04128
# Poissons Ratio (z) = -0.07327 -0.20203
#
# Static dielectric constant tensor:
#      x y z
#    x 1.859740 0.000000 0.011940 
#    y 0.000000 1.969100 0.000000 
#    z 0.011940 0.000000 1.832620 
# 
# From -- ./inp_files/12081.got.cif
#   From: 2010.05.17/outbox.cif.g08.bks.cpg/sg4_7_cif.got.tgz:12081.got - 2010.06.03 18:43:04.
