data_PCOD9118906
_publ_section_title
;
Structure prediction by ZEFSAII (Michael W. Deem and Ramdas Pophale) SiO2 
 PCOD9118906
Probable space group: P 21
;
_chemical_formula_sum "Si O2"
_cell_formula_units_Z 16
_cell_length_a 8.061067
_cell_length_b 8.212692
_cell_length_c 10.583549
_cell_angle_alpha 90.000000
_cell_angle_beta 59.256475
_cell_angle_gamma 90.000000
_cell_volume 602.195043
_symmetry_space_group_name_H-M "P 21"
_symmetry_group_IT_number 4
_symmetry_cell_setting 'monoclinic'
loop_
_space_group_symop_operation_xyz
x,y,z
-x,1/2+y,-z
loop_
_atom_site_type_symbol
_atom_site_label
_atom_site_fract_x
_atom_site_fract_y
_atom_site_fract_z
Si Si1 0.774608 0.070910 0.186629
Si Si2 0.922972 0.141978 0.393442
Si Si3 0.386469 0.967502 0.071412
Si Si4 0.234797 0.894678 0.378688
Si Si5 0.279114 0.097809 0.618076
Si Si6 0.263928 0.328078 0.196571
Si Si7 0.985003 0.271685 0.898493
Si Si8 0.472567 0.324303 0.362132
O O1 0.586162 0.180495 0.244321
O O2 0.794001 0.079999 0.330835
O O3 0.835637 0.887620 0.134312
O O4 0.927534 0.168338 0.042005
O O5 0.036560 0.294745 0.283671
O O6 0.822541 0.216863 0.553599
O O7 0.065461 0.998292 0.377494
O O8 0.395415 0.890407 0.208341
O O9 0.206096 0.874706 0.071474
O O10 0.337485 0.156462 0.109501
O O11 0.595516 0.954537 0.925312
O O12 0.273958 0.995431 0.490209
O O13 0.075089 0.157854 0.753423
O O14 0.399452 0.255623 0.524471
O O15 0.392546 0.980792 0.670812
O O16 0.299517 0.351966 0.332679
#
# Coordination Sequence:
#
# PCOD9118906 Si02
#       8
#     2   2   2   2   2   2   2   2
#     4  12  25  46  74 106 146 191 252 301 361 442
#     4  11  24  45  73 103 144 192 248 296 363 435
#     4  11  24  47  71 105 145 190 243 297 364 430
#     4  11  23  44  71 105 140 190 243 296 359 434
#     4  12  26  46  75 106 149 191 240 306 373 430
#     4  11  25  46  72 101 150 186 244 305 356 437
#     4  12  26  47  75 107 145 196 243 303 367 440
#     4  12  25  49  69 111 149 190 247 306 365 434
#
# _framework density 26.569464
#
# number of rings (size 3 to 8) (size 9 to 14) (size 15 to 20)
#    0.000    0.500    7.500    2.250    0.000    4.000 
#    4.500    0.000    0.000    0.000    0.000    0.000 
#    0.000    0.000    0.000    0.000    0.000    0.000 
#
# Total GULP energy -89542.936194 kJ/mol
# GULP energy per Si atom -5596.433512 kJ/mol
# Density = 2.650899 g / cm^3
# Si number density = 26.569464 Si / 1000 Ang^3
#
#
#
# Elastic Constant Matrix: (Units=GPa)
#
#
# Indices 1 2 3 4 5 6 
#
# 1 50.6863 16.1219 6.3496 0.0000 -1.3326 0.0000
# 2 16.1219 90.9767 26.6619 0.0000 1.1845 0.0000
# 3 6.3496 26.6619 100.7977 0.0000 -18.3880 0.0000
# 4 0.0000 0.0000 0.0000 44.8128 0.0000 -11.7871
# 5 -1.3326 1.1845 -18.3880 0.0000 43.4244 0.0000
# 6 0.0000 0.0000 0.0000 -11.7871 0.0000 36.6887
#
#
#
# Elastic Compliance Matrix: (Units=1/GPa)
#
#
# Indices 1 2 3 4 5 6 
#
# 1 0.020936 -0.003649 -0.000237 0.000000 0.000642 0.000000
# 2 -0.003649 0.012683 -0.003477 0.000000 -0.001930 0.000000
# 3 -0.000237 -0.003477 0.011782 0.000000 0.005076 0.000000
# 4 0.000000 0.000000 0.000000 0.024375 0.000000 0.007831
# 5 0.000642 -0.001930 0.005076 0.000000 0.025250 0.000000
# 6 0.000000 0.000000 0.000000 0.007831 0.000000 0.029772
#
#
# Mechanical properties :
#
#
# Convention : Reuss Voigt Hill
#
# Bulk Modulus (GPa) = 32.59950 37.85858 35.22904
# Shear Modulus (GPa) = 33.38938 37.87368 35.63153
#
# Velocity S-wave (km/s) = 3.54882 3.77962 3.66604
# Velocity P-wave (km/s) = 5.39336 5.77297 5.58639
#
# Compressibility (1/GPa) = 0.03067532
#
# Stress axis : x y z
#
# Youngs Moduli (GPa) = 47.76371 78.84833 84.87881
#
# Poissons Ratio (x) = 0.28773 0.02008
# Poissons Ratio (y) = 0.17430 0.29512
# Poissons Ratio (z) = 0.01130 0.27415
#
# Static dielectric constant tensor:
#      x y z
#    x 2.137060 0.000000 -0.052620 
#    y 0.000000 2.114730 0.000000 
#    z -0.052620 0.000000 2.057640 
# 
# From -- ./inp_files/5387.got.cif
#   From: 2010.05.17/outbox.cif.g08.bks.cpg/sg4_3_cif.got.tgz:5387.got - 2010.06.03 18:43:04.
