data_PCOD9118557
_publ_section_title
;
Structure prediction by ZEFSAII (Michael W. Deem and Ramdas Pophale) SiO2 
 PCOD9118557
Probable space group: P 21
;
_chemical_formula_sum "Si O2"
_cell_formula_units_Z 12
_cell_length_a 13.461655
_cell_length_b 5.151350
_cell_length_c 24.613103
_cell_angle_alpha 90.000000
_cell_angle_beta 17.084882
_cell_angle_gamma 90.000000
_cell_volume 501.441316
_symmetry_space_group_name_H-M "P 21"
_symmetry_group_IT_number 4
_symmetry_cell_setting 'monoclinic'
loop_
_space_group_symop_operation_xyz
x,y,z
-x,1/2+y,-z
loop_
_atom_site_type_symbol
_atom_site_label
_atom_site_fract_x
_atom_site_fract_y
_atom_site_fract_z
Si Si1 0.695183 0.520690 0.761262
Si Si2 0.558175 0.493932 0.713908
Si Si3 0.404060 0.488320 0.581457
Si Si4 0.235921 0.013193 0.016984
Si Si5 0.363167 0.285138 0.437823
Si Si6 0.143564 0.166740 0.867153
O O1 0.770050 0.531048 0.657242
O O2 0.034387 0.462628 0.616210
O O3 0.431528 0.281498 0.905401
O O4 0.513134 0.784645 0.873712
O O5 0.686015 0.637147 0.593694
O O6 0.454092 0.211909 0.746088
O O7 0.184846 0.587932 0.927762
O O8 0.495881 0.197377 0.516626
O O9 0.603106 0.586207 0.530654
O O10 0.008633 0.514473 0.803306
O O11 0.985560 0.916647 0.099090
O O12 0.702552 0.458497 0.254931
#
# Coordination Sequence:
#
# PCOD9118557 Si02
#       6
#     2   2   2   2   2   2
#     4  11  28  42  71 108 155 183 219 281 373 435
#     4  11  22  37  68 101 149 187 230 271 347 425
#     4  12  26  49  79 104 127 183 255 309 344 405
#     4  11  24  49  70 104 143 188 230 294 352 426
#     4  12  27  43  70 108 144 188 239 295 346 422
#     4  11  21  40  68 103 142 193 237 278 328 433
#
# _framework density 23.931016
#
# number of rings (size 3 to 8) (size 9 to 14) (size 15 to 20)
#    0.000    0.667    3.333    5.000    7.000    0.000 
#    0.000    3.333    0.000    2.000    0.000    0.000 
#    0.000    0.000    0.000    0.000    0.000    0.000 
#
# Total GULP energy -67185.367540 kJ/mol
# GULP energy per Si atom -5598.780628 kJ/mol
# Density = 2.387655 g / cm^3
# Si number density = 23.931016 Si / 1000 Ang^3
#
#
#
# Elastic Constant Matrix: (Units=GPa)
#
#
# Indices 1 2 3 4 5 6 
#
# 1 44.7483 7.9796 42.1749 0.0000 3.0061 0.0000
# 2 7.9796 69.9257 8.1792 0.0000 2.9092 0.0000
# 3 42.1749 8.1792 80.9024 0.0000 -1.8522 0.0000
# 4 0.0000 0.0000 0.0000 52.0834 0.0000 4.5335
# 5 3.0061 2.9092 -1.8522 0.0000 39.6433 0.0000
# 6 0.0000 0.0000 0.0000 4.5335 0.0000 42.5970
#
#
#
# Elastic Compliance Matrix: (Units=1/GPa)
#
#
# Indices 1 2 3 4 5 6 
#
# 1 0.045054 -0.002228 -0.023361 0.000000 -0.004344 0.000000
# 2 -0.002228 0.014633 -0.000339 0.000000 -0.000921 0.000000
# 3 -0.023361 -0.000339 0.024641 0.000000 0.002948 0.000000
# 4 0.000000 0.000000 0.000000 0.019379 0.000000 -0.002063
# 5 -0.004344 -0.000921 0.002948 0.000000 0.025760 0.000000
# 6 0.000000 0.000000 0.000000 -0.002063 0.000000 0.023695
#
#
# Mechanical properties :
#
#
# Convention : Reuss Voigt Hill
#
# Bulk Modulus (GPa) = 30.79636 34.69378 32.74507
# Shear Modulus (GPa) = 23.16504 36.01425 29.58964
#
# Velocity S-wave (km/s) = 3.11463 3.88354 3.52014
# Velocity P-wave (km/s) = 5.08245 5.88541 5.49861
#
# Compressibility (1/GPa) = 0.03247137
#
# Stress axis : x y z
#
# Youngs Moduli (GPa) = 22.19556 68.33817 40.58338
#
# Poissons Ratio (x) = 0.15226 0.94807
# Poissons Ratio (y) = 0.04945 0.01376
# Poissons Ratio (z) = 0.51851 0.02316
#
# Static dielectric constant tensor:
#      x y z
#    x 1.950750 0.000000 0.010370 
#    y 0.000000 1.971310 0.000000 
#    z 0.010370 0.000000 1.898680 
# 
# From -- ./inp_files/7165.got.cif
#   From: 2010.05.17/outbox.cif.g08.bks.cpg/sg4_4_cif.got.tgz:7165.got - 2010.06.03 18:43:04.
