data_PCOD9118728
_publ_section_title
;
Structure prediction by ZEFSAII (Michael W. Deem and Ramdas Pophale) SiO2 
 PCOD9118728
Probable space group: P 21
;
_chemical_formula_sum "Si O2"
_cell_formula_units_Z 14
_cell_length_a 15.557736
_cell_length_b 5.190486
_cell_length_c 21.905738
_cell_angle_alpha 90.000000
_cell_angle_beta 161.013696
_cell_angle_gamma 90.000000
_cell_volume 575.509655
_symmetry_space_group_name_H-M "P 21"
_symmetry_group_IT_number 4
_symmetry_cell_setting 'monoclinic'
loop_
_space_group_symop_operation_xyz
x,y,z
-x,1/2+y,-z
loop_
_atom_site_type_symbol
_atom_site_label
_atom_site_fract_x
_atom_site_fract_y
_atom_site_fract_z
Si Si1 0.403550 0.589040 0.226905
Si Si2 0.377205 0.058381 0.887624
Si Si3 0.363787 0.709030 0.771489
Si Si4 0.931232 0.286129 0.887709
Si Si5 0.078278 0.872672 0.456557
Si Si6 0.675012 0.634698 0.624251
Si Si7 0.161007 0.883307 0.950275
O O1 0.267038 0.726833 0.191577
O O2 0.710599 0.536761 0.439033
O O3 0.338126 0.724607 0.118170
O O4 0.230660 0.328652 0.110185
O O5 0.414288 0.973979 0.841807
O O6 0.447682 0.798846 0.971855
O O7 0.077416 0.162429 0.687547
O O8 0.247098 0.751813 0.625705
O O9 0.142339 0.552050 0.660059
O O10 0.635938 0.553943 0.951264
O O11 0.814130 0.545421 0.780200
O O12 0.975461 0.075108 0.865401
O O13 0.523348 0.374729 0.502777
O O14 0.940951 0.717287 0.766198
#
# Coordination Sequence:
#
# PCOD9118728 Si02
#       7
#     2   2   2   2   2   2   2
#     4  11  24  42  76 119 153 197 258 330 390 453
#     4  12  28  53  79 114 170 206 253 334 408 477
#     4  12  25  47  84 119 155 206 270 329 394 477
#     4  11  22  44  74 110 160 199 248 328 392 443
#     4  12  25  46  84 120 152 210 274 322 389 490
#     4  11  24  47  74 106 155 207 266 308 374 482
#     4  11  24  43  79 114 155 201 255 331 391 452
#
# _framework density 24.326263999999998
#
# number of rings (size 3 to 8) (size 9 to 14) (size 15 to 20)
#    0.000    0.571    7.143    0.857    0.000    0.000 
#    0.000    5.714    0.000    0.000    0.000    0.000 
#    0.000    0.000    0.000    0.000    0.000    0.000 
#
# Total GULP energy -78279.683191 kJ/mol
# GULP energy per Si atom -5591.405942 kJ/mol
# Density = 2.427090 g / cm^3
# Si number density = 24.326264 Si / 1000 Ang^3
#
#
#
# Elastic Constant Matrix: (Units=GPa)
#
#
# Indices 1 2 3 4 5 6 
#
# 1 56.2021 21.4739 29.0900 0.0000 26.6118 0.0000
# 2 21.4739 130.3574 62.4848 0.0000 11.0387 0.0000
# 3 29.0900 62.4848 125.3445 0.0000 8.2399 0.0000
# 4 0.0000 0.0000 0.0000 11.6782 0.0000 -3.6132
# 5 26.6118 11.0387 8.2399 0.0000 31.9331 0.0000
# 6 0.0000 0.0000 0.0000 -3.6132 0.0000 46.0442
#
#
#
# Elastic Compliance Matrix: (Units=1/GPa)
#
#
# Indices 1 2 3 4 5 6 
#
# 1 0.033341 -0.000518 -0.005762 0.000000 -0.026119 0.000000
# 2 -0.000518 0.010246 -0.004865 0.000000 -0.001854 0.000000
# 3 -0.005762 -0.004865 0.011510 0.000000 0.003514 0.000000
# 4 0.000000 0.000000 0.000000 0.087760 0.000000 0.006887
# 5 -0.026119 -0.001854 0.003514 0.000000 0.052816 0.000000
# 6 0.000000 0.000000 0.000000 0.006887 0.000000 0.022259
#
#
# Mechanical properties :
#
#
# Convention : Reuss Voigt Hill
#
# Bulk Modulus (GPa) = 30.48382 59.77794 45.13088
# Shear Modulus (GPa) = 19.90772 31.18813 25.54792
#
# Velocity S-wave (km/s) = 2.86381 3.58449 3.24423
# Velocity P-wave (km/s) = 4.84702 6.46206 5.71191
#
# Compressibility (1/GPa) = 0.03280429
#
# Stress axis : x y z
#
# Youngs Moduli (GPa) = 29.99305 97.60130 86.88310
#
# Poissons Ratio (x) = 0.05060 0.50065
# Poissons Ratio (y) = 0.01555 0.42272
# Poissons Ratio (z) = 0.17283 0.47486
#
# Static dielectric constant tensor:
#      x y z
#    x 2.014660 0.000000 -0.136260 
#    y 0.000000 2.087550 0.000000 
#    z -0.136260 0.000000 2.149890 
# 
# From -- ./inp_files/15770.got.cif
#   From: 2010.05.17/outbox.cif.g08.bks.cpg/sg4_8_cif.got.tgz:15770.got - 2010.06.03 18:43:04.
