data_PCOD9118268
_publ_section_title
;
Structure prediction by ZEFSAII (Michael W. Deem and Ramdas Pophale) SiO2 
 PCOD9118268
Probable space group: P 21
;
_chemical_formula_sum "Si O2"
_cell_formula_units_Z 14
_cell_length_a 20.697448
_cell_length_b 5.315979
_cell_length_c 15.294858
_cell_angle_alpha 90.000000
_cell_angle_beta 20.021866
_cell_angle_gamma 90.000000
_cell_volume 576.172189
_symmetry_space_group_name_H-M "P 21"
_symmetry_group_IT_number 4
_symmetry_cell_setting 'monoclinic'
loop_
_space_group_symop_operation_xyz
x,y,z
-x,1/2+y,-z
loop_
_atom_site_type_symbol
_atom_site_label
_atom_site_fract_x
_atom_site_fract_y
_atom_site_fract_z
Si Si1 0.584270 0.982070 0.437342
Si Si2 0.709824 0.149902 0.912803
Si Si3 0.668180 0.661721 0.857320
Si Si4 0.642462 0.830248 0.551817
Si Si5 0.021201 0.322710 0.653224
Si Si6 0.997626 0.599099 0.144466
Si Si7 0.251143 0.716971 0.428017
O O1 0.507020 0.731389 0.488495
O O2 0.553683 0.963136 0.580516
O O3 0.809472 0.998301 0.137884
O O4 0.691258 0.392058 0.873203
O O5 0.867722 0.228950 0.781215
O O6 0.751670 0.886410 0.812443
O O7 0.510271 0.130724 0.218069
O O8 0.786305 0.674421 0.617726
O O9 0.450907 0.748421 0.125046
O O10 0.848462 0.718836 0.267021
O O11 0.684855 0.010102 0.579942
O O12 0.949166 0.284863 0.843278
O O13 0.097028 0.606091 0.556533
O O14 0.865089 0.405561 0.364398
#
# Coordination Sequence:
#
# PCOD9118268 Si02
#       7
#     2   2   2   2   2   2   2
#     4  12  31  49  79 111 146 186 246 305 373 436
#     4  11  24  45  68 104 142 192 241 296 366 420
#     4  11  25  44  69 103 146 191 243 289 363 426
#     4  10  25  47  71 102 145 191 239 301 360 436
#     4  11  26  41  72 102 148 187 243 301 355 426
#     4  11  26  46  72 105 143 192 246 292 373 426
#     4  10  25  42  69 103 140 193 240 296 352 436
#
# _framework density 24.298292
#
# number of rings (size 3 to 8) (size 9 to 14) (size 15 to 20)
#    0.000    1.143    1.429    1.714   16.000    1.143 
#    0.000    0.000    0.000    0.000    0.000    0.000 
#    0.000    0.000    0.000    0.000    0.000    0.000 
#
# Total GULP energy -78283.461230 kJ/mol
# GULP energy per Si atom -5591.675802 kJ/mol
# Density = 2.424299 g / cm^3
# Si number density = 24.298292 Si / 1000 Ang^3
#
#
#
# Elastic Constant Matrix: (Units=GPa)
#
#
# Indices 1 2 3 4 5 6 
#
# 1 99.2373 25.0981 15.0372 0.0000 -8.0587 0.0000
# 2 25.0981 77.0981 11.9686 0.0000 -9.2422 0.0000
# 3 15.0372 11.9686 107.4004 0.0000 1.8044 0.0000
# 4 0.0000 0.0000 0.0000 33.1004 0.0000 -3.9528
# 5 -8.0587 -9.2422 1.8044 0.0000 36.4507 0.0000
# 6 0.0000 0.0000 0.0000 -3.9528 0.0000 33.4814
#
#
#
# Elastic Compliance Matrix: (Units=1/GPa)
#
#
# Indices 1 2 3 4 5 6 
#
# 1 0.011228 -0.003257 -0.001238 0.000000 0.001718 0.000000
# 2 -0.003257 0.014584 -0.001220 0.000000 0.003038 0.000000
# 3 -0.001238 -0.001220 0.009638 0.000000 -0.001060 0.000000
# 4 0.000000 0.000000 0.000000 0.030643 0.000000 0.003618
# 5 0.001718 0.003038 -0.001060 0.000000 0.028637 0.000000
# 6 0.000000 0.000000 0.000000 0.003618 0.000000 0.030294
#
#
# Mechanical properties :
#
#
# Convention : Reuss Voigt Hill
#
# Bulk Modulus (GPa) = 41.63223 43.10484 42.36853
# Shear Modulus (GPa) = 34.61132 36.04863 35.32997
#
# Velocity S-wave (km/s) = 3.77826 3.85591 3.81729
# Velocity P-wave (km/s) = 6.01703 6.13209 6.07483
#
# Compressibility (1/GPa) = 0.02401985
#
# Stress axis : x y z
#
# Youngs Moduli (GPa) = 89.06601 68.56650 103.75521
#
# Poissons Ratio (x) = 0.22331 0.12844
# Poissons Ratio (y) = 0.29008 0.12661
# Poissons Ratio (z) = 0.11025 0.08367
#
# Static dielectric constant tensor:
#      x y z
#    x 1.923620 0.000000 0.001410 
#    y 0.000000 2.074340 0.000000 
#    z 0.001410 0.000000 1.941650 
# 
# From -- ./inp_files/14381.got.cif
#   From: 2010.05.17/outbox.cif.g08.bks.cpg/sg4_8_cif.got.tgz:14381.got - 2010.06.03 18:43:04.
