data_PCOD9118226
_publ_section_title
;
Structure prediction by ZEFSAII (Michael W. Deem and Ramdas Pophale) SiO2 
 PCOD9118226
Probable space group: P 21
;
_chemical_formula_sum "Si O2"
_cell_formula_units_Z 16
_cell_length_a 7.072171
_cell_length_b 7.153725
_cell_length_c 12.693620
_cell_angle_alpha 90.000000
_cell_angle_beta 74.914819
_cell_angle_gamma 90.000000
_cell_volume 620.070038
_symmetry_space_group_name_H-M "P 21"
_symmetry_group_IT_number 4
_symmetry_cell_setting 'monoclinic'
loop_
_space_group_symop_operation_xyz
x,y,z
-x,1/2+y,-z
loop_
_atom_site_type_symbol
_atom_site_label
_atom_site_fract_x
_atom_site_fract_y
_atom_site_fract_z
Si Si1 0.594535 0.566120 0.351814
Si Si2 0.254928 0.291203 0.142005
Si Si3 0.089333 0.159539 0.366116
Si Si4 0.069187 0.787952 0.994487
Si Si5 0.406176 0.056436 0.889643
Si Si6 0.724185 0.347949 0.526279
Si Si7 0.599800 0.999622 0.119667
Si Si8 0.864192 0.874520 0.247799
O O1 0.596481 0.498680 0.232052
O O2 0.613048 0.408477 0.435987
O O3 0.404966 0.693663 0.396914
O O4 0.784094 0.702517 0.327386
O O5 0.176450 0.310201 0.272303
O O6 0.078505 0.286638 0.084154
O O7 0.402717 0.458175 0.093771
O O8 0.399510 0.110317 0.128083
O O9 0.930216 0.256912 0.463064
O O10 0.238282 0.035065 0.411927
O O11 0.990277 0.011084 0.300040
O O12 0.208644 0.968769 0.963422
O O13 0.219608 0.618019 0.954726
O O14 0.973349 0.799525 0.125380
O O15 0.422316 0.278271 0.899980
O O16 0.674278 0.985230 0.230627
#
# Coordination Sequence:
#
# PCOD9118226 Si02
#       8
#     2   2   2   2   2   2   2   2
#     4  11  26  49  77 107 156 199 263 325 411 462
#     4  11  25  49  81 115 162 208 268 322 399 487
#     4  12  26  48  80 115 155 204 276 330 406 483
#     4  11  25  51  81 117 164 215 259 324 397 486
#     4  10  25  48  82 120 160 213 258 328 403 486
#     4  12  28  48  82 112 150 206 270 342 404 471
#     4  10  24  49  74 114 161 207 258 320 391 469
#     4  11  25  50  79 112 162 212 258 331 405 484
#
# _framework density 25.803536000000001
#
# number of rings (size 3 to 8) (size 9 to 14) (size 15 to 20)
#    0.000    1.000    1.250    3.750    8.750    1.000 
#   22.500    0.000    0.000    0.000    0.000    0.000 
#    0.000    0.000    0.000    0.000    0.000    0.000 
#
# Total GULP energy -89740.896713 kJ/mol
# GULP energy per Si atom -5608.806045 kJ/mol
# Density = 2.574481 g / cm^3
# Si number density = 25.803536 Si / 1000 Ang^3
#
#
#
# Elastic Constant Matrix: (Units=GPa)
#
#
# Indices 1 2 3 4 5 6 
#
# 1 130.1575 28.8902 28.4025 0.0000 2.1161 0.0000
# 2 28.8902 81.6831 -0.0153 0.0000 -0.2879 0.0000
# 3 28.4025 -0.0153 108.7219 0.0000 -16.7067 0.0000
# 4 0.0000 0.0000 0.0000 43.5198 0.0000 3.5635
# 5 2.1161 -0.2879 -16.7067 0.0000 56.8434 0.0000
# 6 0.0000 0.0000 0.0000 3.5635 0.0000 51.4676
#
#
#
# Elastic Compliance Matrix: (Units=1/GPa)
#
#
# Indices 1 2 3 4 5 6 
#
# 1 0.008951 -0.003170 -0.002506 0.000000 -0.001086 0.000000
# 2 -0.003170 0.013365 0.000899 0.000000 0.000450 0.000000
# 3 -0.002506 0.000899 0.010334 0.000000 0.003135 0.000000
# 4 0.000000 0.000000 0.000000 0.023109 0.000000 -0.001600
# 5 -0.001086 0.000450 0.003135 0.000000 0.018556 0.000000
# 6 0.000000 0.000000 0.000000 -0.001600 0.000000 0.019540
#
#
# Mechanical properties :
#
#
# Convention : Reuss Voigt Hill
#
# Bulk Modulus (GPa) = 43.29471 48.34635 45.82053
# Shear Modulus (GPa) = 45.00083 47.91850 46.45966
#
# Velocity S-wave (km/s) = 4.18063 4.31403 4.24785
# Velocity P-wave (km/s) = 6.33392 6.60238 6.46954
#
# Compressibility (1/GPa) = 0.02309751
#
# Stress axis : x y z
#
# Youngs Moduli (GPa) = 111.71822 74.81982 96.76566
#
# Poissons Ratio (x) = 0.23719 0.24246
# Poissons Ratio (y) = 0.35417 -0.08701
# Poissons Ratio (z) = 0.27993 -0.06728
#
# Static dielectric constant tensor:
#      x y z
#    x 2.022400 0.000000 -0.010250 
#    y 0.000000 2.073080 0.000000 
#    z -0.010250 0.000000 2.055580 
# 
# From -- ./inp_files/13334.got.cif
#   From: 2010.05.17/outbox.cif.g08.bks.cpg/sg4_7_cif.got.tgz:13334.got - 2010.06.03 18:43:04.
