data_PCOD9118671
_publ_section_title
;
Structure prediction by ZEFSAII (Michael W. Deem and Ramdas Pophale) SiO2 
 PCOD9118671
Probable space group: P 21
;
_chemical_formula_sum "Si O2"
_cell_formula_units_Z 12
_cell_length_a 12.358612
_cell_length_b 7.461776
_cell_length_c 9.790582
_cell_angle_alpha 90.000000
_cell_angle_beta 142.992620
_cell_angle_gamma 90.000000
_cell_volume 543.447585
_symmetry_space_group_name_H-M "P 21"
_symmetry_group_IT_number 4
_symmetry_cell_setting 'monoclinic'
loop_
_space_group_symop_operation_xyz
x,y,z
-x,1/2+y,-z
loop_
_atom_site_type_symbol
_atom_site_label
_atom_site_fract_x
_atom_site_fract_y
_atom_site_fract_z
Si Si1 0.094799 0.876820 0.165148
Si Si2 0.608718 0.084950 0.469160
Si Si3 0.700338 0.810573 0.786957
Si Si4 0.663076 0.861082 0.276520
Si Si5 0.005703 0.740145 0.787192
Si Si6 0.637581 0.061911 0.970063
O O1 0.258919 0.750994 0.372312
O O2 0.086637 0.072015 0.225279
O O3 0.908006 0.791145 0.031969
O O4 0.074477 0.866342 0.980287
O O5 0.414878 0.132829 0.332955
O O6 0.684871 0.917234 0.630044
O O7 0.594397 0.027203 0.299083
O O8 0.610178 0.939962 0.808778
O O9 0.859750 0.816810 0.535523
O O10 0.526836 0.695984 0.164370
O O11 0.667124 0.928329 0.126176
O O12 0.181359 0.672570 0.882856
#
# Coordination Sequence:
#
# PCOD9118671 Si02
#       6
#     2   2   2   2   2   2
#     4  11  22  42  67 103 137 171 225 289 331 393
#     4  12  24  39  69  99 133 179 229 278 340 396
#     4  11  24  40  67 100 132 180 224 280 338 396
#     4  12  26  46  67  99 135 184 225 282 339 407
#     4  11  24  43  72 101 138 178 230 278 344 400
#     4  11  26  46  66  98 139 178 227 277 342 404
#
# _framework density 22.081244999999999
#
# number of rings (size 3 to 8) (size 9 to 14) (size 15 to 20)
#    0.000    0.667    5.000    3.000    2.333    5.333 
#    0.000    0.000    0.000    0.000    0.000    0.000 
#    0.000    0.000    0.000    0.000    0.000    0.000 
#
# Total GULP energy -67151.605600 kJ/mol
# GULP energy per Si atom -5595.967133 kJ/mol
# Density = 2.203099 g / cm^3
# Si number density = 22.081245 Si / 1000 Ang^3
#
#
#
# Elastic Constant Matrix: (Units=GPa)
#
#
# Indices 1 2 3 4 5 6 
#
# 1 88.4424 9.1380 26.3880 0.0000 0.0789 0.0000
# 2 9.1380 59.2857 18.0491 0.0000 11.3282 0.0000
# 3 26.3880 18.0491 76.5786 0.0000 20.2187 0.0000
# 4 0.0000 0.0000 0.0000 48.2529 0.0000 -2.9968
# 5 0.0789 11.3282 20.2187 0.0000 32.3961 0.0000
# 6 0.0000 0.0000 0.0000 -2.9968 0.0000 52.6708
#
#
#
# Elastic Compliance Matrix: (Units=1/GPa)
#
#
# Indices 1 2 3 4 5 6 
#
# 1 0.012953 -0.001112 -0.005143 0.000000 0.003567 0.000000
# 2 -0.001112 0.018808 -0.002770 0.000000 -0.004845 0.000000
# 3 -0.005143 -0.002770 0.018228 0.000000 -0.010395 0.000000
# 4 0.000000 0.000000 0.000000 0.020798 0.000000 0.001183
# 5 0.003567 -0.004845 -0.010395 0.000000 0.039041 0.000000
# 6 0.000000 0.000000 0.000000 0.001183 0.000000 0.019053
#
#
# Mechanical properties :
#
#
# Convention : Reuss Voigt Hill
#
# Bulk Modulus (GPa) = 31.31106 36.82854 34.06980
# Shear Modulus (GPa) = 31.73008 38.04607 34.88807
#
# Velocity S-wave (km/s) = 3.79485 4.15541 3.97922
# Velocity P-wave (km/s) = 5.78030 6.30382 6.04773
#
# Compressibility (1/GPa) = 0.03193760
#
# Stress axis : x y z
#
# Youngs Moduli (GPa) = 77.20176 53.16843 54.85979
#
# Poissons Ratio (x) = 0.05914 0.28215
# Poissons Ratio (y) = 0.08588 0.15199
# Poissons Ratio (z) = 0.39706 0.14730
#
# Static dielectric constant tensor:
#      x y z
#    x 1.809930 0.000000 0.031140 
#    y 0.000000 1.839730 0.000000 
#    z 0.031140 0.000000 1.760080 
# 
# From -- ./inp_files/7439.got.cif
#   From: 2010.05.17/outbox.cif.g08.bks.cpg/sg4_4_cif.got.tgz:7439.got - 2010.06.03 18:43:04.
