data_PCOD9118056
_publ_section_title
;
Structure prediction by ZEFSAII (Michael W. Deem and Ramdas Pophale) SiO2 
 PCOD9118056
Probable space group: P 21
;
_chemical_formula_sum "Si O2"
_cell_formula_units_Z 16
_cell_length_a 5.814663
_cell_length_b 4.897381
_cell_length_c 25.143687
_cell_angle_alpha 90.000000
_cell_angle_beta 62.106558
_cell_angle_gamma 90.000000
_cell_volume 632.820918
_symmetry_space_group_name_H-M "P 21"
_symmetry_group_IT_number 4
_symmetry_cell_setting 'monoclinic'
loop_
_space_group_symop_operation_xyz
x,y,z
-x,1/2+y,-z
loop_
_atom_site_type_symbol
_atom_site_label
_atom_site_fract_x
_atom_site_fract_y
_atom_site_fract_z
Si Si1 0.615708 0.655360 0.378475
Si Si2 0.880112 0.154616 0.377157
Si Si3 0.499792 0.141054 0.127585
Si Si4 0.355576 0.349674 0.253818
Si Si5 0.367165 0.338243 0.744876
Si Si6 0.131043 0.850610 0.500612
Si Si7 0.002336 0.848384 0.126441
Si Si8 0.359417 0.847576 0.997953
O O1 0.644272 0.331019 0.377515
O O2 0.626004 0.756572 0.316985
O O3 0.373694 0.751104 0.439744
O O4 0.849760 0.830645 0.378898
O O5 0.877588 0.256537 0.437724
O O6 0.118199 0.247353 0.314954
O O7 0.356172 0.295255 0.191098
O O8 0.633922 0.310405 0.065676
O O9 0.744008 0.994237 0.129925
O O10 0.265253 0.980707 0.123427
O O11 0.392102 0.670841 0.256849
O O12 0.592365 0.160801 0.251179
O O13 0.127391 0.225065 0.806169
O O14 0.897174 0.674221 0.500322
O O15 0.123565 0.727691 0.058853
O O16 0.600208 0.665706 0.993964
#
# Coordination Sequence:
#
# PCOD9118056 Si02
#       8
#     2   2   2   2   2   2   2   2
#     4  12  24  41  65  95 129 169 219 277 338 408
#     4  12  24  41  65  95 129 169 219 277 338 408
#     4  10  24  45  70 101 138 181 230 285 346 412
#     4  11  24  43  66  96 131 174 220 273 337 409
#     4  11  24  43  66  96 131 174 220 273 337 409
#     4  12  24  42  64  90 128 172 220 276 338 410
#     4  10  24  45  70 101 138 181 230 285 346 412
#     4  10  24  44  70 100 138 180 230 284 346 412
#
# _framework density 25.283615000000001
#
# number of rings (size 3 to 8) (size 9 to 14) (size 15 to 20)
#    0.000    1.000    0.000    6.000    0.000   16.000 
#    0.000    0.000    0.000    0.000    0.000    0.000 
#    0.000    0.000    0.000    0.000    0.000    0.000 
#
# Total GULP energy -89311.840342 kJ/mol
# GULP energy per Si atom -5581.990021 kJ/mol
# Density = 2.522607 g / cm^3
# Si number density = 25.283615 Si / 1000 Ang^3
#
#
#
# Elastic Constant Matrix: (Units=GPa)
#
#
# Indices 1 2 3 4 5 6 
#
# 1 77.0583 19.5512 38.9412 0.0000 3.6221 0.0000
# 2 19.5512 89.4160 21.6821 0.0000 -0.1462 0.0000
# 3 38.9412 21.6821 271.4540 0.0000 0.1989 0.0000
# 4 0.0000 0.0000 0.0000 34.9753 0.0000 5.8945
# 5 3.6221 -0.1462 0.1989 0.0000 55.3898 0.0000
# 6 0.0000 0.0000 0.0000 5.8945 0.0000 34.5688
#
#
#
# Elastic Compliance Matrix: (Units=1/GPa)
#
#
# Indices 1 2 3 4 5 6 
#
# 1 0.014673 -0.002753 -0.001884 0.000000 -0.000960 0.000000
# 2 -0.002753 0.011921 -0.000557 0.000000 0.000213 0.000000
# 3 -0.001884 -0.000557 0.003999 0.000000 0.000107 0.000000
# 4 0.000000 0.000000 0.000000 0.029438 0.000000 -0.005020
# 5 -0.000960 0.000213 0.000107 0.000000 0.018117 0.000000
# 6 0.000000 0.000000 0.000000 -0.005020 0.000000 0.029784
#
#
# Mechanical properties :
#
#
# Convention : Reuss Voigt Hill
#
# Bulk Modulus (GPa) = 49.49665 66.47524 57.98595
# Shear Modulus (GPa) = 39.98251 48.83706 44.40979
#
# Velocity S-wave (km/s) = 3.98095 4.39973 4.19557
# Velocity P-wave (km/s) = 6.38355 7.22212 6.81574
#
# Compressibility (1/GPa) = 0.02020339
#
# Stress axis : x y z
#
# Youngs Moduli (GPa) = 68.15232 83.88457 250.08620
#
# Poissons Ratio (x) = 0.23093 0.47124
# Poissons Ratio (y) = 0.18762 0.13940
# Poissons Ratio (z) = 0.12842 0.04676
#
# Static dielectric constant tensor:
#      x y z
#    x 2.086170 0.000000 -0.005300 
#    y 0.000000 1.997190 0.000000 
#    z -0.005300 0.000000 2.078750 
# 
# From -- ./inp_files/16012.got.cif
#   From: 2010.05.17/outbox.cif.g08.bks.cpg/sg4_9_cif.got.tgz:16012.got - 2010.06.03 18:43:04.
