data_PCOD9118437
_publ_section_title
;
Structure prediction by ZEFSAII (Michael W. Deem and Ramdas Pophale) SiO2 
 PCOD9118437
Probable space group: P 21
;
_chemical_formula_sum "Si O2"
_cell_formula_units_Z 10
_cell_length_a 5.312790
_cell_length_b 5.128733
_cell_length_c 13.067888
_cell_angle_alpha 90.000000
_cell_angle_beta 87.124975
_cell_angle_gamma 90.000000
_cell_volume 355.624080
_symmetry_space_group_name_H-M "P 21"
_symmetry_group_IT_number 4
_symmetry_cell_setting 'monoclinic'
loop_
_space_group_symop_operation_xyz
x,y,z
-x,1/2+y,-z
loop_
_atom_site_type_symbol
_atom_site_label
_atom_site_fract_x
_atom_site_fract_y
_atom_site_fract_z
Si Si1 0.420658 0.383200 0.495964
Si Si2 0.611129 0.185461 0.286568
Si Si3 0.679143 0.526072 0.999196
Si Si4 0.925047 0.828072 0.167460
Si Si5 0.119785 0.475450 0.317514
O O1 0.595440 0.616283 0.435876
O O2 0.165364 0.443040 0.437883
O O3 0.446478 0.607934 0.592224
O O4 0.374626 0.359536 0.263666
O O5 0.883708 0.310294 0.287576
O O6 0.842397 0.587684 0.097417
O O7 0.886544 0.492037 0.906412
O O8 0.337871 0.453702 0.791716
O O9 0.510557 0.267691 0.011966
O O10 0.068824 0.754407 0.269625
#
# Coordination Sequence:
#
# PCOD9118437 Si02
#       5
#     2   2   2   2   2
#     4  10  26  52  82 124 168 214 274 346 420 498
#     4  10  28  48  84 119 162 222 277 346 411 509
#     4  12  32  52  82 122 172 222 286 352 414 506
#     4  12  30  52  80 124 168 228 282 348 422 492
#     4  10  28  48  84 119 162 222 277 346 411 509
#
# _framework density 28.119582999999999
#
# number of rings (size 3 to 8) (size 9 to 14) (size 15 to 20)
#    1.200    0.000    0.000    1.200   19.600    1.600 
#    0.000    0.000    0.000    0.000    0.000    0.000 
#    0.000    0.000    0.000    0.000    0.000    0.000 
#
# Total GULP energy -55948.181261 kJ/mol
# GULP energy per Si atom -5594.818126 kJ/mol
# Density = 2.805558 g / cm^3
# Si number density = 28.119583 Si / 1000 Ang^3
#
#
#
# Elastic Constant Matrix: (Units=GPa)
#
#
# Indices 1 2 3 4 5 6 
#
# 1 134.6658 50.2282 29.2720 0.0000 -17.4111 0.0000
# 2 50.2282 180.7462 32.0018 0.0000 -6.4200 0.0000
# 3 29.2720 32.0018 121.6228 0.0000 -7.9701 0.0000
# 4 0.0000 0.0000 0.0000 33.0688 0.0000 8.2221
# 5 -17.4111 -6.4200 -7.9701 0.0000 46.7001 0.0000
# 6 0.0000 0.0000 0.0000 8.2221 0.0000 69.9362
#
#
#
# Elastic Compliance Matrix: (Units=1/GPa)
#
#
# Indices 1 2 3 4 5 6 
#
# 1 0.008880 -0.002122 -0.001397 0.000000 0.002781 0.000000
# 2 -0.002122 0.006324 -0.001161 0.000000 -0.000120 0.000000
# 3 -0.001397 -0.001161 0.008919 0.000000 0.000842 0.000000
# 4 0.000000 0.000000 0.000000 0.031151 0.000000 -0.003662
# 5 0.002781 -0.000120 0.000842 0.000000 0.022577 0.000000
# 6 0.000000 0.000000 0.000000 -0.003662 0.000000 0.014729
#
#
# Mechanical properties :
#
#
# Convention : Reuss Voigt Hill
#
# Bulk Modulus (GPa) = 67.73379 73.33763 70.53571
# Shear Modulus (GPa) = 46.79009 51.64320 49.21664
#
# Velocity S-wave (km/s) = 4.08360 4.29016 4.18815
# Velocity P-wave (km/s) = 6.80988 7.11884 6.96607
#
# Compressibility (1/GPa) = 0.01476368
#
# Stress axis : x y z
#
# Youngs Moduli (GPa) = 112.60882 158.13924 112.12027
#
# Poissons Ratio (x) = 0.33552 0.15661
# Poissons Ratio (y) = 0.23892 0.13018
# Poissons Ratio (z) = 0.15729 0.18361
#
# Static dielectric constant tensor:
#      x y z
#    x 2.442070 0.000000 -0.210940 
#    y 0.000000 2.624160 0.000000 
#    z -0.210940 0.000000 2.390270 
# 
# From -- ./inp_files/13156.got.cif
#   From: 2010.05.17/outbox.cif.g08.bks.cpg/sg4_7_cif.got.tgz:13156.got - 2010.06.03 18:43:04.
