data_PCOD9118297
_publ_section_title
;
Structure prediction by ZEFSAII (Michael W. Deem and Ramdas Pophale) SiO2 
 PCOD9118297
Probable space group: P 21
;
_chemical_formula_sum "Si O2"
_cell_formula_units_Z 16
_cell_length_a 11.633487
_cell_length_b 7.647948
_cell_length_c 11.612043
_cell_angle_alpha 90.000000
_cell_angle_beta 139.438643
_cell_angle_gamma 90.000000
_cell_volume 671.818305
_symmetry_space_group_name_H-M "P 21"
_symmetry_group_IT_number 4
_symmetry_cell_setting 'monoclinic'
loop_
_space_group_symop_operation_xyz
x,y,z
-x,1/2+y,-z
loop_
_atom_site_type_symbol
_atom_site_label
_atom_site_fract_x
_atom_site_fract_y
_atom_site_fract_z
Si Si1 0.356297 0.123670 0.510877
Si Si2 0.106150 0.661905 0.331198
Si Si3 0.164877 0.424717 0.783600
Si Si4 0.258852 0.991434 0.026708
Si Si5 0.319659 0.842968 0.303119
Si Si6 0.840359 0.865734 0.466119
Si Si7 0.238425 0.819874 0.776318
Si Si8 0.464127 0.336489 0.190207
O O1 0.480474 0.282188 0.564522
O O2 0.216488 0.209619 0.492401
O O3 0.288486 0.025151 0.346000
O O4 0.471367 0.972881 0.664015
O O5 0.230011 0.705113 0.319355
O O6 0.206153 0.543113 0.500643
O O7 0.020263 0.835421 0.322396
O O8 0.934664 0.563125 0.151164
O O9 0.232837 0.331770 0.717407
O O10 0.175080 0.625628 0.758469
O O11 0.296544 0.404811 0.990305
O O12 0.392270 0.143991 0.169214
O O13 0.241830 0.854381 0.116249
O O14 0.320323 0.908428 0.952795
O O15 0.048875 0.903469 0.603241
O O16 0.376891 0.824585 0.779915
#
# Coordination Sequence:
#
# PCOD9118297 Si02
#       8
#     2   2   2   2   2   2   2   2
#     4  12  28  44  70 102 138 190 236 288 350 422
#     4  10  25  45  68 102 136 182 235 285 347 420
#     4  11  24  42  72 104 142 180 227 294 358 420
#     4  10  25  45  68 102 136 182 235 285 347 420
#     4  12  26  46  68  94 142 186 232 282 344 418
#     4  11  26  43  71 105 141 178 236 289 358 418
#     4  11  24  42  72 104 142 180 227 294 358 420
#     4  11  26  43  71 105 141 178 236 289 358 418
#
# _framework density 23.815963
#
# number of rings (size 3 to 8) (size 9 to 14) (size 15 to 20)
#    0.000    1.000    0.000    4.500   15.750    5.000 
#    0.000    0.000    0.000    0.000    0.000    0.000 
#    0.000    0.000    0.000    0.000    0.000    0.000 
#
# Total GULP energy -89499.812060 kJ/mol
# GULP energy per Si atom -5593.738254 kJ/mol
# Density = 2.376176 g / cm^3
# Si number density = 23.815963 Si / 1000 Ang^3
#
#
#
# Elastic Constant Matrix: (Units=GPa)
#
#
# Indices 1 2 3 4 5 6 
#
# 1 106.6200 5.2506 15.1405 0.0000 -9.1729 0.0000
# 2 5.2506 56.6314 -6.4045 0.0000 -5.6723 0.0000
# 3 15.1405 -6.4045 56.7037 0.0000 -14.4952 0.0000
# 4 0.0000 0.0000 0.0000 36.0058 0.0000 -8.3364
# 5 -9.1729 -5.6723 -14.4952 0.0000 28.6771 0.0000
# 6 0.0000 0.0000 0.0000 -8.3364 0.0000 49.5664
#
#
#
# Elastic Compliance Matrix: (Units=1/GPa)
#
#
# Indices 1 2 3 4 5 6 
#
# 1 0.009910 -0.000997 -0.002295 0.000000 0.001813 0.000000
# 2 -0.000997 0.018699 0.003723 0.000000 0.005262 0.000000
# 3 -0.002295 0.003723 0.021440 0.000000 0.010839 0.000000
# 4 0.000000 0.000000 0.000000 0.028899 0.000000 0.004860
# 5 0.001813 0.005262 0.010839 0.000000 0.041970 0.000000
# 6 0.000000 0.000000 0.000000 0.004860 0.000000 0.020992
#
#
# Mechanical properties :
#
#
# Convention : Reuss Voigt Hill
#
# Bulk Modulus (GPa) = 19.64241 27.54759 23.59500
# Shear Modulus (GPa) = 31.64195 36.58108 34.11152
#
# Velocity S-wave (km/s) = 3.64895 3.92342 3.78867
# Velocity P-wave (km/s) = 5.10085 5.66712 5.39143
#
# Compressibility (1/GPa) = 0.05091024
#
# Stress axis : x y z
#
# Youngs Moduli (GPa) = 100.90737 53.48009 46.64233
#
# Poissons Ratio (x) = 0.05331 0.10706
# Poissons Ratio (y) = 0.10059 -0.17366
# Poissons Ratio (z) = 0.23162 -0.19911
#
# Static dielectric constant tensor:
#      x y z
#    x 1.847990 0.000000 -0.001880 
#    y 0.000000 1.965350 0.000000 
#    z -0.001880 0.000000 1.908210 
# 
# From -- ./inp_files/12138.got.cif
#   From: 2010.05.17/outbox.cif.g08.bks.cpg/sg4_7_cif.got.tgz:12138.got - 2010.06.03 18:43:04.
