data_PCOD9118046
_publ_section_title
;
Structure prediction by ZEFSAII (Michael W. Deem and Ramdas Pophale) SiO2 
 PCOD9118046
Probable space group: P 21
;
_chemical_formula_sum "Si O2"
_cell_formula_units_Z 14
_cell_length_a 5.656223
_cell_length_b 13.059858
_cell_length_c 7.885207
_cell_angle_alpha 90.000000
_cell_angle_beta 89.296662
_cell_angle_gamma 90.000000
_cell_volume 582.432170
_symmetry_space_group_name_H-M "P 21"
_symmetry_group_IT_number 4
_symmetry_cell_setting 'monoclinic'
loop_
_space_group_symop_operation_xyz
x,y,z
-x,1/2+y,-z
loop_
_atom_site_type_symbol
_atom_site_label
_atom_site_fract_x
_atom_site_fract_y
_atom_site_fract_z
Si Si1 0.356707 0.354980 0.528719
Si Si2 0.078469 0.546299 0.517408
Si Si3 0.593860 0.618968 0.366850
Si Si4 0.793878 0.149445 0.155040
Si Si5 0.791635 0.616523 0.001410
Si Si6 0.450240 0.956952 0.160396
Si Si7 0.562776 0.815093 0.853765
O O1 0.131942 0.428267 0.567696
O O2 0.356641 0.234550 0.568137
O O3 0.546911 0.401236 0.660278
O O4 0.390623 0.365672 0.326996
O O5 0.330994 0.583220 0.428529
O O6 0.057735 0.621040 0.679500
O O7 0.827561 0.555951 0.425191
O O8 0.624141 0.617649 0.164299
O O9 0.692886 0.262309 0.161777
O O10 0.591309 0.063850 0.172654
O O11 0.930275 0.134075 0.977400
O O12 0.786125 0.504086 0.915741
O O13 0.727693 0.718063 0.894133
O O14 0.567228 0.887327 0.016084
#
# Coordination Sequence:
#
# PCOD9118046 Si02
#       7
#     2   2   2   2   2   2   2
#     4  11  24  47  76 108 148 199 249 304 377 443
#     4  11  27  48  75 108 149 195 254 307 367 444
#     4  12  26  49  76 111 152 200 248 308 376 442
#     4  10  24  44  68 102 144 191 238 313 363 439
#     4  11  25  44  71 101 152 188 244 312 364 444
#     4  10  24  45  67 106 142 187 249 300 374 438
#     4  11  22  45  71 100 143 188 250 294 379 436
#
# _framework density 24.037133000000001
#
# number of rings (size 3 to 8) (size 9 to 14) (size 15 to 20)
#    0.000    1.143    2.857    1.714   10.000    2.286 
#    7.714    0.000    0.000    0.000    0.000    0.000 
#    0.000    0.000    0.000    0.000    0.000    0.000 
#
# Total GULP energy -78085.353513 kJ/mol
# GULP energy per Si atom -5577.525251 kJ/mol
# Density = 2.398242 g / cm^3
# Si number density = 24.037133 Si / 1000 Ang^3
#
#
#
# Elastic Constant Matrix: (Units=GPa)
#
#
# Indices 1 2 3 4 5 6 
#
# 1 75.2997 16.2898 22.3071 0.0000 -15.7595 0.0000
# 2 16.2898 105.4527 18.2152 0.0000 4.5819 0.0000
# 3 22.3071 18.2152 104.1217 0.0000 2.9235 0.0000
# 4 0.0000 0.0000 0.0000 40.9637 0.0000 -5.9848
# 5 -15.7595 4.5819 2.9235 0.0000 35.4762 0.0000
# 6 0.0000 0.0000 0.0000 -5.9848 0.0000 22.0989
#
#
#
# Elastic Compliance Matrix: (Units=1/GPa)
#
#
# Indices 1 2 3 4 5 6 
#
# 1 0.016411 -0.002301 -0.003334 0.000000 0.007862 0.000000
# 2 -0.002301 0.010146 -0.001219 0.000000 -0.002232 0.000000
# 3 -0.003334 -0.001219 0.010593 0.000000 -0.002197 0.000000
# 4 0.000000 0.000000 0.000000 0.025418 0.000000 0.006884
# 5 0.007862 -0.002232 -0.002197 0.000000 0.032150 0.000000
# 6 0.000000 0.000000 0.000000 0.006884 0.000000 0.047115
#
#
# Mechanical properties :
#
#
# Convention : Reuss Voigt Hill
#
# Bulk Modulus (GPa) = 42.65861 44.27757 43.46809
# Shear Modulus (GPa) = 30.60798 34.91188 32.75993
#
# Velocity S-wave (km/s) = 3.57229 3.81519 3.69574
# Velocity P-wave (km/s) = 5.89920 6.15370 6.02779
#
# Compressibility (1/GPa) = 0.02344193
#
# Stress axis : x y z
#
# Youngs Moduli (GPa) = 60.93389 98.56154 94.39787
#
# Poissons Ratio (x) = 0.22677 0.31474
# Poissons Ratio (y) = 0.14020 0.11510
# Poissons Ratio (z) = 0.20317 0.12018
#
# Static dielectric constant tensor:
#      x y z
#    x 2.123650 0.000000 0.082980 
#    y 0.000000 1.892270 0.000000 
#    z 0.082980 0.000000 2.062520 
# 
# From -- ./inp_files/4602.got.cif
#   From: 2010.05.17/outbox.cif.g08.bks.cpg/sg4_3_cif.got.tgz:4602.got - 2010.06.03 18:43:04.
