data_PCOD9118313
_publ_section_title
;
Structure prediction by ZEFSAII (Michael W. Deem and Ramdas Pophale) SiO2 
 PCOD9118313
Probable space group: P 21
;
_chemical_formula_sum "Si O2"
_cell_formula_units_Z 16
_cell_length_a 9.220275
_cell_length_b 10.191934
_cell_length_c 11.921473
_cell_angle_alpha 90.000000
_cell_angle_beta 42.803049
_cell_angle_gamma 90.000000
_cell_volume 761.214930
_symmetry_space_group_name_H-M "P 21"
_symmetry_group_IT_number 4
_symmetry_cell_setting 'monoclinic'
loop_
_space_group_symop_operation_xyz
x,y,z
-x,1/2+y,-z
loop_
_atom_site_type_symbol
_atom_site_label
_atom_site_fract_x
_atom_site_fract_y
_atom_site_fract_z
Si Si1 0.267694 0.635850 0.555066
Si Si2 0.594509 0.207014 0.863604
Si Si3 0.109609 0.189177 0.058470
Si Si4 0.776931 0.378879 0.582677
Si Si5 0.247919 0.462846 0.354962
Si Si6 0.353134 0.776166 0.914796
Si Si7 0.033423 0.429496 0.949857
Si Si8 0.542469 0.067375 0.334471
O O1 0.287357 0.762975 0.466003
O O2 0.255452 0.512867 0.478714
O O3 0.454087 0.620704 0.541176
O O4 0.052673 0.651593 0.750155
O O5 0.672847 0.341954 0.761255
O O6 0.737516 0.092414 0.729718
O O7 0.351205 0.185874 0.963187
O O8 0.615728 0.207684 0.984141
O O9 0.052463 0.334547 0.046419
O O10 0.071454 0.075345 0.986092
O O11 0.675885 0.510092 0.588928
O O12 0.029565 0.388338 0.453163
O O13 0.454562 0.378039 0.210099
O O14 0.374345 0.677042 0.798853
O O15 0.127184 0.850552 0.039310
O O16 0.274856 0.454278 0.772190
#
# Coordination Sequence:
#
# PCOD9118313 Si02
#       8
#     2   2   2   2   2   2   2   2
#     4  10  25  46  67 101 136 187 223 289 357 408
#     4  11  26  43  72 103 132 190 229 285 342 414
#     4  11  22  46  72 102 143 179 238 288 341 421
#     4  11  26  47  66 102 143 179 229 285 352 415
#     4  11  27  46  69 102 141 182 225 292 357 413
#     4  12  26  45  73 104 134 183 242 284 347 419
#     4  11  22  44  69 104 134 180 235 290 338 407
#     4  11  26  43  72 102 137 184 233 287 346 419
#
# _framework density 21.019030000000001
#
# number of rings (size 3 to 8) (size 9 to 14) (size 15 to 20)
#    0.000    1.000    5.000    0.750   12.250    1.000 
#    2.250    0.000    0.000    0.000    0.000    0.000 
#    0.000    0.000    0.000    0.000    0.000    0.000 
#
# Total GULP energy -89397.532632 kJ/mol
# GULP energy per Si atom -5587.345790 kJ/mol
# Density = 2.097119 g / cm^3
# Si number density = 21.019030 Si / 1000 Ang^3
#
#
#
# Elastic Constant Matrix: (Units=GPa)
#
#
# Indices 1 2 3 4 5 6 
#
# 1 84.6224 16.3191 8.8322 0.0000 10.6238 0.0000
# 2 16.3191 56.1881 5.1074 0.0000 16.7388 0.0000
# 3 8.8322 5.1074 43.5140 0.0000 15.1925 0.0000
# 4 0.0000 0.0000 0.0000 23.3096 0.0000 -3.9093
# 5 10.6238 16.7388 15.1925 0.0000 41.5294 0.0000
# 6 0.0000 0.0000 0.0000 -3.9093 0.0000 31.3883
#
#
#
# Elastic Compliance Matrix: (Units=1/GPa)
#
#
# Indices 1 2 3 4 5 6 
#
# 1 0.012777 -0.003147 -0.001749 0.000000 -0.001360 0.000000
# 2 -0.003147 0.021012 0.000972 0.000000 -0.008020 0.000000
# 3 -0.001749 0.000972 0.026600 0.000000 -0.009676 0.000000
# 4 0.000000 0.000000 0.000000 0.043816 0.000000 0.005457
# 5 -0.001360 -0.008020 -0.009676 0.000000 0.031199 0.000000
# 6 0.000000 0.000000 0.000000 0.005457 0.000000 0.032539
#
#
# Mechanical properties :
#
#
# Convention : Reuss Voigt Hill
#
# Bulk Modulus (GPa) = 19.03210 27.20464 23.11837
# Shear Modulus (GPa) = 25.86591 29.51652 27.69122
#
# Velocity S-wave (km/s) = 3.51179 3.75143 3.63359
# Velocity P-wave (km/s) = 5.05153 5.63341 5.35038
#
# Compressibility (1/GPa) = 0.05254280
#
# Stress axis : x y z
#
# Youngs Moduli (GPa) = 78.26324 47.59167 37.59381
#
# Poissons Ratio (x) = 0.14976 0.06576
# Poissons Ratio (y) = 0.24627 -0.03656
# Poissons Ratio (z) = 0.13689 -0.04628
#
# Static dielectric constant tensor:
#      x y z
#    x 1.749470 0.000000 0.013390 
#    y 0.000000 1.787210 0.000000 
#    z 0.013390 0.000000 1.725830 
# 
# From -- ./inp_files/11021.got.cif
#   From: 2010.05.17/outbox.cif.g08.bks.cpg/sg4_6_cif.got.tgz:11021.got - 2010.06.03 18:43:04.
