data_PCOD9118007
_publ_section_title
;
Structure prediction by ZEFSAII (Michael W. Deem and Ramdas Pophale) SiO2 
 PCOD9118007
Probable space group: P 21
;
_chemical_formula_sum "Si O2"
_cell_formula_units_Z 14
_cell_length_a 9.731617
_cell_length_b 5.642894
_cell_length_c 19.487185
_cell_angle_alpha 90.000000
_cell_angle_beta 144.180284
_cell_angle_gamma 90.000000
_cell_volume 626.278622
_symmetry_space_group_name_H-M "P 21"
_symmetry_group_IT_number 4
_symmetry_cell_setting 'monoclinic'
loop_
_space_group_symop_operation_xyz
x,y,z
-x,1/2+y,-z
loop_
_atom_site_type_symbol
_atom_site_label
_atom_site_fract_x
_atom_site_fract_y
_atom_site_fract_z
Si Si1 0.485445 0.599160 0.780317
Si Si2 0.898390 0.858792 0.305759
Si Si3 0.181379 0.611936 0.866561
Si Si4 0.080402 0.877739 0.003504
Si Si5 0.250203 0.296169 0.242332
Si Si6 0.444635 0.955929 0.514057
Si Si7 0.583021 0.474391 0.134893
O O1 0.219323 0.521598 0.683696
O O2 0.571808 0.684938 0.741410
O O3 0.533663 0.792918 0.858598
O O4 0.643466 0.379353 0.870856
O O5 0.778335 0.604512 0.260843
O O6 0.174239 0.890618 0.418605
O O7 0.802586 0.932157 0.190848
O O8 0.257996 0.852789 0.859903
O O9 0.912149 0.609090 0.782629
O O10 0.363876 0.575984 0.002327
O O11 0.957061 0.934889 0.881455
O O12 0.004154 0.110864 0.015582
O O13 0.397596 0.452415 0.353866
O O14 0.536352 0.721117 0.509686
#
# Coordination Sequence:
#
# PCOD9118007 Si02
#       7
#     2   2   2   2   2   2   2
#     4  10  26  43  67 110 146 186 232 306 365 440
#     4  11  24  46  71  98 147 184 240 300 355 425
#     4  11  22  41  69 103 137 187 237 294 357 433
#     4  10  24  43  69 106 152 184 228 292 362 430
#     4  11  25  46  73 107 142 195 241 298 366 429
#     4  12  28  52  76 106 141 194 253 301 348 433
#     4  11  23  41  67 104 141 186 237 295 367 426
#
# _framework density 22.354268000000001
#
# number of rings (size 3 to 8) (size 9 to 14) (size 15 to 20)
#    0.000    1.143    2.857    1.714   16.000    3.429 
#    2.571    0.000    0.000    0.000    0.000    0.000 
#    0.000    0.000    0.000    0.000    0.000    0.000 
#
# Total GULP energy -78036.055373 kJ/mol
# GULP energy per Si atom -5574.003955 kJ/mol
# Density = 2.230339 g / cm^3
# Si number density = 22.354268 Si / 1000 Ang^3
#
#
#
# Elastic Constant Matrix: (Units=GPa)
#
#
# Indices 1 2 3 4 5 6 
#
# 1 119.5840 8.6071 -0.7338 0.0000 11.0360 0.0000
# 2 8.6071 40.1080 -17.2104 0.0000 1.9702 0.0000
# 3 -0.7338 -17.2104 58.9001 0.0000 9.3838 0.0000
# 4 0.0000 0.0000 0.0000 18.9899 0.0000 9.6358
# 5 11.0360 1.9702 9.3838 0.0000 43.8099 0.0000
# 6 0.0000 0.0000 0.0000 9.6358 0.0000 21.0406
#
#
#
# Elastic Compliance Matrix: (Units=1/GPa)
#
#
# Indices 1 2 3 4 5 6 
#
# 1 0.008684 -0.001797 -0.000084 0.000000 -0.002089 0.000000
# 2 -0.001797 0.029312 0.008987 0.000000 -0.002790 0.000000
# 3 -0.000084 0.008987 0.020359 0.000000 -0.004744 0.000000
# 4 0.000000 0.000000 0.000000 0.068601 0.000000 -0.031417
# 5 -0.002089 -0.002790 -0.004744 0.000000 0.024494 0.000000
# 6 0.000000 0.000000 0.000000 -0.031417 0.000000 0.061915
#
#
# Mechanical properties :
#
#
# Convention : Reuss Voigt Hill
#
# Bulk Modulus (GPa) = 13.78062 22.21311 17.99686
# Shear Modulus (GPa) = 22.38737 31.96337 27.17537
#
# Velocity S-wave (km/s) = 3.16805 3.78545 3.49043
# Velocity P-wave (km/s) = 4.42268 5.39115 4.93075
#
# Compressibility (1/GPa) = 0.07256565
#
# Stress axis : x y z
#
# Youngs Moduli (GPa) = 115.15546 34.11605 49.11947
#
# Poissons Ratio (x) = 0.06131 0.00413
# Poissons Ratio (y) = 0.20694 -0.44143
# Poissons Ratio (z) = 0.00969 -0.30660
#
# Static dielectric constant tensor:
#      x y z
#    x 1.896380 0.000000 0.007290 
#    y 0.000000 1.963470 0.000000 
#    z 0.007290 0.000000 1.802430 
# 
# From -- ./inp_files/7225.got.cif
#   From: 2010.05.17/outbox.cif.g08.bks.cpg/sg4_4_cif.got.tgz:7225.got - 2010.06.03 18:43:04.
