data_PCOD9118636
_publ_section_title
;
Structure prediction by ZEFSAII (Michael W. Deem and Ramdas Pophale) SiO2 
 PCOD9118636
Probable space group: P 21
;
_chemical_formula_sum "Si O2"
_cell_formula_units_Z 16
_cell_length_a 17.373371
_cell_length_b 6.722914
_cell_length_c 10.912426
_cell_angle_alpha 90.000000
_cell_angle_beta 32.681437
_cell_angle_gamma 90.000000
_cell_volume 688.225416
_symmetry_space_group_name_H-M "P 21"
_symmetry_group_IT_number 4
_symmetry_cell_setting 'monoclinic'
loop_
_space_group_symop_operation_xyz
x,y,z
-x,1/2+y,-z
loop_
_atom_site_type_symbol
_atom_site_label
_atom_site_fract_x
_atom_site_fract_y
_atom_site_fract_z
Si Si1 0.623212 0.563590 0.679953
Si Si2 0.378995 0.876046 0.057371
Si Si3 0.740812 0.711285 0.108421
Si Si4 0.013804 0.893137 0.196627
Si Si5 0.789723 0.881395 0.310058
Si Si6 0.940220 0.994217 0.739562
Si Si7 0.888503 0.139768 0.556736
Si Si8 0.521023 0.176027 0.685393
O O1 0.656852 0.446404 0.758414
O O2 0.745114 0.687333 0.449251
O O3 0.556249 0.399752 0.678771
O O4 0.514004 0.732774 0.870035
O O5 0.250154 0.731438 0.195140
O O6 0.417191 0.062309 0.921030
O O7 0.779689 0.812593 0.184388
O O8 0.574289 0.668965 0.310183
O O9 0.842865 0.517928 0.965824
O O10 0.790609 0.875994 0.941862
O O11 0.943228 0.939006 0.160024
O O12 0.050850 0.665376 0.173087
O O13 0.891482 0.955289 0.460363
O O14 0.669117 0.052836 0.485500
O O15 0.979703 0.079576 0.552943
O O16 0.047278 0.812586 0.613726
#
# Coordination Sequence:
#
# PCOD9118636 Si02
#       8
#     2   2   2   2   2   2   2   2
#     4  11  23  41  68 101 136 178 219 278 341 400
#     4  11  22  38  67 102 137 174 216 272 345 403
#     4  11  28  47  70 100 134 187 233 278 339 402
#     4  11  25  46  70 101 141 177 227 286 337 406
#     4  11  28  47  70 100 134 187 233 278 339 402
#     4  11  23  41  68 101 136 178 219 278 341 400
#     4  11  22  38  67 102 137 174 216 272 345 403
#     4  11  25  46  70 101 141 177 227 286 337 406
#
# _framework density 23.248196
#
# number of rings (size 3 to 8) (size 9 to 14) (size 15 to 20)
#    0.000    1.000    2.500    3.000    7.000    5.000 
#    0.000    0.000    0.000    0.000    0.000    0.000 
#    0.000    0.000    0.000    0.000    0.000    0.000 
#
# Total GULP energy -89365.235801 kJ/mol
# GULP energy per Si atom -5585.327238 kJ/mol
# Density = 2.319528 g / cm^3
# Si number density = 23.248196 Si / 1000 Ang^3
#
#
#
# Elastic Constant Matrix: (Units=GPa)
#
#
# Indices 1 2 3 4 5 6 
#
# 1 91.6982 31.9143 -15.7136 0.0000 -6.5510 0.0000
# 2 31.9143 105.7214 15.9925 0.0000 -7.3718 0.0000
# 3 -15.7136 15.9925 13.3436 0.0000 -1.0628 0.0000
# 4 0.0000 0.0000 0.0000 20.5695 0.0000 2.0812
# 5 -6.5510 -7.3718 -1.0628 0.0000 30.8729 0.0000
# 6 0.0000 0.0000 0.0000 2.0812 0.0000 34.2638
#
#
#
# Elastic Compliance Matrix: (Units=1/GPa)
#
#
# Indices 1 2 3 4 5 6 
#
# 1 0.023336 -0.013453 0.043864 0.000000 0.003249 0.000000
# 2 -0.013453 0.019473 -0.039146 0.000000 0.000447 0.000000
# 3 0.043864 -0.039146 0.173987 0.000000 0.005950 0.000000
# 4 0.000000 0.000000 0.000000 0.048916 0.000000 -0.002971
# 5 0.003249 0.000447 0.005950 0.000000 0.033392 0.000000
# 6 0.000000 0.000000 0.000000 -0.002971 0.000000 0.029366
#
#
# Mechanical properties :
#
#
# Convention : Reuss Voigt Hill
#
# Bulk Modulus (GPa) = 5.01689 30.57218 17.79454
# Shear Modulus (GPa) = 12.12466 29.04591 20.58529
#
# Velocity S-wave (km/s) = 2.28618 3.53850 2.97889
# Velocity P-wave (km/s) = 3.02184 5.46567 4.41616
#
# Compressibility (1/GPa) = 0.19932662
#
# Stress axis : x y z
#
# Youngs Moduli (GPa) = 42.85171 51.35382 5.74754
#
# Poissons Ratio (x) = 0.69088 -0.25211
# Poissons Ratio (y) = 0.57650 0.22499
# Poissons Ratio (z) = -1.87964 2.01027
#
# Static dielectric constant tensor:
#      x y z
#    x 1.890040 0.000000 -0.016490 
#    y 0.000000 1.887520 0.000000 
#    z -0.016490 0.000000 1.910800 
# 
# From -- ./inp_files/12790.got.cif
#   From: 2010.05.17/outbox.cif.g08.bks.cpg/sg4_7_cif.got.tgz:12790.got - 2010.06.03 18:43:04.
