data_PCOD9118929
_publ_section_title
;
Structure prediction by ZEFSAII (Michael W. Deem and Ramdas Pophale) SiO2 
 PCOD9118929
Probable space group: P 21
;
_chemical_formula_sum "Si O2"
_cell_formula_units_Z 16
_cell_length_a 9.236034
_cell_length_b 10.862771
_cell_length_c 8.745219
_cell_angle_alpha 90.000000
_cell_angle_beta 132.925470
_cell_angle_gamma 90.000000
_cell_volume 642.466397
_symmetry_space_group_name_H-M "P 21"
_symmetry_group_IT_number 4
_symmetry_cell_setting 'monoclinic'
loop_
_space_group_symop_operation_xyz
x,y,z
-x,1/2+y,-z
loop_
_atom_site_type_symbol
_atom_site_label
_atom_site_fract_x
_atom_site_fract_y
_atom_site_fract_z
Si Si1 0.551266 0.339220 0.622325
Si Si2 0.304861 0.442850 0.687219
Si Si3 0.875144 0.523066 0.870045
Si Si4 0.881986 0.444137 0.523576
Si Si5 0.565939 0.579075 0.111907
Si Si6 0.222045 0.693283 0.443204
Si Si7 0.768844 0.728759 0.013568
Si Si8 0.319265 0.488590 0.199856
O O1 0.386517 0.337074 0.634376
O O2 0.751188 0.402774 0.830385
O O3 0.626739 0.219360 0.587717
O O4 0.461290 0.438319 0.435629
O O5 0.264907 0.567994 0.560981
O O6 0.099597 0.414262 0.620683
O O7 0.469331 0.480221 0.927826
O O8 0.888778 0.508853 0.695689
O O9 0.759427 0.637389 0.860162
O O10 0.099580 0.527166 0.092810
O O11 0.772276 0.532800 0.328032
O O12 0.756003 0.318078 0.440511
O O13 0.618498 0.691551 0.039197
O O14 0.418993 0.582438 0.151475
O O15 0.993820 0.710464 0.231068
O O16 0.729011 0.864429 0.928778
#
# Coordination Sequence:
#
# PCOD9118929 Si02
#       8
#     2   2   2   2   2   2   2   2
#     4  11  24  43  70  97 138 182 228 278 344 404
#     4  12  24  46  71 102 137 185 229 282 342 410
#     4  11  23  45  70 101 138 178 228 286 340 403
#     4  11  24  47  69 100 146 174 225 294 340 402
#     4  12  24  41  74 101 137 184 229 281 346 406
#     4  11  23  48  71  96 143 184 221 292 345 399
#     4  12  24  45  76 100 137 187 229 284 347 407
#     4  12  24  47  69  99 144 182 223 291 340 409
#
# _framework density 24.904026999999999
#
# number of rings (size 3 to 8) (size 9 to 14) (size 15 to 20)
#    0.000    0.500    8.750    1.500    0.000    0.000 
#    2.250    6.250    0.000    0.000    0.000    0.000 
#    0.000    0.000    0.000    0.000    0.000    0.000 
#
# Total GULP energy -89599.868954 kJ/mol
# GULP energy per Si atom -5599.991810 kJ/mol
# Density = 2.484734 g / cm^3
# Si number density = 24.904027 Si / 1000 Ang^3
#
#
#
# Elastic Constant Matrix: (Units=GPa)
#
#
# Indices 1 2 3 4 5 6 
#
# 1 171.2360 29.3458 29.7728 0.0000 -8.7998 0.0000
# 2 29.3458 90.6194 -1.1958 0.0000 -15.6049 0.0000
# 3 29.7728 -1.1958 82.4225 0.0000 18.2825 0.0000
# 4 0.0000 0.0000 0.0000 36.3712 0.0000 -2.2493
# 5 -8.7998 -15.6049 18.2825 0.0000 40.9914 0.0000
# 6 0.0000 0.0000 0.0000 -2.2493 0.0000 53.7345
#
#
#
# Elastic Compliance Matrix: (Units=1/GPa)
#
#
# Indices 1 2 3 4 5 6 
#
# 1 0.006777 -0.001881 -0.002929 0.000000 0.002045 0.000000
# 2 -0.001881 0.012394 -0.000108 0.000000 0.004363 0.000000
# 3 -0.002929 -0.000108 0.014802 0.000000 -0.007272 0.000000
# 4 0.000000 0.000000 0.000000 0.027566 0.000000 0.001154
# 5 0.002045 0.004363 -0.007272 0.000000 0.029739 0.000000
# 6 0.000000 0.000000 0.000000 0.001154 0.000000 0.018658
#
#
# Mechanical properties :
#
#
# Convention : Reuss Voigt Hill
#
# Bulk Modulus (GPa) = 41.43144 51.12486 46.27815
# Shear Modulus (GPa) = 39.11841 45.30975 42.21408
#
# Velocity S-wave (km/s) = 3.96759 4.27004 4.12159
# Velocity P-wave (km/s) = 6.13690 6.69957 6.42440
#
# Compressibility (1/GPa) = 0.02413626
#
# Stress axis : x y z
#
# Youngs Moduli (GPa) = 147.56755 80.68316 67.55867
#
# Poissons Ratio (x) = 0.15176 0.19786
# Poissons Ratio (y) = 0.27757 0.00733
# Poissons Ratio (z) = 0.43218 0.00875
#
# Static dielectric constant tensor:
#      x y z
#    x 1.985080 0.000000 -0.023860 
#    y 0.000000 1.957060 0.000000 
#    z -0.023860 0.000000 1.971000 
# 
# From -- ./inp_files/6405.got.cif
#   From: 2010.05.17/outbox.cif.g08.bks.cpg/sg4_4_cif.got.tgz:6405.got - 2010.06.03 18:43:04.
