data_PCOD9118388
_publ_section_title
;
Structure prediction by ZEFSAII (Michael W. Deem and Ramdas Pophale) SiO2 
 PCOD9118388
Probable space group: P 21
;
_chemical_formula_sum "Si O2"
_cell_formula_units_Z 16
_cell_length_a 23.043796
_cell_length_b 4.976580
_cell_length_c 14.356034
_cell_angle_alpha 90.000000
_cell_angle_beta 158.285664
_cell_angle_gamma 90.000000
_cell_volume 609.111540
_symmetry_space_group_name_H-M "P 21"
_symmetry_group_IT_number 4
_symmetry_cell_setting 'monoclinic'
loop_
_space_group_symop_operation_xyz
x,y,z
-x,1/2+y,-z
loop_
_atom_site_type_symbol
_atom_site_label
_atom_site_fract_x
_atom_site_fract_y
_atom_site_fract_z
Si Si1 0.577774 0.683540 0.356518
Si Si2 0.572730 0.936808 0.554691
Si Si3 0.847948 0.571622 0.482781
Si Si4 0.752975 0.201671 0.177141
Si Si5 0.910956 0.765893 0.077499
Si Si6 0.411463 0.430208 0.827943
Si Si7 0.096060 0.923446 0.113636
Si Si8 0.935096 0.430986 0.295887
O O1 0.553958 0.838226 0.419325
O O2 0.600465 0.874688 0.299978
O O3 0.728329 0.490397 0.588890
O O4 0.409453 0.549654 0.080654
O O5 0.508892 0.707486 0.530669
O O6 0.760970 0.955067 0.842632
O O7 0.754025 0.392943 0.268895
O O8 0.753069 0.831439 0.373426
O O9 0.917664 0.402699 0.671745
O O10 0.004348 0.663469 0.663036
O O11 0.789077 0.389769 0.143607
O O12 0.909120 0.024067 0.416884
O O13 0.899431 0.632724 0.160947
O O14 0.902332 0.529958 0.989388
O O15 0.469679 0.723526 0.942130
O O16 0.033238 0.622641 0.031898
#
# Coordination Sequence:
#
# PCOD9118388 Si02
#       8
#     2   2   2   2   2   2   2   2
#     4  11  26  46  76 106 151 188 244 306 359 432
#     4  11  27  49  73 107 143 189 243 300 359 424
#     4  11  24  43  71  99 149 185 239 289 359 429
#     4  11  22  44  63 112 137 196 234 292 361 430
#     4  10  26  42  71 101 133 188 236 293 358 418
#     4  12  27  47  70 108 150 189 239 291 359 433
#     4  11  27  51  74 103 139 188 245 294 366 426
#     4  11  23  40  72 100 150 185 238 291 359 434
#
# _framework density 26.267766999999999
#
# number of rings (size 3 to 8) (size 9 to 14) (size 15 to 20)
#    0.000    1.000    2.500    2.250    8.750    5.000 
#    6.750    0.000    0.000    0.000    0.000    0.000 
#    0.000    0.000    0.000    0.000    0.000    0.000 
#
# Total GULP energy -89696.393555 kJ/mol
# GULP energy per Si atom -5606.024597 kJ/mol
# Density = 2.620798 g / cm^3
# Si number density = 26.267767 Si / 1000 Ang^3
#
#
#
# Elastic Constant Matrix: (Units=GPa)
#
#
# Indices 1 2 3 4 5 6 
#
# 1 131.8989 9.7588 34.6375 0.0000 5.9985 0.0000
# 2 9.7588 58.8019 6.5778 0.0000 6.8172 0.0000
# 3 34.6375 6.5778 166.3770 0.0000 -1.7936 0.0000
# 4 0.0000 0.0000 0.0000 28.2257 0.0000 10.7159
# 5 5.9985 6.8172 -1.7936 0.0000 34.8161 0.0000
# 6 0.0000 0.0000 0.0000 10.7159 0.0000 34.7465
#
#
#
# Elastic Compliance Matrix: (Units=1/GPa)
#
#
# Indices 1 2 3 4 5 6 
#
# 1 0.008154 -0.001017 -0.001671 0.000000 -0.001292 0.000000
# 2 -0.001017 0.017616 -0.000520 0.000000 -0.003301 0.000000
# 3 -0.001671 -0.000520 0.006387 0.000000 0.000719 0.000000
# 4 0.000000 0.000000 0.000000 0.040127 0.000000 -0.012375
# 5 -0.001292 -0.003301 0.000719 0.000000 0.029628 0.000000
# 6 0.000000 0.000000 0.000000 -0.012375 0.000000 0.032596
#
#
# Mechanical properties :
#
#
# Convention : Reuss Voigt Hill
#
# Bulk Modulus (GPa) = 38.84952 51.00290 44.92621
# Shear Modulus (GPa) = 33.44354 39.96456 36.70405
#
# Velocity S-wave (km/s) = 3.57203 3.90478 3.74211
# Velocity P-wave (km/s) = 5.64220 6.30781 5.98427
#
# Compressibility (1/GPa) = 0.02574034
#
# Stress axis : x y z
#
# Youngs Moduli (GPa) = 122.63243 56.76700 156.57459
#
# Poissons Ratio (x) = 0.05771 0.26170
# Poissons Ratio (y) = 0.12466 0.08148
# Poissons Ratio (z) = 0.20497 0.02954
#
# Static dielectric constant tensor:
#      x y z
#    x 2.086190 0.000000 -0.016390 
#    y 0.000000 2.060650 0.000000 
#    z -0.016390 0.000000 2.087670 
# 
# From -- ./inp_files/14536.got.cif
#   From: 2010.05.17/outbox.cif.g08.bks.cpg/sg4_8_cif.got.tgz:14536.got - 2010.06.03 18:43:04.
