data_PCOD9118974
_publ_section_title
;
Structure prediction by ZEFSAII (Michael W. Deem and Ramdas Pophale) SiO2 
 PCOD9118974
Probable space group: P 21
;
_chemical_formula_sum "Si O2"
_cell_formula_units_Z 16
_cell_length_a 15.439920
_cell_length_b 7.793738
_cell_length_c 6.767240
_cell_angle_alpha 90.000000
_cell_angle_beta 117.098702
_cell_angle_gamma 90.000000
_cell_volume 724.938723
_symmetry_space_group_name_H-M "P 21"
_symmetry_group_IT_number 4
_symmetry_cell_setting 'monoclinic'
loop_
_space_group_symop_operation_xyz
x,y,z
-x,1/2+y,-z
loop_
_atom_site_type_symbol
_atom_site_label
_atom_site_fract_x
_atom_site_fract_y
_atom_site_fract_z
Si Si1 0.990136 0.070500 0.725873
Si Si2 0.873894 0.353741 0.377946
Si Si3 0.127329 0.292941 0.149288
Si Si4 0.381278 0.606473 0.462559
Si Si5 0.723790 0.603391 0.406662
Si Si6 0.480594 0.940072 0.720228
Si Si7 0.655704 0.930761 0.178503
Si Si8 0.216734 0.611932 0.007307
O O1 0.916663 0.216428 0.574422
O O2 0.050498 0.003311 0.599458
O O3 0.060500 0.160376 0.958553
O O4 0.933755 0.908828 0.759934
O O5 0.778528 0.441609 0.369119
O O6 0.854702 0.254187 0.151960
O O7 0.208968 0.185658 0.352753
O O8 0.170346 0.437893 0.045531
O O9 0.444164 0.752282 0.628937
O O10 0.447658 0.507369 0.374895
O O11 0.343379 0.482598 0.593123
O O12 0.289214 0.681999 0.249755
O O13 0.615749 0.554440 0.364665
O O14 0.705943 0.745958 0.219136
O O15 0.545787 0.933493 0.984624
O O16 0.717749 0.060549 0.112515
#
# Coordination Sequence:
#
# PCOD9118974 Si02
#       8
#     2   2   2   2   2   2   2   2
#     4  12  26  47  70 104 142 184 232 304 363 420
#     4  12  26  45  72 105 141 185 239 291 363 427
#     4  12  25  45  74 101 144 185 240 294 360 425
#     4  11  24  44  67 101 144 184 235 287 350 416
#     4  12  25  43  73 104 141 187 238 290 350 427
#     4  11  26  40  71  99 144 186 233 288 351 418
#     4  11  23  47  66 104 145 186 229 294 349 412
#     4  11  25  43  73 102 139 189 232 288 346 427
#
# _framework density 22.070830999999998
#
# number of rings (size 3 to 8) (size 9 to 14) (size 15 to 20)
#    0.000    0.500    1.250    6.750    5.250    4.000 
#    0.000    0.000    0.000    0.000    0.000    0.000 
#    0.000    0.000    0.000    0.000    0.000    0.000 
#
# Total GULP energy -89592.760866 kJ/mol
# GULP energy per Si atom -5599.547554 kJ/mol
# Density = 2.202060 g / cm^3
# Si number density = 22.070831 Si / 1000 Ang^3
#
#
#
# Elastic Constant Matrix: (Units=GPa)
#
#
# Indices 1 2 3 4 5 6 
#
# 1 68.7538 7.2965 34.8597 0.0000 7.8757 0.0000
# 2 7.2965 70.4504 27.0299 0.0000 14.5501 0.0000
# 3 34.8597 27.0299 105.2560 0.0000 17.7098 0.0000
# 4 0.0000 0.0000 0.0000 49.7070 0.0000 10.3232
# 5 7.8757 14.5501 17.7098 0.0000 35.2606 0.0000
# 6 0.0000 0.0000 0.0000 10.3232 0.0000 51.2705
#
#
#
# Elastic Compliance Matrix: (Units=1/GPa)
#
#
# Indices 1 2 3 4 5 6 
#
# 1 0.017545 0.000662 -0.005762 0.000000 -0.001298 0.000000
# 2 0.000662 0.016579 -0.003605 0.000000 -0.005178 0.000000
# 3 -0.005762 -0.003605 0.012964 0.000000 -0.003736 0.000000
# 4 0.000000 0.000000 0.000000 0.020996 0.000000 -0.004227
# 5 -0.001298 -0.005178 -0.003736 0.000000 0.032663 0.000000
# 6 0.000000 0.000000 0.000000 -0.004227 0.000000 0.020356
#
#
# Mechanical properties :
#
#
# Convention : Reuss Voigt Hill
#
# Bulk Modulus (GPa) = 33.69827 42.53693 38.11760
# Shear Modulus (GPa) = 33.69162 38.93255 36.31209
#
# Velocity S-wave (km/s) = 3.91131 4.20454 4.06057
# Velocity P-wave (km/s) = 5.97488 6.54871 6.26836
#
# Compressibility (1/GPa) = 0.02967511
#
# Stress axis : x y z
#
# Youngs Moduli (GPa) = 56.99744 60.31893 77.13947
#
# Poissons Ratio (x) = -0.03991 0.44449
# Poissons Ratio (y) = -0.03772 0.27811
# Poissons Ratio (z) = 0.32843 0.21747
#
# Static dielectric constant tensor:
#      x y z
#    x 1.819340 0.000000 -0.011160 
#    y 0.000000 1.807700 0.000000 
#    z -0.011160 0.000000 1.791760 
# 
# From -- ./inp_files/3719.got.cif
#   From: 2010.05.17/outbox.cif.g08.bks.cpg/sg4_2_cif.got.tgz:3719.got - 2010.06.03 18:43:04.
