data_PCOD9118363
_publ_section_title
;
Structure prediction by ZEFSAII (Michael W. Deem and Ramdas Pophale) SiO2 
 PCOD9118363
Probable space group: P 21
;
_chemical_formula_sum "Si O2"
_cell_formula_units_Z 16
_cell_length_a 5.682972
_cell_length_b 9.896812
_cell_length_c 12.035427
_cell_angle_alpha 90.000000
_cell_angle_beta 77.589518
_cell_angle_gamma 90.000000
_cell_volume 661.094775
_symmetry_space_group_name_H-M "P 21"
_symmetry_group_IT_number 4
_symmetry_cell_setting 'monoclinic'
loop_
_space_group_symop_operation_xyz
x,y,z
-x,1/2+y,-z
loop_
_atom_site_type_symbol
_atom_site_label
_atom_site_fract_x
_atom_site_fract_y
_atom_site_fract_z
Si Si1 0.975027 0.714150 0.810620
Si Si2 0.568994 0.163171 0.089997
Si Si3 0.065208 0.811022 0.383175
Si Si4 0.750680 0.804492 0.226087
Si Si5 0.685585 0.897313 0.979818
Si Si6 0.757885 0.792982 0.623591
Si Si7 0.441981 0.021678 0.397807
Si Si8 0.557935 0.074150 0.640982
O O1 0.716220 0.633816 0.850567
O O2 0.979513 0.748170 0.679833
O O3 0.208699 0.654965 0.846074
O O4 0.910009 0.851763 0.882661
O O5 0.637517 0.054523 0.990530
O O6 0.539729 0.314137 0.046742
O O7 0.185402 0.952244 0.401868
O O8 0.229880 0.683183 0.394098
O O9 0.009458 0.806066 0.258460
O O10 0.839344 0.801670 0.488235
O O11 0.730738 0.841490 0.100086
O O12 0.613556 0.921056 0.311922
O O13 0.635904 0.659033 0.268937
O O14 0.563538 0.674215 0.644674
O O15 0.652845 0.932935 0.679868
O O16 0.474763 0.031491 0.526276
#
# Coordination Sequence:
#
# PCOD9118363 Si02
#       8
#     2   2   2   2   2   2   2   2
#     4  10  27  43  72 105 139 183 234 288 352 411
#     4  10  25  49  71 106 135 186 234 294 350 415
#     4  11  24  42  64 101 133 182 228 277 353 419
#     4  11  24  44  70  97 136 186 219 287 349 416
#     4  10  26  47  73 100 142 179 243 288 355 419
#     4  12  23  42  68 100 137 179 226 293 342 418
#     4  11  23  42  65  98 140 174 234 276 349 416
#     4  11  24  43  63 103 138 179 228 285 344 416
#
# _framework density 24.202276000000001
#
# number of rings (size 3 to 8) (size 9 to 14) (size 15 to 20)
#    0.750    0.500    2.500    2.250    5.250    4.000 
#    2.250    0.000    0.000    0.000    0.000    0.000 
#    0.000    0.000    0.000    0.000    0.000    0.000 
#
# Total GULP energy -89361.094404 kJ/mol
# GULP energy per Si atom -5585.068400 kJ/mol
# Density = 2.414719 g / cm^3
# Si number density = 24.202276 Si / 1000 Ang^3
#
#
#
# Elastic Constant Matrix: (Units=GPa)
#
#
# Indices 1 2 3 4 5 6 
#
# 1 86.9733 23.1370 14.4499 0.0000 24.9611 0.0000
# 2 23.1370 118.4288 -12.3778 0.0000 -0.6666 0.0000
# 3 14.4499 -12.3778 69.7865 0.0000 20.5223 0.0000
# 4 0.0000 0.0000 0.0000 23.9602 0.0000 6.1483
# 5 24.9611 -0.6666 20.5223 0.0000 29.6680 0.0000
# 6 0.0000 0.0000 0.0000 6.1483 0.0000 25.9988
#
#
#
# Elastic Compliance Matrix: (Units=1/GPa)
#
#
# Indices 1 2 3 4 5 6 
#
# 1 0.016333 -0.003256 0.000130 0.000000 -0.013904 0.000000
# 2 -0.003256 0.009280 0.001824 0.000000 0.001686 0.000000
# 3 0.000130 0.001824 0.018386 0.000000 -0.012786 0.000000
# 4 0.000000 0.000000 0.000000 0.044432 0.000000 -0.010507
# 5 -0.013904 0.001686 -0.012786 0.000000 0.054288 0.000000
# 6 0.000000 0.000000 0.000000 -0.010507 0.000000 0.040948
#
#
# Mechanical properties :
#
#
# Convention : Reuss Voigt Hill
#
# Bulk Modulus (GPa) = 24.15690 36.17853 30.16771
# Shear Modulus (GPa) = 24.99140 32.59070 28.79105
#
# Velocity S-wave (km/s) = 3.21690 3.67358 3.45280
# Velocity P-wave (km/s) = 4.87861 5.74234 5.32801
#
# Compressibility (1/GPa) = 0.04139604
#
# Stress axis : x y z
#
# Youngs Moduli (GPa) = 61.22633 107.75754 54.38830
#
# Poissons Ratio (x) = 0.35082 -0.00705
# Poissons Ratio (y) = 0.19933 -0.09923
# Poissons Ratio (z) = -0.00794 -0.19659
#
# Static dielectric constant tensor:
#      x y z
#    x 2.017660 0.000000 0.014510 
#    y 0.000000 1.897680 0.000000 
#    z 0.014510 0.000000 1.934960 
# 
# From -- ./inp_files/13266.got.cif
#   From: 2010.05.17/outbox.cif.g08.bks.cpg/sg4_7_cif.got.tgz:13266.got - 2010.06.03 18:43:04.
