data_PCOD9118403
_publ_section_title
;
Structure prediction by ZEFSAII (Michael W. Deem and Ramdas Pophale) SiO2 
 PCOD9118403
Probable space group: P 21
;
_chemical_formula_sum "Si O2"
_cell_formula_units_Z 12
_cell_length_a 4.810202
_cell_length_b 9.549247
_cell_length_c 9.817219
_cell_angle_alpha 90.000000
_cell_angle_beta 95.525235
_cell_angle_gamma 90.000000
_cell_volume 448.847115
_symmetry_space_group_name_H-M "P 21"
_symmetry_group_IT_number 4
_symmetry_cell_setting 'monoclinic'
loop_
_space_group_symop_operation_xyz
x,y,z
-x,1/2+y,-z
loop_
_atom_site_type_symbol
_atom_site_label
_atom_site_fract_x
_atom_site_fract_y
_atom_site_fract_z
Si Si1 0.492907 0.523150 0.776064
Si Si2 0.896552 0.215483 0.596407
Si Si3 0.362532 0.370799 0.497445
Si Si4 0.005931 0.710917 0.855474
Si Si5 0.244626 0.976238 0.717013
Si Si6 0.263720 0.251409 0.864222
O O1 0.386949 0.487304 0.618069
O O2 0.284562 0.619969 0.852658
O O3 0.485641 0.375601 0.857222
O O4 0.773529 0.611974 0.774568
O O5 0.066801 0.292937 0.485693
O O6 0.022729 0.283665 0.740128
O O7 0.575542 0.249365 0.565057
O O8 0.010103 0.058720 0.616263
O O9 0.511907 0.416324 0.366108
O O10 0.091369 0.859563 0.797440
O O11 0.880190 0.738319 0.998033
O O12 0.367286 0.098517 0.820471
#
# Coordination Sequence:
#
# PCOD9118403 Si02
#       6
#     2   2   2   2   2   2
#     4  11  26  44  71 102 146 189 234 310 357 426
#     4   9  24  44  70  97 142 184 227 296 355 428
#     4  11  23  45  68 101 138 183 238 289 368 417
#     4  12  26  44  73 109 140 188 253 291 360 436
#     4  10  26  44  76 104 141 192 242 300 358 444
#     4   9  23  51  66 105 145 198 230 304 364 435
#
# _framework density 26.735157999999998
#
# number of rings (size 3 to 8) (size 9 to 14) (size 15 to 20)
#    1.000    0.667    0.000    3.000    4.667    8.000 
#    0.000    0.000    0.000    0.000    0.000    0.000 
#    0.000    0.000    0.000    0.000    0.000    0.000 
#
# Total GULP energy -67283.340613 kJ/mol
# GULP energy per Si atom -5606.945051 kJ/mol
# Density = 2.667431 g / cm^3
# Si number density = 26.735158 Si / 1000 Ang^3
#
#
#
# Elastic Constant Matrix: (Units=GPa)
#
#
# Indices 1 2 3 4 5 6 
#
# 1 101.0747 26.6046 8.4932 0.0000 -24.0998 0.0000
# 2 26.6046 205.7179 68.4427 0.0000 -29.7513 0.0000
# 3 8.4932 68.4427 158.7387 0.0000 -46.5164 0.0000
# 4 0.0000 0.0000 0.0000 41.8914 0.0000 -22.8651
# 5 -24.0998 -29.7513 -46.5164 0.0000 43.3130 0.0000
# 6 0.0000 0.0000 0.0000 -22.8651 0.0000 41.7180
#
#
#
# Elastic Compliance Matrix: (Units=1/GPa)
#
#
# Indices 1 2 3 4 5 6 
#
# 1 0.011986 -0.001100 0.002285 0.000000 0.008368 0.000000
# 2 -0.001100 0.005880 -0.002148 0.000000 0.001119 0.000000
# 3 0.002285 -0.002148 0.010279 0.000000 0.010835 0.000000
# 4 0.000000 0.000000 0.000000 0.034061 0.000000 0.018668
# 5 0.008368 0.001119 0.010835 0.000000 0.040149 0.000000
# 6 0.000000 0.000000 0.000000 0.018668 0.000000 0.034202
#
#
# Mechanical properties :
#
#
# Convention : Reuss Voigt Hill
#
# Bulk Modulus (GPa) = 38.14149 74.73470 56.43809
# Shear Modulus (GPa) = 33.96211 49.51719 41.73965
#
# Velocity S-wave (km/s) = 3.56802 4.30832 3.95552
# Velocity P-wave (km/s) = 5.59211 7.26383 6.48209
#
# Compressibility (1/GPa) = 0.02621817
#
# Stress axis : x y z
#
# Youngs Moduli (GPa) = 83.42763 170.06880 97.28909
#
# Poissons Ratio (x) = 0.18712 -0.22232
# Poissons Ratio (y) = 0.09179 0.20901
# Poissons Ratio (z) = -0.19064 0.36536
#
# Static dielectric constant tensor:
#      x y z
#    x 2.070660 0.000000 0.117990 
#    y 0.000000 2.154990 0.000000 
#    z 0.117990 0.000000 2.088470 
# 
# From -- ./inp_files/10246.got.cif
#   From: 2010.05.17/outbox.cif.g08.bks.cpg/sg4_6_cif.got.tgz:10246.got - 2010.06.03 18:43:04.
