data_PCOD9118864
_publ_section_title
;
Structure prediction by ZEFSAII (Michael W. Deem and Ramdas Pophale) SiO2 
 PCOD9118864
Probable space group: P 21
;
_chemical_formula_sum "Si O2"
_cell_formula_units_Z 16
_cell_length_a 9.296786
_cell_length_b 10.960589
_cell_length_c 8.918991
_cell_angle_alpha 90.000000
_cell_angle_beta 49.462573
_cell_angle_gamma 90.000000
_cell_volume 690.693728
_symmetry_space_group_name_H-M "P 21"
_symmetry_group_IT_number 4
_symmetry_cell_setting 'monoclinic'
loop_
_space_group_symop_operation_xyz
x,y,z
-x,1/2+y,-z
loop_
_atom_site_type_symbol
_atom_site_label
_atom_site_fract_x
_atom_site_fract_y
_atom_site_fract_z
Si Si1 0.394577 0.020360 0.149918
Si Si2 0.608837 0.551640 0.189932
Si Si3 0.509976 0.838134 0.569302
Si Si4 0.950913 0.702487 0.619466
Si Si5 0.927813 0.826808 0.337188
Si Si6 0.637647 0.273151 0.646344
Si Si7 0.268474 0.678266 0.949463
Si Si8 0.992313 0.080335 0.127588
O O1 0.211400 0.104622 0.312286
O O2 0.589370 0.088831 0.059533
O O3 0.370425 0.892916 0.248993
O O4 0.397283 0.996142 0.971608
O O5 0.481615 0.480957 0.394923
O O6 0.540625 0.687756 0.209899
O O7 0.824620 0.547724 0.094675
O O8 0.722672 0.788706 0.411066
O O9 0.381947 0.815103 0.511885
O O10 0.403928 0.777631 0.780794
O O11 0.912010 0.813247 0.529106
O O12 0.950188 0.693698 0.802148
O O13 0.177756 0.691706 0.444318
O O14 0.959223 0.964311 0.258027
O O15 0.099103 0.742392 0.158421
O O16 0.174412 0.608429 0.872634
#
# Coordination Sequence:
#
# PCOD9118864 Si02
#       8
#     2   2   2   2   2   2   2   2
#     4  11  27  47  76 109 153 199 254 309 384 445
#     4  11  26  47  75 107 151 196 250 313 374 446
#     4  12  26  47  75 106 151 197 250 310 371 448
#     4  11  23  43  69 105 144 192 248 304 357 448
#     4  12  25  46  74 104 149 196 245 307 376 439
#     4  12  26  46  74 109 152 202 251 307 384 445
#     4  12  25  49  72 108 150 197 247 314 368 444
#     4  11  24  45  71 108 148 193 249 308 372 447
#
# _framework density 23.165116999999999
#
# number of rings (size 3 to 8) (size 9 to 14) (size 15 to 20)
#    0.000    0.500    3.750    4.500    3.500    1.000 
#    0.000    3.750    0.000    0.000    0.000    0.000 
#    0.000    0.000    0.000    0.000    0.000    0.000 
#
# Total GULP energy -89359.060394 kJ/mol
# GULP energy per Si atom -5584.941275 kJ/mol
# Density = 2.311239 g / cm^3
# Si number density = 23.165117 Si / 1000 Ang^3
#
#
#
# Elastic Constant Matrix: (Units=GPa)
#
#
# Indices 1 2 3 4 5 6 
#
# 1 134.7772 63.5498 38.1148 0.0000 -16.1546 0.0000
# 2 63.5498 77.9918 54.3444 0.0000 -13.8782 0.0000
# 3 38.1148 54.3444 101.1765 0.0000 -16.8194 0.0000
# 4 0.0000 0.0000 0.0000 40.8596 0.0000 4.6169
# 5 -16.1546 -13.8782 -16.8194 0.0000 41.8084 0.0000
# 6 0.0000 0.0000 0.0000 4.6169 0.0000 33.1638
#
#
#
# Elastic Compliance Matrix: (Units=1/GPa)
#
#
# Indices 1 2 3 4 5 6 
#
# 1 0.012255 -0.010643 0.001393 0.000000 0.001763 0.000000
# 2 -0.010643 0.029989 -0.011925 0.000000 0.001045 0.000000
# 3 0.001393 -0.011925 0.016285 0.000000 0.003131 0.000000
# 4 0.000000 0.000000 0.000000 0.024865 0.000000 -0.003462
# 5 0.001763 0.001045 0.003131 0.000000 0.026206 0.000000
# 6 0.000000 0.000000 0.000000 -0.003462 0.000000 0.030635
#
#
# Mechanical properties :
#
#
# Convention : Reuss Voigt Hill
#
# Bulk Modulus (GPa) = 61.80696 69.55148 65.67922
# Shear Modulus (GPa) = 26.59879 33.69546 30.14713
#
# Velocity S-wave (km/s) = 3.39222 3.81803 3.61141
# Velocity P-wave (km/s) = 6.48706 7.03746 6.76786
#
# Compressibility (1/GPa) = 0.01617941
#
# Stress axis : x y z
#
# Youngs Moduli (GPa) = 81.59726 33.34557 61.40754
#
# Poissons Ratio (x) = 0.35489 -0.08553
# Poissons Ratio (y) = 0.86842 0.73227
# Poissons Ratio (z) = -0.11365 0.39764
#
# Static dielectric constant tensor:
#      x y z
#    x 1.871980 0.000000 0.005170 
#    y 0.000000 1.974600 0.000000 
#    z 0.005170 0.000000 1.885580 
# 
# From -- ./inp_files/6379.got.cif
#   From: 2010.05.17/outbox.cif.g08.bks.cpg/sg4_4_cif.got.tgz:6379.got - 2010.06.03 18:43:04.
