data_PCOD9118142
_publ_section_title
;
Structure prediction by ZEFSAII (Michael W. Deem and Ramdas Pophale) SiO2 
 PCOD9118142
Probable space group: P 21
;
_chemical_formula_sum "Si O2"
_cell_formula_units_Z 16
_cell_length_a 5.034085
_cell_length_b 12.471678
_cell_length_c 10.973008
_cell_angle_alpha 90.000000
_cell_angle_beta 59.460357
_cell_angle_gamma 90.000000
_cell_volume 593.354686
_symmetry_space_group_name_H-M "P 21"
_symmetry_group_IT_number 4
_symmetry_cell_setting 'monoclinic'
loop_
_space_group_symop_operation_xyz
x,y,z
-x,1/2+y,-z
loop_
_atom_site_type_symbol
_atom_site_label
_atom_site_fract_x
_atom_site_fract_y
_atom_site_fract_z
Si Si1 0.036621 0.974800 0.047343
Si Si2 0.586685 0.796850 0.065895
Si Si3 0.631637 0.115953 0.275746
Si Si4 0.706060 0.059302 0.882855
Si Si5 0.776669 0.410732 0.659864
Si Si6 0.271174 0.496053 0.376328
Si Si7 0.719567 0.220916 0.498025
Si Si8 0.632422 0.796248 0.773557
O O1 0.292341 0.859612 0.193790
O O2 0.935349 0.045739 0.188323
O O3 0.864151 0.859078 0.075673
O O4 0.400567 0.986028 0.963354
O O5 0.699571 0.806574 0.900347
O O6 0.905389 0.037964 0.957096
O O7 0.453159 0.675217 0.103268
O O8 0.555515 0.181242 0.414405
O O9 0.623660 0.205266 0.174892
O O10 0.383748 0.024702 0.312506
O O11 0.892747 0.021126 0.717503
O O12 0.634910 0.324688 0.596259
O O13 0.108766 0.438745 0.528569
O O14 0.330975 0.616044 0.406633
O O15 0.481404 0.398485 0.278647
O O16 0.060495 0.249771 0.364873
#
# Coordination Sequence:
#
# PCOD9118142 Si02
#       8
#     2   2   2   2   2   2   2   2
#     4  11  27  46  76 114 154 201 259 324 383 458
#     4  11  23  47  77 113 151 199 264 325 391 455
#     4  11  24  42  73 104 149 197 249 317 382 456
#     4  12  25  48  75 112 156 201 259 319 384 466
#     4  10  24  46  71 107 149 192 256 312 391 463
#     4  11  24  45  71 105 148 200 250 314 383 466
#     4  11  24  44  68 104 148 198 250 313 388 467
#     4  11  23  44  73 103 145 196 253 320 380 459
#
# _framework density 26.965319999999998
#
# number of rings (size 3 to 8) (size 9 to 14) (size 15 to 20)
#    0.000    1.000    5.000    0.750    1.750    4.000 
#    0.000    1.250    0.000    0.000    0.000    0.000 
#    0.000    0.000    0.000    0.000    0.000    0.000 
#
# Total GULP energy -89246.741072 kJ/mol
# GULP energy per Si atom -5577.921317 kJ/mol
# Density = 2.690395 g / cm^3
# Si number density = 26.965320 Si / 1000 Ang^3
#
#
#
# Elastic Constant Matrix: (Units=GPa)
#
#
# Indices 1 2 3 4 5 6 
#
# 1 71.5657 26.3134 27.4005 0.0000 19.0297 0.0000
# 2 26.3134 173.8137 36.4028 0.0000 7.7679 0.0000
# 3 27.4005 36.4028 137.7058 0.0000 14.8802 0.0000
# 4 0.0000 0.0000 0.0000 43.0114 0.0000 0.2648
# 5 19.0297 7.7679 14.8802 0.0000 33.0946 0.0000
# 6 0.0000 0.0000 0.0000 0.2648 0.0000 28.2088
#
#
#
# Elastic Compliance Matrix: (Units=1/GPa)
#
#
# Indices 1 2 3 4 5 6 
#
# 1 0.017818 -0.001862 -0.002095 0.000000 -0.008866 0.000000
# 2 -0.001862 0.006303 -0.001315 0.000000 0.000183 0.000000
# 3 -0.002095 -0.001315 0.008264 0.000000 -0.002203 0.000000
# 4 0.000000 0.000000 0.000000 0.023251 0.000000 -0.000218
# 5 -0.008866 0.000183 -0.002203 0.000000 0.036262 0.000000
# 6 0.000000 0.000000 0.000000 -0.000218 0.000000 0.035452
#
#
# Mechanical properties :
#
#
# Convention : Reuss Voigt Hill
#
# Bulk Modulus (GPa) = 45.78893 62.59094 54.18993
# Shear Modulus (GPa) = 34.44134 40.39420 37.41777
#
# Velocity S-wave (km/s) = 3.57773 3.87461 3.72913
# Velocity P-wave (km/s) = 5.83819 6.57866 6.21946
#
# Compressibility (1/GPa) = 0.02183934
#
# Stress axis : x y z
#
# Youngs Moduli (GPa) = 56.12430 158.66667 121.00086
#
# Poissons Ratio (x) = 0.29550 0.25349
# Poissons Ratio (y) = 0.10453 0.15915
# Poissons Ratio (z) = 0.11758 0.20869
#
# Static dielectric constant tensor:
#      x y z
#    x 2.156950 0.000000 0.008370 
#    y 0.000000 2.155740 0.000000 
#    z 0.008370 0.000000 2.284540 
# 
# From -- ./inp_files/10504.got.cif
#   From: 2010.05.17/outbox.cif.g08.bks.cpg/sg4_6_cif.got.tgz:10504.got - 2010.06.03 18:43:04.
