data_PCOD9118022
_publ_section_title
;
Structure prediction by ZEFSAII (Michael W. Deem and Ramdas Pophale) SiO2 
 PCOD9118022
Probable space group: P 21
;
_chemical_formula_sum "Si O2"
_cell_formula_units_Z 14
_cell_length_a 11.706628
_cell_length_b 7.488092
_cell_length_c 12.443304
_cell_angle_alpha 90.000000
_cell_angle_beta 33.191927
_cell_angle_gamma 90.000000
_cell_volume 597.144514
_symmetry_space_group_name_H-M "P 21"
_symmetry_group_IT_number 4
_symmetry_cell_setting 'monoclinic'
loop_
_space_group_symop_operation_xyz
x,y,z
-x,1/2+y,-z
loop_
_atom_site_type_symbol
_atom_site_label
_atom_site_fract_x
_atom_site_fract_y
_atom_site_fract_z
Si Si1 0.525917 0.163970 0.320362
Si Si2 0.624678 0.394672 0.972253
Si Si3 0.040883 0.180835 0.223219
Si Si4 0.367078 0.525543 0.363837
Si Si5 0.389946 0.483296 0.952383
Si Si6 0.318401 0.150095 0.707126
Si Si7 0.946623 0.310537 0.064475
O O1 0.366473 0.322776 0.411946
O O2 0.469222 0.130659 0.488111
O O3 0.761890 0.238525 0.134859
O O4 0.523698 0.004545 0.236981
O O5 0.819252 0.510569 0.857259
O O6 0.651288 0.188802 0.982328
O O7 0.434101 0.485816 0.189288
O O8 0.567178 0.413108 0.893254
O O9 0.189138 0.354881 0.122636
O O10 0.975960 0.195066 0.149585
O O11 0.833677 0.146265 0.456337
O O12 0.554710 0.614082 0.284505
O O13 0.142137 0.000001 0.829828
O O14 0.173089 0.322826 0.831576
#
# Coordination Sequence:
#
# PCOD9118022 Si02
#       7
#     2   2   2   2   2   2   2
#     4  10  24  44  73 110 152 191 245 310 375 452
#     4  11  24  51  74 104 151 196 252 316 368 450
#     4  12  24  45  76 108 145 195 254 302 384 435
#     4  10  24  43  72 108 147 194 243 310 373 446
#     4  11  25  49  79 107 147 200 251 317 374 441
#     4  11  23  42  71 107 153 188 246 296 378 452
#     4  11  24  40  71 108 141 196 239 299 374 444
#
# _framework density 23.44491
#
# number of rings (size 3 to 8) (size 9 to 14) (size 15 to 20)
#    0.000    1.143    4.286    0.857    2.000    4.571 
#    2.571    2.857    0.000    0.000    0.000    0.000 
#    0.000    0.000    0.000    0.000    0.000    0.000 
#
# Total GULP energy -78293.668000 kJ/mol
# GULP energy per Si atom -5592.404857 kJ/mol
# Density = 2.339155 g / cm^3
# Si number density = 23.444910 Si / 1000 Ang^3
#
#
#
# Elastic Constant Matrix: (Units=GPa)
#
#
# Indices 1 2 3 4 5 6 
#
# 1 72.5164 30.3653 -5.5842 0.0000 1.9452 0.0000
# 2 30.3653 131.5694 31.5059 0.0000 -15.3540 0.0000
# 3 -5.5842 31.5059 81.6721 0.0000 -15.0091 0.0000
# 4 0.0000 0.0000 0.0000 38.4849 0.0000 -10.3679
# 5 1.9452 -15.3540 -15.0091 0.0000 29.0357 0.0000
# 6 0.0000 0.0000 0.0000 -10.3679 0.0000 42.5189
#
#
#
# Elastic Compliance Matrix: (Units=1/GPa)
#
#
# Indices 1 2 3 4 5 6 
#
# 1 0.015926 -0.004513 0.002426 0.000000 -0.002200 0.000000
# 2 -0.004513 0.009904 -0.003438 0.000000 0.003763 0.000000
# 3 0.002426 -0.003438 0.014776 0.000000 0.005657 0.000000
# 4 0.000000 0.000000 0.000000 0.027811 0.000000 0.006782
# 5 -0.002200 0.003763 0.005657 0.000000 0.039502 0.000000
# 6 0.000000 0.000000 0.000000 0.006782 0.000000 0.025173
#
#
# Mechanical properties :
#
#
# Convention : Reuss Voigt Hill
#
# Bulk Modulus (GPa) = 33.83487 44.25909 39.04698
# Shear Modulus (GPa) = 32.46886 37.30596 34.88741
#
# Velocity S-wave (km/s) = 3.72546 3.99333 3.86172
# Velocity P-wave (km/s) = 5.74181 6.33886 6.04771
#
# Compressibility (1/GPa) = 0.02955531
#
# Stress axis : x y z
#
# Youngs Moduli (GPa) = 62.79219 100.96459 67.67823
#
# Poissons Ratio (x) = 0.45566 -0.16416
# Poissons Ratio (y) = 0.28338 0.23267
# Poissons Ratio (z) = -0.15231 0.34710
#
# Static dielectric constant tensor:
#      x y z
#    x 1.834410 0.000000 0.022160 
#    y 0.000000 2.017810 0.000000 
#    z 0.022160 0.000000 1.919830 
# 
# From -- ./inp_files/2424.got.cif
#   From: 2010.05.17/outbox.cif.g08.bks.cpg/sg4_2_cif.got.tgz:2424.got - 2010.06.03 18:43:04.
