data_PCOD9118474
_publ_section_title
;
Structure prediction by ZEFSAII (Michael W. Deem and Ramdas Pophale) SiO2 
 PCOD9118474
Probable space group: P 21
;
_chemical_formula_sum "Si O2"
_cell_formula_units_Z 16
_cell_length_a 19.650802
_cell_length_b 6.412245
_cell_length_c 7.960983
_cell_angle_alpha 90.000000
_cell_angle_beta 41.319082
_cell_angle_gamma 90.000000
_cell_volume 662.318218
_symmetry_space_group_name_H-M "P 21"
_symmetry_group_IT_number 4
_symmetry_cell_setting 'monoclinic'
loop_
_space_group_symop_operation_xyz
x,y,z
-x,1/2+y,-z
loop_
_atom_site_type_symbol
_atom_site_label
_atom_site_fract_x
_atom_site_fract_y
_atom_site_fract_z
Si Si1 0.646491 0.396290 0.672963
Si Si2 0.956485 0.051178 0.806015
Si Si3 0.401492 0.375446 0.731110
Si Si4 0.499265 0.198933 0.222624
Si Si5 0.760653 0.541843 0.946615
Si Si6 0.734901 0.175155 0.231010
Si Si7 0.846089 0.294668 0.484050
Si Si8 0.907605 0.899411 0.532840
O O1 0.602896 0.614177 0.683245
O O2 0.647695 0.213930 0.530802
O O3 0.768217 0.390032 0.493136
O O4 0.574932 0.320273 0.958148
O O5 0.951311 0.024580 0.611839
O O6 0.006237 0.278236 0.731280
O O7 0.840116 0.058699 0.087938
O O8 0.037803 0.886678 0.730657
O O9 0.474468 0.326592 0.437520
O O10 0.450683 0.484787 0.799902
O O11 0.316285 0.536827 0.819011
O O12 0.347657 0.156448 0.870622
O O13 0.790862 0.372651 0.754960
O O14 0.839247 0.726394 0.754375
O O15 0.762649 0.407825 0.112582
O O16 0.850779 0.048128 0.506035
#
# Coordination Sequence:
#
# PCOD9118474 Si02
#       8
#     2   2   2   2   2   2   2   2
#     4  12  28  50  68 110 153 192 236 322 392 444
#     4  11  21  38  70 104 144 195 246 299 362 449
#     4  12  26  48  79 110 135 197 256 310 353 463
#     4  12  28  48  81 107 151 195 257 315 388 445
#     4  11  21  40  74 102 139 186 247 305 358 440
#     4  12  24  47  70 107 152 192 248 305 378 452
#     4  11  25  43  69 106 149 188 247 305 376 444
#     4  11  19  38  69 106 137 187 253 313 347 429
#
# _framework density 24.157574
#
# number of rings (size 3 to 8) (size 9 to 14) (size 15 to 20)
#    0.000    0.500    5.000    3.750    3.500    0.000 
#    6.750    0.000    0.000    0.000    0.000    0.000 
#    0.000    0.000    0.000    0.000    0.000    0.000 
#
# Total GULP energy -89426.659964 kJ/mol
# GULP energy per Si atom -5589.166248 kJ/mol
# Density = 2.410259 g / cm^3
# Si number density = 24.157574 Si / 1000 Ang^3
#
#
#
# Elastic Constant Matrix: (Units=GPa)
#
#
# Indices 1 2 3 4 5 6 
#
# 1 65.0274 11.8954 -2.9218 0.0000 -20.1751 0.0000
# 2 11.8954 66.8571 13.9194 0.0000 -13.4919 0.0000
# 3 -2.9218 13.9194 72.1918 0.0000 -7.3536 0.0000
# 4 0.0000 0.0000 0.0000 25.2573 0.0000 -17.7816
# 5 -20.1751 -13.4919 -7.3536 0.0000 33.4194 0.0000
# 6 0.0000 0.0000 0.0000 -17.7816 0.0000 33.0569
#
#
#
# Elastic Compliance Matrix: (Units=1/GPa)
#
#
# Indices 1 2 3 4 5 6 
#
# 1 0.019350 -0.001586 0.002264 0.000000 0.011540 0.000000
# 2 -0.001586 0.016877 -0.002784 0.000000 0.005244 0.000000
# 3 0.002264 -0.002784 0.014838 0.000000 0.003508 0.000000
# 4 0.000000 0.000000 0.000000 0.063725 0.000000 0.034278
# 5 0.011540 0.005244 0.003508 0.000000 0.039778 0.000000
# 6 0.000000 0.000000 0.000000 0.034278 0.000000 0.048689
#
#
# Mechanical properties :
#
#
# Convention : Reuss Voigt Hill
#
# Bulk Modulus (GPa) = 21.34270 27.76248 24.55259
# Shear Modulus (GPa) = 22.41284 30.42559 26.41921
#
# Velocity S-wave (km/s) = 3.04925 3.55274 3.31058
# Velocity P-wave (km/s) = 4.60990 5.32414 4.97984
#
# Compressibility (1/GPa) = 0.04685443
#
# Stress axis : x y z
#
# Youngs Moduli (GPa) = 51.67912 59.25138 67.39559
#
# Poissons Ratio (x) = 0.09394 -0.15260
# Poissons Ratio (y) = 0.08194 0.18764
# Poissons Ratio (z) = -0.11702 0.16497
#
# Static dielectric constant tensor:
#      x y z
#    x 2.048970 0.000000 0.019820 
#    y 0.000000 1.949940 0.000000 
#    z 0.019820 0.000000 1.977010 
# 
# From -- ./inp_files/9781.got.cif
#   From: 2010.05.17/outbox.cif.g08.bks.cpg/sg4_5_cif.got.tgz:9781.got - 2010.06.03 18:43:04.
