data_PCOD9118400
_publ_section_title
;
Structure prediction by ZEFSAII (Michael W. Deem and Ramdas Pophale) SiO2 
 PCOD9118400
Probable space group: P 21
;
_chemical_formula_sum "Si O2"
_cell_formula_units_Z 14
_cell_length_a 9.293551
_cell_length_b 7.612751
_cell_length_c 9.470158
_cell_angle_alpha 90.000000
_cell_angle_beta 51.692870
_cell_angle_gamma 90.000000
_cell_volume 525.755431
_symmetry_space_group_name_H-M "P 21"
_symmetry_group_IT_number 4
_symmetry_cell_setting 'monoclinic'
loop_
_space_group_symop_operation_xyz
x,y,z
-x,1/2+y,-z
loop_
_atom_site_type_symbol
_atom_site_label
_atom_site_fract_x
_atom_site_fract_y
_atom_site_fract_z
Si Si1 0.863097 0.331300 0.487713
Si Si2 0.405195 0.777379 0.879740
Si Si3 0.147262 0.110325 0.014809
Si Si4 0.553841 0.407994 0.449318
Si Si5 0.955561 0.972081 0.386981
Si Si6 0.221875 0.245018 0.702020
Si Si7 0.273661 0.418663 0.113849
O O1 0.706446 0.369300 0.472722
O O2 0.860416 0.435982 0.636947
O O3 0.065146 0.390650 0.304256
O O4 0.846848 0.124617 0.533472
O O5 0.457373 0.779864 0.680577
O O6 0.578350 0.855505 0.860652
O O7 0.250304 0.927007 0.967348
O O8 0.331619 0.602163 0.003859
O O9 0.077757 0.180172 0.906006
O O10 0.272780 0.268180 0.993839
O O11 0.986458 0.074450 0.222036
O O12 0.351939 0.413254 0.636938
O O13 0.624729 0.597589 0.358235
O O14 0.871113 0.785618 0.391877
#
# Coordination Sequence:
#
# PCOD9118400 Si02
#       7
#     2   2   2   2   2   2   2
#     4  11  26  46  73 114 148 201 254 318 392 446
#     4  11  24  45  74 107 151 202 255 315 380 459
#     4  10  26  44  70 114 148 200 248 316 388 444
#     4  11  26  46  73 114 148 201 254 318 392 446
#     4  11  25  48  75 108 154 198 256 318 380 467
#     4  11  25  48  75 108 154 198 256 318 380 467
#     4  11  24  45  74 107 151 202 255 315 380 459
#
# _framework density 26.628347999999999
#
# number of rings (size 3 to 8) (size 9 to 14) (size 15 to 20)
#    0.000    1.143    1.429    2.571    8.000    8.000 
#    2.571    0.000    0.000    1.714    0.000    0.000 
#    0.000    0.000    0.000    0.000    0.000    0.000 
#
# Total GULP energy -78125.625099 kJ/mol
# GULP energy per Si atom -5580.401793 kJ/mol
# Density = 2.656774 g / cm^3
# Si number density = 26.628348 Si / 1000 Ang^3
#
#
#
# Elastic Constant Matrix: (Units=GPa)
#
#
# Indices 1 2 3 4 5 6 
#
# 1 176.3988 63.9377 45.1052 0.0000 5.8335 0.0000
# 2 63.9377 154.2377 48.2212 0.0000 10.8322 0.0000
# 3 45.1052 48.2212 78.3190 0.0000 16.7531 0.0000
# 4 0.0000 0.0000 0.0000 49.2807 0.0000 10.8329
# 5 5.8335 10.8322 16.7531 0.0000 26.3989 0.0000
# 6 0.0000 0.0000 0.0000 10.8329 0.0000 41.9241
#
#
#
# Elastic Compliance Matrix: (Units=1/GPa)
#
#
# Indices 1 2 3 4 5 6 
#
# 1 0.007182 -0.002091 -0.003116 0.000000 0.001248 0.000000
# 2 -0.002091 0.008638 -0.003998 0.000000 -0.000545 0.000000
# 3 -0.003116 -0.003998 0.019122 0.000000 -0.009806 0.000000
# 4 0.000000 0.000000 0.000000 0.021514 0.000000 -0.005559
# 5 0.001248 -0.000545 -0.009806 0.000000 0.044051 0.000000
# 6 0.000000 0.000000 0.000000 -0.005559 0.000000 0.025289
#
#
# Mechanical properties :
#
#
# Convention : Reuss Voigt Hill
#
# Bulk Modulus (GPa) = 60.48461 80.38710 70.43585
# Shear Modulus (GPa) = 33.39613 40.30017 36.84815
#
# Velocity S-wave (km/s) = 3.54525 3.89450 3.72397
# Velocity P-wave (km/s) = 6.28666 7.10471 6.70817
#
# Compressibility (1/GPa) = 0.01653313
#
# Stress axis : x y z
#
# Youngs Moduli (GPa) = 139.23080 115.76167 52.29558
#
# Poissons Ratio (x) = 0.24203 0.16296
# Poissons Ratio (y) = 0.29110 0.20907
# Poissons Ratio (z) = 0.43386 0.46281
#
# Static dielectric constant tensor:
#      x y z
#    x 2.008880 0.000000 0.038360 
#    y 0.000000 2.269440 0.000000 
#    z 0.038360 0.000000 2.620930 
# 
# From -- ./inp_files/5778.got.cif
#   From: 2010.05.17/outbox.cif.g08.bks.cpg/sg4_3_cif.got.tgz:5778.got - 2010.06.03 18:43:04.
