data_PCOD9118850
_publ_section_title
;
Structure prediction by ZEFSAII (Michael W. Deem and Ramdas Pophale) SiO2 
 PCOD9118850
Probable space group: P 21
;
_chemical_formula_sum "Si O2"
_cell_formula_units_Z 16
_cell_length_a 10.127901
_cell_length_b 13.717840
_cell_length_c 10.320720
_cell_angle_alpha 90.000000
_cell_angle_beta 27.972142
_cell_angle_gamma 90.000000
_cell_volume 672.553907
_symmetry_space_group_name_H-M "P 21"
_symmetry_group_IT_number 4
_symmetry_cell_setting 'monoclinic'
loop_
_space_group_symop_operation_xyz
x,y,z
-x,1/2+y,-z
loop_
_atom_site_type_symbol
_atom_site_label
_atom_site_fract_x
_atom_site_fract_y
_atom_site_fract_z
Si Si1 0.751507 0.576170 0.332030
Si Si2 0.819180 0.995343 0.236009
Si Si3 0.196677 0.486003 0.137298
Si Si4 0.209255 0.006995 0.285180
Si Si5 0.802831 0.788076 0.376026
Si Si6 0.851781 0.146924 0.430342
Si Si7 0.355519 0.275249 0.969520
Si Si8 0.391459 0.821002 0.972019
O O1 0.455568 0.522586 0.609466
O O2 0.710723 0.692053 0.377829
O O3 0.979443 0.546387 0.241843
O O4 0.898798 0.536107 0.074531
O O5 0.837553 0.882035 0.254162
O O6 0.770639 0.059018 0.407266
O O7 0.309467 0.387513 0.973156
O O8 0.001690 0.455631 0.429938
O O9 0.487092 0.539193 0.923456
O O10 0.293546 0.930190 0.099847
O O11 0.027472 0.096648 0.392911
O O12 0.584455 0.815911 0.678354
O O13 0.101032 0.768208 0.187705
O O14 0.071181 0.221164 0.178972
O O15 0.596571 0.212161 0.696274
O O16 0.443258 0.281030 0.045861
#
# Coordination Sequence:
#
# PCOD9118850 Si02
#       8
#     2   2   2   2   2   2   2   2
#     4  12  29  49  74 109 141 204 255 302 370 430
#     4  12  28  50  72 105 148 196 256 306 359 442
#     4  11  25  46  70 107 153 191 242 309 375 435
#     4  11  23  42  73 108 148 188 234 312 375 443
#     4  12  26  47  75 103 143 196 246 313 356 445
#     4  12  25  42  71 111 143 199 238 301 374 440
#     4  11  25  40  69 113 152 191 234 304 379 450
#     4  11  23  44  70 108 148 187 243 293 378 439
#
# _framework density 23.789915000000001
#
# number of rings (size 3 to 8) (size 9 to 14) (size 15 to 20)
#    0.000    0.500    1.250    7.500    7.000    3.000 
#    0.000    0.000    0.000    0.000    0.000    0.000 
#    0.000    0.000    0.000    0.000    0.000    0.000 
#
# Total GULP energy -89606.932641 kJ/mol
# GULP energy per Si atom -5600.433290 kJ/mol
# Density = 2.373577 g / cm^3
# Si number density = 23.789915 Si / 1000 Ang^3
#
#
#
# Elastic Constant Matrix: (Units=GPa)
#
#
# Indices 1 2 3 4 5 6 
#
# 1 49.5761 36.1065 26.6796 0.0000 -17.2423 0.0000
# 2 36.1065 151.5904 42.2861 0.0000 7.6694 0.0000
# 3 26.6796 42.2861 163.8935 0.0000 -10.6289 0.0000
# 4 0.0000 0.0000 0.0000 30.3545 0.0000 -10.8946
# 5 -17.2423 7.6694 -10.6289 0.0000 49.9725 0.0000
# 6 0.0000 0.0000 0.0000 -10.8946 0.0000 27.3524
#
#
#
# Elastic Compliance Matrix: (Units=1/GPa)
#
#
# Indices 1 2 3 4 5 6 
#
# 1 0.030559 -0.007172 -0.002402 0.000000 0.011134 0.000000
# 2 -0.007172 0.008904 -0.001398 0.000000 -0.004139 0.000000
# 3 -0.002402 -0.001398 0.006909 0.000000 0.000855 0.000000
# 4 0.000000 0.000000 0.000000 0.038439 0.000000 0.015310
# 5 0.011134 -0.004139 0.000855 0.000000 0.024670 0.000000
# 6 0.000000 0.000000 0.000000 0.015310 0.000000 0.042658
#
#
# Mechanical properties :
#
#
# Convention : Reuss Voigt Hill
#
# Bulk Modulus (GPa) = 40.93707 63.91160 52.42433
# Shear Modulus (GPa) = 27.43828 38.86839 33.15333
#
# Velocity S-wave (km/s) = 3.39980 4.04644 3.73713
# Velocity P-wave (km/s) = 5.71459 6.98247 6.38010
#
# Compressibility (1/GPa) = 0.02442774
#
# Stress axis : x y z
#
# Youngs Moduli (GPa) = 32.72310 112.30362 144.74284
#
# Poissons Ratio (x) = 0.80544 0.34769
# Poissons Ratio (y) = 0.23469 0.20240
# Poissons Ratio (z) = 0.07861 0.15704
#
# Static dielectric constant tensor:
#      x y z
#    x 1.977580 0.000000 0.035460 
#    y 0.000000 1.890190 0.000000 
#    z 0.035460 0.000000 1.872460 
# 
# From -- ./inp_files/12354.got.cif
#   From: 2010.05.17/outbox.cif.g08.bks.cpg/sg4_7_cif.got.tgz:12354.got - 2010.06.03 18:43:04.
