data_PCOD9118543
_publ_section_title
;
Structure prediction by ZEFSAII (Michael W. Deem and Ramdas Pophale) SiO2 
 PCOD9118543
Probable space group: P 21
;
_chemical_formula_sum "Si O2"
_cell_formula_units_Z 16
_cell_length_a 9.369302
_cell_length_b 8.591802
_cell_length_c 7.882434
_cell_angle_alpha 90.000000
_cell_angle_beta 71.703596
_cell_angle_gamma 90.000000
_cell_volume 602.451009
_symmetry_space_group_name_H-M "P 21"
_symmetry_group_IT_number 4
_symmetry_cell_setting 'monoclinic'
loop_
_space_group_symop_operation_xyz
x,y,z
-x,1/2+y,-z
loop_
_atom_site_type_symbol
_atom_site_label
_atom_site_fract_x
_atom_site_fract_y
_atom_site_fract_z
Si Si1 0.835809 0.641790 0.920724
Si Si2 0.334700 0.356651 0.485045
Si Si3 0.070547 0.825144 0.669255
Si Si4 0.359562 0.400939 0.857137
Si Si5 0.306988 0.001686 0.364375
Si Si6 0.632871 0.195821 0.947257
Si Si7 0.591057 0.487073 0.187913
Si Si8 0.116777 0.598203 0.370028
O O1 0.791012 0.543515 0.769132
O O2 0.004464 0.713839 0.844427
O O3 0.728483 0.794511 0.973791
O O4 0.765409 0.539167 0.103076
O O5 0.299337 0.354132 0.696277
O O6 0.337661 0.177315 0.423505
O O7 0.495723 0.440607 0.388006
O O8 0.218607 0.474615 0.437446
O O9 0.027258 0.712078 0.526986
O O10 0.229955 0.890057 0.536344
O O11 0.982478 0.986483 0.706451
O O12 0.539867 0.419847 0.758054
O O13 0.320218 0.573359 0.926696
O O14 0.778550 0.208589 0.778783
O O15 0.507758 0.116307 0.873577
O O16 0.575435 0.338191 0.075207
#
# Coordination Sequence:
#
# PCOD9118543 Si02
#       8
#     2   2   2   2   2   2   2   2
#     4  12  24  43  69 106 130 183 240 289 334 416
#     4  11  25  44  66 104 141 179 224 291 363 416
#     4  12  24  43  72  99 135 183 242 281 342 412
#     4  12  26  42  71 104 139 174 231 296 357 415
#     4  12  25  45  69 101 142 182 232 293 348 414
#     4  11  21  38  65  98 131 171 226 284 330 402
#     4  11  22  38  67  99 137 172 227 288 339 397
#     4  11  23  41  69  97 133 178 226 286 343 410
#
# _framework density 26.558177000000001
#
# number of rings (size 3 to 8) (size 9 to 14) (size 15 to 20)
#    0.000    0.500    6.250    2.250    5.250    0.000 
#    0.000    1.250    0.000    0.000    0.000    0.000 
#    0.000    0.000    0.000    0.000    0.000    0.000 
#
# Total GULP energy -89316.677236 kJ/mol
# GULP energy per Si atom -5582.292327 kJ/mol
# Density = 2.649773 g / cm^3
# Si number density = 26.558177 Si / 1000 Ang^3
#
#
#
# Elastic Constant Matrix: (Units=GPa)
#
#
# Indices 1 2 3 4 5 6 
#
# 1 69.2545 19.1036 20.2451 0.0000 -10.4819 0.0000
# 2 19.1036 137.6673 32.6034 0.0000 -14.3420 0.0000
# 3 20.2451 32.6034 107.0068 0.0000 -29.6357 0.0000
# 4 0.0000 0.0000 0.0000 60.7353 0.0000 -29.8009
# 5 -10.4819 -14.3420 -29.6357 0.0000 37.0162 0.0000
# 6 0.0000 0.0000 0.0000 -29.8009 0.0000 27.9773
#
#
#
# Elastic Compliance Matrix: (Units=1/GPa)
#
#
# Indices 1 2 3 4 5 6 
#
# 1 0.015759 -0.001496 -0.001863 0.000000 0.002391 0.000000
# 2 -0.001496 0.008031 -0.001824 0.000000 0.001228 0.000000
# 3 -0.001863 -0.001824 0.012735 0.000000 0.008962 0.000000
# 4 0.000000 0.000000 0.000000 0.034492 0.000000 0.036741
# 5 0.002391 0.001228 0.008962 0.000000 0.035343 0.000000
# 6 0.000000 0.000000 0.000000 0.036741 0.000000 0.074879
#
#
# Mechanical properties :
#
#
# Convention : Reuss Voigt Hill
#
# Bulk Modulus (GPa) = 38.22889 50.87032 44.54961
# Shear Modulus (GPa) = 24.95926 41.27752 33.11839
#
# Velocity S-wave (km/s) = 3.06893 3.94665 3.53514
# Velocity P-wave (km/s) = 5.19456 6.32170 5.78565
#
# Compressibility (1/GPa) = 0.02615823
#
# Stress axis : x y z
#
# Youngs Moduli (GPa) = 63.45631 124.51125 78.52096
#
# Poissons Ratio (x) = 0.18632 0.14632
# Poissons Ratio (y) = 0.09496 0.14321
# Poissons Ratio (z) = 0.11825 0.22709
#
# Static dielectric constant tensor:
#      x y z
#    x 2.136440 0.000000 -0.003320 
#    y 0.000000 2.089670 0.000000 
#    z -0.003320 0.000000 2.057820 
# 
# From -- ./inp_files/7657.got.cif
#   From: 2010.05.17/outbox.cif.g08.bks.cpg/sg4_4_cif.got.tgz:7657.got - 2010.06.03 18:43:04.
