data_PCOD9118866
_publ_section_title
;
Structure prediction by ZEFSAII (Michael W. Deem and Ramdas Pophale) SiO2 
 PCOD9118866
Probable space group: P 21
;
_chemical_formula_sum "Si O2"
_cell_formula_units_Z 16
_cell_length_a 8.155906
_cell_length_b 5.144531
_cell_length_c 17.341900
_cell_angle_alpha 90.000000
_cell_angle_beta 56.785698
_cell_angle_gamma 90.000000
_cell_volume 608.761066
_symmetry_space_group_name_H-M "P 21"
_symmetry_group_IT_number 4
_symmetry_cell_setting 'monoclinic'
loop_
_space_group_symop_operation_xyz
x,y,z
-x,1/2+y,-z
loop_
_atom_site_type_symbol
_atom_site_label
_atom_site_fract_x
_atom_site_fract_y
_atom_site_fract_z
Si Si1 0.141581 0.733020 0.822967
Si Si2 0.231217 0.309965 0.988813
Si Si3 0.434849 0.164030 0.092007
Si Si4 0.529840 0.523794 0.192363
Si Si5 0.515811 0.443812 0.543607
Si Si6 0.865802 0.735606 0.277635
Si Si7 0.878009 0.663631 0.547993
Si Si8 0.781539 0.384882 0.717978
O O1 0.364359 0.787246 0.791957
O O2 0.097479 0.459510 0.795266
O O3 0.993621 0.779948 0.932018
O O4 0.107091 0.957957 0.768763
O O5 0.343771 0.172653 0.031617
O O6 0.335263 0.590741 0.967982
O O7 0.296173 0.196588 0.889913
O O8 0.321161 0.962933 0.175396
O O9 0.413762 0.420673 0.147849
O O10 0.377175 0.692612 0.279345
O O11 0.422492 0.703236 0.527906
O O12 0.350990 0.302890 0.637384
O O13 0.698084 0.563199 0.542705
O O14 0.013049 0.761197 0.311288
O O15 0.818926 0.624680 0.652278
O O16 0.949846 0.951750 0.510760
#
# Coordination Sequence:
#
# PCOD9118866 Si02
#       8
#     2   2   2   2   2   2   2   2
#     4  12  29  44  70 106 148 190 244 304 369 425
#     4  11  24  42  67  99 141 194 248 301 364 428
#     4  11  23  43  69  97 139 194 247 300 358 433
#     4  11  27  43  71 100 145 193 250 305 363 430
#     4  12  26  50  78 111 153 189 238 301 374 440
#     4  12  27  48  74 106 146 193 239 299 369 435
#     4  12  28  49  81 114 148 193 244 301 366 446
#     4  11  26  47  74 105 144 192 248 299 361 441
#
# _framework density 26.282889000000001
#
# number of rings (size 3 to 8) (size 9 to 14) (size 15 to 20)
#    0.000    0.500    2.500    4.500   12.250    0.000 
#    0.000    0.000    0.000    0.000    0.000    0.000 
#    0.000    0.000    0.000    0.000    0.000    0.000 
#
# Total GULP energy -89691.289638 kJ/mol
# GULP energy per Si atom -5605.705602 kJ/mol
# Density = 2.622307 g / cm^3
# Si number density = 26.282889 Si / 1000 Ang^3
#
#
#
# Elastic Constant Matrix: (Units=GPa)
#
#
# Indices 1 2 3 4 5 6 
#
# 1 106.1152 -2.9999 12.8150 0.0000 -1.4606 0.0000
# 2 -2.9999 80.5177 12.8846 0.0000 11.5004 0.0000
# 3 12.8150 12.8846 77.2632 0.0000 -14.1790 0.0000
# 4 0.0000 0.0000 0.0000 36.7820 0.0000 2.3023
# 5 -1.4606 11.5004 -14.1790 0.0000 38.1650 0.0000
# 6 0.0000 0.0000 0.0000 2.3023 0.0000 34.6115
#
#
#
# Elastic Compliance Matrix: (Units=1/GPa)
#
#
# Indices 1 2 3 4 5 6 
#
# 1 0.009657 0.000726 -0.001819 0.000000 -0.000525 0.000000
# 2 0.000726 0.013760 -0.003403 0.000000 -0.005383 0.000000
# 3 -0.001819 -0.003403 0.015011 0.000000 0.006533 0.000000
# 4 0.000000 0.000000 0.000000 0.027301 0.000000 -0.001816
# 5 -0.000525 -0.005383 0.006533 0.000000 0.030231 0.000000
# 6 0.000000 0.000000 0.000000 -0.001816 0.000000 0.029013
#
#
# Mechanical properties :
#
#
# Convention : Reuss Voigt Hill
#
# Bulk Modulus (GPa) = 33.97274 34.36615 34.16944
# Shear Modulus (GPa) = 34.77627 37.99145 36.38386
#
# Velocity S-wave (km/s) = 3.64146 3.80607 3.72468
# Velocity P-wave (km/s) = 5.53482 5.69375 5.61485
#
# Compressibility (1/GPa) = 0.02943537
#
# Stress axis : x y z
#
# Youngs Moduli (GPa) = 103.55508 72.67420 66.61882
#
# Poissons Ratio (x) = -0.05275 0.12118
# Poissons Ratio (y) = -0.07517 0.22670
# Poissons Ratio (z) = 0.18837 0.24730
#
# Static dielectric constant tensor:
#      x y z
#    x 2.048180 0.000000 -0.007150 
#    y 0.000000 2.097260 0.000000 
#    z -0.007150 0.000000 2.056260 
# 
# From -- ./inp_files/9518.got.cif
#   From: 2010.05.17/outbox.cif.g08.bks.cpg/sg4_5_cif.got.tgz:9518.got - 2010.06.03 18:43:04.
