data_PCOD9118607
_publ_section_title
;
Structure prediction by ZEFSAII (Michael W. Deem and Ramdas Pophale) SiO2 
 PCOD9118607
Probable space group: P 21
;
_chemical_formula_sum "Si O2"
_cell_formula_units_Z 14
_cell_length_a 10.254230
_cell_length_b 11.017588
_cell_length_c 10.772331
_cell_angle_alpha 90.000000
_cell_angle_beta 26.513717
_cell_angle_gamma 90.000000
_cell_volume 543.294345
_symmetry_space_group_name_H-M "P 21"
_symmetry_group_IT_number 4
_symmetry_cell_setting 'monoclinic'
loop_
_space_group_symop_operation_xyz
x,y,z
-x,1/2+y,-z
loop_
_atom_site_type_symbol
_atom_site_label
_atom_site_fract_x
_atom_site_fract_y
_atom_site_fract_z
Si Si1 0.767375 0.562560 0.117352
Si Si2 0.572981 0.210964 0.187102
Si Si3 0.193348 0.541113 0.432822
Si Si4 0.403847 0.185369 0.059547
Si Si5 0.221671 0.318349 0.983866
Si Si6 0.665676 0.477815 0.479962
Si Si7 0.890106 0.854154 0.312066
O O1 0.462133 0.558635 0.300950
O O2 0.901740 0.693711 0.970184
O O3 0.692031 0.537372 0.322817
O O4 0.988683 0.460356 0.878422
O O5 0.459168 0.239279 0.146333
O O6 0.437806 0.305461 0.400892
O O7 0.448744 0.080762 0.328622
O O8 0.913777 0.237036 0.885336
O O9 0.921533 0.631534 0.673057
O O10 0.062219 0.412936 0.590558
O O11 0.360656 0.577139 0.164352
O O12 0.418988 0.281230 0.934369
O O13 0.421346 0.375412 0.707177
O O14 0.972638 0.410576 0.239670
#
# Coordination Sequence:
#
# PCOD9118607 Si02
#       7
#     2   2   2   2   2   2   2
#     4  11  27  46  79 104 143 193 259 302 368 452
#     4  12  28  47  69 115 148 189 241 314 372 438
#     4  11  21  45  73 108 129 195 248 290 362 446
#     4  11  24  46  75 104 152 185 250 304 372 444
#     4  11  26  49  70 106 141 202 239 301 378 437
#     4  12  30  45  73 110 151 187 247 311 372 429
#     4  12  24  46  73 105 140 191 246 292 374 438
#
# _framework density 25.768719999999998
#
# number of rings (size 3 to 8) (size 9 to 14) (size 15 to 20)
#    0.000    0.571    4.286    3.429    6.000    3.429 
#    0.000    0.000    0.000    0.000    0.000    0.000 
#    0.000    0.000    0.000    0.000    0.000    0.000 
#
# Total GULP energy -78355.783596 kJ/mol
# GULP energy per Si atom -5596.841685 kJ/mol
# Density = 2.571007 g / cm^3
# Si number density = 25.768720 Si / 1000 Ang^3
#
#
#
# Elastic Constant Matrix: (Units=GPa)
#
#
# Indices 1 2 3 4 5 6 
#
# 1 76.8258 26.6114 28.5996 0.0000 27.6123 0.0000
# 2 26.6114 96.9973 44.8639 0.0000 17.7633 0.0000
# 3 28.5996 44.8639 164.7984 0.0000 10.4642 0.0000
# 4 0.0000 0.0000 0.0000 53.7878 0.0000 15.2987
# 5 27.6123 17.7633 10.4642 0.0000 34.3255 0.0000
# 6 0.0000 0.0000 0.0000 15.2987 0.0000 27.0807
#
#
#
# Elastic Compliance Matrix: (Units=1/GPa)
#
#
# Indices 1 2 3 4 5 6 
#
# 1 0.019458 -0.001841 -0.001981 0.000000 -0.014096 0.000000
# 2 -0.001841 0.012966 -0.002935 0.000000 -0.004334 0.000000
# 3 -0.001981 -0.002935 0.007152 0.000000 0.000932 0.000000
# 4 0.000000 0.000000 0.000000 0.022151 0.000000 -0.012514
# 5 -0.014096 -0.004334 0.000932 0.000000 0.042431 0.000000
# 6 0.000000 0.000000 0.000000 -0.012514 0.000000 0.043996
#
#
# Mechanical properties :
#
#
# Convention : Reuss Voigt Hill
#
# Bulk Modulus (GPa) = 38.36971 59.86348 49.11659
# Shear Modulus (GPa) = 29.35082 38.94191 34.14636
#
# Velocity S-wave (km/s) = 3.37858 3.89164 3.64415
# Velocity P-wave (km/s) = 5.49018 6.59353 6.06699
#
# Compressibility (1/GPa) = 0.02606223
#
# Stress axis : x y z
#
# Youngs Moduli (GPa) = 51.39376 77.12548 139.82899
#
# Poissons Ratio (x) = 0.14197 0.27694
# Poissons Ratio (y) = 0.09460 0.41041
# Poissons Ratio (z) = 0.10179 0.22637
#
# Static dielectric constant tensor:
#      x y z
#    x 2.016190 0.000000 -0.001530 
#    y 0.000000 2.103250 0.000000 
#    z -0.001530 0.000000 1.958890 
# 
# From -- ./inp_files/12241.got.cif
#   From: 2010.05.17/outbox.cif.g08.bks.cpg/sg4_7_cif.got.tgz:12241.got - 2010.06.03 18:43:04.
