data_PCOD9118965
_publ_section_title
;
Structure prediction by ZEFSAII (Michael W. Deem and Ramdas Pophale) SiO2 
 PCOD9118965
Probable space group: P 21
;
_chemical_formula_sum "Si O2"
_cell_formula_units_Z 16
_cell_length_a 5.272312
_cell_length_b 10.080561
_cell_length_c 12.216146
_cell_angle_alpha 90.000000
_cell_angle_beta 104.775078
_cell_angle_gamma 90.000000
_cell_volume 627.793817
_symmetry_space_group_name_H-M "P 21"
_symmetry_group_IT_number 4
_symmetry_cell_setting 'monoclinic'
loop_
_space_group_symop_operation_xyz
x,y,z
-x,1/2+y,-z
loop_
_atom_site_type_symbol
_atom_site_label
_atom_site_fract_x
_atom_site_fract_y
_atom_site_fract_z
Si Si1 0.770008 0.529490 0.983132
Si Si2 0.044801 0.152125 0.199935
Si Si3 0.514412 0.900487 0.414041
Si Si4 0.809417 0.148118 0.397333
Si Si5 0.441162 0.370901 0.328934
Si Si6 0.801859 0.099455 0.817235
Si Si7 0.028026 0.241818 0.639484
Si Si8 0.583929 0.257479 0.991570
O O1 0.564921 0.415418 0.989141
O O2 0.028788 0.507146 0.082822
O O3 0.829407 0.538956 0.861905
O O4 0.670996 0.675165 0.005240
O O5 0.244791 0.270600 0.247155
O O6 0.946151 0.097334 0.303997
O O7 0.801327 0.209683 0.103189
O O8 0.623098 0.881743 0.549742
O O9 0.224964 0.839851 0.383916
O O10 0.703319 0.819048 0.353108
O O11 0.558850 0.055290 0.393666
O O12 0.719730 0.297256 0.357599
O O13 0.981000 0.152385 0.525547
O O14 0.416185 0.511963 0.268226
O O15 0.993532 0.157256 0.745353
O O16 0.681428 0.209799 0.883373
#
# Coordination Sequence:
#
# PCOD9118965 Si02
#       8
#     2   2   2   2   2   2   2   2
#     4  11  27  48  74 108 147 197 257 317 386 459
#     4  11  24  46  71 101 146 190 257 303 386 450
#     4  11  26  46  74 111 161 193 261 305 384 454
#     4  11  25  44  75 108 146 201 245 320 374 466
#     4  11  23  46  72 106 145 201 244 305 382 460
#     4  11  26  47  75 102 150 194 252 310 388 457
#     4  11  26  47  72 117 150 200 251 315 381 458
#     4  11  27  46  75 107 143 196 253 323 377 456
#
# _framework density 25.486076000000001
#
# number of rings (size 3 to 8) (size 9 to 14) (size 15 to 20)
#    0.000    1.000    3.750    0.750    8.750    2.000 
#    0.000    0.000    0.000    0.000    0.000    0.000 
#    0.000    0.000    0.000    0.000    0.000    0.000 
#
# Total GULP energy -89703.360725 kJ/mol
# GULP energy per Si atom -5606.460045 kJ/mol
# Density = 2.542807 g / cm^3
# Si number density = 25.486076 Si / 1000 Ang^3
#
#
#
# Elastic Constant Matrix: (Units=GPa)
#
#
# Indices 1 2 3 4 5 6 
#
# 1 71.8664 11.1547 35.1189 0.0000 -12.4740 0.0000
# 2 11.1547 87.7027 28.4011 0.0000 -8.9020 0.0000
# 3 35.1189 28.4011 142.1876 0.0000 -24.5191 0.0000
# 4 0.0000 0.0000 0.0000 28.1742 0.0000 3.9736
# 5 -12.4740 -8.9020 -24.5191 0.0000 40.1291 0.0000
# 6 0.0000 0.0000 0.0000 3.9736 0.0000 34.9463
#
#
#
# Elastic Compliance Matrix: (Units=1/GPa)
#
#
# Indices 1 2 3 4 5 6 
#
# 1 0.016155 -0.000678 -0.003370 0.000000 0.002812 0.000000
# 2 -0.000678 0.012286 -0.002071 0.000000 0.001249 0.000000
# 3 -0.003370 -0.002071 0.008964 0.000000 0.003970 0.000000
# 4 0.000000 0.000000 0.000000 0.036072 0.000000 -0.004102
# 5 0.002812 0.001249 0.003970 0.000000 0.028497 0.000000
# 6 0.000000 0.000000 0.000000 -0.004102 0.000000 0.029082
#
#
# Mechanical properties :
#
#
# Convention : Reuss Voigt Hill
#
# Bulk Modulus (GPa) = 39.73540 50.12290 44.92915
# Shear Modulus (GPa) = 32.96396 35.78871 34.37633
#
# Velocity S-wave (km/s) = 3.60030 3.75139 3.67662
# Velocity P-wave (km/s) = 5.73653 6.20269 5.97416
#
# Compressibility (1/GPa) = 0.02516648
#
# Stress axis : x y z
#
# Youngs Moduli (GPa) = 61.90134 81.39409 111.56350
#
# Poissons Ratio (x) = 0.05519 0.37593
# Poissons Ratio (y) = 0.04197 0.23107
# Poissons Ratio (z) = 0.20859 0.16858
#
# Static dielectric constant tensor:
#      x y z
#    x 1.990720 0.000000 0.009920 
#    y 0.000000 1.991740 0.000000 
#    z 0.009920 0.000000 1.967970 
# 
# From -- ./inp_files/2572.got.cif
#   From: 2010.05.17/outbox.cif.g08.bks.cpg/sg4_2_cif.got.tgz:2572.got - 2010.06.03 18:43:04.
