data_PCOD9118635
_publ_section_title
;
Structure prediction by ZEFSAII (Michael W. Deem and Ramdas Pophale) SiO2 
 PCOD9118635
Probable space group: P 21
;
_chemical_formula_sum "Si O2"
_cell_formula_units_Z 16
_cell_length_a 10.780350
_cell_length_b 6.760700
_cell_length_c 8.770482
_cell_angle_alpha 90.000000
_cell_angle_beta 81.036335
_cell_angle_gamma 90.000000
_cell_volume 631.409987
_symmetry_space_group_name_H-M "P 21"
_symmetry_group_IT_number 4
_symmetry_cell_setting 'monoclinic'
loop_
_space_group_symop_operation_xyz
x,y,z
-x,1/2+y,-z
loop_
_atom_site_type_symbol
_atom_site_label
_atom_site_fract_x
_atom_site_fract_y
_atom_site_fract_z
Si Si1 0.606968 0.381840 0.159946
Si Si2 0.623795 0.675828 0.888683
Si Si3 0.902442 0.808895 0.112621
Si Si4 0.066549 0.826894 0.616854
Si Si5 0.760862 0.065683 0.935869
Si Si6 0.806360 0.986719 0.571532
Si Si7 0.263959 0.165841 0.626761
Si Si8 0.108626 0.047705 0.152976
O O1 0.488125 0.236289 0.202201
O O2 0.710208 0.244993 0.049838
O O3 0.642397 0.514346 0.302274
O O4 0.574353 0.538153 0.033294
O O5 0.774307 0.063117 0.748418
O O6 0.669450 0.875652 0.961977
O O7 0.007118 0.199876 0.241767
O O8 0.885225 0.982403 0.992630
O O9 0.036591 0.840877 0.166146
O O10 0.872913 0.612176 0.024871
O O11 0.173336 0.684645 0.528774
O O12 0.946996 0.892511 0.539534
O O13 0.140400 0.027521 0.635322
O O14 0.787305 0.832333 0.248254
O O15 0.717691 0.810020 0.523257
O O16 0.753757 0.574906 0.801080
#
# Coordination Sequence:
#
# PCOD9118635 Si02
#       8
#     2   2   2   2   2   2   2   2
#     4  12  25  46  76 112 142 197 264 324 372 437
#     4  11  24  43  75 106 144 196 253 320 375 440
#     4  11  22  39  68 109 150 187 241 311 378 453
#     4  12  24  43  68 104 158 201 234 304 396 479
#     4  11  25  45  75 109 148 191 253 320 384 449
#     4  12  26  44  70 109 158 198 242 299 401 483
#     4  12  26  44  74 110 153 199 249 311 383 463
#     4  11  22  38  66 111 145 189 242 309 375 452
#
# _framework density 25.340112999999999
#
# number of rings (size 3 to 8) (size 9 to 14) (size 15 to 20)
#    0.000    0.500    8.750    1.500    1.750    2.000 
#    0.000    0.000    2.750    0.000    0.000    0.000 
#    0.000    0.000    0.000    0.000    0.000    0.000 
#
# Total GULP energy -89172.879761 kJ/mol
# GULP energy per Si atom -5573.304985 kJ/mol
# Density = 2.528244 g / cm^3
# Si number density = 25.340113 Si / 1000 Ang^3
#
#
#
# Elastic Constant Matrix: (Units=GPa)
#
#
# Indices 1 2 3 4 5 6 
#
# 1 117.4492 25.9152 24.5018 0.0000 11.6052 0.0000
# 2 25.9152 110.8238 24.6796 0.0000 5.7253 0.0000
# 3 24.5018 24.6796 85.8668 0.0000 -6.6068 0.0000
# 4 0.0000 0.0000 0.0000 40.9341 0.0000 11.7357
# 5 11.6052 5.7253 -6.6068 0.0000 30.5258 0.0000
# 6 0.0000 0.0000 0.0000 11.7357 0.0000 50.3114
#
#
#
# Elastic Compliance Matrix: (Units=1/GPa)
#
#
# Indices 1 2 3 4 5 6 
#
# 1 0.009799 -0.001487 -0.002679 0.000000 -0.004026 0.000000
# 2 -0.001487 0.010049 -0.002609 0.000000 -0.001884 0.000000
# 3 -0.002679 -0.002609 0.013501 0.000000 0.004430 0.000000
# 4 0.000000 0.000000 0.000000 0.026180 0.000000 -0.006107
# 5 -0.004026 -0.001884 0.004430 0.000000 0.035602 0.000000
# 6 0.000000 0.000000 0.000000 -0.006107 0.000000 0.021301
#
#
# Mechanical properties :
#
#
# Convention : Reuss Voigt Hill
#
# Bulk Modulus (GPa) = 50.50414 51.59255 51.04835
# Shear Modulus (GPa) = 36.60816 40.29047 38.44931
#
# Velocity S-wave (km/s) = 3.80501 3.99179 3.89952
# Velocity P-wave (km/s) = 6.26721 6.45369 6.36113
#
# Compressibility (1/GPa) = 0.01980036
#
# Stress axis : x y z
#
# Youngs Moduli (GPa) = 102.05100 99.50846 74.06871
#
# Poissons Ratio (x) = 0.14796 0.19840
# Poissons Ratio (y) = 0.15174 0.19325
# Poissons Ratio (z) = 0.27335 0.25962
#
# Static dielectric constant tensor:
#      x y z
#    x 2.066810 0.000000 0.010800 
#    y 0.000000 2.101550 0.000000 
#    z 0.010800 0.000000 2.120580 
# 
# From -- ./inp_files/7305.got.cif
#   From: 2010.05.17/outbox.cif.g08.bks.cpg/sg4_4_cif.got.tgz:7305.got - 2010.06.03 18:43:04.
