data_PCOD9118456
_publ_section_title
;
Structure prediction by ZEFSAII (Michael W. Deem and Ramdas Pophale) SiO2 
 PCOD9118456
Probable space group: P 21
;
_chemical_formula_sum "Si O2"
_cell_formula_units_Z 14
_cell_length_a 9.495614
_cell_length_b 15.557409
_cell_length_c 6.714413
_cell_angle_alpha 90.000000
_cell_angle_beta 135.000016
_cell_angle_gamma 90.000000
_cell_volume 701.379799
_symmetry_space_group_name_H-M "P 21"
_symmetry_group_IT_number 4
_symmetry_cell_setting 'monoclinic'
loop_
_space_group_symop_operation_xyz
x,y,z
-x,1/2+y,-z
loop_
_atom_site_type_symbol
_atom_site_label
_atom_site_fract_x
_atom_site_fract_y
_atom_site_fract_z
Si Si1 0.948819 0.299700 0.335274
Si Si2 0.113546 0.588569 0.062366
Si Si3 0.250000 0.152348 0.500000
Si Si4 0.250001 0.735921 0.500001
Si Si5 0.613546 0.088569 0.062365
Si Si6 0.448820 0.799700 0.335274
Si Si7 0.750000 0.944135 0.500000
O O1 0.088120 0.216343 0.435590
O O2 0.075637 0.382579 0.404225
O O3 0.893150 0.294713 0.511463
O O4 0.750000 0.297239 1.000000
O O5 0.152531 0.671926 0.240652
O O6 0.171412 0.505690 0.247049
O O7 0.250000 0.591030 0.000000
O O8 0.881687 0.593556 0.774838
O O9 0.411879 0.216343 0.564410
O O10 0.381687 0.093556 0.774837
O O11 0.347469 0.671926 0.759349
O O12 0.393151 0.794713 0.511464
O O13 0.671412 0.005690 0.247049
O O14 0.575637 0.882579 0.404224
#
# Coordination Sequence:
#
# PCOD9118456 Si02
#       7
#     2   2   2   2   2   2   2
#     4  11  23  45  66 104 129 174 221 273 323 395
#     4  11  23  45  66 104 129 174 221 273 323 395
#     4  11  20  43  75  93 132 170 232 263 318 396
#     4  11  20  43  75  93 132 170 232 263 318 396
#     4  11  23  45  66 104 129 174 221 273 323 395
#     4  11  23  45  66 104 129 174 221 273 323 395
#     4  10  28  44  68  94 144 170 212 274 344 376
#
# _framework density 19.960654000000002
#
# number of rings (size 3 to 8) (size 9 to 14) (size 15 to 20)
#    0.000    1.143    5.714    0.000    0.000    5.714 
#    0.000    0.000    0.000    0.000    0.000    0.000 
#    0.000    0.000    0.000    0.000    0.000    0.000 
#
# Total GULP energy -78193.416368 kJ/mol
# GULP energy per Si atom -5585.244026 kJ/mol
# Density = 1.991522 g / cm^3
# Si number density = 19.960654 Si / 1000 Ang^3
#
#
#
# Elastic Constant Matrix: (Units=GPa)
#
#
# Indices 1 2 3 4 5 6 
#
# 1 161.1557 74.1124 76.8116 0.0000 -12.0595 0.0000
# 2 74.1124 122.3662 74.1124 0.0000 0.0000 0.0000
# 3 76.8116 74.1124 161.1557 0.0000 12.0594 0.0000
# 4 0.0000 0.0000 0.0000 13.9682 0.0000 0.0000
# 5 -12.0595 0.0000 12.0594 0.0000 41.2290 0.0000
# 6 0.0000 0.0000 0.0000 0.0000 0.0000 13.9686
#
#
#
# Elastic Compliance Matrix: (Units=1/GPa)
#
#
# Indices 1 2 3 4 5 6 
#
# 1 0.009843 -0.004087 -0.003095 0.000000 0.003784 0.000000
# 2 -0.004087 0.013123 -0.004087 0.000000 0.000000 0.000000
# 3 -0.003095 -0.004087 0.009843 0.000000 -0.003784 0.000000
# 4 0.000000 0.000000 0.000000 0.071591 0.000000 0.000000
# 5 0.003784 0.000000 -0.003784 0.000000 0.026469 0.000000
# 6 0.000000 0.000000 0.000000 0.000000 0.000000 0.071589
#
#
# Mechanical properties :
#
#
# Convention : Reuss Voigt Hill
#
# Bulk Modulus (GPa) = 97.36295 99.41672 98.38984
# Shear Modulus (GPa) = 21.88951 28.47591 25.18271
#
# Velocity S-wave (km/s) = 3.31514 3.78114 3.55578
# Velocity P-wave (km/s) = 7.97100 8.30525 8.13984
#
# Compressibility (1/GPa) = 0.01027085
#
# Stress axis : x y z
#
# Youngs Moduli (GPa) = 101.59327 76.20311 101.59334
#
# Poissons Ratio (x) = 0.31144 0.31445
# Poissons Ratio (y) = 0.41521 0.41521
# Poissons Ratio (z) = 0.31445 0.31144
#
# Static dielectric constant tensor:
#      x y z
#    x 1.720100 0.000000 0.000000 
#    y 0.000000 1.699180 0.000000 
#    z 0.000000 0.000000 1.720100 
# 
# From -- ./inp_files/411.got.cif
#   From: 2010.05.17/outbox.cif.g08.bks.cpg/sg4_1_cif.got.tgz:411.got - 2010.06.03 18:43:04.
