data_PCOD9118577
_publ_section_title
;
Structure prediction by ZEFSAII (Michael W. Deem and Ramdas Pophale) SiO2 
 PCOD9118577
Probable space group: P 21
;
_chemical_formula_sum "Si O2"
_cell_formula_units_Z 16
_cell_length_a 14.481398
_cell_length_b 7.843634
_cell_length_c 11.594799
_cell_angle_alpha 90.000000
_cell_angle_beta 147.097315
_cell_angle_gamma 90.000000
_cell_volume 715.421233
_symmetry_space_group_name_H-M "P 21"
_symmetry_group_IT_number 4
_symmetry_cell_setting 'monoclinic'
loop_
_space_group_symop_operation_xyz
x,y,z
-x,1/2+y,-z
loop_
_atom_site_type_symbol
_atom_site_label
_atom_site_fract_x
_atom_site_fract_y
_atom_site_fract_z
Si Si1 0.675089 0.498110 0.324834
Si Si2 0.781514 0.081298 0.867481
Si Si3 0.065827 0.286951 0.093280
Si Si4 0.421861 0.184266 0.546984
Si Si5 0.401929 0.338002 0.894967
Si Si6 0.435310 0.540021 0.695577
Si Si7 0.750384 0.794879 0.033726
Si Si8 0.093187 0.752461 0.323233
O O1 0.587316 0.554804 0.353670
O O2 0.659628 0.663514 0.228368
O O3 0.854088 0.425094 0.553822
O O4 0.578910 0.351932 0.151245
O O5 0.856652 0.975192 0.838368
O O6 0.589872 0.147113 0.648672
O O7 0.765542 0.945181 0.955093
O O8 0.923605 0.228153 0.035812
O O9 0.238895 0.176967 0.291058
O O10 0.963658 0.282370 0.866659
O O11 0.444590 0.372871 0.624547
O O12 0.426808 0.466235 0.816220
O O13 0.273380 0.375403 0.864692
O O14 0.259916 0.639525 0.496855
O O15 0.594174 0.666979 0.845218
O O16 0.923982 0.686795 0.207988
#
# Coordination Sequence:
#
# PCOD9118577 Si02
#       8
#     2   2   2   2   2   2   2   2
#     4  11  21  42  71 102 138 178 226 284 342 409
#     4  11  25  44  68  97 136 182 231 284 344 408
#     4  11  26  44  67 100 138 180 228 290 336 395
#     4  11  24  42  70 101 131 186 231 273 347 415
#     4  11  21  42  73 100 140 180 223 282 349 404
#     4  11  24  42  68 103 141 177 226 285 341 409
#     4  11  23  43  71  98 137 186 226 283 343 416
#     4  11  24  43  64  95 141 177 229 285 338 398
#
# _framework density 22.364445
#
# number of rings (size 3 to 8) (size 9 to 14) (size 15 to 20)
#    0.000    1.000    3.750    2.250    0.000   10.000 
#    0.000    0.000    0.000    0.000    0.000    0.000 
#    0.000    0.000    0.000    0.000    0.000    0.000 
#
# Total GULP energy -89222.629388 kJ/mol
# GULP energy per Si atom -5576.414337 kJ/mol
# Density = 2.231354 g / cm^3
# Si number density = 22.364445 Si / 1000 Ang^3
#
#
#
# Elastic Constant Matrix: (Units=GPa)
#
#
# Indices 1 2 3 4 5 6 
#
# 1 58.4005 45.2314 61.8364 0.0000 15.8017 0.0000
# 2 45.2314 64.7100 63.9077 0.0000 -11.9425 0.0000
# 3 61.8364 63.9077 181.5635 0.0000 15.3798 0.0000
# 4 0.0000 0.0000 0.0000 23.2655 0.0000 0.7547
# 5 15.8017 -11.9425 15.3798 0.0000 46.4031 0.0000
# 6 0.0000 0.0000 0.0000 0.7547 0.0000 46.0031
#
#
#
# Elastic Compliance Matrix: (Units=1/GPa)
#
#
# Indices 1 2 3 4 5 6 
#
# 1 0.073872 -0.057231 -0.001683 0.000000 -0.039327 0.000000
# 2 -0.057231 0.072479 -0.009518 0.000000 0.041297 0.000000
# 3 -0.001683 -0.009518 0.009867 0.000000 -0.005147 0.000000
# 4 0.000000 0.000000 0.000000 0.043005 0.000000 -0.000706
# 5 -0.039327 0.041297 -0.005147 0.000000 0.047276 0.000000
# 6 0.000000 0.000000 0.000000 -0.000706 0.000000 0.021749
#
#
# Mechanical properties :
#
#
# Convention : Reuss Voigt Hill
#
# Bulk Modulus (GPa) = 51.67104 71.84722 61.75913
# Shear Modulus (GPa) = 12.14879 32.04759 22.09819
#
# Velocity S-wave (km/s) = 2.33323 3.78957 3.14681
# Velocity P-wave (km/s) = 5.51479 7.16541 6.39359
#
# Compressibility (1/GPa) = 0.01935320
#
# Stress axis : x y z
#
# Youngs Moduli (GPa) = 13.53699 13.79717 101.34559
#
# Poissons Ratio (x) = 0.78962 0.17060
# Poissons Ratio (y) = 0.77473 0.96462
# Poissons Ratio (z) = 0.02279 0.13132
#
# Static dielectric constant tensor:
#      x y z
#    x 1.862470 0.000000 -0.000080 
#    y 0.000000 1.926820 0.000000 
#    z -0.000080 0.000000 1.891370 
# 
# From -- ./inp_files/12665.got.cif
#   From: 2010.05.17/outbox.cif.g08.bks.cpg/sg4_7_cif.got.tgz:12665.got - 2010.06.03 18:43:04.
