data_PCOD9118463
_publ_section_title
;
Structure prediction by ZEFSAII (Michael W. Deem and Ramdas Pophale) SiO2 
 PCOD9118463
Probable space group: P 21
;
_chemical_formula_sum "Si O2"
_cell_formula_units_Z 16
_cell_length_a 21.272083
_cell_length_b 6.141714
_cell_length_c 9.969881
_cell_angle_alpha 90.000000
_cell_angle_beta 144.073134
_cell_angle_gamma 90.000000
_cell_volume 764.265491
_symmetry_space_group_name_H-M "P 21"
_symmetry_group_IT_number 4
_symmetry_cell_setting 'monoclinic'
loop_
_space_group_symop_operation_xyz
x,y,z
-x,1/2+y,-z
loop_
_atom_site_type_symbol
_atom_site_label
_atom_site_fract_x
_atom_site_fract_y
_atom_site_fract_z
Si Si1 0.169705 0.894360 0.035005
Si Si2 0.546607 0.585653 0.114139
Si Si3 0.729101 0.516458 0.222802
Si Si4 0.609745 0.505107 0.514555
Si Si5 0.259156 0.619325 0.948971
Si Si6 0.028209 0.144697 0.343913
Si Si7 0.417965 0.254829 0.252596
Si Si8 0.081528 0.288501 0.715303
O O1 0.264259 0.963149 0.297276
O O2 0.231364 0.735267 0.039993
O O3 0.056798 0.787983 0.886310
O O4 0.139708 0.091546 0.886327
O O5 0.657790 0.536706 0.231082
O O6 0.559377 0.608988 0.295312
O O7 0.510508 0.837716 0.005053
O O8 0.748709 0.277378 0.192228
O O9 0.844622 0.627201 0.452349
O O10 0.652593 0.620919 0.975689
O O11 0.541874 0.284920 0.427637
O O12 0.599937 0.652783 0.631657
O O13 0.170299 0.432710 0.795446
O O14 0.371418 0.498666 0.158263
O O15 0.008197 0.218467 0.464847
O O16 0.982461 0.902546 0.275960
#
# Coordination Sequence:
#
# PCOD9118463 Si02
#       8
#     2   2   2   2   2   2   2   2
#     4  11  22  37  60 101 139 184 231 296 361 412
#     4  12  30  54  77 106 149 199 246 303 381 453
#     4  12  24  44  69 106 140 187 245 296 357 449
#     4  12  25  46  71 104 146 182 244 305 373 437
#     4  11  19  36  64 100 141 173 235 289 359 416
#     4  11  20  33  63  95 141 181 232 285 352 422
#     4  12  24  41  69 105 133 180 236 302 364 426
#     4  11  18  33  57  99 141 174 221 296 349 405
#
# _framework density 20.935134000000001
#
# number of rings (size 3 to 8) (size 9 to 14) (size 15 to 20)
#    0.000    0.500    7.500    2.250    1.750    1.000 
#    0.000    0.000    2.750    0.000    0.000    0.000 
#    0.000    0.000    0.000    0.000    0.000    0.000 
#
# Total GULP energy -89075.653512 kJ/mol
# GULP energy per Si atom -5567.228344 kJ/mol
# Density = 2.088748 g / cm^3
# Si number density = 20.935134 Si / 1000 Ang^3
#
#
#
# Elastic Constant Matrix: (Units=GPa)
#
#
# Indices 1 2 3 4 5 6 
#
# 1 91.3285 15.1548 34.6329 0.0000 16.6990 0.0000
# 2 15.1548 73.3917 29.9915 0.0000 16.7311 0.0000
# 3 34.6329 29.9915 110.3944 0.0000 21.5563 0.0000
# 4 0.0000 0.0000 0.0000 10.5055 0.0000 6.9303
# 5 16.6990 16.7311 21.5563 0.0000 40.3507 0.0000
# 6 0.0000 0.0000 0.0000 6.9303 0.0000 18.5025
#
#
#
# Elastic Compliance Matrix: (Units=1/GPa)
#
#
# Indices 1 2 3 4 5 6 
#
# 1 0.012885 -0.000573 -0.003229 0.000000 -0.003370 0.000000
# 2 -0.000573 0.016162 -0.003292 0.000000 -0.004705 0.000000
# 3 -0.003229 -0.003292 0.011654 0.000000 -0.003525 0.000000
# 4 0.000000 0.000000 0.000000 0.126427 0.000000 -0.047354
# 5 -0.003370 -0.004705 -0.003525 0.000000 0.030011 0.000000
# 6 0.000000 0.000000 0.000000 -0.047354 0.000000 0.071784
#
#
# Mechanical properties :
#
#
# Convention : Reuss Voigt Hill
#
# Bulk Modulus (GPa) = 37.71690 48.29699 43.00694
# Shear Modulus (GPa) = 17.12634 26.89412 22.01023
#
# Velocity S-wave (km/s) = 2.86329 3.58808 3.24598
# Velocity P-wave (km/s) = 5.38390 6.34710 5.88524
#
# Compressibility (1/GPa) = 0.02651332
#
# Stress axis : x y z
#
# Youngs Moduli (GPa) = 77.60914 61.87389 85.80786
#
# Poissons Ratio (x) = 0.03546 0.27704
# Poissons Ratio (y) = 0.04447 0.28250
# Poissons Ratio (z) = 0.25057 0.20370
#
# Static dielectric constant tensor:
#      x y z
#    x 1.784840 0.000000 0.092700 
#    y 0.000000 1.894010 0.000000 
#    z 0.092700 0.000000 1.845170 
# 
# From -- ./inp_files/9880.got.cif
#   From: 2010.05.17/outbox.cif.g08.bks.cpg/sg4_5_cif.got.tgz:9880.got - 2010.06.03 18:43:04.
