data_PCOD9118997
_publ_section_title
;
Structure prediction by ZEFSAII (Michael W. Deem and Ramdas Pophale) SiO2 
 PCOD9118997
Probable space group: P 21
;
_chemical_formula_sum "Si O2"
_cell_formula_units_Z 16
_cell_length_a 9.316832
_cell_length_b 11.597429
_cell_length_c 9.066194
_cell_angle_alpha 90.000000
_cell_angle_beta 126.069224
_cell_angle_gamma 90.000000
_cell_volume 791.828140
_symmetry_space_group_name_H-M "P 21"
_symmetry_group_IT_number 4
_symmetry_cell_setting 'monoclinic'
loop_
_space_group_symop_operation_xyz
x,y,z
-x,1/2+y,-z
loop_
_atom_site_type_symbol
_atom_site_label
_atom_site_fract_x
_atom_site_fract_y
_atom_site_fract_z
Si Si1 0.163762 0.387010 0.455079
Si Si2 0.656420 0.608592 0.714356
Si Si3 0.182457 0.868896 0.268498
Si Si4 0.353330 0.571683 0.753111
Si Si5 0.209060 0.824069 0.631308
Si Si6 0.823552 0.849018 0.875746
Si Si7 0.494817 0.720883 0.336803
Si Si8 0.471928 0.492249 0.135469
O O1 0.213942 0.505593 0.565310
O O2 0.138973 0.398382 0.264500
O O3 0.334375 0.303311 0.581651
O O4 0.985296 0.337540 0.417507
O O5 0.754806 0.500927 0.702815
O O6 0.541990 0.570568 0.784544
O O7 0.783632 0.713669 0.833019
O O8 0.523845 0.658923 0.511563
O O9 0.195712 0.827708 0.445258
O O10 0.317137 0.795455 0.247752
O O11 0.986555 0.863229 0.084232
O O12 0.294492 0.703749 0.734249
O O13 0.377403 0.506186 0.921195
O O14 0.338928 0.928272 0.758319
O O15 0.650499 0.913328 0.833628
O O16 0.487778 0.620068 0.212862
#
# Coordination Sequence:
#
# PCOD9118997 Si02
#       8
#     2   2   2   2   2   2   2   2
#     4  11  27  44  69 106 142 178 233 286 351 414
#     4  11  23  48  71 100 138 187 229 289 347 414
#     4  12  25  45  76 101 140 186 233 288 349 416
#     4  12  26  44  74  99 145 183 233 290 348 409
#     4  12  27  47  70 107 140 182 234 292 351 409
#     4  11  27  46  71 104 142 184 236 281 352 423
#     4  11  24  45  70  97 139 186 229 287 348 413
#     4  12  27  45  71 100 142 184 235 287 346 414
#
# _framework density 20.206406999999999
#
# number of rings (size 3 to 8) (size 9 to 14) (size 15 to 20)
#    0.000    0.500    5.000    2.250    8.750    2.000 
#    0.000    0.000    0.000    0.000    0.000    0.000 
#    0.000    0.000    0.000    0.000    0.000    0.000 
#
# Total GULP energy -89534.045346 kJ/mol
# GULP energy per Si atom -5595.877834 kJ/mol
# Density = 2.016042 g / cm^3
# Si number density = 20.206407 Si / 1000 Ang^3
#
#
#
# Elastic Constant Matrix: (Units=GPa)
#
#
# Indices 1 2 3 4 5 6 
#
# 1 88.0520 -5.9937 7.7645 0.0000 -9.9980 0.0000
# 2 -5.9937 51.4413 11.0290 0.0000 -16.2525 0.0000
# 3 7.7645 11.0290 56.2417 0.0000 -0.1600 0.0000
# 4 0.0000 0.0000 0.0000 26.6540 0.0000 -4.7323
# 5 -9.9980 -16.2525 -0.1600 0.0000 26.4274 0.0000
# 6 0.0000 0.0000 0.0000 -4.7323 0.0000 22.9078
#
#
#
# Elastic Compliance Matrix: (Units=1/GPa)
#
#
# Indices 1 2 3 4 5 6 
#
# 1 0.012742 0.004420 -0.002604 0.000000 0.007523 0.000000
# 2 0.004420 0.026964 -0.005846 0.000000 0.018219 0.000000
# 3 -0.002604 -0.005846 0.019274 0.000000 -0.004464 0.000000
# 4 0.000000 0.000000 0.000000 0.038946 0.000000 0.008045
# 5 0.007523 0.018219 -0.004464 0.000000 0.051863 0.000000
# 6 0.000000 0.000000 0.000000 0.008045 0.000000 0.045315
#
#
# Mechanical properties :
#
#
# Convention : Reuss Voigt Hill
#
# Bulk Modulus (GPa) = 19.63938 24.59274 22.11606
# Shear Modulus (GPa) = 22.71300 27.39351 25.05326
#
# Velocity S-wave (km/s) = 3.35632 3.68596 3.52499
# Velocity P-wave (km/s) = 4.97598 5.50565 5.24750
#
# Compressibility (1/GPa) = 0.05091811
#
# Stress axis : x y z
#
# Youngs Moduli (GPa) = 78.48311 37.08618 51.88431
#
# Poissons Ratio (x) = -0.16391 0.13512
# Poissons Ratio (y) = -0.34687 0.30332
# Poissons Ratio (z) = 0.20440 0.21681
#
# Static dielectric constant tensor:
#      x y z
#    x 1.697830 0.000000 -0.002090 
#    y 0.000000 1.733970 0.000000 
#    z -0.002090 0.000000 1.708500 
# 
# From -- ./inp_files/6046.got.cif
#   From: 2010.05.17/outbox.cif.g08.bks.cpg/sg4_4_cif.got.tgz:6046.got - 2010.06.03 18:43:04.
