data_PCOD9118584
_publ_section_title
;
Structure prediction by ZEFSAII (Michael W. Deem and Ramdas Pophale) SiO2 
 PCOD9118584
Probable space group: P 21
;
_chemical_formula_sum "Si O2"
_cell_formula_units_Z 12
_cell_length_a 8.191432
_cell_length_b 5.662525
_cell_length_c 13.780243
_cell_angle_alpha 90.000000
_cell_angle_beta 133.007979
_cell_angle_gamma 90.000000
_cell_volume 467.409889
_symmetry_space_group_name_H-M "P 21"
_symmetry_group_IT_number 4
_symmetry_cell_setting 'monoclinic'
loop_
_space_group_symop_operation_xyz
x,y,z
-x,1/2+y,-z
loop_
_atom_site_type_symbol
_atom_site_label
_atom_site_fract_x
_atom_site_fract_y
_atom_site_fract_z
Si Si1 0.907032 0.962920 0.833818
Si Si2 0.895516 0.385559 0.484748
Si Si3 0.583280 0.426158 0.898651
Si Si4 0.201074 0.146319 0.380581
Si Si5 0.515282 0.909083 0.829846
Si Si6 0.451893 0.862867 0.341865
O O1 0.938008 0.804733 0.748812
O O2 0.748523 0.891009 0.862158
O O3 0.765207 0.191170 0.741119
O O4 0.155636 0.967617 0.975530
O O5 0.897931 0.423452 0.602752
O O6 0.670406 0.415986 0.329737
O O7 0.035617 0.615091 0.506476
O O8 0.475856 0.679743 0.881041
O O9 0.531781 0.424437 0.762536
O O10 0.517942 0.153294 0.892220
O O11 0.324947 0.265339 0.520824
O O12 0.399320 0.082532 0.387873
#
# Coordination Sequence:
#
# PCOD9118584 Si02
#       6
#     2   2   2   2   2   2
#     4  11  23  37  67 107 134 169 204 272 358 407
#     4  12  28  45  68  95 130 187 235 272 319 379
#     4  11  23  38  67 107 136 176 197 261 362 421
#     4  12  23  40  65  99 138 166 223 286 327 393
#     4  11  21  43  64  97 138 169 219 266 326 404
#     4  11  22  37  65 101 140 169 206 275 360 388
#
# _framework density 25.673399
#
# number of rings (size 3 to 8) (size 9 to 14) (size 15 to 20)
#    0.000    0.667    6.667    3.000    4.667    0.000 
#    0.000    0.000    0.000    4.000    0.000    0.000 
#    0.000    0.000    0.000    0.000    0.000    0.000 
#
# Total GULP energy -66917.236687 kJ/mol
# GULP energy per Si atom -5576.436391 kJ/mol
# Density = 2.561497 g / cm^3
# Si number density = 25.673399 Si / 1000 Ang^3
#
#
#
# Elastic Constant Matrix: (Units=GPa)
#
#
# Indices 1 2 3 4 5 6 
#
# 1 34.7458 23.8411 38.7549 0.0000 -21.0613 0.0000
# 2 23.8411 170.6951 41.9173 0.0000 0.0787 0.0000
# 3 38.7549 41.9173 122.0123 0.0000 -13.6404 0.0000
# 4 0.0000 0.0000 0.0000 15.2190 0.0000 15.6199
# 5 -21.0613 0.0787 -13.6404 0.0000 41.0910 0.0000
# 6 0.0000 0.0000 0.0000 15.6199 0.0000 25.1743
#
#
#
# Elastic Compliance Matrix: (Units=1/GPa)
#
#
# Indices 1 2 3 4 5 6 
#
# 1 0.069672 -0.005611 -0.016833 0.000000 0.030133 0.000000
# 2 -0.005611 0.006874 -0.000937 0.000000 -0.003200 0.000000
# 3 -0.016833 -0.000937 0.013397 0.000000 -0.004179 0.000000
# 4 0.000000 0.000000 0.000000 0.180918 0.000000 -0.112254
# 5 0.030133 -0.003200 -0.004179 0.000000 0.038400 0.000000
# 6 0.000000 0.000000 0.000000 -0.112254 0.000000 0.109373
#
#
# Mechanical properties :
#
#
# Convention : Reuss Voigt Hill
#
# Bulk Modulus (GPa) = 23.15906 59.60887 41.38396
# Shear Modulus (GPa) = 10.42122 31.15953 20.79037
#
# Velocity S-wave (km/s) = 2.01692 3.48758 2.84879
# Velocity P-wave (km/s) = 3.80318 6.28380 5.19376
#
# Compressibility (1/GPa) = 0.04317965
#
# Stress axis : x y z
#
# Youngs Moduli (GPa) = 14.35303 145.48248 74.64137
#
# Poissons Ratio (x) = 0.81634 1.25647
# Poissons Ratio (y) = 0.08054 0.06993
# Poissons Ratio (z) = 0.24161 0.13630
#
# Static dielectric constant tensor:
#      x y z
#    x 2.080610 0.000000 0.044460 
#    y 0.000000 2.284670 0.000000 
#    z 0.044460 0.000000 2.003610 
# 
# From -- ./inp_files/8891.got.cif
#   From: 2010.05.17/outbox.cif.g08.bks.cpg/sg4_5_cif.got.tgz:8891.got - 2010.06.03 18:43:04.
