data_PCOD9118084
_publ_section_title
;
Structure prediction by ZEFSAII (Michael W. Deem and Ramdas Pophale) SiO2 
 PCOD9118084
Probable space group: P 21
;
_chemical_formula_sum "Si O2"
_cell_formula_units_Z 14
_cell_length_a 7.835953
_cell_length_b 11.129209
_cell_length_c 9.658407
_cell_angle_alpha 90.000000
_cell_angle_beta 44.468953
_cell_angle_gamma 90.000000
_cell_volume 590.043211
_symmetry_space_group_name_H-M "P 21"
_symmetry_group_IT_number 4
_symmetry_cell_setting 'monoclinic'
loop_
_space_group_symop_operation_xyz
x,y,z
-x,1/2+y,-z
loop_
_atom_site_type_symbol
_atom_site_label
_atom_site_fract_x
_atom_site_fract_y
_atom_site_fract_z
Si Si1 0.377377 0.564380 0.445465
Si Si2 0.186047 0.807477 0.459530
Si Si3 0.673974 0.271387 0.137256
Si Si4 0.132302 0.983231 0.816359
Si Si5 0.913515 0.158408 0.758135
Si Si6 0.281037 0.438642 0.241046
Si Si7 0.406475 0.506260 0.743297
O O1 0.295339 0.700099 0.486627
O O2 0.654917 0.557197 0.227790
O O3 0.214881 0.489536 0.432008
O O4 0.374323 0.502506 0.595934
O O5 0.093858 0.744138 0.369911
O O6 0.946593 0.859124 0.672787
O O7 0.394137 0.909528 0.320480
O O8 0.762327 0.349816 0.216134
O O9 0.505392 0.352509 0.136194
O O10 0.542727 0.147181 0.252952
O O11 0.891992 0.234549 0.909648
O O12 0.120402 0.061235 0.680040
O O13 0.862089 0.983327 0.035768
O O14 0.692532 0.061411 0.861012
#
# Coordination Sequence:
#
# PCOD9118084 Si02
#       7
#     2   2   2   2   2   2   2
#     4  10  25  45  70 103 139 181 236 292 344 426
#     4  11  26  43  71 104 139 187 228 295 360 411
#     4  10  25  44  70 102 134 185 233 288 358 418
#     4  10  24  47  71 102 135 182 234 291 347 420
#     4  10  24  45  68 101 140 178 229 298 342 419
#     4  10  24  45  66 104 139 182 233 289 359 414
#     4  11  26  43  72 104 132 189 235 281 362 416
#
# _framework density 23.727076
#
# number of rings (size 3 to 8) (size 9 to 14) (size 15 to 20)
#    0.000    1.714    0.000    0.857   22.000    0.000 
#    7.714    0.000    0.000    0.000    0.000    0.000 
#    0.000    0.000    0.000    0.000    0.000    0.000 
#
# Total GULP energy -78000.678791 kJ/mol
# GULP energy per Si atom -5571.477057 kJ/mol
# Density = 2.367307 g / cm^3
# Si number density = 23.727076 Si / 1000 Ang^3
#
#
#
# Elastic Constant Matrix: (Units=GPa)
#
#
# Indices 1 2 3 4 5 6 
#
# 1 92.4011 47.9832 12.8614 0.0000 4.0339 0.0000
# 2 47.9832 141.0703 17.1447 0.0000 -3.1111 0.0000
# 3 12.8614 17.1447 57.4577 0.0000 -0.0157 0.0000
# 4 0.0000 0.0000 0.0000 30.9847 0.0000 0.7166
# 5 4.0339 -3.1111 -0.0157 0.0000 38.5560 0.0000
# 6 0.0000 0.0000 0.0000 0.7166 0.0000 66.4508
#
#
#
# Elastic Compliance Matrix: (Units=1/GPa)
#
#
# Indices 1 2 3 4 5 6 
#
# 1 0.013418 -0.004397 -0.001692 0.000000 -0.001759 0.000000
# 2 -0.004397 0.008810 -0.001644 0.000000 0.001170 0.000000
# 3 -0.001692 -0.001644 0.018273 0.000000 0.000052 0.000000
# 4 0.000000 0.000000 0.000000 0.032282 0.000000 -0.000348
# 5 -0.001759 0.001170 0.000052 0.000000 0.026215 0.000000
# 6 0.000000 0.000000 0.000000 -0.000348 0.000000 0.015052
#
#
# Mechanical properties :
#
#
# Convention : Reuss Voigt Hill
#
# Bulk Modulus (GPa) = 39.94425 49.65643 44.80034
# Shear Modulus (GPa) = 36.26804 41.39429 38.83116
#
# Velocity S-wave (km/s) = 3.91391 4.18137 4.04985
# Velocity P-wave (km/s) = 6.10707 6.65473 6.38678
#
# Compressibility (1/GPa) = 0.02503489
#
# Stress axis : x y z
#
# Youngs Moduli (GPa) = 74.52622 113.50829 54.72415
#
# Poissons Ratio (x) = 0.49911 0.09259
# Poissons Ratio (y) = 0.32770 0.08998
# Poissons Ratio (z) = 0.12609 0.18663
#
# Static dielectric constant tensor:
#      x y z
#    x 1.987610 0.000000 0.042740 
#    y 0.000000 1.943830 0.000000 
#    z 0.042740 0.000000 1.945050 
# 
# From -- ./inp_files/11134.got.cif
#   From: 2010.05.17/outbox.cif.g08.bks.cpg/sg4_6_cif.got.tgz:11134.got - 2010.06.03 18:43:04.
