data_PCOD9118140
_publ_section_title
;
Structure prediction by ZEFSAII (Michael W. Deem and Ramdas Pophale) SiO2 
 PCOD9118140
Probable space group: P 21
;
_chemical_formula_sum "Si O2"
_cell_formula_units_Z 14
_cell_length_a 5.122326
_cell_length_b 14.684112
_cell_length_c 7.700423
_cell_angle_alpha 90.000000
_cell_angle_beta 116.398018
_cell_angle_gamma 90.000000
_cell_volume 518.806274
_symmetry_space_group_name_H-M "P 21"
_symmetry_group_IT_number 4
_symmetry_cell_setting 'monoclinic'
loop_
_space_group_symop_operation_xyz
x,y,z
-x,1/2+y,-z
loop_
_atom_site_type_symbol
_atom_site_label
_atom_site_fract_x
_atom_site_fract_y
_atom_site_fract_z
Si Si1 0.315893 0.884960 0.354312
Si Si2 0.328535 0.750293 0.027223
Si Si3 0.719090 0.898059 0.033192
Si Si4 0.530858 0.543040 0.820164
Si Si5 0.882425 0.073433 0.877340
Si Si6 0.843041 0.149209 0.486776
Si Si7 0.750981 0.756947 0.628030
O O1 0.555134 0.848014 0.556954
O O2 0.408525 0.986478 0.335684
O O3 0.336139 0.810768 0.204041
O O4 0.965777 0.889833 0.258000
O O5 0.572682 0.798496 0.977430
O O6 0.022326 0.766308 0.838415
O O7 0.341123 0.645687 0.098025
O O8 0.835793 0.967892 0.919679
O O9 0.474795 0.964343 0.038071
O O10 0.217533 0.588291 0.701549
O O11 0.807123 0.601466 0.950499
O O12 0.905549 0.095260 0.680636
O O13 0.515695 0.188120 0.414537
O O14 0.082786 0.222471 0.499292
#
# Coordination Sequence:
#
# PCOD9118140 Si02
#       7
#     2   2   2   2   2   2   2
#     4  10  25  46  71 111 148 196 250 319 381 457
#     4  11  24  47  77 112 153 206 254 325 381 466
#     4  10  25  47  81 109 153 208 256 321 396 450
#     4  10  24  46  71 104 153 198 254 316 384 455
#     4  11  24  47  74 108 156 201 264 318 386 459
#     4  12  28  46  77 114 148 204 255 318 380 462
#     4  12  28  47  75 112 149 199 255 311 390 451
#
# _framework density 26.985023999999999
#
# number of rings (size 3 to 8) (size 9 to 14) (size 15 to 20)
#    0.000    1.143    2.857    0.857   10.000    5.714 
#    0.000    1.429    0.000    0.000    0.000    0.000 
#    0.000    0.000    0.000    0.000    0.000    0.000 
#
# Total GULP energy -78156.609666 kJ/mol
# GULP energy per Si atom -5582.614976 kJ/mol
# Density = 2.692361 g / cm^3
# Si number density = 26.985024 Si / 1000 Ang^3
#
#
#
# Elastic Constant Matrix: (Units=GPa)
#
#
# Indices 1 2 3 4 5 6 
#
# 1 119.3645 38.2673 18.5967 0.0000 20.7220 0.0000
# 2 38.2673 124.7609 36.6669 0.0000 7.2920 0.0000
# 3 18.5967 36.6669 111.8694 0.0000 20.6266 0.0000
# 4 0.0000 0.0000 0.0000 50.6633 0.0000 7.1645
# 5 20.7220 7.2920 20.6266 0.0000 44.4356 0.0000
# 6 0.0000 0.0000 0.0000 7.1645 0.0000 45.8107
#
#
#
# Elastic Compliance Matrix: (Units=1/GPa)
#
#
# Indices 1 2 3 4 5 6 
#
# 1 0.010014 -0.002838 0.000044 0.000000 -0.004225 0.000000
# 2 -0.002838 0.009674 -0.002899 0.000000 0.001081 0.000000
# 3 0.000044 -0.002899 0.010715 0.000000 -0.004519 0.000000
# 4 0.000000 0.000000 0.000000 0.020185 0.000000 -0.003157
# 5 -0.004225 0.001081 -0.004519 0.000000 0.026395 0.000000
# 6 0.000000 0.000000 0.000000 -0.003157 0.000000 0.022323
#
#
# Mechanical properties :
#
#
# Convention : Reuss Voigt Hill
#
# Bulk Modulus (GPa) = 52.57755 60.33963 56.45859
# Shear Modulus (GPa) = 42.72455 45.67950 44.20203
#
# Velocity S-wave (km/s) = 3.98335 4.11880 4.05164
# Velocity P-wave (km/s) = 6.37827 6.71031 6.54640
#
# Compressibility (1/GPa) = 0.01901952
#
# Stress axis : x y z
#
# Youngs Moduli (GPa) = 99.86068 103.36567 93.32850
#
# Poissons Ratio (x) = 0.29331 -0.00414
# Poissons Ratio (y) = 0.28337 0.27052
# Poissons Ratio (z) = -0.00443 0.29961
#
# Static dielectric constant tensor:
#      x y z
#    x 2.130620 0.000000 -0.106300 
#    y 0.000000 2.306160 0.000000 
#    z -0.106300 0.000000 2.155990 
# 
# From -- ./inp_files/4724.got.cif
#   From: 2010.05.17/outbox.cif.g08.bks.cpg/sg4_3_cif.got.tgz:4724.got - 2010.06.03 18:43:04.
