data_PCOD9118528
_publ_section_title
;
Structure prediction by ZEFSAII (Michael W. Deem and Ramdas Pophale) SiO2 
 PCOD9118528
Probable space group: P 21
;
_chemical_formula_sum "Si O2"
_cell_formula_units_Z 12
_cell_length_a 22.878156
_cell_length_b 5.052265
_cell_length_c 8.963953
_cell_angle_alpha 90.000000
_cell_angle_beta 37.271655
_cell_angle_gamma 90.000000
_cell_volume 627.464043
_symmetry_space_group_name_H-M "P 21"
_symmetry_group_IT_number 4
_symmetry_cell_setting 'monoclinic'
loop_
_space_group_symop_operation_xyz
x,y,z
-x,1/2+y,-z
loop_
_atom_site_type_symbol
_atom_site_label
_atom_site_fract_x
_atom_site_fract_y
_atom_site_fract_z
Si Si1 0.996815 0.225020 0.609723
Si Si2 0.096383 0.560580 0.631846
Si Si3 0.298263 0.653414 0.290701
Si Si4 0.292421 0.150052 0.511251
Si Si5 0.503059 0.770586 0.890413
Si Si6 0.097998 0.395189 0.975055
O O1 0.079220 0.311131 0.559725
O O2 0.976049 0.479746 0.550538
O O3 0.908294 0.129830 0.892866
O O4 0.201529 0.683611 0.390796
O O5 0.095409 0.491796 0.809348
O O6 0.001743 0.737390 0.800423
O O7 0.298135 0.358302 0.360386
O O8 0.288627 0.859047 0.448497
O O9 0.402854 0.716372 0.009152
O O10 0.393529 0.201220 0.390185
O O11 0.194483 0.223640 0.794423
O O12 0.497058 0.566787 0.043827
#
# Coordination Sequence:
#
# PCOD9118528 Si02
#       6
#     2   2   2   2   2   2
#     4  12  26  40  54  78 120 154 188 228 280 340
#     4  11  21  35  59  83 114 147 192 231 278 332
#     4   9  18  28  49  77 111 146 177 223 278 328
#     4   9  18  28  49  77 111 146 177 223 278 328
#     4   8  14  28  42  70 112 144 170 214 280 330
#     4  11  21  35  59  83 114 147 192 231 278 332
#
# _framework density 19.124603
#
# number of rings (size 3 to 8) (size 9 to 14) (size 15 to 20)
#    0.000    2.000    3.333    1.000    4.667    0.000 
#    0.000    0.000    0.000    0.000    0.000    0.000 
#   10.000    0.000    0.000    0.000    0.000    0.000 
#
# Total GULP energy -66845.776143 kJ/mol
# GULP energy per Si atom -5570.481345 kJ/mol
# Density = 1.908107 g / cm^3
# Si number density = 19.124603 Si / 1000 Ang^3
#
#
#
# Elastic Constant Matrix: (Units=GPa)
#
#
# Indices 1 2 3 4 5 6 
#
# 1 51.5359 23.6537 68.6226 0.0000 -12.5413 0.0000
# 2 23.6537 92.4135 24.6050 0.0000 2.5504 0.0000
# 3 68.6226 24.6050 88.9270 0.0000 -41.6286 0.0000
# 4 0.0000 0.0000 0.0000 28.8903 0.0000 -4.3700
# 5 -12.5413 2.5504 -41.6286 0.0000 52.6996 0.0000
# 6 0.0000 0.0000 0.0000 -4.3700 0.0000 25.5900
#
#
#
# Elastic Compliance Matrix: (Units=1/GPa)
#
#
# Indices 1 2 3 4 5 6 
#
# 1 -0.076164 -0.003470 0.081443 0.000000 0.046377 0.000000
# 2 -0.003470 0.012397 -0.002254 0.000000 -0.003206 0.000000
# 3 0.081443 -0.002254 -0.066413 0.000000 -0.032971 0.000000
# 4 0.000000 0.000000 0.000000 0.035531 0.000000 0.006068
# 5 0.046377 -0.003206 -0.032971 0.000000 0.004123 0.000000
# 6 0.000000 0.000000 0.000000 0.006068 0.000000 0.040114
#
#
# Mechanical properties :
#
#
# Convention : Reuss Voigt Hill
#
# Bulk Modulus (GPa) = 47.03430 51.84879 49.44154
# Shear Modulus (GPa) = -25.67197 29.16901 1.74852
#
# Velocity S-wave (km/s) = -3.66779 3.90963 0.95722
# Velocity P-wave (km/s) = 2.59039 6.89566 5.20866
#
# Compressibility (1/GPa) = 0.02126108
#
# Stress axis : x y z
#
# Youngs Moduli (GPa) = -13.12960 80.66173 -15.05723
#
# Poissons Ratio (x) = 0.27986 1.22631
# Poissons Ratio (y) = -0.04555 -0.03393
# Poissons Ratio (z) = 1.06932 0.18177
#
# Static dielectric constant tensor:
#      x y z
#    x 1.692370 0.000000 -0.064540 
#    y 0.000000 1.737040 0.000000 
#    z -0.064540 0.000000 1.720550 
# 
# From -- ./inp_files/9763.got.cif
#   From: 2010.05.17/outbox.cif.g08.bks.cpg/sg4_5_cif.got.tgz:9763.got - 2010.06.03 18:43:04.
