data_PCOD9118673
_publ_section_title
;
Structure prediction by ZEFSAII (Michael W. Deem and Ramdas Pophale) SiO2 
 PCOD9118673
Probable space group: P 21
;
_chemical_formula_sum "Si O2"
_cell_formula_units_Z 16
_cell_length_a 9.665492
_cell_length_b 5.634660
_cell_length_c 21.954356
_cell_angle_alpha 90.000000
_cell_angle_beta 36.313004
_cell_angle_gamma 90.000000
_cell_volume 708.072799
_symmetry_space_group_name_H-M "P 21"
_symmetry_group_IT_number 4
_symmetry_cell_setting 'monoclinic'
loop_
_space_group_symop_operation_xyz
x,y,z
-x,1/2+y,-z
loop_
_atom_site_type_symbol
_atom_site_label
_atom_site_fract_x
_atom_site_fract_y
_atom_site_fract_z
Si Si1 0.310326 0.893910 0.153818
Si Si2 0.432597 0.638399 0.686085
Si Si3 0.319454 0.121018 0.913008
Si Si4 0.906763 0.380587 0.109153
Si Si5 0.583221 0.046588 0.554526
Si Si6 0.277773 0.732039 0.028024
Si Si7 0.131000 0.859411 0.466727
Si Si8 0.771703 0.892732 0.359385
O O1 0.434004 0.737428 0.161269
O O2 0.308740 0.769848 0.088356
O O3 0.045031 0.940048 0.263674
O O4 0.488122 0.109973 0.081020
O O5 0.211951 0.683719 0.806977
O O6 0.619274 0.454961 0.648456
O O7 0.339109 0.558212 0.653274
O O8 0.560761 0.882905 0.622040
O O9 0.303229 0.982545 0.856423
O O10 0.102704 0.303010 0.990638
O O11 0.260524 0.967194 0.993992
O O12 0.050395 0.569659 0.097920
O O13 0.769869 0.256123 0.503976
O O14 0.324251 0.141416 0.630906
O O15 0.672924 0.922806 0.461914
O O16 0.012357 0.615073 0.481089
#
# Coordination Sequence:
#
# PCOD9118673 Si02
#       8
#     2   2   2   2   2   2   2   2
#     4  11  24  41  69 104 142 188 240 301 375 439
#     4  11  24  44  76 106 140 203 245 309 382 456
#     4  11  23  45  65 102 144 187 235 308 358 442
#     4  11  24  44  72  99 143 190 246 292 375 453
#     4  11  23  46  75 105 148 194 253 315 377 449
#     4  11  22  42  68 100 143 184 237 300 363 442
#     4  11  24  50  73 105 149 196 248 311 375 443
#     4  11  24  44  70 107 143 188 248 312 381 450
#
# _framework density 22.596550000000001
#
# number of rings (size 3 to 8) (size 9 to 14) (size 15 to 20)
#    0.000    1.000    5.000    1.500    1.750    2.000 
#    6.750    0.000    0.000    0.000    0.000    0.000 
#    0.000    0.000    0.000    0.000    0.000    0.000 
#
# Total GULP energy -89239.011161 kJ/mol
# GULP energy per Si atom -5577.438198 kJ/mol
# Density = 2.254512 g / cm^3
# Si number density = 22.596550 Si / 1000 Ang^3
#
#
#
# Elastic Constant Matrix: (Units=GPa)
#
#
# Indices 1 2 3 4 5 6 
#
# 1 76.2540 12.7119 14.9230 0.0000 -12.4614 0.0000
# 2 12.7119 47.8971 0.1935 0.0000 -3.8182 0.0000
# 3 14.9230 0.1935 60.1339 0.0000 -12.2528 0.0000
# 4 0.0000 0.0000 0.0000 15.0196 0.0000 -1.4775
# 5 -12.4614 -3.8182 -12.2528 0.0000 24.5510 0.0000
# 6 0.0000 0.0000 0.0000 -1.4775 0.0000 42.5071
#
#
#
# Elastic Compliance Matrix: (Units=1/GPa)
#
#
# Indices 1 2 3 4 5 6 
#
# 1 0.015165 -0.003546 -0.002556 0.000000 0.005870 0.000000
# 2 -0.003546 0.021994 0.001268 0.000000 0.002253 0.000000
# 3 -0.002556 0.001268 0.018964 0.000000 0.008364 0.000000
# 4 0.000000 0.000000 0.000000 0.066808 0.000000 0.002322
# 5 0.005870 0.002253 0.008364 0.000000 0.048236 0.000000
# 6 0.000000 0.000000 0.000000 0.002322 0.000000 0.023606
#
#
# Mechanical properties :
#
#
# Convention : Reuss Voigt Hill
#
# Bulk Modulus (GPa) = 21.52621 26.66021 24.09321
# Shear Modulus (GPa) = 22.73496 26.84597 24.79047
#
# Velocity S-wave (km/s) = 3.17539 3.45056 3.31583
# Velocity P-wave (km/s) = 4.79491 5.26299 5.03439
#
# Compressibility (1/GPa) = 0.04645500
#
# Stress axis : x y z
#
# Youngs Moduli (GPa) = 65.94242 45.46726 52.73130
#
# Poissons Ratio (x) = 0.16125 0.13477
# Poissons Ratio (y) = 0.23386 -0.06689
# Poissons Ratio (z) = 0.16854 -0.05767
#
# Static dielectric constant tensor:
#      x y z
#    x 1.863910 0.000000 -0.019180 
#    y 0.000000 2.074840 0.000000 
#    z -0.019180 0.000000 1.801440 
# 
# From -- ./inp_files/9775.got.cif
#   From: 2010.05.17/outbox.cif.g08.bks.cpg/sg4_5_cif.got.tgz:9775.got - 2010.06.03 18:43:04.
