data_PCOD9118993
_publ_section_title
;
Structure prediction by ZEFSAII (Michael W. Deem and Ramdas Pophale) SiO2 
 PCOD9118993
Probable space group: P 21
;
_chemical_formula_sum "Si O2"
_cell_formula_units_Z 14
_cell_length_a 10.060833
_cell_length_b 13.282248
_cell_length_c 6.796831
_cell_angle_alpha 90.000000
_cell_angle_beta 135.418160
_cell_angle_gamma 90.000000
_cell_volume 637.535180
_symmetry_space_group_name_H-M "P 21"
_symmetry_group_IT_number 4
_symmetry_cell_setting 'monoclinic'
loop_
_space_group_symop_operation_xyz
x,y,z
-x,1/2+y,-z
loop_
_atom_site_type_symbol
_atom_site_label
_atom_site_fract_x
_atom_site_fract_y
_atom_site_fract_z
Si Si1 0.262247 0.936080 0.337169
Si Si2 0.205730 0.002603 0.690093
Si Si3 0.493074 0.065508 0.275022
Si Si4 0.032753 0.264922 0.080782
Si Si5 0.771794 0.269345 0.155671
Si Si6 0.879069 0.111503 0.590486
Si Si7 0.527959 0.772476 0.515410
O O1 0.086243 0.864624 0.102314
O O2 0.437032 0.859353 0.556209
O O3 0.203068 0.006820 0.452442
O O4 0.348991 0.997838 0.249030
O O5 0.032488 0.052639 0.623274
O O6 0.396424 0.058083 0.961491
O O7 0.213130 0.883114 0.747550
O O8 0.714196 0.037979 0.496650
O O9 0.491648 0.171360 0.381733
O O10 0.955325 0.242282 0.216582
O O11 0.974721 0.176337 0.866399
O O12 0.253710 0.285820 0.303523
O O13 0.598203 0.265625 0.816799
O O14 0.772876 0.191189 0.335395
#
# Coordination Sequence:
#
# PCOD9118993 Si02
#       7
#     2   2   2   2   2   2   2
#     4  11  26  48  68 106 147 183 245 295 360 432
#     4  12  26  45  73 109 142 188 248 298 346 448
#     4  12  25  45  70 109 142 188 241 295 360 432
#     4  11  23  47  74  99 144 192 235 299 364 425
#     4  11  25  49  69 107 147 188 242 299 362 431
#     4  12  27  46  74 107 147 189 246 295 361 432
#     4  11  24  48  74  99 151 192 229 305 367 418
#
# _framework density 21.959572000000001
#
# number of rings (size 3 to 8) (size 9 to 14) (size 15 to 20)
#    0.000    0.571    8.571    0.000    6.000    1.143 
#    2.571    0.000    0.000    0.000    0.000    0.000 
#    0.000    0.000    0.000    0.000    0.000    0.000 
#
# Total GULP energy -78271.987760 kJ/mol
# GULP energy per Si atom -5590.856269 kJ/mol
# Density = 2.190959 g / cm^3
# Si number density = 21.959572 Si / 1000 Ang^3
#
#
#
# Elastic Constant Matrix: (Units=GPa)
#
#
# Indices 1 2 3 4 5 6 
#
# 1 118.7951 26.2565 32.2126 0.0000 33.7614 0.0000
# 2 26.2565 27.2772 38.4499 0.0000 2.4688 0.0000
# 3 32.2126 38.4499 50.8068 0.0000 16.4540 0.0000
# 4 0.0000 0.0000 0.0000 25.0268 0.0000 -3.2162
# 5 33.7614 2.4688 16.4540 0.0000 48.6965 0.0000
# 6 0.0000 0.0000 0.0000 -3.2162 0.0000 47.2247
#
#
#
# Elastic Compliance Matrix: (Units=1/GPa)
#
#
# Indices 1 2 3 4 5 6 
#
# 1 0.010144 0.017851 -0.019505 0.000000 -0.001348 0.000000
# 2 0.017851 -0.211346 0.167492 0.000000 -0.058255 0.000000
# 3 -0.019505 0.167492 -0.108173 0.000000 0.041582 0.000000
# 4 0.000000 0.000000 0.000000 0.040310 0.000000 0.002745
# 5 -0.001348 -0.058255 0.041582 0.000000 0.010373 0.000000
# 6 0.000000 0.000000 0.000000 0.002745 0.000000 0.021362
#
#
# Mechanical properties :
#
#
# Convention : Reuss Voigt Hill
#
# Bulk Modulus (GPa) = 44.83967 43.41299 44.12633
# Shear Modulus (GPa) = -8.90356 30.85362 10.97503
#
# Velocity S-wave (km/s) = -2.01577 3.75242 2.23801
# Velocity P-wave (km/s) = 3.87889 6.21182 5.17844
#
# Compressibility (1/GPa) = 0.02230168
#
# Stress axis : x y z
#
# Youngs Moduli (GPa) = 98.57803 -4.73157 -9.24443
#
# Poissons Ratio (x) = 0.08446 -0.18031
# Poissons Ratio (y) = -1.75974 1.54837
# Poissons Ratio (z) = 1.92274 0.79250
#
# Static dielectric constant tensor:
#      x y z
#    x 1.805910 0.000000 -0.019220 
#    y 0.000000 1.833080 0.000000 
#    z -0.019220 0.000000 1.814060 
# 
# From -- ./inp_files/1965.got.cif
#   From: 2010.05.17/outbox.cif.g08.bks.cpg/sg4_1_cif.got.tgz:1965.got - 2010.06.03 18:43:04.
