data_PCOD9118586
_publ_section_title
;
Structure prediction by ZEFSAII (Michael W. Deem and Ramdas Pophale) SiO2 
 PCOD9118586
Probable space group: P 21
;
_chemical_formula_sum "Si O2"
_cell_formula_units_Z 14
_cell_length_a 14.134386
_cell_length_b 6.392682
_cell_length_c 8.709011
_cell_angle_alpha 90.000000
_cell_angle_beta 118.228107
_cell_angle_gamma 90.000000
_cell_volume 693.330103
_symmetry_space_group_name_H-M "P 21"
_symmetry_group_IT_number 4
_symmetry_cell_setting 'monoclinic'
loop_
_space_group_symop_operation_xyz
x,y,z
-x,1/2+y,-z
loop_
_atom_site_type_symbol
_atom_site_label
_atom_site_fract_x
_atom_site_fract_y
_atom_site_fract_z
Si Si1 0.886086 0.468420 0.483110
Si Si2 0.382908 0.571793 0.736955
Si Si3 0.009036 0.315670 0.293808
Si Si4 0.200651 0.661545 0.017632
Si Si5 0.789388 0.121132 0.613203
Si Si6 0.760658 0.786717 0.164786
Si Si7 0.608921 0.404256 0.999656
O O1 0.969146 0.351739 0.437303
O O2 0.807672 0.308352 0.505491
O O3 0.832762 0.636305 0.327009
O O4 0.942758 0.584850 0.666393
O O5 0.331692 0.558194 0.528431
O O6 0.289916 0.457752 0.762337
O O7 0.491690 0.439934 0.839915
O O8 0.401212 0.793934 0.839726
O O9 0.107203 0.469440 0.332726
O O10 0.900499 0.305510 0.111669
O O11 0.207290 0.665580 0.204847
O O12 0.310563 0.756402 0.033656
O O13 0.189113 0.427391 0.933706
O O14 0.666925 0.629318 0.041944
#
# Coordination Sequence:
#
# PCOD9118586 Si02
#       7
#     2   2   2   2   2   2   2
#     4  12  22  41  69  96 126 178 233 283 324 400
#     4  11  22  43  70 101 123 174 238 281 332 398
#     4  12  24  40  68  95 130 177 224 278 338 409
#     4  11  28  43  61 102 144 180 218 276 367 408
#     4  12  27  43  64 103 140 173 229 285 340 415
#     4  11  21  43  68  94 132 174 230 283 329 403
#     4  11  22  43  72  95 131 176 228 286 336 403
#
# _framework density 20.192402000000001
#
# number of rings (size 3 to 8) (size 9 to 14) (size 15 to 20)
#    0.000    0.571    7.143    1.714    2.000    1.143 
#    2.571    0.000    0.000    0.000    0.000    0.000 
#    0.000    0.000    0.000    0.000    0.000    0.000 
#
# Total GULP energy -78034.819997 kJ/mol
# GULP energy per Si atom -5573.915714 kJ/mol
# Density = 2.014644 g / cm^3
# Si number density = 20.192402 Si / 1000 Ang^3
#
#
#
# Elastic Constant Matrix: (Units=GPa)
#
#
# Indices 1 2 3 4 5 6 
#
# 1 59.8610 16.3826 65.8855 0.0000 13.0565 0.0000
# 2 16.3826 73.1484 38.8236 0.0000 1.9649 0.0000
# 3 65.8855 38.8236 158.7407 0.0000 14.3166 0.0000
# 4 0.0000 0.0000 0.0000 27.0784 0.0000 7.7253
# 5 13.0565 1.9649 14.3166 0.0000 34.4708 0.0000
# 6 0.0000 0.0000 0.0000 7.7253 0.0000 28.7625
#
#
#
# Elastic Compliance Matrix: (Units=1/GPa)
#
#
# Indices 1 2 3 4 5 6 
#
# 1 0.032275 -0.000304 -0.012696 0.000000 -0.006934 0.000000
# 2 -0.000304 0.015731 -0.003793 0.000000 0.000794 0.000000
# 3 -0.012696 -0.003793 0.012512 0.000000 -0.000172 0.000000
# 4 0.000000 0.000000 0.000000 0.039994 0.000000 -0.010742
# 5 -0.006934 0.000794 -0.000172 0.000000 0.031663 0.000000
# 6 0.000000 0.000000 0.000000 -0.010742 0.000000 0.037653
#
#
# Mechanical properties :
#
#
# Convention : Reuss Voigt Hill
#
# Bulk Modulus (GPa) = 37.12990 59.32593 48.22791
# Shear Modulus (GPa) = 23.54168 29.43958 26.49063
#
# Velocity S-wave (km/s) = 3.41819 3.82246 3.62596
# Velocity P-wave (km/s) = 5.83152 6.99469 6.43942
#
# Compressibility (1/GPa) = 0.02693248
#
# Stress axis : x y z
#
# Youngs Moduli (GPa) = 30.98412 63.57051 79.92247
#
# Poissons Ratio (x) = 0.01931 1.01469
# Poissons Ratio (y) = 0.00941 0.30313
# Poissons Ratio (z) = 0.39337 0.24111
#
# Static dielectric constant tensor:
#      x y z
#    x 1.714520 0.000000 0.068700 
#    y 0.000000 1.789680 0.000000 
#    z 0.068700 0.000000 1.794260 
# 
# From -- ./inp_files/7115.got.cif
#   From: 2010.05.17/outbox.cif.g08.bks.cpg/sg4_4_cif.got.tgz:7115.got - 2010.06.03 18:43:04.
