data_PCOD9118323
_publ_section_title
;
Structure prediction by ZEFSAII (Michael W. Deem and Ramdas Pophale) SiO2 
 PCOD9118323
Probable space group: P 21
;
_chemical_formula_sum "Si O2"
_cell_formula_units_Z 16
_cell_length_a 8.004905
_cell_length_b 10.198235
_cell_length_c 9.116080
_cell_angle_alpha 90.000000
_cell_angle_beta 114.212664
_cell_angle_gamma 90.000000
_cell_volume 678.731814
_symmetry_space_group_name_H-M "P 21"
_symmetry_group_IT_number 4
_symmetry_cell_setting 'monoclinic'
loop_
_space_group_symop_operation_xyz
x,y,z
-x,1/2+y,-z
loop_
_atom_site_type_symbol
_atom_site_label
_atom_site_fract_x
_atom_site_fract_y
_atom_site_fract_z
Si Si1 0.715911 0.044940 0.252746
Si Si2 0.223341 0.140426 0.585318
Si Si3 0.184920 0.077919 0.046148
Si Si4 0.903468 0.133779 0.702652
Si Si5 0.117626 0.939005 0.323000
Si Si6 0.461847 0.030087 0.897587
Si Si7 0.670581 0.893529 0.508753
Si Si8 0.498779 0.272792 0.278570
O O1 0.679391 0.185770 0.313761
O O2 0.606423 0.952408 0.329507
O O3 0.915069 0.982354 0.306130
O O4 0.634009 0.058707 0.061456
O O5 0.192370 0.276958 0.491348
O O6 0.055203 0.108695 0.631124
O O7 0.246536 0.026273 0.474343
O O8 0.396423 0.140515 0.758592
O O9 0.301418 0.010120 0.959127
O O10 0.136165 0.987266 0.163919
O O11 0.003926 0.126474 0.896558
O O12 0.321581 0.190294 0.157817
O O13 0.850609 0.284788 0.661818
O O14 0.758435 0.016584 0.627058
O O15 0.490814 0.900092 0.817057
O O16 0.536808 0.816042 0.568183
#
# Coordination Sequence:
#
# PCOD9118323 Si02
#       8
#     2   2   2   2   2   2   2   2
#     4  11  26  46  74 110 146 196 248 312 375 445
#     4  11  23  47  73 104 147 190 245 315 376 436
#     4  10  25  46  72 108 145 195 248 305 370 454
#     4  11  24  43  72 108 147 189 247 307 379 428
#     4  12  24  45  78 111 143 188 254 316 367 444
#     4  10  26  46  72  97 153 196 238 306 376 455
#     4  12  26  45  73 106 150 198 248 309 375 451
#     4  11  26  48  68 108 153 200 248 302 378 455
#
# _framework density 23.573376
#
# number of rings (size 3 to 8) (size 9 to 14) (size 15 to 20)
#    0.000    1.000    3.750    0.750   10.500    3.000 
#    2.250    0.000    0.000    0.000    0.000    0.000 
#    0.000    0.000    0.000    0.000    0.000    0.000 
#
# Total GULP energy -89450.283665 kJ/mol
# GULP energy per Si atom -5590.642729 kJ/mol
# Density = 2.351972 g / cm^3
# Si number density = 23.573376 Si / 1000 Ang^3
#
#
#
# Elastic Constant Matrix: (Units=GPa)
#
#
# Indices 1 2 3 4 5 6 
#
# 1 68.1799 36.9438 38.2916 0.0000 -2.9454 0.0000
# 2 36.9438 116.3865 42.2695 0.0000 3.7093 0.0000
# 3 38.2916 42.2695 142.0127 0.0000 3.7122 0.0000
# 4 0.0000 0.0000 0.0000 41.0532 0.0000 -14.3042
# 5 -2.9454 3.7093 3.7122 0.0000 43.4838 0.0000
# 6 0.0000 0.0000 0.0000 -14.3042 0.0000 33.3252
#
#
#
# Elastic Compliance Matrix: (Units=1/GPa)
#
#
# Indices 1 2 3 4 5 6 
#
# 1 0.019576 -0.004870 -0.003883 0.000000 0.002073 0.000000
# 2 -0.004870 0.010859 -0.001891 0.000000 -0.001095 0.000000
# 3 -0.003883 -0.001891 0.008673 0.000000 -0.000842 0.000000
# 4 0.000000 0.000000 0.000000 0.028642 0.000000 0.012294
# 5 0.002073 -0.001095 -0.000842 0.000000 0.023303 0.000000
# 6 0.000000 0.000000 0.000000 0.012294 0.000000 0.035284
#
#
# Mechanical properties :
#
#
# Convention : Reuss Voigt Hill
#
# Bulk Modulus (GPa) = 56.11031 62.39875 59.25453
# Shear Modulus (GPa) = 32.55929 37.51071 35.03500
#
# Velocity S-wave (km/s) = 3.72047 3.99335 3.85932
# Velocity P-wave (km/s) = 6.50461 6.91303 6.71192
#
# Compressibility (1/GPa) = 0.01782204
#
# Stress axis : x y z
#
# Youngs Moduli (GPa) = 51.08242 92.08663 115.29508
#
# Poissons Ratio (x) = 0.44844 0.44771
# Poissons Ratio (y) = 0.24876 0.21797
# Poissons Ratio (z) = 0.19836 0.17410
#
# Static dielectric constant tensor:
#      x y z
#    x 1.935030 0.000000 0.074900 
#    y 0.000000 1.859330 0.000000 
#    z 0.074900 0.000000 1.912400 
# 
# From -- ./inp_files/5501.got.cif
#   From: 2010.05.17/outbox.cif.g08.bks.cpg/sg4_3_cif.got.tgz:5501.got - 2010.06.03 18:43:04.
