data_PCOD9118180
_publ_section_title
;
Structure prediction by ZEFSAII (Michael W. Deem and Ramdas Pophale) SiO2 
 PCOD9118180
Probable space group: P 21
;
_chemical_formula_sum "Si O2"
_cell_formula_units_Z 16
_cell_length_a 7.920141
_cell_length_b 8.603850
_cell_length_c 9.024770
_cell_angle_alpha 90.000000
_cell_angle_beta 85.001854
_cell_angle_gamma 90.000000
_cell_volume 612.642811
_symmetry_space_group_name_H-M "P 21"
_symmetry_group_IT_number 4
_symmetry_cell_setting 'monoclinic'
loop_
_space_group_symop_operation_xyz
x,y,z
-x,1/2+y,-z
loop_
_atom_site_type_symbol
_atom_site_label
_atom_site_fract_x
_atom_site_fract_y
_atom_site_fract_z
Si Si1 0.302180 0.472320 0.663155
Si Si2 0.365067 0.005213 0.805107
Si Si3 0.762641 0.421391 0.896949
Si Si4 0.476473 0.263699 0.431387
Si Si5 0.808384 0.756670 0.787210
Si Si6 0.077763 0.996516 0.631498
Si Si7 0.603514 0.975794 0.027209
Si Si8 0.946341 0.312730 0.625762
O O1 0.421805 0.330862 0.593710
O O2 0.389656 0.623868 0.583153
O O3 0.283944 0.514660 0.839685
O O4 0.118751 0.411093 0.626342
O O5 0.455295 0.904753 0.674735
O O6 0.209732 0.081223 0.731525
O O7 0.506055 0.077887 0.905644
O O8 0.261549 0.893829 0.927732
O O9 0.846118 0.589571 0.857197
O O10 0.566039 0.431033 0.868347
O O11 0.861171 0.300886 0.792157
O O12 0.308708 0.220455 0.347385
O O13 0.699448 0.849773 0.919692
O O14 0.958754 0.870022 0.722421
O O15 0.974512 0.138908 0.573597
O O16 0.161112 0.904458 0.488696
#
# Coordination Sequence:
#
# PCOD9118180 Si02
#       8
#     2   2   2   2   2   2   2   2
#     4  12  27  46  75 107 145 190 248 306 365 437
#     4   9  25  44  72 103 141 193 233 300 366 434
#     4  10  24  47  70 107 141 188 239 299 366 432
#     4  11  25  46  71 108 138 192 241 302 362 428
#     4  11  23  48  74 105 143 189 244 298 368 431
#     4  12  28  47  73 104 150 193 244 299 365 451
#     4   9  24  44  71 105 140 185 238 304 359 428
#     4  12  30  46  70 109 148 196 241 300 375 437
#
# _framework density 26.116358000000002
#
# number of rings (size 3 to 8) (size 9 to 14) (size 15 to 20)
#    0.750    0.500    2.500    0.750   10.500    2.000 
#    0.000    0.000    0.000    0.000    0.000    0.000 
#    0.000    0.000    0.000    0.000    0.000    0.000 
#
# Total GULP energy -89263.356988 kJ/mol
# GULP energy per Si atom -5578.959812 kJ/mol
# Density = 2.605692 g / cm^3
# Si number density = 26.116358 Si / 1000 Ang^3
#
#
#
# Elastic Constant Matrix: (Units=GPa)
#
#
# Indices 1 2 3 4 5 6 
#
# 1 72.7965 12.0941 26.7210 0.0000 3.2089 0.0000
# 2 12.0941 56.2211 20.4364 0.0000 -6.4711 0.0000
# 3 26.7210 20.4364 124.9837 0.0000 4.3309 0.0000
# 4 0.0000 0.0000 0.0000 33.7600 0.0000 -14.1357
# 5 3.2089 -6.4711 4.3309 0.0000 47.7029 0.0000
# 6 0.0000 0.0000 0.0000 -14.1357 0.0000 37.1716
#
#
#
# Elastic Compliance Matrix: (Units=1/GPa)
#
#
# Indices 1 2 3 4 5 6 
#
# 1 0.015217 -0.002371 -0.002828 0.000000 -0.001088 0.000000
# 2 -0.002371 0.019676 -0.002817 0.000000 0.003084 0.000000
# 3 -0.002828 -0.002817 0.009102 0.000000 -0.001018 0.000000
# 4 0.000000 0.000000 0.000000 0.035231 0.000000 0.013398
# 5 -0.001088 0.003084 -0.001018 0.000000 0.021547 0.000000
# 6 0.000000 0.000000 0.000000 0.013398 0.000000 0.031997
#
#
# Mechanical properties :
#
#
# Convention : Reuss Voigt Hill
#
# Bulk Modulus (GPa) = 35.76219 41.38936 38.57578
# Shear Modulus (GPa) = 31.62118 36.71023 34.16570
#
# Velocity S-wave (km/s) = 3.48340 3.75326 3.62084
# Velocity P-wave (km/s) = 5.46826 5.88770 5.68186
#
# Compressibility (1/GPa) = 0.02796249
#
# Stress axis : x y z
#
# Youngs Moduli (GPa) = 65.71690 50.82337 109.87092
#
# Poissons Ratio (x) = 0.12049 0.31071
# Poissons Ratio (y) = 0.15580 0.30954
# Poissons Ratio (z) = 0.18584 0.14318
#
# Static dielectric constant tensor:
#      x y z
#    x 2.129000 0.000000 0.064200 
#    y 0.000000 2.022660 0.000000 
#    z 0.064200 0.000000 2.018150 
# 
# From -- ./inp_files/5574.got.cif
#   From: 2010.05.17/outbox.cif.g08.bks.cpg/sg4_3_cif.got.tgz:5574.got - 2010.06.03 18:43:04.
