data_PCOD9118981
_publ_section_title
;
Structure prediction by ZEFSAII (Michael W. Deem and Ramdas Pophale) SiO2 
 PCOD9118981
Probable space group: P 21
;
_chemical_formula_sum "Si O2"
_cell_formula_units_Z 16
_cell_length_a 15.911925
_cell_length_b 5.157031
_cell_length_c 14.435676
_cell_angle_alpha 90.000000
_cell_angle_beta 31.106829
_cell_angle_gamma 90.000000
_cell_volume 611.989171
_symmetry_space_group_name_H-M "P 21"
_symmetry_group_IT_number 4
_symmetry_cell_setting 'monoclinic'
loop_
_space_group_symop_operation_xyz
x,y,z
-x,1/2+y,-z
loop_
_atom_site_type_symbol
_atom_site_label
_atom_site_fract_x
_atom_site_fract_y
_atom_site_fract_z
Si Si1 0.167335 0.810560 0.091784
Si Si2 0.911925 0.408662 0.301038
Si Si3 0.733034 0.755411 0.747648
Si Si4 0.954546 0.111871 0.439993
Si Si5 0.545392 0.431448 0.616484
Si Si6 0.919515 0.179717 0.110458
Si Si7 0.547341 0.969831 0.095457
Si Si8 0.644672 0.450615 0.253514
O O1 0.064316 0.590848 0.136091
O O2 0.042582 0.920078 0.284495
O O3 0.318418 0.685454 0.003812
O O4 0.240830 0.998578 0.944701
O O5 0.733800 0.509334 0.445588
O O6 0.916192 0.169446 0.224983
O O7 0.924418 0.347273 0.398001
O O8 0.909682 0.646412 0.609154
O O9 0.612201 0.593339 0.798954
O O10 0.787150 0.014003 0.642047
O O11 0.637729 0.799334 0.933406
O O12 0.502217 0.339225 0.761747
O O13 0.457689 0.698330 0.676802
O O14 0.470766 0.199921 0.623760
O O15 0.762994 0.340174 0.221386
O O16 0.059082 0.388824 0.948021
#
# Coordination Sequence:
#
# PCOD9118981 Si02
#       8
#     2   2   2   2   2   2   2   2
#     4  11  23  47  71 104 146 196 254 310 392 455
#     4  12  28  46  75 111 151 200 252 320 394 453
#     4  12  26  43  72 102 147 197 264 314 389 453
#     4  12  27  45  71 106 149 195 252 330 376 460
#     4  11  28  46  75 109 155 199 249 320 387 453
#     4  12  26  47  81 118 151 200 254 310 381 471
#     4  11  25  44  70 105 142 199 251 317 381 460
#     4  11  25  48  77 109 155 198 256 307 382 465
#
# _framework density 26.144252999999999
#
# number of rings (size 3 to 8) (size 9 to 14) (size 15 to 20)
#    0.000    0.500    2.500    4.500   12.250    1.000 
#    0.000    0.000    0.000    0.000    0.000    0.000 
#    0.000    0.000    0.000    0.000    0.000    0.000 
#
# Total GULP energy -89600.734428 kJ/mol
# GULP energy per Si atom -5600.045902 kJ/mol
# Density = 2.608475 g / cm^3
# Si number density = 26.144253 Si / 1000 Ang^3
#
#
#
# Elastic Constant Matrix: (Units=GPa)
#
#
# Indices 1 2 3 4 5 6 
#
# 1 115.4544 5.1322 38.4585 0.0000 -16.8907 0.0000
# 2 5.1322 69.5312 16.0292 0.0000 -19.2111 0.0000
# 3 38.4585 16.0292 80.1794 0.0000 -15.5575 0.0000
# 4 0.0000 0.0000 0.0000 25.3795 0.0000 -14.8406
# 5 -16.8907 -19.2111 -15.5575 0.0000 58.9656 0.0000
# 6 0.0000 0.0000 0.0000 -14.8406 0.0000 39.7911
#
#
#
# Elastic Compliance Matrix: (Units=1/GPa)
#
#
# Indices 1 2 3 4 5 6 
#
# 1 0.010530 0.000899 -0.004836 0.000000 0.002033 0.000000
# 2 0.000899 0.016286 -0.002748 0.000000 0.004839 0.000000
# 3 -0.004836 -0.002748 0.015702 0.000000 0.001862 0.000000
# 4 0.000000 0.000000 0.000000 0.050392 0.000000 0.018794
# 5 0.002033 0.004839 0.001862 0.000000 0.019609 0.000000
# 6 0.000000 0.000000 0.000000 0.018794 0.000000 0.032141
#
#
# Mechanical properties :
#
#
# Convention : Reuss Voigt Hill
#
# Bulk Modulus (GPa) = 34.30715 42.71164 38.50939
# Shear Modulus (GPa) = 29.80695 38.53025 34.16860
#
# Velocity S-wave (km/s) = 3.38019 3.84312 3.61906
# Velocity P-wave (km/s) = 5.32776 6.00542 5.67671
#
# Compressibility (1/GPa) = 0.02914844
#
# Stress axis : x y z
#
# Youngs Moduli (GPa) = 94.96854 61.40196 63.68450
#
# Poissons Ratio (x) = -0.05523 0.30797
# Poissons Ratio (y) = -0.08542 0.17503
# Poissons Ratio (z) = 0.45926 0.16876
#
# Static dielectric constant tensor:
#      x y z
#    x 2.025430 0.000000 0.034070 
#    y 0.000000 2.093620 0.000000 
#    z 0.034070 0.000000 2.065110 
# 
# From -- ./inp_files/14059.got.cif
#   From: 2010.05.17/outbox.cif.g08.bks.cpg/sg4_8_cif.got.tgz:14059.got - 2010.06.03 18:43:04.
