data_PCOD9118477
_publ_section_title
;
Structure prediction by ZEFSAII (Michael W. Deem and Ramdas Pophale) SiO2 
 PCOD9118477
Probable space group: P 21
;
_chemical_formula_sum "Si O2"
_cell_formula_units_Z 14
_cell_length_a 8.485223
_cell_length_b 11.519130
_cell_length_c 10.828155
_cell_angle_alpha 90.000000
_cell_angle_beta 139.964157
_cell_angle_gamma 90.000000
_cell_volume 680.813999
_symmetry_space_group_name_H-M "P 21"
_symmetry_group_IT_number 4
_symmetry_cell_setting 'monoclinic'
loop_
_space_group_symop_operation_xyz
x,y,z
-x,1/2+y,-z
loop_
_atom_site_type_symbol
_atom_site_label
_atom_site_fract_x
_atom_site_fract_y
_atom_site_fract_z
Si Si1 0.343726 0.484720 0.566745
Si Si2 0.607541 0.139836 0.162637
Si Si3 0.264076 0.539724 0.023150
Si Si4 0.291655 0.776761 0.150142
Si Si5 0.025979 0.808073 0.727493
Si Si6 0.216745 0.277264 0.043596
Si Si7 0.278677 0.133793 0.324131
O O1 0.331279 0.564940 0.680195
O O2 0.514151 0.375158 0.704550
O O3 0.085494 0.430953 0.373667
O O4 0.483869 0.553573 0.541424
O O5 0.337132 0.194104 0.014019
O O6 0.789479 0.249649 0.257671
O O7 0.646259 0.065607 0.062028
O O8 0.370139 0.643645 0.171206
O O9 0.309458 0.408342 0.087210
O O10 0.968026 0.559017 0.849474
O O11 0.163170 0.811581 0.941952
O O12 0.077086 0.775495 0.123785
O O13 0.804073 0.715150 0.613420
O O14 0.305121 0.222453 0.225690
#
# Coordination Sequence:
#
# PCOD9118477 Si02
#       7
#     2   2   2   2   2   2   2
#     4  11  19  40  62  79 117 151 190 238 285 338
#     4   9  21  34  57  82 121 151 180 244 286 334
#     4   9  17  33  55  84 118 141 188 235 282 334
#     4   9  20  36  60  88 101 155 196 230 284 337
#     4   9  21  41  53  85 121 141 192 237 282 337
#     4   9  16  34  58  79 115 147 183 235 286 327
#     4   8  18  36  57  83 109 146 191 243 275 323
#
# _framework density 20.563618000000002
#
# number of rings (size 3 to 8) (size 9 to 14) (size 15 to 20)
#    0.000    3.429    1.429    0.000    4.000    0.000 
#    7.714    5.714    0.000    0.000    0.000    0.000 
#    0.000    0.000    0.000    0.000    0.000    0.000 
#
# Total GULP energy -78022.641188 kJ/mol
# GULP energy per Si atom -5573.045799 kJ/mol
# Density = 2.051681 g / cm^3
# Si number density = 20.563618 Si / 1000 Ang^3
#
#
#
# Elastic Constant Matrix: (Units=GPa)
#
#
# Indices 1 2 3 4 5 6 
#
# 1 99.6174 33.8099 14.2627 0.0000 7.3892 0.0000
# 2 33.8099 80.2813 20.6496 0.0000 -2.0542 0.0000
# 3 14.2627 20.6496 35.9686 0.0000 0.7515 0.0000
# 4 0.0000 0.0000 0.0000 28.5432 0.0000 16.1877
# 5 7.3892 -2.0542 0.7515 0.0000 4.5200 0.0000
# 6 0.0000 0.0000 0.0000 16.1877 0.0000 25.1510
#
#
#
# Elastic Compliance Matrix: (Units=1/GPa)
#
#
# Indices 1 2 3 4 5 6 
#
# 1 0.014329 -0.006311 -0.001514 0.000000 -0.026041 0.000000
# 2 -0.006311 0.017693 -0.008067 0.000000 0.019700 0.000000
# 3 -0.001514 -0.008067 0.033174 0.000000 -0.006706 0.000000
# 4 0.000000 0.000000 0.000000 0.055174 0.000000 -0.035511
# 5 -0.026041 0.019700 -0.006706 0.000000 0.273877 0.000000
# 6 0.000000 0.000000 0.000000 -0.035511 0.000000 0.062616
#
#
# Mechanical properties :
#
#
# Convention : Reuss Voigt Hill
#
# Bulk Modulus (GPa) = 29.93025 39.25685 34.59355
# Shear Modulus (GPa) = 10.00432 21.45252 15.72842
#
# Velocity S-wave (km/s) = 2.20808 3.23341 2.76862
# Velocity P-wave (km/s) = 4.59210 5.75081 5.20380
#
# Compressibility (1/GPa) = 0.03341101
#
# Stress axis : x y z
#
# Youngs Moduli (GPa) = 69.78930 56.51925 30.14435
#
# Poissons Ratio (x) = 0.35671 0.04565
# Poissons Ratio (y) = 0.44046 0.24316
# Poissons Ratio (z) = 0.10569 0.45592
#
# Static dielectric constant tensor:
#      x y z
#    x 1.755670 0.000000 0.030020 
#    y 0.000000 1.745740 0.000000 
#    z 0.030020 0.000000 1.781180 
# 
# From -- ./inp_files/5894.got.cif
#   From: 2010.05.17/outbox.cif.g08.bks.cpg/sg4_3_cif.got.tgz:5894.got - 2010.06.03 18:43:04.
