data_PCOD9118150
_publ_section_title
;
Structure prediction by ZEFSAII (Michael W. Deem and Ramdas Pophale) SiO2 
 PCOD9118150
Probable space group: P 21
;
_chemical_formula_sum "Si O2"
_cell_formula_units_Z 12
_cell_length_a 15.929001
_cell_length_b 6.244331
_cell_length_c 9.728872
_cell_angle_alpha 90.000000
_cell_angle_beta 144.771216
_cell_angle_gamma 90.000000
_cell_volume 558.205857
_symmetry_space_group_name_H-M "P 21"
_symmetry_group_IT_number 4
_symmetry_cell_setting 'monoclinic'
loop_
_space_group_symop_operation_xyz
x,y,z
-x,1/2+y,-z
loop_
_atom_site_type_symbol
_atom_site_label
_atom_site_fract_x
_atom_site_fract_y
_atom_site_fract_z
Si Si1 0.521405 0.938520 0.088229
Si Si2 0.243410 0.042107 0.855172
Si Si3 0.800746 0.719559 0.502622
Si Si4 0.126531 0.797204 0.939086
Si Si5 0.664769 0.900695 0.808761
Si Si6 0.339472 0.060180 0.421048
O O1 0.692527 0.922451 0.348365
O O2 0.501663 0.693106 0.991251
O O3 0.397787 0.921552 0.039624
O O4 0.188159 0.107342 0.631111
O O5 0.131368 0.907726 0.795693
O O6 0.283303 0.243314 0.002135
O O7 0.719330 0.570185 0.503717
O O8 0.961800 0.774205 0.766785
O O9 0.213678 0.579372 0.038967
O O10 0.225439 0.930099 0.176529
O O11 0.655573 0.789026 0.647700
O O12 0.502208 0.972058 0.629508
#
# Coordination Sequence:
#
# PCOD9118150 Si02
#       6
#     2   2   2   2   2   2
#     4  10  24  46  72 114 147 192 247 305 375 445
#     4  10  26  45  73 107 140 194 245 314 375 450
#     4  11  27  44  74 109 144 189 245 324 371 449
#     4  11  26  47  70 102 149 192 247 310 384 447
#     4  11  24  48  74  99 141 192 253 300 380 452
#     4  11  25  48  71 103 135 199 245 305 369 457
#
# _framework density 21.497446
#
# number of rings (size 3 to 8) (size 9 to 14) (size 15 to 20)
#    0.000    1.333    1.667    1.000   21.000    0.000 
#    9.000    0.000    0.000    0.000    0.000    0.000 
#    0.000    0.000    0.000    0.000    0.000    0.000 
#
# Total GULP energy -66917.993271 kJ/mol
# GULP energy per Si atom -5576.499439 kJ/mol
# Density = 2.144852 g / cm^3
# Si number density = 21.497446 Si / 1000 Ang^3
#
#
#
# Elastic Constant Matrix: (Units=GPa)
#
#
# Indices 1 2 3 4 5 6 
#
# 1 76.7155 33.2281 3.8280 0.0000 24.0053 0.0000
# 2 33.2281 88.3116 23.0789 0.0000 16.7567 0.0000
# 3 3.8280 23.0789 105.4728 0.0000 5.3595 0.0000
# 4 0.0000 0.0000 0.0000 12.9744 0.0000 8.6666
# 5 24.0053 16.7567 5.3595 0.0000 72.9830 0.0000
# 6 0.0000 0.0000 0.0000 8.6666 0.0000 -130.3080
#
#
#
# Elastic Compliance Matrix: (Units=1/GPa)
#
#
# Indices 1 2 3 4 5 6 
#
# 1 0.016817 -0.005742 0.000863 0.000000 -0.004277 0.000000
# 2 -0.005742 0.014473 -0.002896 0.000000 -0.001222 0.000000
# 3 0.000863 -0.002896 0.010102 0.000000 -0.000361 0.000000
# 4 0.000000 0.000000 0.000000 0.073796 0.000000 0.004908
# 5 -0.004277 -0.001222 -0.000361 0.000000 0.015415 0.000000
# 6 0.000000 0.000000 0.000000 0.004908 0.000000 -0.007348
#
#
# Mechanical properties :
#
#
# Convention : Reuss Voigt Hill
#
# Bulk Modulus (GPa) = 38.69647 43.41888 41.05768
# Shear Modulus (GPa) = 33.91681 5.15421 19.53551
#
# Velocity S-wave (km/s) = 3.97635 1.55010 3.01780
# Velocity P-wave (km/s) = 6.25471 4.84198 5.59313
#
# Compressibility (1/GPa) = 0.02584215
#
# Stress axis : x y z
#
# Youngs Moduli (GPa) = 59.46267 69.09580 98.99146
#
# Poissons Ratio (x) = 0.39674 -0.08546
# Poissons Ratio (y) = 0.34142 0.28671
# Poissons Ratio (z) = -0.05134 0.20013
#
# Static dielectric constant tensor:
#      x y z
#    x 1.802470 0.000000 0.030030 
#    y 0.000000 1.808830 0.000000 
#    z 0.030030 0.000000 1.910920 
# 
# From -- ./inp_files/8767.got.cif
#   From: 2010.05.17/outbox.cif.g08.bks.cpg/sg4_5_cif.got.tgz:8767.got - 2010.06.03 18:43:04.
