data_PCOD9118581
_publ_section_title
;
Structure prediction by ZEFSAII (Michael W. Deem and Ramdas Pophale) SiO2 
 PCOD9118581
Probable space group: P 21
;
_chemical_formula_sum "Si O2"
_cell_formula_units_Z 16
_cell_length_a 16.792058
_cell_length_b 6.582556
_cell_length_c 11.556640
_cell_angle_alpha 90.000000
_cell_angle_beta 35.775920
_cell_angle_gamma 90.000000
_cell_volume 746.794876
_symmetry_space_group_name_H-M "P 21"
_symmetry_group_IT_number 4
_symmetry_cell_setting 'monoclinic'
loop_
_space_group_symop_operation_xyz
x,y,z
-x,1/2+y,-z
loop_
_atom_site_type_symbol
_atom_site_label
_atom_site_fract_x
_atom_site_fract_y
_atom_site_fract_z
Si Si1 0.673975 0.032580 0.381391
Si Si2 0.585495 0.771775 0.961656
Si Si3 0.626326 0.391056 0.282654
Si Si4 0.337478 0.518756 0.330855
Si Si5 0.164645 0.970288 0.296449
Si Si6 0.703654 0.103728 0.989898
Si Si7 0.179564 0.277998 0.967500
Si Si8 0.053639 0.694681 0.607008
O O1 0.688303 0.259704 0.314552
O O2 0.525773 0.961676 0.508965
O O3 0.666455 0.014893 0.527057
O O4 0.787793 0.889461 0.190836
O O5 0.600044 0.826999 0.809880
O O6 0.697241 0.599721 0.857786
O O7 0.623177 0.970994 0.991389
O O8 0.437167 0.699493 0.173336
O O9 0.722166 0.582219 0.141113
O O10 0.620713 0.244709 0.177146
O O11 0.185423 0.555035 0.465123
O O12 0.197841 0.759184 0.192430
O O13 0.104361 0.905563 0.491322
O O14 0.054869 0.095122 0.352512
O O15 0.779067 0.939823 0.982078
O O16 0.025541 0.219798 0.178878
#
# Coordination Sequence:
#
# PCOD9118581 Si02
#       8
#     2   2   2   2   2   2   2   2
#     4  11  25  44  69 102 136 189 249 299 362 432
#     4  12  26  48  72 108 149 194 240 305 372 452
#     4  11  22  43  76 100 132 185 253 305 348 431
#     4  12  28  46  69 110 152 186 237 304 386 428
#     4  12  23  46  75 105 148 192 252 294 368 454
#     4  11  21  42  77 105 135 183 246 307 349 435
#     4  11  23  44  69 101 136 189 249 299 351 431
#     4  12  24  45  69 107 144 192 238 301 368 441
#
# _framework density 21.424893999999998
#
# number of rings (size 3 to 8) (size 9 to 14) (size 15 to 20)
#    0.000    0.500    5.000    3.750    3.500    0.000 
#    4.500    0.000    0.000    0.000    0.000    0.000 
#    0.000    0.000    0.000    0.000    0.000    0.000 
#
# Total GULP energy -89536.333795 kJ/mol
# GULP energy per Si atom -5596.020862 kJ/mol
# Density = 2.137613 g / cm^3
# Si number density = 21.424894 Si / 1000 Ang^3
#
#
#
# Elastic Constant Matrix: (Units=GPa)
#
#
# Indices 1 2 3 4 5 6 
#
# 1 54.3906 15.4119 20.4816 0.0000 24.6357 0.0000
# 2 15.4119 97.0007 31.6578 0.0000 10.0745 0.0000
# 3 20.4816 31.6578 140.2359 0.0000 17.1801 0.0000
# 4 0.0000 0.0000 0.0000 36.5757 0.0000 8.5096
# 5 24.6357 10.0745 17.1801 0.0000 41.3630 0.0000
# 6 0.0000 0.0000 0.0000 8.5096 0.0000 22.3525
#
#
#
# Elastic Compliance Matrix: (Units=1/GPa)
#
#
# Indices 1 2 3 4 5 6 
#
# 1 0.026090 -0.002142 -0.001567 0.000000 -0.014366 0.000000
# 2 -0.002142 0.011427 -0.002194 0.000000 -0.000596 0.000000
# 3 -0.001567 -0.002194 0.008087 0.000000 -0.001891 0.000000
# 4 0.000000 0.000000 0.000000 0.029998 0.000000 -0.011420
# 5 -0.014366 -0.000596 -0.001891 0.000000 0.033664 0.000000
# 6 0.000000 0.000000 0.000000 -0.011420 0.000000 0.049085
#
#
# Mechanical properties :
#
#
# Convention : Reuss Voigt Hill
#
# Bulk Modulus (GPa) = 29.58695 47.41440 38.50067
# Shear Modulus (GPa) = 27.56016 34.99663 31.27839
#
# Velocity S-wave (km/s) = 3.59048 4.04599 3.82502
# Velocity P-wave (km/s) = 5.57031 6.63365 6.12509
#
# Compressibility (1/GPa) = 0.03379869
#
# Stress axis : x y z
#
# Youngs Moduli (GPa) = 38.32952 87.50865 123.66093
#
# Poissons Ratio (x) = 0.18742 0.19376
# Poissons Ratio (y) = 0.08209 0.27129
# Poissons Ratio (z) = 0.06006 0.19198
#
# Static dielectric constant tensor:
#      x y z
#    x 1.769870 0.000000 0.024990 
#    y 0.000000 1.788290 0.000000 
#    z 0.024990 0.000000 1.784480 
# 
# From -- ./inp_files/12794.got.cif
#   From: 2010.05.17/outbox.cif.g08.bks.cpg/sg4_7_cif.got.tgz:12794.got - 2010.06.03 18:43:04.
