data_PCOD9118066
_publ_section_title
;
Structure prediction by ZEFSAII (Michael W. Deem and Ramdas Pophale) SiO2 
 PCOD9118066
Probable space group: P 21
;
_chemical_formula_sum "Si O2"
_cell_formula_units_Z 16
_cell_length_a 14.612930
_cell_length_b 6.108751
_cell_length_c 21.387894
_cell_angle_alpha 90.000000
_cell_angle_beta 160.345314
_cell_angle_gamma 90.000000
_cell_volume 642.169849
_symmetry_space_group_name_H-M "P 21"
_symmetry_group_IT_number 4
_symmetry_cell_setting 'monoclinic'
loop_
_space_group_symop_operation_xyz
x,y,z
-x,1/2+y,-z
loop_
_atom_site_type_symbol
_atom_site_label
_atom_site_fract_x
_atom_site_fract_y
_atom_site_fract_z
Si Si1 0.314331 0.345110 0.654962
Si Si2 0.359850 0.015536 0.574087
Si Si3 0.082154 0.236236 0.293697
Si Si4 0.677736 0.174217 0.540939
Si Si5 0.817155 0.429409 0.748462
Si Si6 0.597914 0.263346 0.075414
Si Si7 0.673795 0.736356 0.862533
Si Si8 0.702334 0.463667 0.276676
O O1 0.250121 0.163621 0.559778
O O2 0.558635 0.490310 0.783808
O O3 0.031566 0.466539 0.487998
O O4 0.386202 0.212253 0.764297
O O5 0.355657 0.159713 0.508435
O O6 0.211103 0.801359 0.448342
O O7 0.628343 0.900739 0.774818
O O8 0.113650 0.490778 0.304010
O O9 0.858982 0.202379 0.202433
O O10 0.023208 0.101513 0.193662
O O11 0.643155 0.314428 0.581536
O O12 0.384562 0.070378 0.339053
O O13 0.026082 0.274225 0.918140
O O14 0.625344 0.346433 0.163543
O O15 0.524695 0.511397 0.999536
O O16 0.453298 0.827320 0.770675
#
# Coordination Sequence:
#
# PCOD9118066 Si02
#       8
#     2   2   2   2   2   2   2   2
#     4  11  22  42  70 105 148 198 237 297 370 455
#     4  10  24  44  71 107 138 192 238 301 373 444
#     4  11  24  46  75  99 146 192 246 299 379 453
#     4  11  24  47  77 100 144 190 244 306 386 452
#     4  11  25  48  73 109 137 193 245 312 378 448
#     4  12  30  44  70 111 151 198 253 310 369 450
#     4  11  25  44  72 105 148 187 252 306 361 445
#     4  11  24  41  70 104 152 196 239 291 376 445
#
# _framework density 24.915527999999998
#
# number of rings (size 3 to 8) (size 9 to 14) (size 15 to 20)
#    0.000    1.000    3.750    1.500    7.000    2.000 
#    2.250    0.000    0.000    0.000    0.000    0.000 
#    0.000    0.000    0.000    0.000    0.000    0.000 
#
# Total GULP energy -89095.441565 kJ/mol
# GULP energy per Si atom -5568.465098 kJ/mol
# Density = 2.485882 g / cm^3
# Si number density = 24.915528 Si / 1000 Ang^3
#
#
#
# Elastic Constant Matrix: (Units=GPa)
#
#
# Indices 1 2 3 4 5 6 
#
# 1 66.7711 32.2060 8.3951 0.0000 8.5522 0.0000
# 2 32.2060 109.0876 39.4713 0.0000 3.0962 0.0000
# 3 8.3951 39.4713 70.0708 0.0000 7.6486 0.0000
# 4 0.0000 0.0000 0.0000 28.5210 0.0000 -1.1131
# 5 8.5522 3.0962 7.6486 0.0000 22.1464 0.0000
# 6 0.0000 0.0000 0.0000 -1.1131 0.0000 50.4536
#
#
#
# Elastic Compliance Matrix: (Units=1/GPa)
#
#
# Indices 1 2 3 4 5 6 
#
# 1 0.018500 -0.005950 0.001896 0.000000 -0.006967 0.000000
# 2 -0.005950 0.013436 -0.007172 0.000000 0.002896 0.000000
# 3 0.001896 -0.007172 0.018762 0.000000 -0.006209 0.000000
# 4 0.000000 0.000000 0.000000 0.035092 0.000000 0.000774
# 5 -0.006967 0.002896 -0.006209 0.000000 0.049584 0.000000
# 6 0.000000 0.000000 0.000000 0.000774 0.000000 0.019837
#
#
# Mechanical properties :
#
#
# Convention : Reuss Voigt Hill
#
# Bulk Modulus (GPa) = 35.40329 45.11937 40.26133
# Shear Modulus (GPa) = 26.72645 31.28135 29.00390
#
# Velocity S-wave (km/s) = 3.27874 3.54714 3.41558
# Velocity P-wave (km/s) = 5.34543 5.90970 5.63463
#
# Compressibility (1/GPa) = 0.02824596
#
# Stress axis : x y z
#
# Youngs Moduli (GPa) = 54.05262 74.42422 53.29923
#
# Poissons Ratio (x) = 0.44283 -0.10104
# Poissons Ratio (y) = 0.32162 0.38227
# Poissons Ratio (z) = -0.10247 0.53378
#
# Static dielectric constant tensor:
#      x y z
#    x 1.932570 0.000000 0.001800 
#    y 0.000000 2.141470 0.000000 
#    z 0.001800 0.000000 2.032260 
# 
# From -- ./inp_files/7294.got.cif
#   From: 2010.05.17/outbox.cif.g08.bks.cpg/sg4_4_cif.got.tgz:7294.got - 2010.06.03 18:43:04.
