data_PCOD9118560
_publ_section_title
;
Structure prediction by ZEFSAII (Michael W. Deem and Ramdas Pophale) SiO2 
 PCOD9118560
Probable space group: P 21
;
_chemical_formula_sum "Si O2"
_cell_formula_units_Z 10
_cell_length_a 9.112213
_cell_length_b 5.798567
_cell_length_c 16.934579
_cell_angle_alpha 90.000000
_cell_angle_beta 30.517338
_cell_angle_gamma 90.000000
_cell_volume 454.371257
_symmetry_space_group_name_H-M "P 21"
_symmetry_group_IT_number 4
_symmetry_cell_setting 'monoclinic'
loop_
_space_group_symop_operation_xyz
x,y,z
-x,1/2+y,-z
loop_
_atom_site_type_symbol
_atom_site_label
_atom_site_fract_x
_atom_site_fract_y
_atom_site_fract_z
Si Si1 0.855650 0.780460 0.584389
Si Si2 0.183789 0.387597 0.087649
Si Si3 0.381660 0.638755 0.680093
Si Si4 0.277011 0.118162 0.191434
Si Si5 0.204765 0.277007 0.653910
O O1 0.576732 0.714574 0.661972
O O2 0.807694 0.790650 0.700303
O O3 0.038004 0.537861 0.489497
O O4 0.355397 0.242626 0.073714
O O5 0.940411 0.234314 0.159741
O O6 0.431329 0.489013 0.917660
O O7 0.994589 0.567869 0.225926
O O8 0.340889 0.374348 0.672355
O O9 0.543163 0.729358 0.525683
O O10 0.009367 0.956580 0.290887
#
# Coordination Sequence:
#
# PCOD9118560 Si02
#       5
#     2   2   2   2   2
#     4  12  28  47  72 104 142 185 232 290 350 414
#     4  11  23  42  69 100 134 177 235 285 343 414
#     4  11  24  40  68 100 130 183 228 289 336 412
#     4  11  24  44  70  99 136 183 229 287 350 413
#     4  11  21  41  69  95 132 172 238 279 337 413
#
# _framework density 22.008431000000002
#
# number of rings (size 3 to 8) (size 9 to 14) (size 15 to 20)
#    0.000    0.800    6.000    1.200    5.600    0.000 
#    3.600    0.000    0.000    0.000    0.000    0.000 
#    0.000    0.000    0.000    0.000    0.000    0.000 
#
# Total GULP energy -55777.798707 kJ/mol
# GULP energy per Si atom -5577.779871 kJ/mol
# Density = 2.195834 g / cm^3
# Si number density = 22.008431 Si / 1000 Ang^3
#
#
#
# Elastic Constant Matrix: (Units=GPa)
#
#
# Indices 1 2 3 4 5 6 
#
# 1 64.3899 -6.4515 -12.4791 0.0000 -18.6281 0.0000
# 2 -6.4515 42.2534 6.9315 0.0000 -8.4865 0.0000
# 3 -12.4791 6.9315 57.0744 0.0000 -16.7028 0.0000
# 4 0.0000 0.0000 0.0000 28.7681 0.0000 -7.7124
# 5 -18.6281 -8.4865 -16.7028 0.0000 23.2144 0.0000
# 6 0.0000 0.0000 0.0000 -7.7124 0.0000 21.1603
#
#
#
# Elastic Compliance Matrix: (Units=1/GPa)
#
#
# Indices 1 2 3 4 5 6 
#
# 1 0.032899 0.010749 0.018701 0.000000 0.043784 0.000000
# 2 0.010749 0.029064 0.005642 0.000000 0.023310 0.000000
# 3 0.018701 0.005642 0.032833 0.000000 0.040693 0.000000
# 4 0.000000 0.000000 0.000000 0.038525 0.000000 0.014041
# 5 0.043784 0.023310 0.040693 0.000000 0.116011 0.000000
# 6 0.000000 0.000000 0.000000 0.014041 0.000000 0.052376
#
#
# Mechanical properties :
#
#
# Convention : Reuss Voigt Hill
#
# Bulk Modulus (GPa) = 6.06128 15.52440 10.79284
# Shear Modulus (GPa) = 17.45096 26.34301 21.89698
#
# Velocity S-wave (km/s) = 2.81894 3.46345 3.15768
# Velocity P-wave (km/s) = 3.65449 4.80241 4.26723
#
# Compressibility (1/GPa) = 0.16498162
#
# Stress axis : x y z
#
# Youngs Moduli (GPa) = 30.39641 34.40656 30.45674
#
# Poissons Ratio (x) = -0.36985 -0.56958
# Poissons Ratio (y) = -0.32674 -0.17184
# Poissons Ratio (z) = -0.56845 -0.19413
#
# Static dielectric constant tensor:
#      x y z
#    x 1.765460 0.000000 -0.018130 
#    y 0.000000 1.917980 0.000000 
#    z -0.018130 0.000000 1.766770 
# 
# From -- ./inp_files/13622.got.cif
#   From: 2010.05.17/outbox.cif.g08.bks.cpg/sg4_7_cif.got.tgz:13622.got - 2010.06.03 18:43:04.
