data_PCOD9118737
_publ_section_title
;
Structure prediction by ZEFSAII (Michael W. Deem and Ramdas Pophale) SiO2 
 PCOD9118737
Probable space group: P 21
;
_chemical_formula_sum "Si O2"
_cell_formula_units_Z 16
_cell_length_a 8.966214
_cell_length_b 12.924663
_cell_length_c 8.530619
_cell_angle_alpha 90.000000
_cell_angle_beta 128.962170
_cell_angle_gamma 90.000000
_cell_volume 768.676341
_symmetry_space_group_name_H-M "P 21"
_symmetry_group_IT_number 4
_symmetry_cell_setting 'monoclinic'
loop_
_space_group_symop_operation_xyz
x,y,z
-x,1/2+y,-z
loop_
_atom_site_type_symbol
_atom_site_label
_atom_site_fract_x
_atom_site_fract_y
_atom_site_fract_z
Si Si1 0.145485 0.213950 0.918061
Si Si2 0.480661 0.812148 0.143641
Si Si3 0.656590 0.935196 0.999484
Si Si4 0.633743 0.489222 0.466073
Si Si5 0.491862 0.128167 0.343412
Si Si6 0.254521 0.643360 0.794523
Si Si7 0.836323 0.679672 0.428544
Si Si8 0.263981 0.790991 0.309871
O O1 0.151503 0.161768 0.750662
O O2 0.927682 0.223738 0.829860
O O3 0.221048 0.331728 0.945588
O O4 0.289657 0.158044 0.131199
O O5 0.685496 0.773393 0.346255
O O6 0.334558 0.827870 0.187505
O O7 0.515989 0.907352 0.051735
O O8 0.397325 0.718625 0.982682
O O9 0.530425 0.956406 0.763674
O O10 0.769245 0.037889 0.123297
O O11 0.537258 0.532092 0.560882
O O12 0.751021 0.581443 0.462767
O O13 0.760500 0.389959 0.594260
O O14 0.645527 0.117393 0.305247
O O15 0.571198 0.220975 0.503657
O O16 0.051048 0.697726 0.630939
#
# Coordination Sequence:
#
# PCOD9118737 Si02
#       8
#     2   2   2   2   2   2   2   2
#     4  11  24  44  68  98 137 177 221 274 336 397
#     4  11  24  44  68  97 138 174 226 274 333 399
#     4  11  22  45  68  95 136 176 219 274 335 399
#     4  12  24  44  70  99 139 174 225 280 333 399
#     4  12  23  44  68  97 141 170 223 285 328 395
#     4  12  22  43  68  97 133 180 218 273 337 397
#     4  11  23  41  69  98 130 182 218 268 335 399
#     4  12  24  43  67 103 134 179 226 278 337 391
#
# _framework density 20.815003000000001
#
# number of rings (size 3 to 8) (size 9 to 14) (size 15 to 20)
#    0.000    0.500    7.500    1.500    1.750    0.000 
#    2.250    1.250    0.000    0.000    0.000    0.000 
#    0.000    0.000    0.000    0.000    0.000    0.000 
#
# Total GULP energy -89480.749447 kJ/mol
# GULP energy per Si atom -5592.546840 kJ/mol
# Density = 2.076763 g / cm^3
# Si number density = 20.815003 Si / 1000 Ang^3
#
#
#
# Elastic Constant Matrix: (Units=GPa)
#
#
# Indices 1 2 3 4 5 6 
#
# 1 83.0525 -5.4605 39.6413 0.0000 0.4453 0.0000
# 2 -5.4605 28.7517 0.1489 0.0000 -0.9110 0.0000
# 3 39.6413 0.1489 90.4380 0.0000 9.0887 0.0000
# 4 0.0000 0.0000 0.0000 30.4898 0.0000 -12.5390
# 5 0.4453 -0.9110 9.0887 0.0000 26.3533 0.0000
# 6 0.0000 0.0000 0.0000 -12.5390 0.0000 32.0945
#
#
#
# Elastic Compliance Matrix: (Units=1/GPa)
#
#
# Indices 1 2 3 4 5 6 
#
# 1 0.015608 0.003073 -0.007076 0.000000 0.002283 0.000000
# 2 0.003073 0.035427 -0.001578 0.000000 0.001717 0.000000
# 3 -0.007076 -0.001578 0.014663 0.000000 -0.004992 0.000000
# 4 0.000000 0.000000 0.000000 0.039076 0.000000 0.015267
# 5 0.002283 0.001717 -0.004992 0.000000 0.039688 0.000000
# 6 0.000000 0.000000 0.000000 0.015267 0.000000 0.037123
#
#
# Mechanical properties :
#
#
# Convention : Reuss Voigt Hill
#
# Bulk Modulus (GPa) = 18.33632 30.10019 24.21826
# Shear Modulus (GPa) = 23.70518 28.98168 26.34343
#
# Velocity S-wave (km/s) = 3.37835 3.73546 3.56138
# Velocity P-wave (km/s) = 4.90367 5.75301 5.34523
#
# Compressibility (1/GPa) = 0.05453656
#
# Stress axis : x y z
#
# Youngs Moduli (GPa) = 64.07110 28.22721 68.19872
#
# Poissons Ratio (x) = -0.08675 0.48255
# Poissons Ratio (y) = -0.19690 0.10761
# Poissons Ratio (z) = 0.45335 0.04454
#
# Static dielectric constant tensor:
#      x y z
#    x 1.760960 0.000000 -0.004680 
#    y 0.000000 1.742730 0.000000 
#    z -0.004680 0.000000 1.714050 
# 
# From -- ./inp_files/6397.got.cif
#   From: 2010.05.17/outbox.cif.g08.bks.cpg/sg4_4_cif.got.tgz:6397.got - 2010.06.03 18:43:04.
