data_PCOD9118281
_publ_section_title
;
Structure prediction by ZEFSAII (Michael W. Deem and Ramdas Pophale) SiO2 
 PCOD9118281
Probable space group: P 21
;
_chemical_formula_sum "Si O2"
_cell_formula_units_Z 14
_cell_length_a 12.126349
_cell_length_b 7.772764
_cell_length_c 5.837244
_cell_angle_alpha 90.000000
_cell_angle_beta 104.846068
_cell_angle_gamma 90.000000
_cell_volume 531.824243
_symmetry_space_group_name_H-M "P 21"
_symmetry_group_IT_number 4
_symmetry_cell_setting 'monoclinic'
loop_
_space_group_symop_operation_xyz
x,y,z
-x,1/2+y,-z
loop_
_atom_site_type_symbol
_atom_site_label
_atom_site_fract_x
_atom_site_fract_y
_atom_site_fract_z
Si Si1 0.980413 0.358100 0.729916
Si Si2 0.748769 0.502077 0.156543
Si Si3 0.233918 0.729244 0.166334
Si Si4 0.493570 0.833276 0.337820
Si Si5 0.892895 0.702339 0.595085
Si Si6 0.488618 0.953499 0.834427
Si Si7 0.225953 0.339535 0.087635
O O1 0.869280 0.237834 0.707739
O O2 0.957710 0.557765 0.773648
O O3 0.024941 0.327458 0.496460
O O4 0.094852 0.318702 0.933493
O O5 0.828043 0.574072 0.391414
O O6 0.641507 0.396534 0.195154
O O7 0.814679 0.364324 0.041662
O O8 0.712658 0.675886 0.996548
O O9 0.355012 0.819399 0.292454
O O10 0.259450 0.539057 0.080232
O O11 0.524878 0.646377 0.262990
O O12 0.536897 0.866327 0.623254
O O13 0.528952 0.945861 0.127499
O O14 0.790109 0.805081 0.654389
#
# Coordination Sequence:
#
# PCOD9118281 Si02
#       7
#     2   2   2   2   2   2   2
#     4  11  23  38  63  95 140 180 236 288 348 418
#     4  10  25  44  67  96 141 183 233 296 357 421
#     4  11  24  44  69  99 143 179 242 289 356 425
#     4  11  26  48  76 111 142 191 237 303 370 433
#     4  11  23  40  64  96 133 189 230 293 350 417
#     4  11  25  48  77 108 146 187 236 303 368 438
#     4  11  24  42  64 101 133 193 232 292 349 428
#
# _framework density 26.324483000000001
#
# number of rings (size 3 to 8) (size 9 to 14) (size 15 to 20)
#    0.000    1.143    1.429    3.429   10.000    1.143 
#   10.286    0.000    0.000    0.000    0.000    0.000 
#    0.000    0.000    0.000    0.000    0.000    0.000 
#
# Total GULP energy -78062.040143 kJ/mol
# GULP energy per Si atom -5575.860010 kJ/mol
# Density = 2.626457 g / cm^3
# Si number density = 26.324483 Si / 1000 Ang^3
#
#
#
# Elastic Constant Matrix: (Units=GPa)
#
#
# Indices 1 2 3 4 5 6 
#
# 1 90.2122 5.4194 21.5021 0.0000 -30.6426 0.0000
# 2 5.4194 122.9607 34.4756 0.0000 -21.4033 0.0000
# 3 21.5021 34.4756 91.9045 0.0000 -28.1109 0.0000
# 4 0.0000 0.0000 0.0000 42.2622 0.0000 -7.5905
# 5 -30.6426 -21.4033 -28.1109 0.0000 44.3466 0.0000
# 6 0.0000 0.0000 0.0000 -7.5905 0.0000 45.4275
#
#
#
# Elastic Compliance Matrix: (Units=1/GPa)
#
#
# Indices 1 2 3 4 5 6 
#
# 1 0.014695 0.001371 -0.000799 0.000000 0.010309 0.000000
# 2 0.001371 0.009497 -0.002719 0.000000 0.003808 0.000000
# 3 -0.000799 -0.002719 0.014288 0.000000 0.007193 0.000000
# 4 0.000000 0.000000 0.000000 0.024394 0.000000 0.004076
# 5 0.010309 0.003808 0.007193 0.000000 0.036070 0.000000
# 6 0.000000 0.000000 0.000000 0.004076 0.000000 0.022694
#
#
# Mechanical properties :
#
#
# Convention : Reuss Voigt Hill
#
# Bulk Modulus (GPa) = 29.25200 47.54129 38.39664
# Shear Modulus (GPa) = 36.40952 42.65262 39.53107
#
# Velocity S-wave (km/s) = 3.72305 4.02962 3.87936
# Velocity P-wave (km/s) = 5.44221 6.30471 5.88927
#
# Compressibility (1/GPa) = 0.03418570
#
# Stress axis : x y z
#
# Youngs Moduli (GPa) = 68.05169 105.29298 69.99052
#
# Poissons Ratio (x) = -0.14434 0.05592
# Poissons Ratio (y) = -0.09329 0.19029
# Poissons Ratio (z) = 0.05437 0.28627
#
# Static dielectric constant tensor:
#      x y z
#    x 2.152440 0.000000 -0.021720 
#    y 0.000000 2.096570 0.000000 
#    z -0.021720 0.000000 2.333270 
# 
# From -- ./inp_files/2653.got.cif
#   From: 2010.05.17/outbox.cif.g08.bks.cpg/sg4_2_cif.got.tgz:2653.got - 2010.06.03 18:43:04.
