data_PCOD9118062
_publ_section_title
;
Structure prediction by ZEFSAII (Michael W. Deem and Ramdas Pophale) SiO2 
 PCOD9118062
Probable space group: P 21
;
_chemical_formula_sum "Si O2"
_cell_formula_units_Z 16
_cell_length_a 14.597415
_cell_length_b 5.149372
_cell_length_c 9.552103
_cell_angle_alpha 90.000000
_cell_angle_beta 124.890169
_cell_angle_gamma 90.000000
_cell_volume 588.946000
_symmetry_space_group_name_H-M "P 21"
_symmetry_group_IT_number 4
_symmetry_cell_setting 'monoclinic'
loop_
_space_group_symop_operation_xyz
x,y,z
-x,1/2+y,-z
loop_
_atom_site_type_symbol
_atom_site_label
_atom_site_fract_x
_atom_site_fract_y
_atom_site_fract_z
Si Si1 0.538956 0.916680 0.122560
Si Si2 0.039315 0.306967 0.894592
Si Si3 0.741697 0.279931 0.328098
Si Si4 0.787205 0.453446 0.054441
Si Si5 0.807998 0.131840 0.804102
Si Si6 0.980941 0.452907 0.562982
Si Si7 0.630019 0.411320 0.490101
Si Si8 0.406537 0.145242 0.247879
O O1 0.475109 0.929559 0.216679
O O2 0.664711 0.023952 0.255208
O O3 0.515660 0.651980 0.019139
O O4 0.041390 0.499217 0.763422
O O5 0.088130 0.051895 0.863846
O O6 0.124288 0.374743 0.093836
O O7 0.914240 0.296927 0.841699
O O8 0.757839 0.366020 0.182609
O O9 0.868358 0.287438 0.492275
O O10 0.680723 0.473885 0.383686
O O11 0.701767 0.688216 0.941559
O O12 0.763689 0.247812 0.911563
O O13 0.706476 0.163119 0.607279
O O14 0.955257 0.733886 0.473679
O O15 0.634419 0.587213 0.630808
O O16 0.500920 0.357462 0.350512
#
# Coordination Sequence:
#
# PCOD9118062 Si02
#       8
#     2   2   2   2   2   2   2   2
#     4  11  25  47  78 111 149 195 253 308 373 456
#     4  12  24  42  74 104 145 198 249 301 375 449
#     4  11  23  47  75 109 153 192 258 309 386 436
#     4  11  23  46  70 107 140 196 246 310 372 449
#     4  11  24  43  71 101 148 191 247 302 373 452
#     4  12  27  47  73 111 156 197 248 311 376 448
#     4  10  24  46  69 104 144 194 246 314 375 446
#     4  10  24  44  70 105 147 191 245 307 370 448
#
# _framework density 27.167176999999999
#
# number of rings (size 3 to 8) (size 9 to 14) (size 15 to 20)
#    0.000    1.000    5.000    0.750    1.750    5.000 
#    0.000    1.250    0.000    0.000    0.000    0.000 
#    0.000    0.000    0.000    0.000    0.000    0.000 
#
# Total GULP energy -89432.295230 kJ/mol
# GULP energy per Si atom -5589.518452 kJ/mol
# Density = 2.710534 g / cm^3
# Si number density = 27.167177 Si / 1000 Ang^3
#
#
#
# Elastic Constant Matrix: (Units=GPa)
#
#
# Indices 1 2 3 4 5 6 
#
# 1 139.5843 32.4647 48.1334 0.0000 -20.9322 0.0000
# 2 32.4647 111.2893 35.7919 0.0000 -11.6312 0.0000
# 3 48.1334 35.7919 117.2172 0.0000 -17.9516 0.0000
# 4 0.0000 0.0000 0.0000 21.1438 0.0000 -2.6377
# 5 -20.9322 -11.6312 -17.9516 0.0000 66.3787 0.0000
# 6 0.0000 0.0000 0.0000 -2.6377 0.0000 19.5093
#
#
#
# Elastic Compliance Matrix: (Units=1/GPa)
#
#
# Indices 1 2 3 4 5 6 
#
# 1 0.008755 -0.001444 -0.002890 0.000000 0.001726 0.000000
# 2 -0.001444 0.010262 -0.002436 0.000000 0.000684 0.000000
# 3 -0.002890 -0.002436 0.010700 0.000000 0.001556 0.000000
# 4 0.000000 0.000000 0.000000 0.048107 0.000000 0.006504
# 5 0.001726 0.000684 0.001556 0.000000 0.016150 0.000000
# 6 0.000000 0.000000 0.000000 0.006504 0.000000 0.052137
#
#
# Mechanical properties :
#
#
# Convention : Reuss Voigt Hill
#
# Bulk Modulus (GPa) = 61.81419 66.76341 64.28880
# Shear Modulus (GPa) = 30.29522 38.18642 34.24082
#
# Velocity S-wave (km/s) = 3.34299 3.75321 3.55403
# Velocity P-wave (km/s) = 6.14032 6.58867 6.36844
#
# Compressibility (1/GPa) = 0.01617752
#
# Stress axis : x y z
#
# Youngs Moduli (GPa) = 114.21449 97.44989 93.45976
#
# Poissons Ratio (x) = 0.14074 0.27009
# Poissons Ratio (y) = 0.16495 0.22763
# Poissons Ratio (z) = 0.33007 0.23735
#
# Static dielectric constant tensor:
#      x y z
#    x 2.147710 0.000000 0.014950 
#    y 0.000000 2.216630 0.000000 
#    z 0.014950 0.000000 2.146620 
# 
# From -- ./inp_files/8954.got.cif
#   From: 2010.05.17/outbox.cif.g08.bks.cpg/sg4_5_cif.got.tgz:8954.got - 2010.06.03 18:43:04.
