data_PCOD9118189
_publ_section_title
;
Structure prediction by ZEFSAII (Michael W. Deem and Ramdas Pophale) SiO2 
 PCOD9118189
Probable space group: P 21
;
_chemical_formula_sum "Si O2"
_cell_formula_units_Z 10
_cell_length_a 6.637264
_cell_length_b 5.857567
_cell_length_c 11.352679
_cell_angle_alpha 90.000000
_cell_angle_beta 56.126372
_cell_angle_gamma 90.000000
_cell_volume 366.457398
_symmetry_space_group_name_H-M "P 21"
_symmetry_group_IT_number 4
_symmetry_cell_setting 'monoclinic'
loop_
_space_group_symop_operation_xyz
x,y,z
-x,1/2+y,-z
loop_
_atom_site_type_symbol
_atom_site_label
_atom_site_fract_x
_atom_site_fract_y
_atom_site_fract_z
Si Si1 0.079338 0.549020 0.787487
Si Si2 0.686904 0.088156 0.580924
Si Si3 0.185358 0.674165 0.009533
Si Si4 0.362340 0.087758 0.481752
Si Si5 0.699391 0.881720 0.820250
O O1 0.360883 0.581065 0.662131
O O2 0.978788 0.296520 0.839409
O O3 0.901638 0.682704 0.756679
O O4 0.048534 0.629160 0.933426
O O5 0.421054 0.081334 0.602264
O O6 0.761841 0.827936 0.512519
O O7 0.726464 0.063802 0.706942
O O8 0.754341 0.350678 0.523753
O O9 0.289763 0.465162 0.049305
O O10 0.425690 0.803599 0.891941
#
# Coordination Sequence:
#
# PCOD9118189 Si02
#       5
#     2   2   2   2   2
#     4  12  26  43  68 100 137 184 229 284 345 412
#     4  10  24  47  73 100 137 183 230 288 345 401
#     4  12  26  42  66 100 138 178 230 284 346 406
#     4  10  24  47  73 100 137 183 230 288 345 401
#     4  12  26  43  68 100 137 184 229 284 345 412
#
# _framework density 27.288302999999999
#
# number of rings (size 3 to 8) (size 9 to 14) (size 15 to 20)
#    0.000    0.800    6.000    0.000   11.200    0.000 
#    3.600    0.000    0.000    0.000    0.000    0.000 
#    0.000    0.000    0.000    0.000    0.000    0.000 
#
# Total GULP energy -55800.346146 kJ/mol
# GULP energy per Si atom -5580.034615 kJ/mol
# Density = 2.722619 g / cm^3
# Si number density = 27.288303 Si / 1000 Ang^3
#
#
#
# Elastic Constant Matrix: (Units=GPa)
#
#
# Indices 1 2 3 4 5 6 
#
# 1 131.5445 30.9949 47.2444 0.0000 19.3089 0.0000
# 2 30.9949 143.1964 26.4939 0.0000 6.1981 0.0000
# 3 47.2444 26.4939 87.4908 0.0000 5.5846 0.0000
# 4 0.0000 0.0000 0.0000 44.1496 0.0000 17.5642
# 5 19.3089 6.1981 5.5846 0.0000 70.0513 0.0000
# 6 0.0000 0.0000 0.0000 17.5642 0.0000 33.6797
#
#
#
# Elastic Compliance Matrix: (Units=1/GPa)
#
#
# Indices 1 2 3 4 5 6 
#
# 1 0.009959 -0.001154 -0.004884 0.000000 -0.002254 0.000000
# 2 -0.001154 0.007548 -0.001648 0.000000 -0.000218 0.000000
# 3 -0.004884 -0.001648 0.014545 0.000000 0.000333 0.000000
# 4 0.000000 0.000000 0.000000 0.028580 0.000000 -0.014905
# 5 -0.002254 -0.000218 0.000333 0.000000 0.014889 0.000000
# 6 0.000000 0.000000 0.000000 -0.014905 0.000000 0.037464
#
#
# Mechanical properties :
#
#
# Convention : Reuss Voigt Hill
#
# Bulk Modulus (GPa) = 59.95997 63.52199 61.74098
# Shear Modulus (GPa) = 37.33610 46.74268 42.03939
#
# Velocity S-wave (km/s) = 3.70294 4.14323 3.92926
# Velocity P-wave (km/s) = 6.34845 6.79832 6.57723
#
# Compressibility (1/GPa) = 0.01667779
#
# Stress axis : x y z
#
# Youngs Moduli (GPa) = 100.41153 132.49081 68.75113
#
# Poissons Ratio (x) = 0.15295 0.33581
# Poissons Ratio (y) = 0.11591 0.11332
# Poissons Ratio (z) = 0.49045 0.21838
#
# Static dielectric constant tensor:
#      x y z
#    x 2.075930 0.000000 -0.041580 
#    y 0.000000 2.276670 0.000000 
#    z -0.041580 0.000000 2.157310 
# 
# From -- ./inp_files/2270.got.cif
#   From: 2010.05.17/outbox.cif.g08.bks.cpg/sg4_2_cif.got.tgz:2270.got - 2010.06.03 18:43:04.
