data_PCOD9118242
_publ_section_title
;
Structure prediction by ZEFSAII (Michael W. Deem and Ramdas Pophale) SiO2 
 PCOD9118242
Probable space group: P 21
;
_chemical_formula_sum "Si O2"
_cell_formula_units_Z 16
_cell_length_a 20.249250
_cell_length_b 5.357564
_cell_length_c 9.818728
_cell_angle_alpha 90.000000
_cell_angle_beta 144.893307
_cell_angle_gamma 90.000000
_cell_volume 612.597932
_symmetry_space_group_name_H-M "P 21"
_symmetry_group_IT_number 4
_symmetry_cell_setting 'monoclinic'
loop_
_space_group_symop_operation_xyz
x,y,z
-x,1/2+y,-z
loop_
_atom_site_type_symbol
_atom_site_label
_atom_site_fract_x
_atom_site_fract_y
_atom_site_fract_z
Si Si1 0.269030 0.071690 0.958780
Si Si2 0.646024 0.025414 0.386313
Si Si3 0.130780 0.275411 0.326661
Si Si4 0.552895 0.955019 0.742758
Si Si5 0.609525 0.297774 0.063976
Si Si6 0.011247 0.779113 0.193368
Si Si7 0.936674 0.893508 0.354150
Si Si8 0.675866 0.274517 0.715895
O O1 0.183970 0.300608 0.791552
O O2 0.290213 0.916174 0.858949
O O3 0.395089 0.184529 0.197514
O O4 0.234042 0.922449 0.037515
O O5 0.736106 0.832978 0.473096
O O6 0.640929 0.256632 0.272631
O O7 0.697153 0.103393 0.620418
O O8 0.514370 0.930880 0.166356
O O9 0.073376 0.509861 0.310544
O O10 0.101746 0.005192 0.336006
O O11 0.065167 0.275949 0.070865
O O12 0.416938 0.964423 0.503398
O O13 0.610269 0.124717 0.724513
O O14 0.589744 0.033131 0.955508
O O15 0.932391 0.859547 0.185438
O O16 0.024797 0.672123 0.545952
#
# Coordination Sequence:
#
# PCOD9118242 Si02
#       8
#     2   2   2   2   2   2   2   2
#     4  11  27  47  77 103 154 196 241 327 376 455
#     4  12  26  45  73 111 150 206 247 312 378 468
#     4  10  25  47  82 104 154 195 248 323 380 435
#     4  11  21  43  69 104 149 194 244 306 374 443
#     4  11  27  46  66 109 155 195 254 297 385 473
#     4  10  24  51  73 115 143 193 260 315 376 455
#     4  12  30  50  80 112 147 199 259 316 384 456
#     4  11  22  41  72 110 144 194 253 300 377 453
#
# _framework density 26.118272000000001
#
# number of rings (size 3 to 8) (size 9 to 14) (size 15 to 20)
#    0.000    1.000    2.500    2.250    7.000    6.000 
#    0.000    0.000    0.000    0.000    0.000    0.000 
#    0.000    0.000    0.000    0.000    0.000    0.000 
#
# Total GULP energy -89569.459328 kJ/mol
# GULP energy per Si atom -5598.091208 kJ/mol
# Density = 2.605883 g / cm^3
# Si number density = 26.118272 Si / 1000 Ang^3
#
#
#
# Elastic Constant Matrix: (Units=GPa)
#
#
# Indices 1 2 3 4 5 6 
#
# 1 80.0089 10.6306 29.0903 0.0000 -5.3764 0.0000
# 2 10.6306 82.6677 37.4813 0.0000 -5.2717 0.0000
# 3 29.0903 37.4813 105.1897 0.0000 3.1450 0.0000
# 4 0.0000 0.0000 0.0000 42.0932 0.0000 9.7513
# 5 -5.3764 -5.2717 3.1450 0.0000 36.9405 0.0000
# 6 0.0000 0.0000 0.0000 9.7513 0.0000 40.5610
#
#
#
# Elastic Compliance Matrix: (Units=1/GPa)
#
#
# Indices 1 2 3 4 5 6 
#
# 1 0.014105 0.000169 -0.004034 0.000000 0.002420 0.000000
# 2 0.000169 0.014664 -0.005349 0.000000 0.002573 0.000000
# 3 -0.004034 -0.005349 0.012600 0.000000 -0.002423 0.000000
# 4 0.000000 0.000000 0.000000 0.025158 0.000000 -0.006048
# 5 0.002420 0.002573 -0.002423 0.000000 0.027996 0.000000
# 6 0.000000 0.000000 0.000000 -0.006048 0.000000 0.026108
#
#
# Mechanical properties :
#
#
# Convention : Reuss Voigt Hill
#
# Bulk Modulus (GPa) = 43.58506 46.91899 45.25202
# Shear Modulus (GPa) = 34.08167 36.62988 35.35577
#
# Velocity S-wave (km/s) = 3.61626 3.74901 3.68323
# Velocity P-wave (km/s) = 5.84467 6.06161 5.95413
#
# Compressibility (1/GPa) = 0.02294364
#
# Stress axis : x y z
#
# Youngs Moduli (GPa) = 70.89530 68.19393 79.36212
#
# Poissons Ratio (x) = -0.01154 0.32011
# Poissons Ratio (y) = -0.01200 0.42450
# Poissons Ratio (z) = 0.28596 0.36476
#
# Static dielectric constant tensor:
#      x y z
#    x 2.037000 0.000000 0.005910 
#    y 0.000000 2.097070 0.000000 
#    z 0.005910 0.000000 2.035900 
# 
# From -- ./inp_files/9546.got.cif
#   From: 2010.05.17/outbox.cif.g08.bks.cpg/sg4_5_cif.got.tgz:9546.got - 2010.06.03 18:43:04.
