data_PCOD9118593
_publ_section_title
;
Structure prediction by ZEFSAII (Michael W. Deem and Ramdas Pophale) SiO2 
 PCOD9118593
Probable space group: P 21
;
_chemical_formula_sum "Si O2"
_cell_formula_units_Z 16
_cell_length_a 15.372166
_cell_length_b 9.614329
_cell_length_c 14.783667
_cell_angle_alpha 90.000000
_cell_angle_beta 161.256451
_cell_angle_gamma 90.000000
_cell_volume 702.087659
_symmetry_space_group_name_H-M "P 21"
_symmetry_group_IT_number 4
_symmetry_cell_setting 'monoclinic'
loop_
_space_group_symop_operation_xyz
x,y,z
-x,1/2+y,-z
loop_
_atom_site_type_symbol
_atom_site_label
_atom_site_fract_x
_atom_site_fract_y
_atom_site_fract_z
Si Si1 0.458927 0.311660 0.580143
Si Si2 0.809175 0.961608 0.963661
Si Si3 0.266310 0.988883 0.705400
Si Si4 0.300776 0.082061 0.535126
Si Si5 0.170561 0.597578 0.333449
Si Si6 0.745690 0.786860 0.208241
Si Si7 0.684083 0.688220 0.945254
Si Si8 0.003918 0.787150 0.001442
O O1 0.410931 0.236842 0.629013
O O2 0.328677 0.461354 0.459947
O O3 0.759860 0.309794 0.838154
O O4 0.267019 0.237887 0.315764
O O5 0.496631 0.001968 0.657638
O O6 0.820097 0.822655 0.033517
O O7 0.922878 0.925046 0.977983
O O8 0.994412 0.069469 0.199853
O O9 0.007852 0.887105 0.461115
O O10 0.332544 0.013431 0.664196
O O11 0.228986 0.148435 0.704220
O O12 0.504489 0.898709 0.987166
O O13 0.106474 0.683664 0.180027
O O14 0.891939 0.570742 0.114173
O O15 0.385023 0.672723 0.610941
O O16 0.686736 0.715694 0.053289
#
# Coordination Sequence:
#
# PCOD9118593 Si02
#       8
#     2   2   2   2   2   2   2   2
#     4  12  27  41  63  99 139 177 230 292 353 406
#     4  11  22  42  69  94 124 175 232 272 325 415
#     4  12  26  48  74 113 150 186 252 292 379 433
#     4  12  24  43  70  98 136 181 223 286 344 421
#     4  11  25  43  63  98 134 171 237 284 342 420
#     4  12  26  47  78 111 146 191 240 307 356 457
#     4  11  21  44  71  94 126 180 224 276 342 412
#     4  11  25  42  64  95 131 183 224 289 341 404
#
# _framework density 22.789176000000001
#
# number of rings (size 3 to 8) (size 9 to 14) (size 15 to 20)
#    0.000    0.500    2.500    6.750    5.250    2.000 
#    0.000    0.000    0.000    0.000    0.000    0.000 
#    0.000    0.000    0.000    0.000    0.000    0.000 
#
# Total GULP energy -89422.743850 kJ/mol
# GULP energy per Si atom -5588.921491 kJ/mol
# Density = 2.273731 g / cm^3
# Si number density = 22.789176 Si / 1000 Ang^3
#
#
#
# Elastic Constant Matrix: (Units=GPa)
#
#
# Indices 1 2 3 4 5 6 
#
# 1 58.1091 46.0121 37.8851 0.0000 0.7773 0.0000
# 2 46.0121 101.8496 28.8272 0.0000 -0.3108 0.0000
# 3 37.8851 28.8272 126.4387 0.0000 14.2414 0.0000
# 4 0.0000 0.0000 0.0000 27.2933 0.0000 -1.9918
# 5 0.7773 -0.3108 14.2414 0.0000 26.8688 0.0000
# 6 0.0000 0.0000 0.0000 -1.9918 0.0000 35.7752
#
#
#
# Elastic Compliance Matrix: (Units=1/GPa)
#
#
# Indices 1 2 3 4 5 6 
#
# 1 0.031326 -0.012191 -0.006901 0.000000 0.002610 0.000000
# 2 -0.012191 0.015295 0.000113 0.000000 0.000470 0.000000
# 3 -0.006901 0.000113 0.010559 0.000000 -0.005396 0.000000
# 4 0.000000 0.000000 0.000000 0.036788 0.000000 0.002048
# 5 0.002610 0.000470 -0.005396 0.000000 0.040008 0.000000
# 6 0.000000 0.000000 0.000000 0.002048 0.000000 0.028066
#
#
# Mechanical properties :
#
#
# Convention : Reuss Voigt Hill
#
# Bulk Modulus (GPa) = 52.02387 56.87182 54.44785
# Shear Modulus (GPa) = 24.22375 29.56567 26.89471
#
# Velocity S-wave (km/s) = 3.26383 3.60579 3.43906
# Velocity P-wave (km/s) = 6.08944 6.50734 6.30185
#
# Compressibility (1/GPa) = 0.01922194
#
# Stress axis : x y z
#
# Youngs Moduli (GPa) = 31.92193 65.37898 94.70806
#
# Poissons Ratio (x) = 0.79704 0.65358
# Poissons Ratio (y) = 0.38916 -0.01067
# Poissons Ratio (z) = 0.22029 -0.00736
#
# Static dielectric constant tensor:
#      x y z
#    x 1.836460 0.000000 0.003280 
#    y 0.000000 1.983620 0.000000 
#    z 0.003280 0.000000 1.839360 
# 
# From -- ./inp_files/14226.got.cif
#   From: 2010.05.17/outbox.cif.g08.bks.cpg/sg4_8_cif.got.tgz:14226.got - 2010.06.03 18:43:04.
