data_PCOD9118509
_publ_section_title
;
Structure prediction by ZEFSAII (Michael W. Deem and Ramdas Pophale) SiO2 
 PCOD9118509
Probable space group: P 21
;
_chemical_formula_sum "Si O2"
_cell_formula_units_Z 12
_cell_length_a 15.343211
_cell_length_b 6.567981
_cell_length_c 8.408308
_cell_angle_alpha 90.000000
_cell_angle_beta 143.707993
_cell_angle_gamma 90.000000
_cell_volume 501.540077
_symmetry_space_group_name_H-M "P 21"
_symmetry_group_IT_number 4
_symmetry_cell_setting 'monoclinic'
loop_
_space_group_symop_operation_xyz
x,y,z
-x,1/2+y,-z
loop_
_atom_site_type_symbol
_atom_site_label
_atom_site_fract_x
_atom_site_fract_y
_atom_site_fract_z
Si Si1 0.082355 0.678310 0.832856
Si Si2 0.100726 0.533495 0.519006
Si Si3 0.400452 0.816508 0.231615
Si Si4 0.837480 0.428019 0.595464
Si Si5 0.425748 0.950720 0.611372
Si Si6 0.338732 0.191063 0.911927
O O1 0.027885 0.611236 0.575004
O O2 0.013521 0.900941 0.749209
O O3 0.256066 0.688316 0.068878
O O4 0.000407 0.027365 0.168840
O O5 0.154873 0.719800 0.491785
O O6 0.231000 0.384602 0.767632
O O7 0.473162 0.881552 0.504177
O O8 0.510480 0.679410 0.288677
O O9 0.345529 0.015886 0.056203
O O10 0.749335 0.418895 0.629861
O O11 0.726253 0.577963 0.336614
O O12 0.502121 0.797984 0.848713
#
# Coordination Sequence:
#
# PCOD9118509 Si02
#       6
#     2   2   2   2   2   2
#     4  11  21  40  70  99 133 182 221 279 337 407
#     4  11  20  40  69 106 130 172 230 275 341 394
#     4  12  25  48  69  94 140 189 231 271 354 411
#     4  11  26  42  70 104 136 172 234 291 335 399
#     4  12  27  46  67 101 136 185 230 282 344 411
#     4  11  23  40  73  98 131 178 224 288 331 408
#
# _framework density 23.926302
#
# number of rings (size 3 to 8) (size 9 to 14) (size 15 to 20)
#    0.000    0.667    6.667    1.000    4.667    1.333 
#    3.000    0.000    0.000    0.000    0.000    0.000 
#    0.000    0.000    0.000    0.000    0.000    0.000 
#
# Total GULP energy -67050.698366 kJ/mol
# GULP energy per Si atom -5587.558197 kJ/mol
# Density = 2.387185 g / cm^3
# Si number density = 23.926302 Si / 1000 Ang^3
#
#
#
# Elastic Constant Matrix: (Units=GPa)
#
#
# Indices 1 2 3 4 5 6 
#
# 1 114.0362 47.3616 -4.0438 0.0000 29.2511 0.0000
# 2 47.3616 120.3946 13.1289 0.0000 15.3215 0.0000
# 3 -4.0438 13.1289 41.4270 0.0000 13.7600 0.0000
# 4 0.0000 0.0000 0.0000 32.5792 0.0000 10.9023
# 5 29.2511 15.3215 13.7600 0.0000 39.7454 0.0000
# 6 0.0000 0.0000 0.0000 10.9023 0.0000 31.8930
#
#
#
# Elastic Compliance Matrix: (Units=1/GPa)
#
#
# Indices 1 2 3 4 5 6 
#
# 1 0.013610 -0.004718 0.006267 0.000000 -0.010368 0.000000
# 2 -0.004718 0.010499 -0.004064 0.000000 0.000832 0.000000
# 3 0.006267 -0.004064 0.030565 0.000000 -0.013628 0.000000
# 4 0.000000 0.000000 0.000000 0.034659 0.000000 -0.011848
# 5 -0.010368 0.000832 -0.013628 0.000000 0.037187 0.000000
# 6 0.000000 0.000000 0.000000 -0.011848 0.000000 0.035405
#
#
# Mechanical properties :
#
#
# Convention : Reuss Voigt Hill
#
# Bulk Modulus (GPa) = 20.14320 43.19458 31.66889
# Shear Modulus (GPa) = 27.24723 35.47092 31.35907
#
# Velocity S-wave (km/s) = 3.37827 3.85451 3.62422
# Velocity P-wave (km/s) = 4.86354 6.15646 5.54780
#
# Compressibility (1/GPa) = 0.04964454
#
# Stress axis : x y z
#
# Youngs Moduli (GPa) = 73.47362 95.24341 32.71712
#
# Poissons Ratio (x) = 0.44938 -0.20505
# Poissons Ratio (y) = 0.34666 0.13297
# Poissons Ratio (z) = -0.46049 0.38710
#
# Static dielectric constant tensor:
#      x y z
#    x 1.973660 0.000000 -0.013300 
#    y 0.000000 1.938540 0.000000 
#    z -0.013300 0.000000 1.926800 
# 
# From -- ./inp_files/9536.got.cif
#   From: 2010.05.17/outbox.cif.g08.bks.cpg/sg4_5_cif.got.tgz:9536.got - 2010.06.03 18:43:04.
