data_PCOD9118775
_publ_section_title
;
Structure prediction by ZEFSAII (Michael W. Deem and Ramdas Pophale) SiO2 
 PCOD9118775
Probable space group: P 21
;
_chemical_formula_sum "Si O2"
_cell_formula_units_Z 14
_cell_length_a 8.487449
_cell_length_b 5.997391
_cell_length_c 13.851662
_cell_angle_alpha 90.000000
_cell_angle_beta 52.526286
_cell_angle_gamma 90.000000
_cell_volume 559.578339
_symmetry_space_group_name_H-M "P 21"
_symmetry_group_IT_number 4
_symmetry_cell_setting 'monoclinic'
loop_
_space_group_symop_operation_xyz
x,y,z
-x,1/2+y,-z
loop_
_atom_site_type_symbol
_atom_site_label
_atom_site_fract_x
_atom_site_fract_y
_atom_site_fract_z
Si Si1 0.191415 0.946010 0.324003
Si Si2 0.414877 0.332448 0.748025
Si Si3 0.402874 0.822857 0.043306
Si Si4 0.251053 0.280288 0.464688
Si Si5 0.855257 0.219189 0.188526
Si Si6 0.803361 0.507131 0.035750
Si Si7 0.353616 0.013845 0.604687
O O1 0.351194 0.802198 0.325821
O O2 0.269612 0.892496 0.186378
O O3 0.964166 0.874333 0.424051
O O4 0.226374 0.189274 0.363425
O O5 0.339689 0.584931 0.771263
O O6 0.321705 0.212430 0.876466
O O7 0.322973 0.226544 0.685310
O O8 0.485595 0.566408 0.020303
O O9 0.306035 0.804482 0.973552
O O10 0.431486 0.438055 0.434510
O O11 0.313716 0.072012 0.510106
O O12 0.900766 0.415249 0.096176
O O13 0.803549 0.324437 0.308882
O O14 0.042747 0.068593 0.104361
#
# Coordination Sequence:
#
# PCOD9118775 Si02
#       7
#     2   2   2   2   2   2   2
#     4  12  27  49  78 112 160 207 267 324 414 471
#     4  11  22  48  71 109 150 196 253 329 387 475
#     4  12  29  49  79 113 160 211 261 332 407 486
#     4  12  28  50  77 114 153 208 259 333 391 486
#     4  11  23  42  75 108 146 199 252 321 388 468
#     4  11  24  40  73 109 153 195 258 318 399 468
#     4  11  27  46  77 107 148 196 264 319 388 460
#
# _framework density 25.018839
#
# number of rings (size 3 to 8) (size 9 to 14) (size 15 to 20)
#    0.000    0.571    4.286    2.571    4.000    3.429 
#    0.000    0.000    0.000    0.000    0.000    0.000 
#    0.000    0.000    0.000    0.000    0.000    0.000 
#
# Total GULP energy -77965.042699 kJ/mol
# GULP energy per Si atom -5568.931621 kJ/mol
# Density = 2.496189 g / cm^3
# Si number density = 25.018839 Si / 1000 Ang^3
#
#
#
# Elastic Constant Matrix: (Units=GPa)
#
#
# Indices 1 2 3 4 5 6 
#
# 1 50.4269 16.8632 26.8786 0.0000 2.9342 0.0000
# 2 16.8632 67.7534 30.5267 0.0000 -2.3714 0.0000
# 3 26.8786 30.5267 108.6656 0.0000 4.0109 0.0000
# 4 0.0000 0.0000 0.0000 36.2917 0.0000 6.4886
# 5 2.9342 -2.3714 4.0109 0.0000 38.2937 0.0000
# 6 0.0000 0.0000 0.0000 6.4886 0.0000 29.2111
#
#
#
# Elastic Compliance Matrix: (Units=1/GPa)
#
#
# Indices 1 2 3 4 5 6 
#
# 1 0.023725 -0.003826 -0.004736 0.000000 -0.001559 0.000000
# 2 -0.003826 0.017607 -0.004067 0.000000 0.001809 0.000000
# 3 -0.004736 -0.004067 0.011557 0.000000 -0.001099 0.000000
# 4 0.000000 0.000000 0.000000 0.028694 0.000000 -0.006374
# 5 -0.001559 0.001809 -0.001099 0.000000 0.026461 0.000000
# 6 0.000000 0.000000 0.000000 -0.006374 0.000000 0.035649
#
#
# Mechanical properties :
#
#
# Convention : Reuss Voigt Hill
#
# Bulk Modulus (GPa) = 36.18961 41.70922 38.94942
# Shear Modulus (GPa) = 28.06440 30.93112 29.49776
#
# Velocity S-wave (km/s) = 3.35286 3.51994 3.43741
# Velocity P-wave (km/s) = 5.43003 5.76431 5.59967
#
# Compressibility (1/GPa) = 0.02763224
#
# Stress axis : x y z
#
# Youngs Moduli (GPa) = 42.14931 56.79484 86.52700
#
# Poissons Ratio (x) = 0.21728 0.40981
# Poissons Ratio (y) = 0.16125 0.35189
# Poissons Ratio (z) = 0.19963 0.23097
#
# Static dielectric constant tensor:
#      x y z
#    x 1.985680 0.000000 -0.069590 
#    y 0.000000 2.111230 0.000000 
#    z -0.069590 0.000000 2.040970 
# 
# From -- ./inp_files/9000.got.cif
#   From: 2010.05.17/outbox.cif.g08.bks.cpg/sg4_5_cif.got.tgz:9000.got - 2010.06.03 18:43:04.
