data_PCOD9118591
_publ_section_title
;
Structure prediction by ZEFSAII (Michael W. Deem and Ramdas Pophale) SiO2 
 PCOD9118591
Probable space group: P 21
;
_chemical_formula_sum "Si O2"
_cell_formula_units_Z 12
_cell_length_a 8.232636
_cell_length_b 9.440398
_cell_length_c 13.742746
_cell_angle_alpha 90.000000
_cell_angle_beta 25.761964
_cell_angle_gamma 90.000000
_cell_volume 464.222043
_symmetry_space_group_name_H-M "P 21"
_symmetry_group_IT_number 4
_symmetry_cell_setting 'monoclinic'
loop_
_space_group_symop_operation_xyz
x,y,z
-x,1/2+y,-z
loop_
_atom_site_type_symbol
_atom_site_label
_atom_site_fract_x
_atom_site_fract_y
_atom_site_fract_z
Si Si1 0.622318 0.234890 0.189562
Si Si2 0.565396 0.948747 0.565021
Si Si3 0.503057 0.620447 0.092297
Si Si4 0.669807 0.504216 0.519408
Si Si5 0.780320 0.217012 0.562817
Si Si6 0.183929 0.814896 0.116690
O O1 0.701065 0.369943 0.215079
O O2 0.191167 0.253496 0.383318
O O3 0.608817 0.096972 0.264254
O O4 0.853505 0.234628 0.965350
O O5 0.389400 0.013511 0.563562
O O6 0.835383 0.825486 0.377450
O O7 0.791085 0.068255 0.500900
O O8 0.513814 0.696957 0.190248
O O9 0.509507 0.736547 0.002721
O O10 0.087300 0.554959 0.315576
O O11 0.747312 0.480833 0.944206
O O12 0.652778 0.342490 0.562266
#
# Coordination Sequence:
#
# PCOD9118591 Si02
#       6
#     2   2   2   2   2   2
#     4  11  22  46  67  94 134 176 224 269 325 403
#     4  12  24  44  68  98 138 170 223 277 337 384
#     4  11  25  43  73  97 130 179 227 271 327 399
#     4  11  24  44  68  98 136 179 209 285 339 385
#     4  11  21  43  72  91 130 181 221 261 335 399
#     4  12  24  44  70 104 126 175 232 273 321 402
#
# _framework density 25.849696000000002
#
# number of rings (size 3 to 8) (size 9 to 14) (size 15 to 20)
#    0.000    0.667    6.667    3.000    2.333    0.000 
#    6.000    0.000    0.000    0.000    0.000    0.000 
#    0.000    0.000    0.000    0.000    0.000    0.000 
#
# Total GULP energy -67259.878519 kJ/mol
# GULP energy per Si atom -5604.989877 kJ/mol
# Density = 2.579086 g / cm^3
# Si number density = 25.849696 Si / 1000 Ang^3
#
#
#
# Elastic Constant Matrix: (Units=GPa)
#
#
# Indices 1 2 3 4 5 6 
#
# 1 88.7207 30.1653 34.8379 0.0000 38.3316 0.0000
# 2 30.1653 119.2785 35.8574 0.0000 23.8457 0.0000
# 3 34.8379 35.8574 110.9140 0.0000 37.1931 0.0000
# 4 0.0000 0.0000 0.0000 52.1731 0.0000 24.4648
# 5 38.3316 23.8457 37.1931 0.0000 55.9231 0.0000
# 6 0.0000 0.0000 0.0000 24.4648 0.0000 49.6888
#
#
#
# Elastic Compliance Matrix: (Units=1/GPa)
#
#
# Indices 1 2 3 4 5 6 
#
# 1 0.016630 -0.001855 -0.001373 0.000000 -0.009695 0.000000
# 2 -0.001855 0.009779 -0.002068 0.000000 -0.001523 0.000000
# 3 -0.001373 -0.002068 0.012233 0.000000 -0.006313 0.000000
# 4 0.000000 0.000000 0.000000 0.024921 0.000000 -0.012270
# 5 -0.009695 -0.001523 -0.006313 0.000000 0.029375 0.000000
# 6 0.000000 0.000000 0.000000 -0.012270 0.000000 0.026166
#
#
# Mechanical properties :
#
#
# Convention : Reuss Voigt Hill
#
# Bulk Modulus (GPa) = 35.65089 57.84824 46.74956
# Shear Modulus (GPa) = 35.95978 46.09384 41.02681
#
# Velocity S-wave (km/s) = 3.73381 4.22731 3.98820
# Velocity P-wave (km/s) = 5.69297 6.80104 6.27153
#
# Compressibility (1/GPa) = 0.02804979
#
# Stress axis : x y z
#
# Youngs Moduli (GPa) = 60.13395 102.25988 81.74809
#
# Poissons Ratio (x) = 0.18967 0.11222
# Poissons Ratio (y) = 0.11154 0.16907
# Poissons Ratio (z) = 0.08255 0.21149
#
# Static dielectric constant tensor:
#      x y z
#    x 2.038520 0.000000 -0.023690 
#    y 0.000000 1.979220 0.000000 
#    z -0.023690 0.000000 2.045940 
# 
# From -- ./inp_files/5222.got.cif
#   From: 2010.05.17/outbox.cif.g08.bks.cpg/sg4_3_cif.got.tgz:5222.got - 2010.06.03 18:43:04.
