data_PCOD9118945
_publ_section_title
;
Structure prediction by ZEFSAII (Michael W. Deem and Ramdas Pophale) SiO2 
 PCOD9118945
Probable space group: P 21
;
_chemical_formula_sum "Si O2"
_cell_formula_units_Z 14
_cell_length_a 5.456906
_cell_length_b 13.929149
_cell_length_c 7.220123
_cell_angle_alpha 90.000000
_cell_angle_beta 103.760290
_cell_angle_gamma 90.000000
_cell_volume 533.050995
_symmetry_space_group_name_H-M "P 21"
_symmetry_group_IT_number 4
_symmetry_cell_setting 'monoclinic'
loop_
_space_group_symop_operation_xyz
x,y,z
-x,1/2+y,-z
loop_
_atom_site_type_symbol
_atom_site_label
_atom_site_fract_x
_atom_site_fract_y
_atom_site_fract_z
Si Si1 0.956359 0.503140 0.624793
Si Si2 0.679174 0.204315 0.720960
Si Si3 0.693066 0.498121 0.928471
Si Si4 0.181612 0.304678 0.736744
Si Si5 0.865151 0.002048 0.727775
Si Si6 0.560094 0.842315 0.850449
Si Si7 0.286053 0.664951 0.846079
O O1 0.159152 0.417919 0.693361
O O2 0.932292 0.502592 0.401052
O O3 0.061427 0.605940 0.711043
O O4 0.729492 0.474773 0.718941
O O5 0.405533 0.252973 0.666006
O O6 0.683171 0.092688 0.663155
O O7 0.909636 0.257165 0.662339
O O8 0.752104 0.203520 0.953219
O O9 0.593331 0.414468 0.042811
O O10 0.974253 0.517804 0.056731
O O11 0.512221 0.588462 0.909128
O O12 0.247766 0.296157 0.966787
O O13 0.709829 0.904958 0.728694
O O14 0.384701 0.756642 0.749661
#
# Coordination Sequence:
#
# PCOD9118945 Si02
#       7
#     2   2   2   2   2   2   2
#     4  12  26  44  70 108 144 191 243 307 366 438
#     4  11  23  45  75 107 143 195 244 302 366 433
#     4  12  22  50  70  98 150 192 242 300 376 430
#     4  11  23  45  75 107 143 195 244 302 366 433
#     4  12  26  44  70 108 144 191 243 307 366 438
#     4  11  24  43  75  99 139 197 245 299 363 444
#     4  11  24  43  75  99 139 197 245 299 363 444
#
# _framework density 26.263905999999999
#
# number of rings (size 3 to 8) (size 9 to 14) (size 15 to 20)
#    0.000    0.571    5.714    3.429    0.000    2.286 
#    5.143    0.000    0.000    0.000    0.000    0.000 
#    0.000    0.000    0.000    0.000    0.000    0.000 
#
# Total GULP energy -78470.532519 kJ/mol
# GULP energy per Si atom -5605.038037 kJ/mol
# Density = 2.620413 g / cm^3
# Si number density = 26.263906 Si / 1000 Ang^3
#
#
#
# Elastic Constant Matrix: (Units=GPa)
#
#
# Indices 1 2 3 4 5 6 
#
# 1 145.4297 63.2856 24.2281 0.0000 -20.7199 0.0000
# 2 63.2856 119.5072 13.0295 0.0000 1.9046 0.0000
# 3 24.2281 13.0295 95.6899 0.0000 -16.4867 0.0000
# 4 0.0000 0.0000 0.0000 12.9812 0.0000 0.5255
# 5 -20.7199 1.9046 -16.4867 0.0000 27.3679 0.0000
# 6 0.0000 0.0000 0.0000 0.5255 0.0000 45.5593
#
#
#
# Elastic Compliance Matrix: (Units=1/GPa)
#
#
# Indices 1 2 3 4 5 6 
#
# 1 0.010588 -0.005680 -0.000511 0.000000 0.008103 0.000000
# 2 -0.005680 0.011592 -0.001138 0.000000 -0.005793 0.000000
# 3 -0.000511 -0.001138 0.011919 0.000000 0.006872 0.000000
# 4 0.000000 0.000000 0.000000 0.077071 0.000000 -0.000889
# 5 0.008103 -0.005793 0.006872 0.000000 0.047217 0.000000
# 6 0.000000 0.000000 0.000000 -0.000889 0.000000 0.021960
#
#
# Mechanical properties :
#
#
# Convention : Reuss Voigt Hill
#
# Bulk Modulus (GPa) = 51.44214 62.41260 56.92737
# Shear Modulus (GPa) = 24.81579 34.52058 29.66818
#
# Velocity S-wave (km/s) = 3.07720 3.62936 3.36463
# Velocity P-wave (km/s) = 5.67932 6.43259 6.06766
#
# Compressibility (1/GPa) = 0.01943931
#
# Stress axis : x y z
#
# Youngs Moduli (GPa) = 94.45036 86.26612 83.90048
#
# Poissons Ratio (x) = 0.49000 0.04289
# Poissons Ratio (y) = 0.53649 0.09550
# Poissons Ratio (z) = 0.04828 0.09820
#
# Static dielectric constant tensor:
#      x y z
#    x 2.035160 0.000000 0.004110 
#    y 0.000000 2.051860 0.000000 
#    z 0.004110 0.000000 2.044930 
# 
# From -- ./inp_files/1604.got.cif
#   From: 2010.05.17/outbox.cif.g08.bks.cpg/sg4_1_cif.got.tgz:1604.got - 2010.06.03 18:43:04.
