data_PCOD9118872
_publ_section_title
;
Structure prediction by ZEFSAII (Michael W. Deem and Ramdas Pophale) SiO2 
 PCOD9118872
Probable space group: P 21
;
_chemical_formula_sum "Si O2"
_cell_formula_units_Z 12
_cell_length_a 12.283412
_cell_length_b 7.715909
_cell_length_c 8.704899
_cell_angle_alpha 90.000000
_cell_angle_beta 35.911691
_cell_angle_gamma 90.000000
_cell_volume 483.911266
_symmetry_space_group_name_H-M "P 21"
_symmetry_group_IT_number 4
_symmetry_cell_setting 'monoclinic'
loop_
_space_group_symop_operation_xyz
x,y,z
-x,1/2+y,-z
loop_
_atom_site_type_symbol
_atom_site_label
_atom_site_fract_x
_atom_site_fract_y
_atom_site_fract_z
Si Si1 0.428803 0.509070 0.201189
Si Si2 0.046072 0.624795 0.537569
Si Si3 0.766885 0.341300 0.930638
Si Si4 0.851604 0.863970 0.994483
Si Si5 0.836885 0.499790 0.169880
Si Si6 0.487003 0.902105 0.235616
O O1 0.204895 0.511599 0.442786
O O2 0.478029 0.695940 0.214247
O O3 0.545876 0.364007 0.158469
O O4 0.497751 0.488889 0.947737
O O5 0.134019 0.689312 0.277921
O O6 0.861725 0.510799 0.741892
O O7 0.988013 0.791728 0.704546
O O8 0.813926 0.365571 0.054901
O O9 0.801616 0.688701 0.142470
O O10 0.666872 0.939900 0.132740
O O11 0.961410 0.985189 0.985163
O O12 0.690895 0.457534 0.467501
#
# Coordination Sequence:
#
# PCOD9118872 Si02
#       6
#     2   2   2   2   2   2
#     4  12  23  45  71  99 139 181 234 287 341 410
#     4  11  23  43  70  98 140 177 238 280 337 418
#     4  11  25  43  70 103 133 186 228 285 349 403
#     4  11  25  48  68 103 142 185 230 285 349 413
#     4  11  26  46  68 104 145 180 231 286 351 413
#     4  12  26  47  71 105 141 183 237 285 349 415
#
# _framework density 24.797934000000001
#
# number of rings (size 3 to 8) (size 9 to 14) (size 15 to 20)
#    0.000    0.667    6.667    1.000    0.000    9.333 
#    3.000    0.000    0.000    0.000    0.000    0.000 
#    0.000    0.000    0.000    0.000    0.000    0.000 
#
# Total GULP energy -67249.045968 kJ/mol
# GULP energy per Si atom -5604.087164 kJ/mol
# Density = 2.474149 g / cm^3
# Si number density = 24.797934 Si / 1000 Ang^3
#
#
#
# Elastic Constant Matrix: (Units=GPa)
#
#
# Indices 1 2 3 4 5 6 
#
# 1 131.4454 -4.7951 5.6097 0.0000 -25.5644 0.0000
# 2 -4.7951 45.1962 4.0636 0.0000 2.2813 0.0000
# 3 5.6097 4.0636 62.7246 0.0000 -7.8220 0.0000
# 4 0.0000 0.0000 0.0000 18.3265 0.0000 14.9884
# 5 -25.5644 2.2813 -7.8220 0.0000 38.3500 0.0000
# 6 0.0000 0.0000 0.0000 14.9884 0.0000 42.6624
#
#
#
# Elastic Compliance Matrix: (Units=1/GPa)
#
#
# Indices 1 2 3 4 5 6 
#
# 1 0.008760 0.000647 -0.000105 0.000000 0.005780 0.000000
# 2 0.000647 0.022407 -0.001664 0.000000 -0.001241 0.000000
# 3 -0.000105 -0.001664 0.016483 0.000000 0.003391 0.000000
# 4 0.000000 0.000000 0.000000 0.076566 0.000000 -0.026899
# 5 0.005780 -0.001241 0.003391 0.000000 0.030694 0.000000
# 6 0.000000 0.000000 0.000000 -0.026899 0.000000 0.032890
#
#
# Mechanical properties :
#
#
# Convention : Reuss Voigt Hill
#
# Bulk Modulus (GPa) = 22.02368 27.68029 24.85198
# Shear Modulus (GPa) = 24.36912 35.50032 29.93472
#
# Velocity S-wave (km/s) = 3.13822 3.78773 3.47817
# Velocity P-wave (km/s) = 4.69380 5.50598 5.11603
#
# Compressibility (1/GPa) = 0.04540568
#
# Stress axis : x y z
#
# Youngs Moduli (GPa) = 114.15739 44.62959 60.66942
#
# Poissons Ratio (x) = -0.02888 0.00635
# Poissons Ratio (y) = -0.07387 0.10097
# Poissons Ratio (z) = 0.01194 0.07427
#
# Static dielectric constant tensor:
#      x y z
#    x 1.939830 0.000000 0.000050 
#    y 0.000000 1.996670 0.000000 
#    z 0.000050 0.000000 1.897030 
# 
# From -- ./inp_files/7584.got.cif
#   From: 2010.05.17/outbox.cif.g08.bks.cpg/sg4_4_cif.got.tgz:7584.got - 2010.06.03 18:43:04.
