data_PCOD9118004
_publ_section_title
;
Structure prediction by ZEFSAII (Michael W. Deem and Ramdas Pophale) SiO2 
 PCOD9118004
Probable space group: P 21
;
_chemical_formula_sum "Si O2"
_cell_formula_units_Z 14
_cell_length_a 15.026352
_cell_length_b 8.284241
_cell_length_c 4.992144
_cell_angle_alpha 90.000000
_cell_angle_beta 129.338732
_cell_angle_gamma 90.000000
_cell_volume 480.622633
_symmetry_space_group_name_H-M "P 21"
_symmetry_group_IT_number 4
_symmetry_cell_setting 'monoclinic'
loop_
_space_group_symop_operation_xyz
x,y,z
-x,1/2+y,-z
loop_
_atom_site_type_symbol
_atom_site_label
_atom_site_fract_x
_atom_site_fract_y
_atom_site_fract_z
Si Si1 0.336020 0.863620 0.380331
Si Si2 0.063319 0.527713 0.894156
Si Si3 0.646159 0.786662 0.159403
Si Si4 0.144333 0.078195 0.220530
Si Si5 0.953429 0.285763 0.522648
Si Si6 0.470221 0.967733 0.137908
Si Si7 0.745716 0.096042 0.372759
O O1 0.392445 0.867579 0.197716
O O2 0.317617 0.700091 0.516018
O O3 0.218244 0.968715 0.161362
O O4 0.420607 0.960754 0.740446
O O5 0.055475 0.707541 0.794211
O O6 0.931945 0.465242 0.718157
O O7 0.057403 0.415651 0.629475
O O8 0.163747 0.494139 0.280365
O O9 0.760963 0.681480 0.438628
O O10 0.586582 0.864242 0.313614
O O11 0.675731 0.960101 0.077196
O O12 0.558449 0.657429 0.855211
O O13 0.042404 0.174888 0.880314
O O14 0.823479 0.219577 0.356539
#
# Coordination Sequence:
#
# PCOD9118004 Si02
#       7
#     2   2   2   2   2   2   2
#     4  11  26  49  76 110 152 211 254 331 386 476
#     4  11  25  41  66 109 148 197 255 315 378 486
#     4  11  25  51  75 111 149 212 254 341 392 475
#     4  10  24  43  68 100 154 194 257 305 399 457
#     4  11  25  41  67 109 146 202 249 323 372 491
#     4  11  28  50  78 111 156 198 275 325 395 466
#     4  11  25  45  72 106 157 198 262 312 406 459
#
# _framework density 29.128882000000001
#
# number of rings (size 3 to 8) (size 9 to 14) (size 15 to 20)
#    0.000    1.143    2.857    0.857   10.000    4.571 
#    2.571    0.000    0.000    0.000    0.000    0.000 
#    0.000    0.000    0.000    0.000    0.000    0.000 
#
# Total GULP energy -78077.443645 kJ/mol
# GULP energy per Si atom -5576.960260 kJ/mol
# Density = 2.906258 g / cm^3
# Si number density = 29.128882 Si / 1000 Ang^3
#
#
#
# Elastic Constant Matrix: (Units=GPa)
#
#
# Indices 1 2 3 4 5 6 
#
# 1 151.3192 31.0351 50.8736 0.0000 18.4333 0.0000
# 2 31.0351 153.9220 28.2957 0.0000 13.8300 0.0000
# 3 50.8736 28.2957 73.3651 0.0000 11.3877 0.0000
# 4 0.0000 0.0000 0.0000 56.0549 0.0000 10.8211
# 5 18.4333 13.8300 11.3877 0.0000 43.8568 0.0000
# 6 0.0000 0.0000 0.0000 10.8211 0.0000 42.9936
#
#
#
# Elastic Compliance Matrix: (Units=1/GPa)
#
#
# Indices 1 2 3 4 5 6 
#
# 1 0.008863 -0.000569 -0.005602 0.000000 -0.002091 0.000000
# 2 -0.000569 0.007134 -0.002131 0.000000 -0.001457 0.000000
# 3 -0.005602 -0.002131 0.018617 0.000000 -0.001808 0.000000
# 4 0.000000 0.000000 0.000000 0.018751 0.000000 -0.004719
# 5 -0.002091 -0.001457 -0.001808 0.000000 0.024609 0.000000
# 6 0.000000 0.000000 0.000000 -0.004719 0.000000 0.024447
#
#
# Mechanical properties :
#
#
# Convention : Reuss Voigt Hill
#
# Bulk Modulus (GPa) = 55.52102 66.55722 61.03912
# Shear Modulus (GPa) = 39.99049 46.47452 43.23251
#
# Velocity S-wave (km/s) = 3.70926 3.99868 3.85669
# Velocity P-wave (km/s) = 6.11937 6.64967 6.39002
#
# Compressibility (1/GPa) = 0.01801120
#
# Stress axis : x y z
#
# Youngs Moduli (GPa) = 112.82250 140.17012 53.71330
#
# Poissons Ratio (x) = 0.07981 0.30090
# Poissons Ratio (y) = 0.06424 0.11444
# Poissons Ratio (z) = 0.63203 0.29863
#
# Static dielectric constant tensor:
#      x y z
#    x 2.632600 0.000000 0.043100 
#    y 0.000000 2.637060 0.000000 
#    z 0.043100 0.000000 2.172480 
# 
# From -- ./inp_files/2460.got.cif
#   From: 2010.05.17/outbox.cif.g08.bks.cpg/sg4_2_cif.got.tgz:2460.got - 2010.06.03 18:43:04.
