data_PCOD9118720
_publ_section_title
;
Structure prediction by ZEFSAII (Michael W. Deem and Ramdas Pophale) SiO2 
 PCOD9118720
Probable space group: P 21
;
_chemical_formula_sum "Si O2"
_cell_formula_units_Z 16
_cell_length_a 5.030929
_cell_length_b 8.587001
_cell_length_c 15.789944
_cell_angle_alpha 90.000000
_cell_angle_beta 66.820118
_cell_angle_gamma 90.000000
_cell_volume 627.068640
_symmetry_space_group_name_H-M "P 21"
_symmetry_group_IT_number 4
_symmetry_cell_setting 'monoclinic'
loop_
_space_group_symop_operation_xyz
x,y,z
-x,1/2+y,-z
loop_
_atom_site_type_symbol
_atom_site_label
_atom_site_fract_x
_atom_site_fract_y
_atom_site_fract_z
Si Si1 0.138312 0.806360 0.518932
Si Si2 0.177578 0.036691 0.762447
Si Si3 0.650395 0.060355 0.925724
Si Si4 0.589598 0.623141 0.580395
Si Si5 0.514369 0.982669 0.228990
Si Si6 0.203145 0.695501 0.319961
Si Si7 0.636821 0.296341 0.139716
Si Si8 0.810386 0.829325 0.048118
O O1 0.135446 0.742791 0.423248
O O2 0.815902 0.753666 0.587178
O O3 0.244951 0.984040 0.491825
O O4 0.023081 0.080564 0.694909
O O5 0.362818 0.711943 0.549138
O O6 0.218562 0.862276 0.792126
O O7 0.487415 0.114218 0.719649
O O8 0.970539 0.113046 0.860071
O O9 0.406690 0.188042 0.945029
O O10 0.675629 0.970972 0.009589
O O11 0.576680 0.928231 0.866238
O O12 0.446000 0.533747 0.678347
O O13 0.255006 0.856806 0.262168
O O14 0.777828 0.899515 0.146335
O O15 0.469921 0.140858 0.183021
O O16 0.882816 0.291528 0.035147
#
# Coordination Sequence:
#
# PCOD9118720 Si02
#       8
#     2   2   2   2   2   2   2   2
#     4  11  25  49  74 110 148 192 247 305 389 442
#     4  11  22  44  70 105 139 191 247 292 365 440
#     4  11  23  43  66 102 142 198 240 302 366 434
#     4  11  26  50  78 111 150 196 247 313 378 455
#     4  11  25  46  70 115 145 197 247 311 363 446
#     4  11  24  46  76 102 141 194 238 303 371 449
#     4  11  24  43  68 106 150 188 249 302 366 433
#     4  11  23  43  68 101 149 198 247 302 368 437
#
# _framework density 25.515547999999999
#
# number of rings (size 3 to 8) (size 9 to 14) (size 15 to 20)
#    0.000    1.000    2.500    3.000    0.000   10.000 
#   15.750    0.000    0.000    0.000    0.000    0.000 
#    0.000    0.000    0.000    0.000    0.000    0.000 
#
# Total GULP energy -89559.047308 kJ/mol
# GULP energy per Si atom -5597.440457 kJ/mol
# Density = 2.545747 g / cm^3
# Si number density = 25.515548 Si / 1000 Ang^3
#
#
#
# Elastic Constant Matrix: (Units=GPa)
#
#
# Indices 1 2 3 4 5 6 
#
# 1 118.2427 28.0671 15.1778 0.0000 1.2885 0.0000
# 2 28.0671 86.8058 46.6965 0.0000 -3.6576 0.0000
# 3 15.1778 46.6965 117.7397 0.0000 4.8922 0.0000
# 4 0.0000 0.0000 0.0000 40.8876 0.0000 -3.8402
# 5 1.2885 -3.6576 4.8922 0.0000 28.5317 0.0000
# 6 0.0000 0.0000 0.0000 -3.8402 0.0000 27.7786
#
#
#
# Elastic Compliance Matrix: (Units=1/GPa)
#
#
# Indices 1 2 3 4 5 6 
#
# 1 0.009179 -0.003030 0.000052 0.000000 -0.000812 0.000000
# 2 -0.003030 0.015886 -0.006043 0.000000 0.003209 0.000000
# 3 0.000052 -0.006043 0.010994 0.000000 -0.002662 0.000000
# 4 0.000000 0.000000 0.000000 0.024779 0.000000 0.003426
# 5 -0.000812 0.003209 -0.002662 0.000000 0.035953 0.000000
# 6 0.000000 0.000000 0.000000 0.003426 0.000000 0.036472
#
#
# Mechanical properties :
#
#
# Convention : Reuss Voigt Hill
#
# Bulk Modulus (GPa) = 55.50503 55.85234 55.67869
# Shear Modulus (GPa) = 31.78427 34.96270 33.37348
#
# Velocity S-wave (km/s) = 3.53325 3.70571 3.62051
# Velocity P-wave (km/s) = 6.20047 6.34403 6.27266
#
# Compressibility (1/GPa) = 0.01801638
#
# Stress axis : x y z
#
# Youngs Moduli (GPa) = 108.94954 62.94929 90.95900
#
# Poissons Ratio (x) = 0.19074 -0.00475
# Poissons Ratio (y) = 0.33012 0.54968
# Poissons Ratio (z) = -0.00569 0.38041
#
# Static dielectric constant tensor:
#      x y z
#    x 1.976050 0.000000 0.033320 
#    y 0.000000 2.028250 0.000000 
#    z 0.033320 0.000000 2.074500 
# 
# From -- ./inp_files/14715.got.cif
#   From: 2010.05.17/outbox.cif.g08.bks.cpg/sg4_8_cif.got.tgz:14715.got - 2010.06.03 18:43:04.
