data_PCOD9118639
_publ_section_title
;
Structure prediction by ZEFSAII (Michael W. Deem and Ramdas Pophale) SiO2 
 PCOD9118639
Probable space group: P 21
;
_chemical_formula_sum "Si O2"
_cell_formula_units_Z 16
_cell_length_a 9.730380
_cell_length_b 7.604990
_cell_length_c 8.331013
_cell_angle_alpha 90.000000
_cell_angle_beta 91.096214
_cell_angle_gamma 90.000000
_cell_volume 616.377487
_symmetry_space_group_name_H-M "P 21"
_symmetry_group_IT_number 4
_symmetry_cell_setting 'monoclinic'
loop_
_space_group_symop_operation_xyz
x,y,z
-x,1/2+y,-z
loop_
_atom_site_type_symbol
_atom_site_label
_atom_site_fract_x
_atom_site_fract_y
_atom_site_fract_z
Si Si1 0.968399 0.032760 0.389814
Si Si2 0.107875 0.142898 0.704285
Si Si3 0.717262 0.120060 0.199780
Si Si4 0.859184 0.113914 0.881082
Si Si5 0.208663 0.219894 0.203705
Si Si6 0.541061 0.645683 0.625706
Si Si7 0.609496 0.241818 0.696889
Si Si8 0.643080 0.707789 0.117476
O O1 0.033646 0.031032 0.567330
O O2 0.087105 0.099280 0.270078
O O3 0.828838 0.138096 0.345302
O O4 0.916120 0.837684 0.359847
O O5 0.263640 0.104542 0.750782
O O6 0.019635 0.146290 0.865262
O O7 0.574640 0.204524 0.249361
O O8 0.678715 0.914333 0.156919
O O9 0.796584 0.183286 0.044365
O O10 0.766272 0.197684 0.738494
O O11 0.845040 0.905750 0.859137
O O12 0.318963 0.253819 0.349812
O O13 0.302233 0.154101 0.056134
O O14 0.589024 0.447445 0.662918
O O15 0.463324 0.651110 0.455653
O O16 0.516812 0.185445 0.848636
#
# Coordination Sequence:
#
# PCOD9118639 Si02
#       8
#     2   2   2   2   2   2   2   2
#     4  11  22  39  61  88 118 154 196 243 293 348
#     4  11  22  39  61  88 118 154 196 243 293 348
#     4   9  21  39  60  84 116 153 196 245 294 344
#     4  11  22  39  60  86 118 155 194 241 294 350
#     4  11  22  39  60  86 118 155 194 241 294 350
#     4  11  22  39  61  88 118 154 196 243 293 348
#     4  11  22  39  61  88 118 154 196 243 293 348
#     4   9  21  39  60  84 116 153 196 245 294 344
#
# _framework density 25.958120000000001
#
# number of rings (size 3 to 8) (size 9 to 14) (size 15 to 20)
#    0.000    1.500    0.000    5.250    0.000    2.000 
#    0.000   11.250    0.000    0.000    0.000    0.000 
#    0.000    0.000    0.000    0.000    0.000    0.000 
#
# Total GULP energy -89587.085428 kJ/mol
# GULP energy per Si atom -5599.192839 kJ/mol
# Density = 2.589904 g / cm^3
# Si number density = 25.958120 Si / 1000 Ang^3
#
#
#
# Elastic Constant Matrix: (Units=GPa)
#
#
# Indices 1 2 3 4 5 6 
#
# 1 110.0143 2.7800 3.6455 0.0000 -1.8742 0.0000
# 2 2.7800 46.5664 0.0961 0.0000 5.2739 0.0000
# 3 3.6455 0.0961 75.4310 0.0000 -8.9603 0.0000
# 4 0.0000 0.0000 0.0000 25.2095 0.0000 -1.8769
# 5 -1.8742 5.2739 -8.9603 0.0000 42.0239 0.0000
# 6 0.0000 0.0000 0.0000 -1.8769 0.0000 23.8363
#
#
#
# Elastic Compliance Matrix: (Units=1/GPa)
#
#
# Indices 1 2 3 4 5 6 
#
# 1 0.009124 -0.000589 -0.000393 0.000000 0.000397 0.000000
# 2 -0.000589 0.021832 -0.000336 0.000000 -0.002838 0.000000
# 3 -0.000393 -0.000336 0.013625 0.000000 0.002930 0.000000
# 4 0.000000 0.000000 0.000000 0.039902 0.000000 0.003142
# 5 0.000397 -0.002838 0.002930 0.000000 0.024794 0.000000
# 6 0.000000 0.000000 0.000000 0.003142 0.000000 0.042200
#
#
# Mechanical properties :
#
#
# Convention : Reuss Voigt Hill
#
# Bulk Modulus (GPa) = 23.84121 27.22832 25.53476
# Shear Modulus (GPa) = 29.74500 33.24661 31.49580
#
# Velocity S-wave (km/s) = 3.38876 3.58268 3.48707
# Velocity P-wave (km/s) = 4.95137 5.25607 5.10599
#
# Compressibility (1/GPa) = 0.04194418
#
# Stress axis : x y z
#
# Youngs Moduli (GPa) = 109.59626 45.80437 73.39675
#
# Poissons Ratio (x) = 0.02697 0.02885
# Poissons Ratio (y) = 0.06454 0.02469
# Poissons Ratio (z) = 0.04308 0.01541
#
# Static dielectric constant tensor:
#      x y z
#    x 2.007560 0.000000 0.020900 
#    y 0.000000 2.046520 0.000000 
#    z 0.020900 0.000000 2.145490 
# 
# From -- ./inp_files/5589.got.cif
#   From: 2010.05.17/outbox.cif.g08.bks.cpg/sg4_3_cif.got.tgz:5589.got - 2010.06.03 18:43:04.
