data_PCOD9118031
_publ_section_title
;
Structure prediction by ZEFSAII (Michael W. Deem and Ramdas Pophale) SiO2 
 PCOD9118031
Probable space group: P 21
;
_chemical_formula_sum "Si O2"
_cell_formula_units_Z 10
_cell_length_a 5.396538
_cell_length_b 8.405641
_cell_length_c 9.531264
_cell_angle_alpha 90.000000
_cell_angle_beta 74.837880
_cell_angle_gamma 90.000000
_cell_volume 417.300804
_symmetry_space_group_name_H-M "P 21"
_symmetry_group_IT_number 4
_symmetry_cell_setting 'monoclinic'
loop_
_space_group_symop_operation_xyz
x,y,z
-x,1/2+y,-z
loop_
_atom_site_type_symbol
_atom_site_label
_atom_site_fract_x
_atom_site_fract_y
_atom_site_fract_z
Si Si1 0.239329 0.914320 0.533206
Si Si2 0.704415 0.312062 0.977467
Si Si3 0.810014 0.041140 0.388657
Si Si4 0.658502 0.996140 0.106695
Si Si5 0.928690 0.546965 0.148284
O O1 0.210303 0.727436 0.570139
O O2 0.150597 0.013180 0.683550
O O3 0.536124 0.958554 0.463018
O O4 0.045264 0.965461 0.438545
O O5 0.559326 0.364026 0.858244
O O6 0.730221 0.467228 0.070687
O O7 0.973543 0.224265 0.899150
O O8 0.562594 0.175223 0.088212
O O9 0.830186 0.020851 0.218020
O O10 0.815350 0.955262 0.941483
#
# Coordination Sequence:
#
# PCOD9118031 Si02
#       5
#     2   2   2   2   2
#     4  12  28  52  77 112 154 207 248 320 373 462
#     4  10  24  43  79 102 146 188 256 308 376 433
#     4  12  29  51  78 110 159 197 261 306 389 444
#     4  10  26  46  76 107 146 195 248 315 367 453
#     4  10  25  46  76 105 147 193 253 307 377 442
#
# _framework density 23.963529000000001
#
# number of rings (size 3 to 8) (size 9 to 14) (size 15 to 20)
#    1.200    0.000    2.000    1.200   11.200    3.200 
#    0.000    0.000    0.000    0.000    0.000    0.000 
#    0.000    0.000    0.000    0.000    0.000    0.000 
#
# Total GULP energy -55814.049011 kJ/mol
# GULP energy per Si atom -5581.404901 kJ/mol
# Density = 2.390899 g / cm^3
# Si number density = 23.963529 Si / 1000 Ang^3
#
#
#
# Elastic Constant Matrix: (Units=GPa)
#
#
# Indices 1 2 3 4 5 6 
#
# 1 94.4769 12.3853 28.0950 0.0000 21.4515 0.0000
# 2 12.3853 103.8824 8.4337 0.0000 18.1526 0.0000
# 3 28.0950 8.4337 93.9606 0.0000 11.3766 0.0000
# 4 0.0000 0.0000 0.0000 33.7735 0.0000 6.4682
# 5 21.4515 18.1526 11.3766 0.0000 44.1731 0.0000
# 6 0.0000 0.0000 0.0000 6.4682 0.0000 50.9378
#
#
#
# Elastic Compliance Matrix: (Units=1/GPa)
#
#
# Indices 1 2 3 4 5 6 
#
# 1 0.012757 -0.000350 -0.003148 0.000000 -0.005240 0.000000
# 2 -0.000350 0.010397 -0.000343 0.000000 -0.004015 0.000000
# 3 -0.003148 -0.000343 0.011780 0.000000 -0.001364 0.000000
# 4 0.000000 0.000000 0.000000 0.030347 0.000000 -0.003854
# 5 -0.005240 -0.004015 -0.001364 0.000000 0.027184 0.000000
# 6 0.000000 0.000000 0.000000 -0.003854 0.000000 0.020121
#
#
# Mechanical properties :
#
#
# Convention : Reuss Voigt Hill
#
# Bulk Modulus (GPa) = 36.69366 43.34976 40.02171
# Shear Modulus (GPa) = 38.65430 42.00396 40.32913
#
# Velocity S-wave (km/s) = 4.02063 4.19122 4.10681
# Velocity P-wave (km/s) = 6.07450 6.44600 6.26301
#
# Compressibility (1/GPa) = 0.02725267
#
# Stress axis : x y z
#
# Youngs Moduli (GPa) = 78.39112 96.17889 84.88895
#
# Poissons Ratio (x) = 0.03362 0.26727
# Poissons Ratio (y) = 0.02740 0.02908
# Poissons Ratio (z) = 0.24681 0.03295
#
# Static dielectric constant tensor:
#      x y z
#    x 1.979850 0.000000 -0.039900 
#    y 0.000000 1.941380 0.000000 
#    z -0.039900 0.000000 1.875150 
# 
# From -- ./inp_files/972.got.cif
#   From: 2010.05.17/outbox.cif.g08.bks.cpg/sg4_1_cif.got.tgz:972.got - 2010.06.03 18:43:04.
