data_PCOD9118781
_publ_section_title
;
Structure prediction by ZEFSAII (Michael W. Deem and Ramdas Pophale) SiO2 
 PCOD9118781
Probable space group: P 21
;
_chemical_formula_sum "Si O2"
_cell_formula_units_Z 12
_cell_length_a 9.663960
_cell_length_b 5.300239
_cell_length_c 8.572349
_cell_angle_alpha 90.000000
_cell_angle_beta 99.016484
_cell_angle_gamma 90.000000
_cell_volume 433.661173
_symmetry_space_group_name_H-M "P 21"
_symmetry_group_IT_number 4
_symmetry_cell_setting 'monoclinic'
loop_
_space_group_symop_operation_xyz
x,y,z
-x,1/2+y,-z
loop_
_atom_site_type_symbol
_atom_site_label
_atom_site_fract_x
_atom_site_fract_y
_atom_site_fract_z
Si Si1 0.001310 0.682450 0.908556
Si Si2 0.880122 0.894702 0.332175
Si Si3 0.292775 0.238543 0.292672
Si Si4 0.502901 0.583596 0.224241
Si Si5 0.190140 0.893979 0.529486
Si Si6 0.547778 0.090164 0.147532
O O1 0.865961 0.777583 0.786964
O O2 0.124518 0.542294 0.833287
O O3 0.948867 0.438843 0.999185
O O4 0.807661 0.095630 0.435369
O O5 0.045268 0.905772 0.402409
O O6 0.846051 0.600998 0.342525
O O7 0.380492 0.500755 0.318854
O O8 0.299985 0.046702 0.438832
O O9 0.382446 0.109617 0.167702
O O10 0.603627 0.341602 0.237235
O O11 0.588393 0.837737 0.241397
O O12 0.439741 0.588219 0.035353
#
# Coordination Sequence:
#
# PCOD9118781 Si02
#       6
#     2   2   2   2   2   2
#     4  11  23  34  47  65  94 132 164 187 210 263
#     4   9  18  32  43  63  89 115 155 193 224 257
#     4   9  20  28  50  69  99 121 154 181 237 279
#     4   8  15  26  42  65  96 119 137 185 235 286
#     4   9  17  28  48  65  86 118 145 189 239 273
#     4   8  15  26  42  65  96 119 137 185 235 286
#
# _framework density 27.671368999999999
#
# number of rings (size 3 to 8) (size 9 to 14) (size 15 to 20)
#    1.000    2.000    0.000    1.000    4.667    2.667 
#    0.000    0.000    0.000    0.000    0.000    0.000 
#    0.000   26.667    0.000    0.000    0.000    0.000 
#
# Total GULP energy -66928.688229 kJ/mol
# GULP energy per Si atom -5577.390686 kJ/mol
# Density = 2.760839 g / cm^3
# Si number density = 27.671369 Si / 1000 Ang^3
#
#
#
# Elastic Constant Matrix: (Units=GPa)
#
#
# Indices 1 2 3 4 5 6 
#
# 1 51.1318 3.9594 11.0515 0.0000 2.0188 0.0000
# 2 3.9594 206.0614 17.0803 0.0000 4.3689 0.0000
# 3 11.0515 17.0803 55.6365 0.0000 -35.1905 0.0000
# 4 0.0000 0.0000 0.0000 41.2186 0.0000 7.4959
# 5 2.0188 4.3689 -35.1905 0.0000 43.9258 0.0000
# 6 0.0000 0.0000 0.0000 7.4959 0.0000 52.8382
#
#
#
# Elastic Compliance Matrix: (Units=1/GPa)
#
#
# Indices 1 2 3 4 5 6 
#
# 1 0.022214 0.000671 -0.010757 0.000000 -0.009706 0.000000
# 2 0.000671 0.005278 -0.004268 0.000000 -0.003975 0.000000
# 3 -0.010757 -0.004268 0.044604 0.000000 0.036653 0.000000
# 4 0.000000 0.000000 0.000000 0.024903 0.000000 -0.003533
# 5 -0.009706 -0.003975 0.036653 0.000000 0.052971 0.000000
# 6 0.000000 0.000000 0.000000 -0.003533 0.000000 0.019427
#
#
# Mechanical properties :
#
#
# Convention : Reuss Voigt Hill
#
# Bulk Modulus (GPa) = 23.04835 41.89023 32.46929
# Shear Modulus (GPa) = 23.52200 46.31243 34.91721
#
# Velocity S-wave (km/s) = 2.91872 4.09548 3.55611
# Velocity P-wave (km/s) = 4.43914 6.12660 5.34982
#
# Compressibility (1/GPa) = 0.04338705
#
# Stress axis : x y z
#
# Youngs Moduli (GPa) = 45.01747 189.46400 22.41966
#
# Poissons Ratio (x) = -0.12706 0.24117
# Poissons Ratio (y) = -0.03019 0.09568
# Poissons Ratio (z) = 0.48426 0.80855
#
# Static dielectric constant tensor:
#      x y z
#    x 2.204300 0.000000 0.011400 
#    y 0.000000 2.246840 0.000000 
#    z 0.011400 0.000000 2.233340 
# 
# From -- ./inp_files/7175.got.cif
#   From: 2010.05.17/outbox.cif.g08.bks.cpg/sg4_4_cif.got.tgz:7175.got - 2010.06.03 18:43:04.
