data_PCOD9118849
_publ_section_title
;
Structure prediction by ZEFSAII (Michael W. Deem and Ramdas Pophale) SiO2 
 PCOD9118849
Probable space group: P 21
;
_chemical_formula_sum "Si O2"
_cell_formula_units_Z 16
_cell_length_a 11.553219
_cell_length_b 8.593780
_cell_length_c 11.965836
_cell_angle_alpha 90.000000
_cell_angle_beta 36.133293
_cell_angle_gamma 90.000000
_cell_volume 700.545250
_symmetry_space_group_name_H-M "P 21"
_symmetry_group_IT_number 4
_symmetry_cell_setting 'monoclinic'
loop_
_space_group_symop_operation_xyz
x,y,z
-x,1/2+y,-z
loop_
_atom_site_type_symbol
_atom_site_label
_atom_site_fract_x
_atom_site_fract_y
_atom_site_fract_z
Si Si1 0.089268 0.809560 0.284094
Si Si2 0.265697 0.234152 0.154751
Si Si3 0.140450 0.350687 0.756799
Si Si4 0.553672 0.995162 0.610009
Si Si5 0.133921 0.026474 0.454305
Si Si6 0.503284 0.448427 0.097883
Si Si7 0.880996 0.507634 0.136919
Si Si8 0.835167 0.293615 0.387064
O O1 0.966201 0.877381 0.277875
O O2 0.022556 0.635598 0.362143
O O3 0.052336 0.906598 0.425872
O O4 0.312348 0.836941 0.073353
O O5 0.256551 0.142052 0.280184
O O6 0.352558 0.401435 0.118266
O O7 0.050832 0.243229 0.266467
O O8 0.412974 0.124510 0.970222
O O9 0.365320 0.382497 0.550722
O O10 0.092623 0.175814 0.829128
O O11 0.054488 0.463692 0.917271
O O12 0.323233 0.016941 0.770810
O O13 0.682892 0.152015 0.500967
O O14 0.578757 0.925463 0.714229
O O15 0.238659 0.923268 0.466283
O O16 0.865454 0.377265 0.245040
#
# Coordination Sequence:
#
# PCOD9118849 Si02
#       8
#     2   2   2   2   2   2   2   2
#     4  11  23  46  71 110 151 197 246 311 379 448
#     4  11  27  43  70 114 153 199 244 312 386 450
#     4  12  26  48  78 105 153 197 253 312 375 443
#     4  12  27  50  74 106 149 200 256 315 368 449
#     4  11  23  42  73 107 143 200 242 303 388 450
#     4  11  27  43  72 109 156 193 251 311 375 455
#     4  12  28  51  76 111 146 204 258 310 376 450
#     4  12  27  47  78 106 151 198 252 312 385 445
#
# _framework density 22.839352999999999
#
# number of rings (size 3 to 8) (size 9 to 14) (size 15 to 20)
#    0.000    0.500    3.750    3.750    8.750    0.000 
#    0.000    1.250    0.000    0.000    0.000    0.000 
#    0.000    0.000    0.000    0.000    0.000    0.000 
#
# Total GULP energy -89534.509350 kJ/mol
# GULP energy per Si atom -5595.906834 kJ/mol
# Density = 2.278737 g / cm^3
# Si number density = 22.839353 Si / 1000 Ang^3
#
#
#
# Elastic Constant Matrix: (Units=GPa)
#
#
# Indices 1 2 3 4 5 6 
#
# 1 66.6690 7.8639 11.3731 0.0000 12.3391 0.0000
# 2 7.8639 89.2473 28.3574 0.0000 13.7963 0.0000
# 3 11.3731 28.3574 105.0258 0.0000 22.1466 0.0000
# 4 0.0000 0.0000 0.0000 40.0476 0.0000 10.1608
# 5 12.3391 13.7963 22.1466 0.0000 36.9389 0.0000
# 6 0.0000 0.0000 0.0000 10.1608 0.0000 33.1563
#
#
#
# Elastic Compliance Matrix: (Units=1/GPa)
#
#
# Indices 1 2 3 4 5 6 
#
# 1 0.016050 -0.000480 -0.000590 0.000000 -0.004828 0.000000
# 2 -0.000480 0.012562 -0.002729 0.000000 -0.002895 0.000000
# 3 -0.000590 -0.002729 0.011523 0.000000 -0.005692 0.000000
# 4 0.000000 0.000000 0.000000 0.027075 0.000000 -0.008297
# 5 -0.004828 -0.002895 -0.005692 0.000000 0.033178 0.000000
# 6 0.000000 0.000000 0.000000 -0.008297 0.000000 0.032703
#
#
# Mechanical properties :
#
#
# Convention : Reuss Voigt Hill
#
# Bulk Modulus (GPa) = 30.73609 39.57009 35.15309
# Shear Modulus (GPa) = 32.99542 36.25176 34.62359
#
# Velocity S-wave (km/s) = 3.80501 3.98835 3.89776
# Velocity P-wave (km/s) = 5.72633 6.21066 5.97341
#
# Compressibility (1/GPa) = 0.03253504
#
# Stress axis : x y z
#
# Youngs Moduli (GPa) = 62.30358 79.60606 86.78657
#
# Poissons Ratio (x) = 0.03824 0.05123
# Poissons Ratio (y) = 0.02993 0.23687
# Poissons Ratio (z) = 0.03678 0.21727
#
# Static dielectric constant tensor:
#      x y z
#    x 1.862100 0.000000 -0.034540 
#    y 0.000000 1.888820 0.000000 
#    z -0.034540 0.000000 1.887950 
# 
# From -- ./inp_files/11975.got.cif
#   From: 2010.05.17/outbox.cif.g08.bks.cpg/sg4_6_cif.got.tgz:11975.got - 2010.06.03 18:43:04.
