data_PCOD9118427
_publ_section_title
;
Structure prediction by ZEFSAII (Michael W. Deem and Ramdas Pophale) SiO2 
 PCOD9118427
Probable space group: P 21
;
_chemical_formula_sum "Si O2"
_cell_formula_units_Z 16
_cell_length_a 12.442161
_cell_length_b 6.261267
_cell_length_c 12.399581
_cell_angle_alpha 90.000000
_cell_angle_beta 47.069200
_cell_angle_gamma 90.000000
_cell_volume 707.263184
_symmetry_space_group_name_H-M "P 21"
_symmetry_group_IT_number 4
_symmetry_cell_setting 'monoclinic'
loop_
_space_group_symop_operation_xyz
x,y,z
-x,1/2+y,-z
loop_
_atom_site_type_symbol
_atom_site_label
_atom_site_fract_x
_atom_site_fract_y
_atom_site_fract_z
Si Si1 0.859424 0.896960 0.851139
Si Si2 0.680249 0.247060 0.857752
Si Si3 0.497137 0.470852 0.167223
Si Si4 0.527230 0.392558 0.528660
Si Si5 0.173210 0.085545 0.692513
Si Si6 0.066959 0.055287 0.382170
Si Si7 0.209129 0.309904 0.460623
Si Si8 0.296438 0.214024 0.832889
O O1 0.899227 0.735007 0.728606
O O2 0.730829 0.040330 0.889257
O O3 0.796845 0.791226 0.002027
O O4 0.007585 0.019684 0.781846
O O5 0.584851 0.183268 0.819412
O O6 0.831093 0.361349 0.724201
O O7 0.583753 0.385962 0.005008
O O8 0.367392 0.323155 0.299381
O O9 0.608498 0.516667 0.187322
O O10 0.502644 0.140803 0.499689
O O11 0.703023 0.409519 0.422318
O O12 0.417072 0.381110 0.705352
O O13 0.212346 0.280620 0.585783
O O14 0.196262 0.148591 0.800632
O O15 0.122621 0.118222 0.462045
O O16 0.895462 0.006190 0.497680
#
# Coordination Sequence:
#
# PCOD9118427 Si02
#       8
#     2   2   2   2   2   2   2   2
#     4  12  26  50  75 108 149 202 250 320 378 460
#     4  12  25  50  72 112 151 191 263 314 392 454
#     4  12  26  45  78 109 151 202 251 326 392 465
#     4  10  26  50  75 110 159 208 266 318 378 466
#     4  11  28  47  74 115 150 206 251 313 389 472
#     4  12  25  50  72 112 151 191 263 314 392 454
#     4  12  26  45  78 109 151 202 251 326 392 465
#     4  11  28  47  74 115 150 206 251 313 389 472
#
# _framework density 22.622413000000002
#
# number of rings (size 3 to 8) (size 9 to 14) (size 15 to 20)
#    0.000    0.500    3.750    3.000   12.250    3.000 
#    0.000    0.000    0.000    0.000    0.000    0.000 
#    0.000    0.000    0.000    0.000    0.000    0.000 
#
# Total GULP energy -89386.116766 kJ/mol
# GULP energy per Si atom -5586.632298 kJ/mol
# Density = 2.257092 g / cm^3
# Si number density = 22.622413 Si / 1000 Ang^3
#
#
#
# Elastic Constant Matrix: (Units=GPa)
#
#
# Indices 1 2 3 4 5 6 
#
# 1 99.3992 18.1660 27.0906 0.0000 21.8656 0.0000
# 2 18.1660 55.0550 14.9359 0.0000 4.0024 0.0000
# 3 27.0906 14.9359 83.6322 0.0000 -10.5046 0.0000
# 4 0.0000 0.0000 0.0000 34.9364 0.0000 -11.1633
# 5 21.8656 4.0024 -10.5046 0.0000 38.9923 0.0000
# 6 0.0000 0.0000 0.0000 -11.1633 0.0000 22.9849
#
#
#
# Elastic Compliance Matrix: (Units=1/GPa)
#
#
# Indices 1 2 3 4 5 6 
#
# 1 0.013896 -0.002534 -0.005170 0.000000 -0.008925 0.000000
# 2 -0.002534 0.019891 -0.002908 0.000000 -0.001404 0.000000
# 3 -0.005170 -0.002908 0.015062 0.000000 0.007255 0.000000
# 4 0.000000 0.000000 0.000000 0.033882 0.000000 0.016456
# 5 -0.008925 -0.001404 0.007255 0.000000 0.032750 0.000000
# 6 0.000000 0.000000 0.000000 0.016456 0.000000 0.051499
#
#
# Mechanical properties :
#
#
# Convention : Reuss Voigt Hill
#
# Bulk Modulus (GPa) = 36.19772 39.83017 38.01394
# Shear Modulus (GPa) = 25.32796 31.24232 28.28514
#
# Velocity S-wave (km/s) = 3.34967 3.72026 3.53982
# Velocity P-wave (km/s) = 5.56740 6.00820 5.79199
#
# Compressibility (1/GPa) = 0.02762605
#
# Stress axis : x y z
#
# Youngs Moduli (GPa) = 71.96435 50.27481 66.39079
#
# Poissons Ratio (x) = 0.12738 0.34322
# Poissons Ratio (y) = 0.18234 0.19306
# Poissons Ratio (z) = 0.37203 0.14619
#
# Static dielectric constant tensor:
#      x y z
#    x 1.821490 0.000000 0.002090 
#    y 0.000000 1.932010 0.000000 
#    z 0.002090 0.000000 1.812250 
# 
# From -- ./inp_files/11599.got.cif
#   From: 2010.05.17/outbox.cif.g08.bks.cpg/sg4_6_cif.got.tgz:11599.got - 2010.06.03 18:43:04.
