data_PCOD9118890
_publ_section_title
;
Structure prediction by ZEFSAII (Michael W. Deem and Ramdas Pophale) SiO2 
 PCOD9118890
Probable space group: P 21
;
_chemical_formula_sum "Si O2"
_cell_formula_units_Z 14
_cell_length_a 17.466154
_cell_length_b 4.909217
_cell_length_c 15.865945
_cell_angle_alpha 90.000000
_cell_angle_beta 152.310721
_cell_angle_gamma 90.000000
_cell_volume 632.158589
_symmetry_space_group_name_H-M "P 21"
_symmetry_group_IT_number 4
_symmetry_cell_setting 'monoclinic'
loop_
_space_group_symop_operation_xyz
x,y,z
-x,1/2+y,-z
loop_
_atom_site_type_symbol
_atom_site_label
_atom_site_fract_x
_atom_site_fract_y
_atom_site_fract_z
Si Si1 0.002565 0.352300 0.444370
Si Si2 0.955530 0.089975 0.166663
Si Si3 0.803463 0.589896 0.103057
Si Si4 0.952307 0.292791 0.905677
Si Si5 0.438607 0.775738 0.491255
Si Si6 0.527230 0.345360 0.282640
Si Si7 0.738431 0.838468 0.452249
O O1 0.158147 0.331919 0.533107
O O2 0.035637 0.565330 0.550798
O O3 0.853374 0.464941 0.241411
O O4 0.926649 0.841744 0.203713
O O5 0.946519 0.940592 0.069226
O O6 0.832224 0.337568 0.066661
O O7 0.134270 0.223649 0.354325
O O8 0.626418 0.720958 0.916723
O O9 0.759161 0.289739 0.697764
O O10 0.984887 0.489696 0.016788
O O11 0.494427 0.480640 0.514346
O O12 0.506461 0.849221 0.649994
O O13 0.678472 0.138496 0.415624
O O14 0.583049 0.637748 0.303454
#
# Coordination Sequence:
#
# PCOD9118890 Si02
#       7
#     2   2   2   2   2   2   2
#     4  11  23  44  74 105 134 170 218 277 334 408
#     4  11  23  44  64  96 127 183 228 279 316 403
#     4  11  25  42  72  99 136 172 229 267 337 397
#     4  12  27  42  65  94 133 175 237 284 336 386
#     4  12  28  45  64  96 141 184 226 287 345 378
#     4  12  25  45  67 101 138 181 226 277 331 407
#     4  11  23  44  72  95 133 179 222 267 337 403
#
# _framework density 22.146341
#
# number of rings (size 3 to 8) (size 9 to 14) (size 15 to 20)
#    0.000    0.571    1.429    7.714    8.000    0.000 
#    0.000    2.857    0.000    1.714    0.000    0.000 
#    0.000    0.000    0.000    0.000    0.000    0.000 
#
# Total GULP energy -78407.837455 kJ/mol
# GULP energy per Si atom -5600.559818 kJ/mol
# Density = 2.209593 g / cm^3
# Si number density = 22.146341 Si / 1000 Ang^3
#
#
#
# Elastic Constant Matrix: (Units=GPa)
#
#
# Indices 1 2 3 4 5 6 
#
# 1 73.4159 -0.8719 15.8815 0.0000 -13.4919 0.0000
# 2 -0.8719 77.7290 -9.7273 0.0000 4.5612 0.0000
# 3 15.8815 -9.7273 74.0145 0.0000 7.6893 0.0000
# 4 0.0000 0.0000 0.0000 43.0541 0.0000 6.6483
# 5 -13.4919 4.5612 7.6893 0.0000 18.5840 0.0000
# 6 0.0000 0.0000 0.0000 6.6483 0.0000 55.2684
#
#
#
# Elastic Compliance Matrix: (Units=1/GPa)
#
#
# Indices 1 2 3 4 5 6 
#
# 1 0.017655 -0.001408 -0.005581 0.000000 0.015472 0.000000
# 2 -0.001408 0.013498 0.002640 0.000000 -0.005428 0.000000
# 3 -0.005581 0.002640 0.016242 0.000000 -0.011420 0.000000
# 4 0.000000 0.000000 0.000000 0.023666 0.000000 -0.002847
# 5 0.015472 -0.005428 -0.011420 0.000000 0.071099 0.000000
# 6 0.000000 0.000000 0.000000 -0.002847 0.000000 0.018436
#
#
# Mechanical properties :
#
#
# Convention : Reuss Voigt Hill
#
# Bulk Modulus (GPa) = 25.84179 26.19157 26.01668
# Shear Modulus (GPa) = 27.44337 38.03980 32.74159
#
# Velocity S-wave (km/s) = 3.52402 4.14896 3.84919
# Velocity P-wave (km/s) = 5.31529 5.89950 5.61500
#
# Compressibility (1/GPa) = 0.03869702
#
# Stress axis : x y z
#
# Youngs Moduli (GPa) = 56.64154 74.08336 61.56992
#
# Poissons Ratio (x) = 0.10433 0.34360
# Poissons Ratio (y) = 0.07977 -0.16255
# Poissons Ratio (z) = 0.31610 -0.19559
#
# Static dielectric constant tensor:
#      x y z
#    x 1.819880 0.000000 -0.007820 
#    y 0.000000 1.800440 0.000000 
#    z -0.007820 0.000000 1.817430 
# 
# From -- ./inp_files/14099.got.cif
#   From: 2010.05.17/outbox.cif.g08.bks.cpg/sg4_8_cif.got.tgz:14099.got - 2010.06.03 18:43:04.
