data_PCOD9118305
_publ_section_title
;
Structure prediction by ZEFSAII (Michael W. Deem and Ramdas Pophale) SiO2 
 PCOD9118305
Probable space group: P 21
;
_chemical_formula_sum "Si O2"
_cell_formula_units_Z 16
_cell_length_a 4.956165
_cell_length_b 21.911904
_cell_length_c 5.175979
_cell_angle_alpha 90.000000
_cell_angle_beta 90.278477
_cell_angle_gamma 90.000000
_cell_volume 562.099565
_symmetry_space_group_name_H-M "P 21"
_symmetry_group_IT_number 4
_symmetry_cell_setting 'monoclinic'
loop_
_space_group_symop_operation_xyz
x,y,z
-x,1/2+y,-z
loop_
_atom_site_type_symbol
_atom_site_label
_atom_site_fract_x
_atom_site_fract_y
_atom_site_fract_z
Si Si1 0.021832 0.520910 0.233885
Si Si2 0.290005 0.463321 0.751365
Si Si3 0.176003 0.134827 0.083021
Si Si4 0.196184 0.693789 0.497000
Si Si5 0.475740 0.294777 0.308796
Si Si6 0.489668 0.574548 0.530355
Si Si7 0.624911 0.752508 0.192931
Si Si8 0.198930 0.910146 0.506246
O O1 0.767145 0.552735 0.415401
O O2 0.865668 0.454322 0.256605
O O3 0.994597 0.580023 0.033323
O O4 0.256725 0.489392 0.032614
O O5 0.257121 0.520258 0.522057
O O6 0.582638 0.440568 0.682679
O O7 0.076631 0.413957 0.657005
O O8 0.440097 0.099380 0.186646
O O9 0.052059 0.167251 0.338526
O O10 0.225120 0.190231 0.884112
O O11 0.362442 0.730924 0.719795
O O12 0.344628 0.631831 0.406963
O O13 0.310047 0.739393 0.270949
O O14 0.266561 0.279611 0.536686
O O15 0.671150 0.348442 0.391510
O O16 0.345386 0.301679 0.030915
#
# Coordination Sequence:
#
# PCOD9118305 Si02
#       8
#     2   2   2   2   2   2   2   2
#     4  11  28  46  81 119 163 218 268 345 422 504
#     4  11  26  50  74 116 155 210 273 334 413 492
#     4  12  24  48  79 116 166 217 262 348 431 504
#     4  10  25  45  72 113 160 200 270 331 418 487
#     4  10  25  52  74 115 161 209 288 342 405 502
#     4  11  25  45  67 118 160 191 269 329 404 500
#     4  10  25  48  76 116 156 208 275 335 412 495
#     4  11  28  52  77 115 159 217 283 344 407 498
#
# _framework density 28.46471
#
# number of rings (size 3 to 8) (size 9 to 14) (size 15 to 20)
#    0.750    0.500    2.500    0.750    8.750    5.000 
#    2.250    0.000    0.000    0.000    0.000    0.000 
#    0.000    0.000    0.000    0.000    0.000    0.000 
#
# Total GULP energy -89166.908989 kJ/mol
# GULP energy per Si atom -5572.931812 kJ/mol
# Density = 2.839992 g / cm^3
# Si number density = 28.464710 Si / 1000 Ang^3
#
#
#
# Elastic Constant Matrix: (Units=GPa)
#
#
# Indices 1 2 3 4 5 6 
#
# 1 100.8110 32.7659 54.5383 0.0000 -23.8998 0.0000
# 2 32.7659 122.6483 38.1622 0.0000 -8.8216 0.0000
# 3 54.5383 38.1622 183.2702 0.0000 -12.9907 0.0000
# 4 0.0000 0.0000 0.0000 25.2603 0.0000 1.5509
# 5 -23.8998 -8.8216 -12.9907 0.0000 49.1888 0.0000
# 6 0.0000 0.0000 0.0000 1.5509 0.0000 42.8867
#
#
#
# Elastic Compliance Matrix: (Units=1/GPa)
#
#
# Indices 1 2 3 4 5 6 
#
# 1 0.013672 -0.002265 -0.003215 0.000000 0.005388 0.000000
# 2 -0.002265 0.009153 -0.001216 0.000000 0.000220 0.000000
# 3 -0.003215 -0.001216 0.006665 0.000000 -0.000020 0.000000
# 4 0.000000 0.000000 0.000000 0.039676 0.000000 -0.001435
# 5 0.005388 0.000220 -0.000020 0.000000 0.022982 0.000000
# 6 0.000000 0.000000 0.000000 -0.001435 0.000000 0.023369
#
#
# Mechanical properties :
#
#
# Convention : Reuss Voigt Hill
#
# Bulk Modulus (GPa) = 62.12075 73.07358 67.59717
# Shear Modulus (GPa) = 37.23696 42.21804 39.72750
#
# Velocity S-wave (km/s) = 3.62080 3.85537 3.73993
# Velocity P-wave (km/s) = 6.27307 6.74877 6.51526
#
# Compressibility (1/GPa) = 0.01609768
#
# Stress axis : x y z
#
# Youngs Moduli (GPa) = 73.14039 109.25746 150.03593
#
# Poissons Ratio (x) = 0.24743 0.48239
# Poissons Ratio (y) = 0.16564 0.18250
# Poissons Ratio (z) = 0.23516 0.13289
#
# Static dielectric constant tensor:
#      x y z
#    x 2.364360 0.000000 0.142210 
#    y 0.000000 2.260240 0.000000 
#    z 0.142210 0.000000 2.349160 
# 
# From -- ./inp_files/724.got.cif
#   From: 2010.05.17/outbox.cif.g08.bks.cpg/sg4_1_cif.got.tgz:724.got - 2010.06.03 18:43:04.
