data_PCOD9118624
_publ_section_title
;
Structure prediction by ZEFSAII (Michael W. Deem and Ramdas Pophale) SiO2 
 PCOD9118624
Probable space group: P 21
;
_chemical_formula_sum "Si O2"
_cell_formula_units_Z 16
_cell_length_a 17.268843
_cell_length_b 8.373242
_cell_length_c 11.796178
_cell_angle_alpha 90.000000
_cell_angle_beta 158.129120
_cell_angle_gamma 90.000000
_cell_volume 635.394325
_symmetry_space_group_name_H-M "P 21"
_symmetry_group_IT_number 4
_symmetry_cell_setting 'monoclinic'
loop_
_space_group_symop_operation_xyz
x,y,z
-x,1/2+y,-z
loop_
_atom_site_type_symbol
_atom_site_label
_atom_site_fract_x
_atom_site_fract_y
_atom_site_fract_z
Si Si1 0.809666 0.773610 0.662887
Si Si2 0.317908 0.755771 0.770823
Si Si3 0.459462 0.574697 0.291990
Si Si4 0.235804 0.374035 0.656352
Si Si5 0.901128 0.907083 0.122269
Si Si6 0.790633 0.354474 0.126022
Si Si7 0.363729 0.121032 0.235706
Si Si8 0.202642 0.606992 0.233545
O O1 0.647451 0.628373 0.465923
O O2 0.828974 0.809793 0.556065
O O3 0.750560 0.948452 0.630722
O O4 0.021154 0.727876 0.016035
O O5 0.268121 0.566508 0.699093
O O6 0.313206 0.815182 0.895072
O O7 0.132936 0.861289 0.467459
O O8 0.540271 0.794099 0.016883
O O9 0.557355 0.526962 0.545906
O O10 0.262012 0.459747 0.999285
O O11 0.333667 0.741878 0.129960
O O12 0.037896 0.327012 0.464237
O O13 0.792262 0.749226 0.928228
O O14 0.882486 0.039567 0.001419
O O15 0.751646 0.527099 0.020133
O O16 0.576401 0.191338 0.474871
#
# Coordination Sequence:
#
# PCOD9118624 Si02
#       8
#     2   2   2   2   2   2   2   2
#     4  12  26  47  73 117 155 197 253 316 388 458
#     4  12  30  51  76 113 153 205 265 311 388 456
#     4  11  23  44  78 108 153 193 254 313 385 453
#     4  12  29  51  80 107 156 202 257 328 372 460
#     4  11  25  45  73 107 146 203 256 308 378 461
#     4  12  26  51  78 110 155 201 255 313 380 458
#     4  11  21  48  70 109 145 199 246 314 377 453
#     4  11  26  43  74 111 155 194 250 317 390 457
#
# _framework density 25.181215000000002
#
# number of rings (size 3 to 8) (size 9 to 14) (size 15 to 20)
#    0.000    0.500    5.000    2.250   10.500    0.000 
#    2.250    0.000    0.000    0.000    0.000    0.000 
#    0.000    0.000    0.000    0.000    0.000    0.000 
#
# Total GULP energy -89432.696163 kJ/mol
# GULP energy per Si atom -5589.543510 kJ/mol
# Density = 2.512390 g / cm^3
# Si number density = 25.181215 Si / 1000 Ang^3
#
#
#
# Elastic Constant Matrix: (Units=GPa)
#
#
# Indices 1 2 3 4 5 6 
#
# 1 50.4623 9.3898 28.0500 0.0000 15.7257 0.0000
# 2 9.3898 51.8897 15.0184 0.0000 5.8322 0.0000
# 3 28.0500 15.0184 128.0449 0.0000 22.7269 0.0000
# 4 0.0000 0.0000 0.0000 52.3227 0.0000 6.3947
# 5 15.7257 5.8322 22.7269 0.0000 35.6006 0.0000
# 6 0.0000 0.0000 0.0000 6.3947 0.0000 33.4113
#
#
#
# Elastic Compliance Matrix: (Units=1/GPa)
#
#
# Indices 1 2 3 4 5 6 
#
# 1 0.024905 -0.002511 -0.003701 0.000000 -0.008227 0.000000
# 2 -0.002511 0.020329 -0.001624 0.000000 -0.001184 0.000000
# 3 -0.003701 -0.001624 0.009556 0.000000 -0.004200 0.000000
# 4 0.000000 0.000000 0.000000 0.019570 0.000000 -0.003746
# 5 -0.008227 -0.001184 -0.004200 0.000000 0.034599 0.000000
# 6 0.000000 0.000000 0.000000 -0.003746 0.000000 0.030647
#
#
# Mechanical properties :
#
#
# Convention : Reuss Voigt Hill
#
# Bulk Modulus (GPa) = 25.56327 37.25704 31.41015
# Shear Modulus (GPa) = 29.70570 36.12950 32.91760
#
# Velocity S-wave (km/s) = 3.43837 3.79196 3.61948
# Velocity P-wave (km/s) = 5.09283 5.83092 5.47433
#
# Compressibility (1/GPa) = 0.03911863
#
# Stress axis : x y z
#
# Youngs Moduli (GPa) = 40.15242 49.19029 104.64145
#
# Poissons Ratio (x) = 0.12351 0.38728
# Poissons Ratio (y) = 0.10082 0.16995
# Poissons Ratio (z) = 0.14861 0.07989
#
# Static dielectric constant tensor:
#      x y z
#    x 2.037580 0.000000 0.027280 
#    y 0.000000 1.966430 0.000000 
#    z 0.027280 0.000000 1.974280 
# 
# From -- ./inp_files/12934.got.cif
#   From: 2010.05.17/outbox.cif.g08.bks.cpg/sg4_7_cif.got.tgz:12934.got - 2010.06.03 18:43:04.
