data_PCOD9118204
_publ_section_title
;
Structure prediction by ZEFSAII (Michael W. Deem and Ramdas Pophale) SiO2 
 PCOD9118204
Probable space group: P 21
;
_chemical_formula_sum "Si O2"
_cell_formula_units_Z 16
_cell_length_a 10.957300
_cell_length_b 10.753499
_cell_length_c 5.232674
_cell_angle_alpha 90.000000
_cell_angle_beta 88.036011
_cell_angle_gamma 90.000000
_cell_volume 616.200200
_symmetry_space_group_name_H-M "P 21"
_symmetry_group_IT_number 4
_symmetry_cell_setting 'monoclinic'
loop_
_space_group_symop_operation_xyz
x,y,z
-x,1/2+y,-z
loop_
_atom_site_type_symbol
_atom_site_label
_atom_site_fract_x
_atom_site_fract_y
_atom_site_fract_z
Si Si1 0.124562 0.453750 0.948595
Si Si2 0.314050 0.640684 0.863598
Si Si3 0.478287 0.944109 0.007233
Si Si4 0.317595 0.279373 0.194561
Si Si5 0.068355 0.876303 0.700703
Si Si6 0.877873 0.751429 0.432432
Si Si7 0.703752 0.302631 0.630419
Si Si8 0.243172 0.044437 0.891310
O O1 0.238668 0.373663 0.033997
O O2 0.040696 0.470554 0.203354
O O3 0.184957 0.571881 0.816944
O O4 0.065889 0.357291 0.754416
O O5 0.336894 0.726497 0.617904
O O6 0.426275 0.546934 0.904335
O O7 0.288071 0.705361 0.137121
O O8 0.548235 0.826467 0.877281
O O9 0.380637 0.002521 0.815035
O O10 0.396186 0.897194 0.248967
O O11 0.257729 0.298255 0.474128
O O12 0.274228 0.141631 0.115563
O O13 0.170644 0.867158 0.472692
O O14 0.977770 0.756311 0.654986
O O15 0.164158 0.918441 0.919976
O O16 0.839588 0.624853 0.297764
#
# Coordination Sequence:
#
# PCOD9118204 Si02
#       8
#     2   2   2   2   2   2   2   2
#     4   9  23  46  76 111 151 211 261 333 408 490
#     4  11  28  51  82 111 163 218 267 337 418 477
#     4  11  26  52  74 112 161 208 276 330 412 487
#     4   9  22  48  71 108 152 202 270 328 402 493
#     4  11  27  44  76 112 159 199 265 337 398 491
#     4  10  24  47  78 112 152 206 268 332 403 495
#     4  12  29  50  75 124 158 209 274 342 405 489
#     4  11  25  46  74 114 152 209 257 331 412 472
#
# _framework density 25.965589000000001
#
# number of rings (size 3 to 8) (size 9 to 14) (size 15 to 20)
#    0.000    1.500    0.000    1.500   12.250    5.000 
#   18.000    0.000    0.000    0.000    0.000    0.000 
#    0.000    0.000    0.000    0.000    0.000    0.000 
#
# Total GULP energy -89095.376565 kJ/mol
# GULP energy per Si atom -5568.461035 kJ/mol
# Density = 2.590649 g / cm^3
# Si number density = 25.965589 Si / 1000 Ang^3
#
#
#
# Elastic Constant Matrix: (Units=GPa)
#
#
# Indices 1 2 3 4 5 6 
#
# 1 199.2671 85.8949 68.4123 0.0000 -17.8032 0.0000
# 2 85.8949 103.8304 63.5736 0.0000 -6.0650 0.0000
# 3 68.4123 63.5736 107.4490 0.0000 -24.9282 0.0000
# 4 0.0000 0.0000 0.0000 23.8035 0.0000 -9.8083
# 5 -17.8032 -6.0650 -24.9282 0.0000 48.0684 0.0000
# 6 0.0000 0.0000 0.0000 -9.8083 0.0000 48.8420
#
#
#
# Elastic Compliance Matrix: (Units=1/GPa)
#
#
# Indices 1 2 3 4 5 6 
#
# 1 0.008127 -0.005779 -0.001394 0.000000 0.001558 0.000000
# 2 -0.005779 0.019629 -0.008931 0.000000 -0.004295 0.000000
# 3 -0.001394 -0.008931 0.017162 0.000000 0.007257 0.000000
# 4 0.000000 0.000000 0.000000 0.045800 0.000000 0.009197
# 5 0.001558 -0.004295 0.007257 0.000000 0.024602 0.000000
# 6 0.000000 0.000000 0.000000 0.009197 0.000000 0.022321
#
#
# Mechanical properties :
#
#
# Convention : Reuss Voigt Hill
#
# Bulk Modulus (GPa) = 78.67299 94.03421 86.35360
# Shear Modulus (GPa) = 28.72142 36.98718 32.85430
#
# Velocity S-wave (km/s) = 3.32947 3.77831 3.56097
# Velocity P-wave (km/s) = 6.71902 7.43826 7.08777
#
# Compressibility (1/GPa) = 0.01271084
#
# Stress axis : x y z
#
# Youngs Moduli (GPa) = 123.04493 50.94514 58.26827
#
# Poissons Ratio (x) = 0.29440 0.08122
# Poissons Ratio (y) = 0.71104 0.52039
# Poissons Ratio (z) = 0.17152 0.45499
#
# Static dielectric constant tensor:
#      x y z
#    x 2.069710 0.000000 0.094100 
#    y 0.000000 2.184580 0.000000 
#    z 0.094100 0.000000 2.151870 
# 
# From -- ./inp_files/2960.got.cif
#   From: 2010.05.17/outbox.cif.g08.bks.cpg/sg4_2_cif.got.tgz:2960.got - 2010.06.03 18:43:04.
