data_PCOD9118963
_publ_section_title
;
Structure prediction by ZEFSAII (Michael W. Deem and Ramdas Pophale) SiO2 
 PCOD9118963
Probable space group: P 21
;
_chemical_formula_sum "Si O2"
_cell_formula_units_Z 14
_cell_length_a 10.857036
_cell_length_b 8.935891
_cell_length_c 11.356860
_cell_angle_alpha 90.000000
_cell_angle_beta 143.962815
_cell_angle_gamma 90.000000
_cell_volume 648.207090
_symmetry_space_group_name_H-M "P 21"
_symmetry_group_IT_number 4
_symmetry_cell_setting 'monoclinic'
loop_
_space_group_symop_operation_xyz
x,y,z
-x,1/2+y,-z
loop_
_atom_site_type_symbol
_atom_site_label
_atom_site_fract_x
_atom_site_fract_y
_atom_site_fract_z
Si Si1 0.448791 0.295430 0.952376
Si Si2 0.939513 0.347377 0.088520
Si Si3 0.941387 0.883326 0.080461
Si Si4 0.771027 0.103188 0.306974
Si Si5 0.855860 0.617419 0.599488
Si Si6 0.398210 0.609871 0.151329
Si Si7 0.940380 0.617177 0.244107
O O1 0.370620 0.457550 0.842120
O O2 0.553708 0.196532 0.931262
O O3 0.238080 0.209113 0.826176
O O4 0.630449 0.256392 0.190258
O O5 0.035629 0.400747 0.040719
O O6 0.111839 0.269267 0.303680
O O7 0.851256 0.470915 0.110009
O O8 0.769330 0.222478 0.920912
O O9 0.715193 0.949877 0.944751
O O10 0.991991 0.721907 0.172202
O O11 0.095582 0.990568 0.269092
O O12 0.969744 0.110977 0.369847
O O13 0.875407 0.087308 0.518064
O O14 0.621675 0.597794 0.380088
#
# Coordination Sequence:
#
# PCOD9118963 Si02
#       7
#     2   2   2   2   2   2   2
#     4  12  23  43  70 106 143 177 233 291 363 416
#     4  11  25  46  71 100 144 189 236 288 342 422
#     4  11  25  47  69 101 144 188 237 290 341 420
#     4  12  26  43  71 105 144 183 228 299 355 424
#     4  11  23  47  70  97 145 185 233 290 357 409
#     4  11  23  46  72 100 139 190 226 292 359 408
#     4  12  25  42  73 107 139 182 237 288 357 421
#
# _framework density 21.598036
#
# number of rings (size 3 to 8) (size 9 to 14) (size 15 to 20)
#    0.000    0.571    5.714    3.429    0.000    3.429 
#    0.000    4.286    0.000    0.000    0.000    0.000 
#    0.000    0.000    0.000    0.000    0.000    0.000 
#
# Total GULP energy -78080.375317 kJ/mol
# GULP energy per Si atom -5577.169665 kJ/mol
# Density = 2.154888 g / cm^3
# Si number density = 21.598036 Si / 1000 Ang^3
#
#
#
# Elastic Constant Matrix: (Units=GPa)
#
#
# Indices 1 2 3 4 5 6 
#
# 1 78.3341 30.6845 47.4212 0.0000 -16.6166 0.0000
# 2 30.6845 93.9225 64.7217 0.0000 -7.3990 0.0000
# 3 47.4212 64.7217 150.7688 0.0000 3.5472 0.0000
# 4 0.0000 0.0000 0.0000 24.3821 0.0000 -5.2942
# 5 -16.6166 -7.3990 3.5472 0.0000 16.9587 0.0000
# 6 0.0000 0.0000 0.0000 -5.2942 0.0000 26.4928
#
#
#
# Elastic Compliance Matrix: (Units=1/GPa)
#
#
# Indices 1 2 3 4 5 6 
#
# 1 0.022336 -0.000346 -0.007424 0.000000 0.023287 0.000000
# 2 -0.000346 0.016286 -0.007076 0.000000 0.008246 0.000000
# 3 -0.007424 -0.007076 0.012310 0.000000 -0.012937 0.000000
# 4 0.000000 0.000000 0.000000 0.042874 0.000000 0.008568
# 5 0.023287 0.008246 -0.012937 0.000000 0.088088 0.000000
# 6 0.000000 0.000000 0.000000 0.008568 0.000000 0.039458
#
#
# Mechanical properties :
#
#
# Convention : Reuss Voigt Hill
#
# Bulk Modulus (GPa) = 47.08650 67.63113 57.35881
# Shear Modulus (GPa) = 19.37040 25.57993 22.47516
#
# Velocity S-wave (km/s) = 2.99801 3.44519 3.22935
# Velocity P-wave (km/s) = 5.81659 6.87076 6.36553
#
# Compressibility (1/GPa) = 0.02123751
#
# Stress axis : x y z
#
# Youngs Moduli (GPa) = 44.77108 61.40185 81.23514
#
# Poissons Ratio (x) = 0.02127 0.60312
# Poissons Ratio (y) = 0.01551 0.57485
# Poissons Ratio (z) = 0.33240 0.43450
#
# Static dielectric constant tensor:
#      x y z
#    x 1.831900 0.000000 -0.003290 
#    y 0.000000 1.963700 0.000000 
#    z -0.003290 0.000000 1.810770 
# 
# From -- ./inp_files/12067.got.cif
#   From: 2010.05.17/outbox.cif.g08.bks.cpg/sg4_7_cif.got.tgz:12067.got - 2010.06.03 18:43:04.
