data_PCOD9118449
_publ_section_title
;
Structure prediction by ZEFSAII (Michael W. Deem and Ramdas Pophale) SiO2 
 PCOD9118449
Probable space group: P 21
;
_chemical_formula_sum "Si O2"
_cell_formula_units_Z 14
_cell_length_a 14.399419
_cell_length_b 9.049853
_cell_length_c 9.067399
_cell_angle_alpha 90.000000
_cell_angle_beta 29.623214
_cell_angle_gamma 90.000000
_cell_volume 584.056225
_symmetry_space_group_name_H-M "P 21"
_symmetry_group_IT_number 4
_symmetry_cell_setting 'monoclinic'
loop_
_space_group_symop_operation_xyz
x,y,z
-x,1/2+y,-z
loop_
_atom_site_type_symbol
_atom_site_label
_atom_site_fract_x
_atom_site_fract_y
_atom_site_fract_z
Si Si1 0.165601 0.810410 0.356873
Si Si2 0.709715 0.886335 0.370845
Si Si3 0.188082 0.462248 0.289443
Si Si4 0.861981 0.413336 0.292061
Si Si5 0.561171 0.566507 0.112736
Si Si6 0.516005 0.859329 0.329967
Si Si7 0.735055 0.706156 0.591047
O O1 0.148981 0.636330 0.351011
O O2 0.212583 0.823431 0.464234
O O3 0.964755 0.886329 0.605731
O O4 0.306652 0.920137 0.071810
O O5 0.597434 0.902412 0.375078
O O6 0.643017 0.750781 0.563907
O O7 0.650055 0.021880 0.556878
O O8 0.930045 0.870252 0.042448
O O9 0.185125 0.352525 0.436411
O O10 0.389405 0.449226 0.933768
O O11 0.706366 0.386338 0.380921
O O12 0.875424 0.578577 0.343366
O O13 0.594200 0.694087 0.187029
O O14 0.598031 0.636333 0.901978
#
# Coordination Sequence:
#
# PCOD9118449 Si02
#       7
#     2   2   2   2   2   2   2
#     4  11  24  46  83 114 155 211 266 320 386 471
#     4  12  28  48  80 110 160 200 256 328 402 454
#     4  11  24  46  83 114 155 211 266 320 386 471
#     4  11  27  48  77 113 159 201 266 325 396 462
#     4  10  27  47  75 114 152 206 268 310 388 478
#     4  11  27  48  77 113 159 201 266 325 396 462
#     4  10  27  47  75 114 152 206 268 310 388 478
#
# _framework density 23.970293999999999
#
# number of rings (size 3 to 8) (size 9 to 14) (size 15 to 20)
#    0.000    1.143    1.429    2.571   16.000    1.143 
#    0.000    0.000    0.000    0.000    0.000    0.000 
#    0.000    0.000    0.000    0.000    0.000    0.000 
#
# Total GULP energy -78167.918704 kJ/mol
# GULP energy per Si atom -5583.422765 kJ/mol
# Density = 2.391574 g / cm^3
# Si number density = 23.970294 Si / 1000 Ang^3
#
#
#
# Elastic Constant Matrix: (Units=GPa)
#
#
# Indices 1 2 3 4 5 6 
#
# 1 114.3912 30.2136 36.9370 0.0000 -20.3396 0.0000
# 2 30.2136 174.7345 31.9650 0.0000 1.7670 0.0000
# 3 36.9370 31.9650 77.0273 0.0000 -17.6322 0.0000
# 4 0.0000 0.0000 0.0000 27.4743 0.0000 -7.8765
# 5 -20.3396 1.7670 -17.6322 0.0000 31.4660 0.0000
# 6 0.0000 0.0000 0.0000 -7.8765 0.0000 35.2158
#
#
#
# Elastic Compliance Matrix: (Units=1/GPa)
#
#
# Indices 1 2 3 4 5 6 
#
# 1 0.011199 -0.001330 -0.003607 0.000000 0.005293 0.000000
# 2 -0.001330 0.006469 -0.002669 0.000000 -0.002719 0.000000
# 3 -0.003607 -0.002669 0.017574 0.000000 0.007666 0.000000
# 4 0.000000 0.000000 0.000000 0.038891 0.000000 0.008699
# 5 0.005293 -0.002719 0.007666 0.000000 0.039650 0.000000
# 6 0.000000 0.000000 0.000000 0.008699 0.000000 0.030342
#
#
# Mechanical properties :
#
#
# Convention : Reuss Voigt Hill
#
# Bulk Modulus (GPa) = 49.92372 62.70934 56.31653
# Shear Modulus (GPa) = 30.11800 36.63371 33.37586
#
# Velocity S-wave (km/s) = 3.54852 3.91358 3.73551
# Velocity P-wave (km/s) = 6.13693 6.82932 6.49236
#
# Compressibility (1/GPa) = 0.02003056
#
# Stress axis : x y z
#
# Youngs Moduli (GPa) = 89.29418 154.59106 56.90104
#
# Poissons Ratio (x) = 0.20563 0.20523
# Poissons Ratio (y) = 0.11877 0.15186
# Poissons Ratio (z) = 0.32206 0.41258
#
# Static dielectric constant tensor:
#      x y z
#    x 1.927550 0.000000 -0.030310 
#    y 0.000000 2.056900 0.000000 
#    z -0.030310 0.000000 1.897710 
# 
# From -- ./inp_files/9113.got.cif
#   From: 2010.05.17/outbox.cif.g08.bks.cpg/sg4_5_cif.got.tgz:9113.got - 2010.06.03 18:43:04.
