data_PCOD9118719
_publ_section_title
;
Structure prediction by ZEFSAII (Michael W. Deem and Ramdas Pophale) SiO2 
 PCOD9118719
Probable space group: P 21
;
_chemical_formula_sum "Si O2"
_cell_formula_units_Z 14
_cell_length_a 17.271405
_cell_length_b 5.184006
_cell_length_c 17.100281
_cell_angle_alpha 90.000000
_cell_angle_beta 22.320626
_cell_angle_gamma 90.000000
_cell_volume 581.485680
_symmetry_space_group_name_H-M "P 21"
_symmetry_group_IT_number 4
_symmetry_cell_setting 'monoclinic'
loop_
_space_group_symop_operation_xyz
x,y,z
-x,1/2+y,-z
loop_
_atom_site_type_symbol
_atom_site_label
_atom_site_fract_x
_atom_site_fract_y
_atom_site_fract_z
Si Si1 0.708474 0.381270 0.452180
Si Si2 0.863330 0.083608 0.880084
Si Si3 0.322420 0.234797 0.052251
Si Si4 0.435089 0.891415 0.732982
Si Si5 0.951173 0.332132 0.632043
Si Si6 0.141677 0.897754 0.861253
Si Si7 0.333109 0.497014 0.200555
O O1 0.568021 0.631705 0.597278
O O2 0.742737 0.340104 0.327613
O O3 0.936577 0.456230 0.269175
O O4 0.596613 0.127345 0.592176
O O5 0.924576 0.171717 0.735753
O O6 0.699045 0.866132 0.010161
O O7 0.744258 0.306915 0.037955
O O8 0.405161 0.399466 0.048550
O O9 0.111644 0.114898 0.279363
O O10 0.490250 0.014782 0.900907
O O11 0.305424 0.950390 0.775964
O O12 0.805307 0.236051 0.698942
O O13 0.173360 0.310696 0.390639
O O14 0.003225 0.648807 0.011737
#
# Coordination Sequence:
#
# PCOD9118719 Si02
#       7
#     2   2   2   2   2   2   2
#     4  12  28  51  81 117 163 214 268 326 404 487
#     4  11  30  50  70 116 156 210 260 340 402 480
#     4  11  24  43  73 103 147 193 258 322 402 468
#     4  12  28  51  81 117 163 214 268 326 404 487
#     4  11  24  43  73 103 147 193 258 322 402 468
#     4  12  24  48  88 118 160 210 266 334 390 474
#     4  11  22  44  70 104 136 192 252 320 384 482
#
# _framework density 24.076260999999999
#
# number of rings (size 3 to 8) (size 9 to 14) (size 15 to 20)
#    0.000    0.571    4.286    2.571    4.000    2.286 
#    0.000    0.000    0.000    0.000    0.000    0.000 
#    0.000    0.000    0.000    0.000    0.000    0.000 
#
# Total GULP energy -78222.132946 kJ/mol
# GULP energy per Si atom -5587.295210 kJ/mol
# Density = 2.402146 g / cm^3
# Si number density = 24.076261 Si / 1000 Ang^3
#
#
#
# Elastic Constant Matrix: (Units=GPa)
#
#
# Indices 1 2 3 4 5 6 
#
# 1 107.4861 15.0260 46.6032 0.0000 -7.3186 0.0000
# 2 15.0260 112.6194 44.5066 0.0000 2.1311 0.0000
# 3 46.6032 44.5066 128.4118 0.0000 0.8302 0.0000
# 4 0.0000 0.0000 0.0000 45.3146 0.0000 -0.1996
# 5 -7.3186 2.1311 0.8302 0.0000 42.0073 0.0000
# 6 0.0000 0.0000 0.0000 -0.1996 0.0000 29.9896
#
#
#
# Elastic Compliance Matrix: (Units=1/GPa)
#
#
# Indices 1 2 3 4 5 6 
#
# 1 0.011213 0.000091 -0.004114 0.000000 0.002030 0.000000
# 2 0.000091 0.010298 -0.003600 0.000000 -0.000435 0.000000
# 3 -0.004114 -0.003600 0.010533 0.000000 -0.000742 0.000000
# 4 0.000000 0.000000 0.000000 0.022069 0.000000 0.000147
# 5 0.002030 -0.000435 -0.000742 0.000000 0.024196 0.000000
# 6 0.000000 0.000000 0.000000 0.000147 0.000000 0.033346
#
#
# Mechanical properties :
#
#
# Convention : Reuss Voigt Hill
#
# Bulk Modulus (GPa) = 59.52688 62.30988 60.91838
# Shear Modulus (GPa) = 37.73629 39.62105 38.67867
#
# Velocity S-wave (km/s) = 3.96329 4.06106 4.01247
# Velocity P-wave (km/s) = 6.76177 6.92286 6.84279
#
# Compressibility (1/GPa) = 0.01679913
#
# Stress axis : x y z
#
# Youngs Moduli (GPa) = 89.18401 97.10583 94.94018
#
# Poissons Ratio (x) = -0.00888 0.39060
# Poissons Ratio (y) = -0.00815 0.34175
# Poissons Ratio (z) = 0.36692 0.34954
#
# Static dielectric constant tensor:
#      x y z
#    x 2.031030 0.000000 -0.172760 
#    y 0.000000 2.110600 0.000000 
#    z -0.172760 0.000000 2.142850 
# 
# From -- ./inp_files/3891.got.cif
#   From: 2010.05.17/outbox.cif.g08.bks.cpg/sg4_2_cif.got.tgz:3891.got - 2010.06.03 18:43:04.
