data_PCOD9118805
_publ_section_title
;
Structure prediction by ZEFSAII (Michael W. Deem and Ramdas Pophale) SiO2 
 PCOD9118805
Probable space group: P 21
;
_chemical_formula_sum "Si O2"
_cell_formula_units_Z 14
_cell_length_a 16.143759
_cell_length_b 7.326872
_cell_length_c 11.269379
_cell_angle_alpha 90.000000
_cell_angle_beta 156.700047
_cell_angle_gamma 90.000000
_cell_volume 527.252780
_symmetry_space_group_name_H-M "P 21"
_symmetry_group_IT_number 4
_symmetry_cell_setting 'monoclinic'
loop_
_space_group_symop_operation_xyz
x,y,z
-x,1/2+y,-z
loop_
_atom_site_type_symbol
_atom_site_label
_atom_site_fract_x
_atom_site_fract_y
_atom_site_fract_z
Si Si1 0.049070 0.492690 0.666477
Si Si2 0.795854 0.626362 0.850077
Si Si3 0.444098 0.357619 0.312047
Si Si4 0.253507 0.594264 0.398758
Si Si5 0.358708 0.877092 0.739480
Si Si6 0.864898 0.395830 0.182741
Si Si7 0.562226 0.778098 0.243335
O O1 0.041273 0.694701 0.712170
O O2 0.863410 0.385425 0.485879
O O3 0.997680 0.498612 0.459179
O O4 0.271521 0.398431 0.984457
O O5 0.610860 0.517380 0.543419
O O6 0.703146 0.820342 0.768391
O O7 0.842227 0.513496 0.034092
O O8 0.011483 0.640650 0.063297
O O9 0.586932 0.175974 0.487489
O O10 0.264519 0.386975 0.456159
O O11 0.340689 0.711140 0.625647
O O12 0.397774 0.065788 0.723082
O O13 0.530426 0.849981 0.067248
O O14 0.644235 0.341017 0.954795
#
# Coordination Sequence:
#
# PCOD9118805 Si02
#       7
#     2   2   2   2   2   2   2
#     4  11  24  43  73 108 146 191 239 295 360 429
#     4  12  27  50  75 103 143 192 241 298 366 431
#     4  12  27  50  75 103 143 192 241 298 366 431
#     4  12  26  48  74 106 146 192 246 296 360 438
#     4  11  23  40  71 112 153 190 237 300 363 427
#     4  11  24  43  73 108 146 191 239 295 360 429
#     4  11  23  40  71 112 153 190 237 300 363 427
#
# _framework density 26.552728999999999
#
# number of rings (size 3 to 8) (size 9 to 14) (size 15 to 20)
#    0.000    0.571    4.286    3.429    4.000    3.429 
#    7.714    0.000    0.000    0.000    0.000    0.000 
#    0.000    0.000    0.000    0.000    0.000    0.000 
#
# Total GULP energy -78537.049688 kJ/mol
# GULP energy per Si atom -5609.789263 kJ/mol
# Density = 2.649229 g / cm^3
# Si number density = 26.552729 Si / 1000 Ang^3
#
#
#
# Elastic Constant Matrix: (Units=GPa)
#
#
# Indices 1 2 3 4 5 6 
#
# 1 69.6433 11.6121 44.8905 0.0000 2.4992 0.0000
# 2 11.6121 88.7865 25.0883 0.0000 -8.7608 0.0000
# 3 44.8905 25.0883 163.4679 0.0000 2.3203 0.0000
# 4 0.0000 0.0000 0.0000 50.5170 0.0000 -2.8568
# 5 2.4992 -8.7608 2.3203 0.0000 46.6617 0.0000
# 6 0.0000 0.0000 0.0000 -2.8568 0.0000 40.1546
#
#
#
# Elastic Compliance Matrix: (Units=1/GPa)
#
#
# Indices 1 2 3 4 5 6 
#
# 1 0.017565 -0.001074 -0.004646 0.000000 -0.000912 0.000000
# 2 -0.001074 0.012092 -0.001595 0.000000 0.002407 0.000000
# 3 -0.004646 -0.001595 0.007644 0.000000 -0.000431 0.000000
# 4 0.000000 0.000000 0.000000 0.019875 0.000000 0.001414
# 5 -0.000912 0.002407 -0.000431 0.000000 0.021953 0.000000
# 6 0.000000 0.000000 0.000000 0.001414 0.000000 0.025004
#
#
# Mechanical properties :
#
#
# Convention : Reuss Voigt Hill
#
# Bulk Modulus (GPa) = 44.10973 53.89773 49.00373
# Shear Modulus (GPa) = 39.58167 43.48710 41.53439
#
# Velocity S-wave (km/s) = 3.86512 4.05132 3.95932
# Velocity P-wave (km/s) = 6.04707 6.49821 6.27669
#
# Compressibility (1/GPa) = 0.02267073
#
# Stress axis : x y z
#
# Youngs Moduli (GPa) = 56.93028 82.70154 130.81976
#
# Poissons Ratio (x) = 0.08886 0.60777
# Poissons Ratio (y) = 0.06117 0.20864
# Poissons Ratio (z) = 0.26449 0.13190
#
# Static dielectric constant tensor:
#      x y z
#    x 2.109480 0.000000 0.015470 
#    y 0.000000 2.073730 0.000000 
#    z 0.015470 0.000000 2.049370 
# 
# From -- ./inp_files/12865.got.cif
#   From: 2010.05.17/outbox.cif.g08.bks.cpg/sg4_7_cif.got.tgz:12865.got - 2010.06.03 18:43:04.
