data_PCOD9118262
_publ_section_title
;
Structure prediction by ZEFSAII (Michael W. Deem and Ramdas Pophale) SiO2 
 PCOD9118262
Probable space group: P 21
;
_chemical_formula_sum "Si O2"
_cell_formula_units_Z 16
_cell_length_a 13.677170
_cell_length_b 11.280722
_cell_length_c 5.144761
_cell_angle_alpha 90.000000
_cell_angle_beta 124.652305
_cell_angle_gamma 90.000000
_cell_volume 652.974718
_symmetry_space_group_name_H-M "P 21"
_symmetry_group_IT_number 4
_symmetry_cell_setting 'monoclinic'
loop_
_space_group_symop_operation_xyz
x,y,z
-x,1/2+y,-z
loop_
_atom_site_type_symbol
_atom_site_label
_atom_site_fract_x
_atom_site_fract_y
_atom_site_fract_z
Si Si1 0.268860 0.848000 0.429720
Si Si2 0.952742 0.524564 0.941050
Si Si3 0.572848 0.724096 0.508190
Si Si4 0.923121 0.712554 0.281509
Si Si5 0.794978 0.206135 0.176644
Si Si6 0.110006 0.473891 0.684859
Si Si7 0.458661 0.973796 0.383077
Si Si8 0.303534 0.138028 0.821637
O O1 0.273623 0.775966 0.703080
O O2 0.383846 0.917811 0.506962
O O3 0.365294 0.017635 0.020180
O O4 0.160510 0.941555 0.273131
O O5 0.920173 0.655535 0.992059
O O6 0.025997 0.477966 0.304700
O O7 0.040723 0.519625 0.834143
O O8 0.528820 0.857819 0.389854
O O9 0.491365 0.603680 0.442883
O O10 0.656006 0.679871 0.398630
O O11 0.641087 0.728651 0.884496
O O12 0.865660 0.839973 0.215420
O O13 0.836501 0.632712 0.329034
O O14 0.062454 0.726077 0.560890
O O15 0.783341 0.065136 0.193426
O O16 0.761251 0.255615 0.846433
#
# Coordination Sequence:
#
# PCOD9118262 Si02
#       8
#     2   2   2   2   2   2   2   2
#     4  12  22  43  65 100 133 182 229 269 341 414
#     4  11  21  38  62  92 127 184 226 269 316 394
#     4  10  25  47  72 108 135 177 233 300 364 410
#     4  11  22  43  67  95 144 182 231 274 332 415
#     4  11  25  39  62 100 142 183 223 277 327 402
#     4  11  24  38  58  92 142 183 221 271 329 378
#     4  10  26  47  79 101 138 178 235 297 361 422
#     4  10  25  41  73 106 131 181 228 283 354 425
#
# _framework density 24.503246000000001
#
# number of rings (size 3 to 8) (size 9 to 14) (size 15 to 20)
#    0.750    0.500    3.750    1.500    3.500    6.000 
#    4.500    0.000    0.000    0.000    0.000    0.000 
#    0.000    0.000    0.000    0.000    0.000    0.000 
#
# Total GULP energy -89393.688296 kJ/mol
# GULP energy per Si atom -5587.105518 kJ/mol
# Density = 2.444748 g / cm^3
# Si number density = 24.503246 Si / 1000 Ang^3
#
#
#
# Elastic Constant Matrix: (Units=GPa)
#
#
# Indices 1 2 3 4 5 6 
#
# 1 72.4557 -1.9187 14.4899 0.0000 -20.0031 0.0000
# 2 -1.9187 133.7733 19.6670 0.0000 4.1164 0.0000
# 3 14.4899 19.6670 36.3636 0.0000 -15.3603 0.0000
# 4 0.0000 0.0000 0.0000 14.5284 0.0000 7.4151
# 5 -20.0031 4.1164 -15.3603 0.0000 32.9259 0.0000
# 6 0.0000 0.0000 0.0000 7.4151 0.0000 42.9124
#
#
#
# Elastic Compliance Matrix: (Units=1/GPa)
#
#
# Indices 1 2 3 4 5 6 
#
# 1 0.016863 0.000465 -0.003322 0.000000 0.008636 0.000000
# 2 0.000465 0.008538 -0.006395 0.000000 -0.003768 0.000000
# 3 -0.003322 -0.006395 0.039564 0.000000 0.017238 0.000000
# 4 0.000000 0.000000 0.000000 0.075488 0.000000 -0.013044
# 5 0.008636 -0.003768 0.017238 0.000000 0.044131 0.000000
# 6 0.000000 0.000000 0.000000 -0.013044 0.000000 0.025557
#
#
# Mechanical properties :
#
#
# Convention : Reuss Voigt Hill
#
# Bulk Modulus (GPa) = 21.52417 34.11876 27.82146
# Shear Modulus (GPa) = 20.48067 32.09697 26.28882
#
# Velocity S-wave (km/s) = 2.89422 3.62319 3.27902
# Velocity P-wave (km/s) = 4.46900 5.60872 5.07098
#
# Compressibility (1/GPa) = 0.04645940
#
# Stress axis : x y z
#
# Youngs Moduli (GPa) = 59.30314 117.12225 25.27550
#
# Poissons Ratio (x) = -0.05441 0.08398
# Poissons Ratio (y) = -0.02755 0.16163
# Poissons Ratio (z) = 0.19703 0.74896
#
# Static dielectric constant tensor:
#      x y z
#    x 1.914660 0.000000 0.044270 
#    y 0.000000 2.053260 0.000000 
#    z 0.044270 0.000000 1.984890 
# 
# From -- ./inp_files/3812.got.cif
#   From: 2010.05.17/outbox.cif.g08.bks.cpg/sg4_2_cif.got.tgz:3812.got - 2010.06.03 18:43:04.
