data_PCOD9118505
_publ_section_title
;
Structure prediction by ZEFSAII (Michael W. Deem and Ramdas Pophale) SiO2 
 PCOD9118505
Probable space group: P 21
;
_chemical_formula_sum "Si O2"
_cell_formula_units_Z 16
_cell_length_a 21.333378
_cell_length_b 6.064210
_cell_length_c 14.373230
_cell_angle_alpha 90.000000
_cell_angle_beta 20.907910
_cell_angle_gamma 90.000000
_cell_volume 663.581985
_symmetry_space_group_name_H-M "P 21"
_symmetry_group_IT_number 4
_symmetry_cell_setting 'monoclinic'
loop_
_space_group_symop_operation_xyz
x,y,z
-x,1/2+y,-z
loop_
_atom_site_type_symbol
_atom_site_label
_atom_site_fract_x
_atom_site_fract_y
_atom_site_fract_z
Si Si1 0.694061 0.465840 0.010068
Si Si2 0.381746 0.290562 0.036849
Si Si3 0.854136 0.516813 0.191633
Si Si4 0.274613 0.618320 0.892892
Si Si5 0.005477 0.304468 0.160449
Si Si6 0.699044 0.033053 0.677434
Si Si7 0.597126 0.689940 0.673220
Si Si8 0.437698 0.764398 0.475654
O O1 0.732907 0.668013 0.884196
O O2 0.801368 0.297027 0.927765
O O3 0.583547 0.312203 0.095059
O O4 0.555435 0.568525 0.274894
O O5 0.275937 0.449420 0.252530
O O6 0.501540 0.129251 0.935428
O O7 0.534850 0.442525 0.779865
O O8 0.720928 0.703704 0.411858
O O9 0.738246 0.298691 0.338884
O O10 0.964939 0.467319 0.129991
O O11 0.924020 0.592961 0.995454
O O12 0.367321 0.735498 0.676903
O O13 0.435365 0.475420 0.711202
O O14 0.137244 0.437088 0.044631
O O15 0.841632 0.210688 0.446051
O O16 0.701175 0.816223 0.609447
#
# Coordination Sequence:
#
# PCOD9118505 Si02
#       8
#     2   2   2   2   2   2   2   2
#     4  11  22  39  67 105 139 186 254 304 347 426
#     4  11  21  40  71 102 143 187 257 311 361 434
#     4  12  22  43  64 104 155 194 227 291 374 453
#     4  12  24  40  65 105 152 197 243 300 361 458
#     4  12  26  40  65 112 160 195 235 304 392 442
#     4  11  23  41  66 109 146 188 243 317 378 432
#     4  11  20  39  69 102 138 184 243 303 354 437
#     4  12  22  42  67  99 143 197 252 284 355 452
#
# _framework density 24.111563
#
# number of rings (size 3 to 8) (size 9 to 14) (size 15 to 20)
#    0.000    0.500    6.250    3.750    0.000    0.000 
#    0.000    0.000    0.000    0.000    6.500    0.000 
#    0.000    0.000    0.000    0.000    0.000    0.000 
#
# Total GULP energy -89270.213834 kJ/mol
# GULP energy per Si atom -5579.388365 kJ/mol
# Density = 2.405668 g / cm^3
# Si number density = 24.111563 Si / 1000 Ang^3
#
#
#
# Elastic Constant Matrix: (Units=GPa)
#
#
# Indices 1 2 3 4 5 6 
#
# 1 127.9184 42.8974 41.9108 0.0000 10.1143 0.0000
# 2 42.8974 81.7190 23.6760 0.0000 4.2547 0.0000
# 3 41.9108 23.6760 57.3004 0.0000 8.4092 0.0000
# 4 0.0000 0.0000 0.0000 25.2597 0.0000 4.8836
# 5 10.1143 4.2547 8.4092 0.0000 26.7916 0.0000
# 6 0.0000 0.0000 0.0000 4.8836 0.0000 66.1789
#
#
#
# Elastic Compliance Matrix: (Units=1/GPa)
#
#
# Indices 1 2 3 4 5 6 
#
# 1 0.011411 -0.004040 -0.006435 0.000000 -0.001646 0.000000
# 2 -0.004040 0.015336 -0.003405 0.000000 0.000158 0.000000
# 3 -0.006435 -0.003405 0.024247 0.000000 -0.004640 0.000000
# 4 0.000000 0.000000 0.000000 0.040162 0.000000 -0.002964
# 5 -0.001646 0.000158 -0.004640 0.000000 0.039378 0.000000
# 6 0.000000 0.000000 0.000000 -0.002964 0.000000 0.015329
#
#
# Mechanical properties :
#
#
# Convention : Reuss Voigt Hill
#
# Bulk Modulus (GPa) = 43.04205 53.76736 48.40471
# Shear Modulus (GPa) = 27.56832 34.20960 30.88896
#
# Velocity S-wave (km/s) = 3.38504 3.77079 3.58311
# Velocity P-wave (km/s) = 5.75916 6.42700 6.10222
#
# Compressibility (1/GPa) = 0.02323309
#
# Stress axis : x y z
#
# Youngs Moduli (GPa) = 87.63582 65.20603 41.24257
#
# Poissons Ratio (x) = 0.26342 0.26541
# Poissons Ratio (y) = 0.35403 0.14044
# Poissons Ratio (z) = 0.56397 0.22204
#
# Static dielectric constant tensor:
#      x y z
#    x 1.956990 0.000000 0.001310 
#    y 0.000000 2.073370 0.000000 
#    z 0.001310 0.000000 1.923970 
# 
# From -- ./inp_files/14432.got.cif
#   From: 2010.05.17/outbox.cif.g08.bks.cpg/sg4_8_cif.got.tgz:14432.got - 2010.06.03 18:43:04.
