data_PCOD9118455
_publ_section_title
;
Structure prediction by ZEFSAII (Michael W. Deem and Ramdas Pophale) SiO2 
 PCOD9118455
Probable space group: P 21
;
_chemical_formula_sum "Si O2"
_cell_formula_units_Z 14
_cell_length_a 6.812700
_cell_length_b 6.812696
_cell_length_c 19.587790
_cell_angle_alpha 90.000000
_cell_angle_beta 134.075752
_cell_angle_gamma 90.000000
_cell_volume 653.134435
_symmetry_space_group_name_H-M "P 21"
_symmetry_group_IT_number 4
_symmetry_cell_setting 'monoclinic'
loop_
_space_group_symop_operation_xyz
x,y,z
-x,1/2+y,-z
loop_
_atom_site_type_symbol
_atom_site_label
_atom_site_fract_x
_atom_site_fract_y
_atom_site_fract_z
Si Si1 0.360254 0.183390 0.903252
Si Si2 0.372784 0.300784 0.061391
Si Si3 0.673898 0.104535 0.403252
Si Si4 0.439110 0.497038 0.403252
Si Si5 0.752756 0.418178 0.903252
Si Si6 0.750000 0.300786 0.750000
Si Si7 0.872783 0.800787 0.561391
O O1 0.602336 0.300784 0.926168
O O2 0.073950 0.287096 0.817359
O O3 0.389864 0.961906 0.882859
O O4 0.387805 0.189994 0.991866
O O5 0.358427 0.139662 0.117140
O O6 0.079660 0.411573 0.991865
O O7 0.602335 0.300786 0.426168
O O8 0.398404 0.990020 0.317358
O O9 0.844521 0.954857 0.491865
O O10 0.854596 0.174933 0.382859
O O11 0.176841 0.426641 0.382860
O O12 0.371026 0.611553 0.317358
O O13 0.622942 0.646715 0.491866
O O14 0.695482 0.314475 0.817358
#
# Coordination Sequence:
#
# PCOD9118455 Si02
#       7
#     2   2   2   2   2   2   2
#     4  11  23  43  67 100 134 176 226 279 329 403
#     4  11  22  40  72  99 128 178 232 271 326 396
#     4  11  23  43  67 100 134 176 226 279 329 403
#     4  11  23  43  67 100 134 176 226 279 329 403
#     4  11  23  43  67 100 134 176 226 279 329 403
#     4  10  28  42  60 104 144 176 216 276 352 398
#     4  11  22  40  72  99 128 178 232 271 326 396
#
# _framework density 21.435099000000001
#
# number of rings (size 3 to 8) (size 9 to 14) (size 15 to 20)
#    0.000    1.143    5.714    0.000    0.000    5.714 
#    0.000    0.000    0.000    0.000    0.000    0.000 
#    0.000    0.000    0.000    0.000    0.000    0.000 
#
# Total GULP energy -78195.625745 kJ/mol
# GULP energy per Si atom -5585.401839 kJ/mol
# Density = 2.138631 g / cm^3
# Si number density = 21.435099 Si / 1000 Ang^3
#
#
#
# Elastic Constant Matrix: (Units=GPa)
#
#
# Indices 1 2 3 4 5 6 
#
# 1 130.4813 60.5180 33.4783 0.0000 4.7115 0.0000
# 2 60.5180 130.9781 33.2527 0.0000 1.4379 0.0000
# 3 33.4783 33.2527 59.9749 0.0000 -0.9932 0.0000
# 4 0.0000 0.0000 0.0000 3.9810 0.0000 2.6282
# 5 4.7115 1.4379 -0.9932 0.0000 4.1439 0.0000
# 6 0.0000 0.0000 0.0000 2.6282 0.0000 53.7910
#
#
#
# Elastic Compliance Matrix: (Units=1/GPa)
#
#
# Indices 1 2 3 4 5 6 
#
# 1 0.010971 -0.003876 -0.004176 0.000000 -0.012130 0.000000
# 2 -0.003876 0.010331 -0.003565 0.000000 -0.000033 0.000000
# 3 -0.004176 -0.003565 0.021164 0.000000 0.011058 0.000000
# 4 0.000000 0.000000 0.000000 0.259564 0.000000 -0.012682
# 5 -0.012130 -0.000033 0.011058 0.000000 0.257770 0.000000
# 6 0.000000 0.000000 0.000000 -0.012682 0.000000 0.019210
#
#
# Mechanical properties :
#
#
# Convention : Reuss Voigt Hill
#
# Bulk Modulus (GPa) = 51.99449 63.99247 57.99348
# Shear Modulus (GPa) = 8.21483 25.32887 16.77185
#
# Velocity S-wave (km/s) = 1.95978 3.44125 2.80026
# Velocity P-wave (km/s) = 5.42498 6.76080 6.12939
#
# Compressibility (1/GPa) = 0.01923281
#
# Stress axis : x y z
#
# Youngs Moduli (GPa) = 91.14969 96.79510 47.24899
#
# Poissons Ratio (x) = 0.37515 0.19731
# Poissons Ratio (y) = 0.35327 0.16845
# Poissons Ratio (z) = 0.38064 0.34509
#
# Static dielectric constant tensor:
#      x y z
#    x 1.779170 0.000000 0.000450 
#    y 0.000000 1.779190 0.000000 
#    z 0.000450 0.000000 1.770710 
# 
# From -- ./inp_files/3904.got.cif
#   From: 2010.05.17/outbox.cif.g08.bks.cpg/sg4_2_cif.got.tgz:3904.got - 2010.06.03 18:43:04.
