data_PCOD9118503
_publ_section_title
;
Structure prediction by ZEFSAII (Michael W. Deem and Ramdas Pophale) SiO2 
 PCOD9118503
Probable space group: P 21
;
_chemical_formula_sum "Si O2"
_cell_formula_units_Z 14
_cell_length_a 9.800443
_cell_length_b 6.003858
_cell_length_c 11.175136
_cell_angle_alpha 90.000000
_cell_angle_beta 65.713013
_cell_angle_gamma 90.000000
_cell_volume 599.354878
_symmetry_space_group_name_H-M "P 21"
_symmetry_group_IT_number 4
_symmetry_cell_setting 'monoclinic'
loop_
_space_group_symop_operation_xyz
x,y,z
-x,1/2+y,-z
loop_
_atom_site_type_symbol
_atom_site_label
_atom_site_fract_x
_atom_site_fract_y
_atom_site_fract_z
Si Si1 0.102055 0.108260 0.603626
Si Si2 0.879812 0.765149 0.778967
Si Si3 0.407410 0.534977 0.161027
Si Si4 0.191933 0.858641 0.353051
Si Si5 0.873751 0.500802 0.994150
Si Si6 0.195717 0.337912 0.799173
Si Si7 0.367333 0.656819 0.906551
O O1 0.179641 0.290057 0.662651
O O2 0.955821 0.200518 0.583101
O O3 0.210293 0.997092 0.467745
O O4 0.027830 0.905999 0.706047
O O5 0.871257 0.524140 0.724672
O O6 0.833647 0.718075 0.930919
O O7 0.744575 0.897800 0.771886
O O8 0.349155 0.756267 0.249866
O O9 0.533600 0.371782 0.166585
O O10 0.436965 0.570059 0.007684
O O11 0.045027 0.462003 0.898362
O O12 0.823700 0.589426 0.140021
O O13 0.787259 0.275447 0.995886
O O14 0.327975 0.480544 0.815545
#
# Coordination Sequence:
#
# PCOD9118503 Si02
#       7
#     2   2   2   2   2   2   2
#     4  11  23  39  65 106 145 185 234 294 359 413
#     4  11  20  39  66  99 144 181 230 291 347 423
#     4  11  25  41  64 102 143 190 239 283 350 428
#     4  11  22  40  67 103 145 186 239 292 344 423
#     4  12  21  39  63 103 149 177 221 289 367 426
#     4  12  24  37  64 108 151 183 226 290 365 427
#     4  12  25  41  65 101 151 188 229 289 360 430
#
# _framework density 23.358449
#
# number of rings (size 3 to 8) (size 9 to 14) (size 15 to 20)
#    0.000    0.571    7.143    2.571    0.000    0.000 
#    0.000    0.000    0.000    0.000    7.429    2.000 
#    0.000    0.000    0.000    0.000    0.000    0.000 
#
# Total GULP energy -78063.288509 kJ/mol
# GULP energy per Si atom -5575.949179 kJ/mol
# Density = 2.330528 g / cm^3
# Si number density = 23.358449 Si / 1000 Ang^3
#
#
#
# Elastic Constant Matrix: (Units=GPa)
#
#
# Indices 1 2 3 4 5 6 
#
# 1 95.8023 46.6754 49.1523 0.0000 8.1412 0.0000
# 2 46.6754 85.7413 36.8447 0.0000 7.0938 0.0000
# 3 49.1523 36.8447 90.3660 0.0000 14.7926 0.0000
# 4 0.0000 0.0000 0.0000 45.2623 0.0000 0.0373
# 5 8.1412 7.0938 14.7926 0.0000 24.9218 0.0000
# 6 0.0000 0.0000 0.0000 0.0373 0.0000 46.8733
#
#
#
# Elastic Compliance Matrix: (Units=1/GPa)
#
#
# Indices 1 2 3 4 5 6 
#
# 1 0.016940 -0.006384 -0.006649 0.000000 0.000230 0.000000
# 2 -0.006384 0.016556 -0.003155 0.000000 -0.000755 0.000000
# 3 -0.006649 -0.003155 0.017131 0.000000 -0.007098 0.000000
# 4 0.000000 0.000000 0.000000 0.022093 0.000000 -0.000018
# 5 0.000230 -0.000755 -0.007098 0.000000 0.044479 0.000000
# 6 0.000000 0.000000 0.000000 -0.000018 0.000000 0.021334
#
#
# Mechanical properties :
#
#
# Convention : Reuss Voigt Hill
#
# Bulk Modulus (GPa) = 54.78662 59.69492 57.24077
# Shear Modulus (GPa) = 28.24990 32.69395 30.47193
#
# Velocity S-wave (km/s) = 3.48143 3.74527 3.61575
# Velocity P-wave (km/s) = 6.29810 6.65689 6.47998
#
# Compressibility (1/GPa) = 0.01825263
#
# Stress axis : x y z
#
# Youngs Moduli (GPa) = 59.03172 60.40068 58.37419
#
# Poissons Ratio (x) = 0.38557 0.38813
# Poissons Ratio (y) = 0.37683 0.18415
# Poissons Ratio (z) = 0.39250 0.19054
#
# Static dielectric constant tensor:
#      x y z
#    x 1.936300 0.000000 0.062270 
#    y 0.000000 2.055680 0.000000 
#    z 0.062270 0.000000 1.933310 
# 
# From -- ./inp_files/10641.got.cif
#   From: 2010.05.17/outbox.cif.g08.bks.cpg/sg4_6_cif.got.tgz:10641.got - 2010.06.03 18:43:04.
