data_PCOD9118106
_publ_section_title
;
Structure prediction by ZEFSAII (Michael W. Deem and Ramdas Pophale) SiO2 
 PCOD9118106
Probable space group: P 21
;
_chemical_formula_sum "Si O2"
_cell_formula_units_Z 16
_cell_length_a 5.224089
_cell_length_b 9.204272
_cell_length_c 12.733560
_cell_angle_alpha 90.000000
_cell_angle_beta 91.383001
_cell_angle_gamma 90.000000
_cell_volume 612.101325
_symmetry_space_group_name_H-M "P 21"
_symmetry_group_IT_number 4
_symmetry_cell_setting 'monoclinic'
loop_
_space_group_symop_operation_xyz
x,y,z
-x,1/2+y,-z
loop_
_atom_site_type_symbol
_atom_site_label
_atom_site_fract_x
_atom_site_fract_y
_atom_site_fract_z
Si Si1 0.001742 0.366930 0.899964
Si Si2 0.172456 0.855823 0.526327
Si Si3 0.221249 0.700404 0.725477
Si Si4 0.131204 0.227314 0.090826
Si Si5 0.491039 0.031062 0.015144
Si Si6 0.180579 0.384799 0.676232
Si Si7 0.515238 0.127024 0.602917
Si Si8 0.619353 0.954560 0.793079
O O1 0.267991 0.444190 0.937472
O O2 0.004815 0.350432 0.775776
O O3 0.759792 0.453606 0.939967
O O4 0.998453 0.225886 0.976009
O O5 0.064005 0.780213 0.630517
O O6 0.343114 0.724481 0.481063
O O7 0.972161 0.895118 0.434348
O O8 0.336598 0.999964 0.553723
O O9 0.321044 0.540283 0.693376
O O10 0.030516 0.656720 0.818100
O O11 0.437713 0.821126 0.752005
O O12 0.140546 0.386147 0.144433
O O13 0.425904 0.185835 0.067337
O O14 0.486629 0.037909 0.889154
O O15 0.358167 0.245993 0.666481
O O16 0.687130 0.047826 0.692332
#
# Coordination Sequence:
#
# PCOD9118106 Si02
#       8
#     2   2   2   2   2   2   2   2
#     4  11  25  42  72 106 155 192 258 296 388 449
#     4  11  27  47  73 103 144 194 256 315 389 450
#     4  11  23  43  72 102 141 192 252 314 386 452
#     4  11  23  42  71 104 151 194 251 313 378 457
#     4  11  23  45  70 114 151 206 243 317 375 462
#     4  12  25  44  71 107 143 195 244 321 378 465
#     4  11  26  48  71 107 144 197 252 322 381 465
#     4  10  24  45  72 107 149 196 252 314 387 452
#
# _framework density 26.139461000000001
#
# number of rings (size 3 to 8) (size 9 to 14) (size 15 to 20)
#    0.000    1.000    2.500    3.000    1.750    8.000 
#    4.500    0.000    0.000    0.000    0.000    0.000 
#    0.000    0.000    0.000    0.000    0.000    0.000 
#
# Total GULP energy -89458.381514 kJ/mol
# GULP energy per Si atom -5591.148845 kJ/mol
# Density = 2.607997 g / cm^3
# Si number density = 26.139461 Si / 1000 Ang^3
#
#
#
# Elastic Constant Matrix: (Units=GPa)
#
#
# Indices 1 2 3 4 5 6 
#
# 1 57.0833 18.8096 7.4347 0.0000 -3.3577 0.0000
# 2 18.8096 134.2870 45.8785 0.0000 -1.9517 0.0000
# 3 7.4347 45.8785 121.1126 0.0000 -0.8876 0.0000
# 4 0.0000 0.0000 0.0000 54.1858 0.0000 1.5129
# 5 -3.3577 -1.9517 -0.8876 0.0000 34.9663 0.0000
# 6 0.0000 0.0000 0.0000 1.5129 0.0000 44.1640
#
#
#
# Elastic Compliance Matrix: (Units=1/GPa)
#
#
# Indices 1 2 3 4 5 6 
#
# 1 0.018461 -0.002503 -0.000173 0.000000 0.001629 0.000000
# 2 -0.002503 0.008899 -0.003216 0.000000 0.000175 0.000000
# 3 -0.000173 -0.003216 0.009486 0.000000 0.000045 0.000000
# 4 0.000000 0.000000 0.000000 0.018473 0.000000 -0.000633
# 5 0.001629 0.000175 0.000045 0.000000 0.028766 0.000000
# 6 0.000000 0.000000 0.000000 -0.000633 0.000000 0.022665
#
#
# Mechanical properties :
#
#
# Convention : Reuss Voigt Hill
#
# Bulk Modulus (GPa) = 39.90162 50.74760 45.32461
# Shear Modulus (GPa) = 39.40496 42.68724 41.04610
#
# Velocity S-wave (km/s) = 3.88685 4.04549 3.96697
# Velocity P-wave (km/s) = 5.95328 6.42477 6.19351
#
# Compressibility (1/GPa) = 0.02506164
#
# Stress axis : x y z
#
# Youngs Moduli (GPa) = 54.16711 112.37743 105.41902
#
# Poissons Ratio (x) = 0.28129 0.01825
# Poissons Ratio (y) = 0.13558 0.33902
# Poissons Ratio (z) = 0.00938 0.36140
#
# Static dielectric constant tensor:
#      x y z
#    x 2.064580 0.000000 -0.004010 
#    y 0.000000 2.561450 0.000000 
#    z -0.004010 0.000000 2.093750 
# 
# From -- ./inp_files/10298.got.cif
#   From: 2010.05.17/outbox.cif.g08.bks.cpg/sg4_6_cif.got.tgz:10298.got - 2010.06.03 18:43:04.
