data_PCOD9118374
_publ_section_title
;
Structure prediction by ZEFSAII (Michael W. Deem and Ramdas Pophale) SiO2 
 PCOD9118374
Probable space group: P 21
;
_chemical_formula_sum "Si O2"
_cell_formula_units_Z 12
_cell_length_a 11.962637
_cell_length_b 6.900091
_cell_length_c 7.128300
_cell_angle_alpha 90.000000
_cell_angle_beta 50.663733
_cell_angle_gamma 90.000000
_cell_volume 455.086400
_symmetry_space_group_name_H-M "P 21"
_symmetry_group_IT_number 4
_symmetry_cell_setting 'monoclinic'
loop_
_space_group_symop_operation_xyz
x,y,z
-x,1/2+y,-z
loop_
_atom_site_type_symbol
_atom_site_label
_atom_site_fract_x
_atom_site_fract_y
_atom_site_fract_z
Si Si1 0.300340 0.759430 0.035162
Si Si2 0.662971 0.669362 0.174376
Si Si3 0.114774 0.496379 0.511725
Si Si4 0.555657 0.503969 0.682600
Si Si5 0.122024 0.508443 0.946237
Si Si6 0.859382 0.553125 0.507177
O O1 0.462068 0.675255 0.874359
O O2 0.226066 0.671917 0.924052
O O3 0.306883 0.988836 0.992425
O O4 0.040259 0.990999 0.425368
O O5 0.594821 0.577071 0.433428
O O6 0.799878 0.804299 0.085619
O O7 0.546185 0.817624 0.216004
O O8 0.106797 0.536817 0.740683
O O9 0.208033 0.644806 0.290814
O O10 0.174384 0.279871 0.431789
O O11 0.707201 0.460729 0.617465
O O12 0.969429 0.524432 0.214768
#
# Coordination Sequence:
#
# PCOD9118374 Si02
#       6
#     2   2   2   2   2   2
#     4  10  25  51  88 126 164 226 289 353 428 516
#     4  11  22  49  89 125 169 226 286 350 437 509
#     4  11  26  56  83 125 172 228 284 352 430 509
#     4  11  23  49  85 126 167 221 286 352 427 515
#     4  10  25  53  89 123 168 225 282 355 435 514
#     4  11  27  54  84 127 168 224 287 352 427 517
#
# _framework density 26.368618999999999
#
# number of rings (size 3 to 8) (size 9 to 14) (size 15 to 20)
#    0.000    1.333    3.333    0.000    0.000    6.667 
#   21.000   10.000    0.000    0.000    0.000    0.000 
#    0.000    0.000    0.000    0.000    0.000    0.000 
#
# Total GULP energy -67386.440086 kJ/mol
# GULP energy per Si atom -5615.536674 kJ/mol
# Density = 2.630860 g / cm^3
# Si number density = 26.368619 Si / 1000 Ang^3
#
#
#
# Elastic Constant Matrix: (Units=GPa)
#
#
# Indices 1 2 3 4 5 6 
#
# 1 174.8802 42.7785 68.9434 0.0000 12.8721 0.0000
# 2 42.7785 200.3434 69.3962 0.0000 -3.3437 0.0000
# 3 68.9434 69.3962 173.3002 0.0000 -18.2534 0.0000
# 4 0.0000 0.0000 0.0000 43.3658 0.0000 -1.0167
# 5 12.8721 -3.3437 -18.2534 0.0000 55.5536 0.0000
# 6 0.0000 0.0000 0.0000 -1.0167 0.0000 32.5295
#
#
#
# Elastic Compliance Matrix: (Units=1/GPa)
#
#
# Indices 1 2 3 4 5 6 
#
# 1 0.007204 -0.000572 -0.002917 0.000000 -0.002662 0.000000
# 2 -0.000572 0.005851 -0.002138 0.000000 -0.000218 0.000000
# 3 -0.002917 -0.002138 0.008126 0.000000 0.003217 0.000000
# 4 0.000000 0.000000 0.000000 0.023077 0.000000 0.000721
# 5 -0.002662 -0.000218 0.003217 0.000000 0.019661 0.000000
# 6 0.000000 0.000000 0.000000 0.000721 0.000000 0.030764
#
#
# Mechanical properties :
#
#
# Convention : Reuss Voigt Hill
#
# Bulk Modulus (GPa) = 100.75025 101.19557 100.97291
# Shear Modulus (GPa) = 45.76811 50.78350 48.27581
#
# Velocity S-wave (km/s) = 4.17070 4.39328 4.28343
# Velocity P-wave (km/s) = 7.84119 8.01218 7.92715
#
# Compressibility (1/GPa) = 0.00992553
#
# Stress axis : x y z
#
# Youngs Moduli (GPa) = 138.80749 170.92300 123.06232
#
# Poissons Ratio (x) = 0.09780 0.35901
# Poissons Ratio (y) = 0.07943 0.26312
# Poissons Ratio (z) = 0.40494 0.36545
#
# Static dielectric constant tensor:
#      x y z
#    x 2.073400 0.000000 0.094250 
#    y 0.000000 2.099740 0.000000 
#    z 0.094250 0.000000 2.127440 
# 
# From -- ./inp_files/14250.got.cif
#   From: 2010.05.17/outbox.cif.g08.bks.cpg/sg4_8_cif.got.tgz:14250.got - 2010.06.03 18:43:04.
