data_PCOD9118058
_publ_section_title
;
Structure prediction by ZEFSAII (Michael W. Deem and Ramdas Pophale) SiO2 
 PCOD9118058
Probable space group: P 21
;
_chemical_formula_sum "Si O2"
_cell_formula_units_Z 16
_cell_length_a 16.153176
_cell_length_b 6.243510
_cell_length_c 9.119652
_cell_angle_alpha 90.000000
_cell_angle_beta 49.614402
_cell_angle_gamma 90.000000
_cell_volume 700.566943
_symmetry_space_group_name_H-M "P 21"
_symmetry_group_IT_number 4
_symmetry_cell_setting 'monoclinic'
loop_
_space_group_symop_operation_xyz
x,y,z
-x,1/2+y,-z
loop_
_atom_site_type_symbol
_atom_site_label
_atom_site_fract_x
_atom_site_fract_y
_atom_site_fract_z
Si Si1 0.764864 0.354600 0.201858
Si Si2 0.967227 0.434299 0.771302
Si Si3 0.343937 0.434067 0.651808
Si Si4 0.911252 0.577175 0.517084
Si Si5 0.717021 0.789074 0.576337
Si Si6 0.428925 0.084529 0.740416
Si Si7 0.177012 0.697437 0.557182
Si Si8 0.455202 0.074301 0.043455
O O1 0.653781 0.452824 0.267206
O O2 0.790160 0.348127 0.345792
O O3 0.743982 0.103467 0.195779
O O4 0.867778 0.441122 0.996222
O O5 0.937470 0.564005 0.657522
O O6 0.993156 0.191564 0.685883
O O7 0.076754 0.538882 0.713140
O O8 0.282098 0.288724 0.601639
O O9 0.398175 0.322694 0.727922
O O10 0.447211 0.530470 0.444304
O O11 0.810996 0.721674 0.580968
O O12 0.871178 0.344950 0.513066
O O13 0.720379 0.047522 0.600763
O O14 0.621556 0.632918 0.733053
O O15 0.407575 0.043891 0.934796
O O16 0.503761 0.326227 0.972408
#
# Coordination Sequence:
#
# PCOD9118058 Si02
#       8
#     2   2   2   2   2   2   2   2
#     4  11  26  44  71 107 140 191 248 307 373 457
#     4  11  24  43  69 107 134 189 242 303 381 450
#     4  11  24  45  71 105 146 192 242 304 378 450
#     4  11  22  43  71  95 146 185 237 305 376 459
#     4  10  24  45  70 105 140 196 241 299 382 444
#     4  12  25  44  73 104 149 194 247 303 378 444
#     4  10  24  44  70 101 144 188 238 304 376 450
#     4  12  29  46  75 112 153 201 253 313 368 454
#
# _framework density 22.838645
#
# number of rings (size 3 to 8) (size 9 to 14) (size 15 to 20)
#    0.000    1.000    3.750    1.500    7.000    2.000 
#    0.000    0.000    0.000    0.000    0.000    0.000 
#    0.000    0.000    0.000    0.000    0.000    0.000 
#
# Total GULP energy -89071.367274 kJ/mol
# GULP energy per Si atom -5566.960455 kJ/mol
# Density = 2.278666 g / cm^3
# Si number density = 22.838645 Si / 1000 Ang^3
#
#
#
# Elastic Constant Matrix: (Units=GPa)
#
#
# Indices 1 2 3 4 5 6 
#
# 1 115.4299 37.6638 8.5369 0.0000 18.9999 0.0000
# 2 37.6638 75.0696 12.5627 0.0000 -4.3109 0.0000
# 3 8.5369 12.5627 32.2967 0.0000 2.7966 0.0000
# 4 0.0000 0.0000 0.0000 27.9427 0.0000 -1.0996
# 5 18.9999 -4.3109 2.7966 0.0000 33.1408 0.0000
# 6 0.0000 0.0000 0.0000 -1.0996 0.0000 53.0142
#
#
#
# Elastic Compliance Matrix: (Units=1/GPa)
#
#
# Indices 1 2 3 4 5 6 
#
# 1 0.012060 -0.006498 0.000012 0.000000 -0.007761 0.000000
# 2 -0.006498 0.017932 -0.005825 0.000000 0.006550 0.000000
# 3 0.000012 -0.005825 0.033537 0.000000 -0.003595 0.000000
# 4 0.000000 0.000000 0.000000 0.035817 0.000000 0.000743
# 5 -0.007761 0.006550 -0.003595 0.000000 0.035779 0.000000
# 6 0.000000 0.000000 0.000000 0.000743 0.000000 0.018878
#
#
# Mechanical properties :
#
#
# Convention : Reuss Voigt Hill
#
# Bulk Modulus (GPa) = 25.70250 37.81365 31.75808
# Shear Modulus (GPa) = 26.09681 33.75507 29.92594
#
# Velocity S-wave (km/s) = 3.38399 3.84862 3.62376
# Velocity P-wave (km/s) = 5.15237 6.02843 5.60754
#
# Compressibility (1/GPa) = 0.03890671
#
# Stress axis : x y z
#
# Youngs Moduli (GPa) = 82.91755 55.76547 29.81805
#
# Poissons Ratio (x) = 0.36239 -0.00036
# Poissons Ratio (y) = 0.53884 0.17368
# Poissons Ratio (z) = -0.00099 0.32482
#
# Static dielectric constant tensor:
#      x y z
#    x 1.850880 0.000000 -0.050740 
#    y 0.000000 2.012420 0.000000 
#    z -0.050740 0.000000 1.818230 
# 
# From -- ./inp_files/8925.got.cif
#   From: 2010.05.17/outbox.cif.g08.bks.cpg/sg4_5_cif.got.tgz:8925.got - 2010.06.03 18:43:04.
