data_PCOD9118059
_publ_section_title
;
Structure prediction by ZEFSAII (Michael W. Deem and Ramdas Pophale) SiO2 
 PCOD9118059
Probable space group: P 21
;
_chemical_formula_sum "Si O2"
_cell_formula_units_Z 12
_cell_length_a 5.662831
_cell_length_b 4.803638
_cell_length_c 16.149536
_cell_angle_alpha 90.000000
_cell_angle_beta 77.399655
_cell_angle_gamma 90.000000
_cell_volume 428.722340
_symmetry_space_group_name_H-M "P 21"
_symmetry_group_IT_number 4
_symmetry_cell_setting 'monoclinic'
loop_
_space_group_symop_operation_xyz
x,y,z
-x,1/2+y,-z
loop_
_atom_site_type_symbol
_atom_site_label
_atom_site_fract_x
_atom_site_fract_y
_atom_site_fract_z
Si Si1 0.619518 0.488730 0.518634
Si Si2 0.264646 0.013101 0.308096
Si Si3 0.074927 0.062821 0.050601
Si Si4 0.947652 0.508817 0.346710
Si Si5 0.851354 0.457670 0.178187
Si Si6 0.615337 0.856477 0.862381
O O1 0.407029 0.660019 0.490283
O O2 0.605270 0.566286 0.615120
O O3 0.843353 0.578310 0.444174
O O4 0.186101 0.693775 0.313955
O O5 0.376860 0.150488 0.218182
O O6 0.016086 0.186073 0.337199
O O7 0.340502 0.158235 0.061324
O O8 0.910571 0.134128 0.144986
O O9 0.970681 0.277012 0.990615
O O10 0.783830 0.541458 0.276819
O O11 0.629373 0.526614 0.134445
O O12 0.138177 0.542612 0.151994
#
# Coordination Sequence:
#
# PCOD9118059 Si02
#       6
#     2   2   2   2   2   2
#     4  12  24  40  64 100 138 188 240 292 346 412
#     4  11  23  42  66  95 138 185 236 288 350 413
#     4  10  24  44  70 102 138 182 230 292 354 424
#     4  11  23  42  66  95 138 185 236 288 350 413
#     4   9  22  43  69 101 138 182 228 289 345 422
#     4   9  22  43  69 101 138 182 228 289 345 422
#
# _framework density 27.990141999999999
#
# number of rings (size 3 to 8) (size 9 to 14) (size 15 to 20)
#    1.000    0.667    0.000    4.000    2.333    4.000 
#    0.000    6.667    0.000    0.000    0.000    0.000 
#    0.000    0.000    0.000    0.000    0.000    0.000 
#
# Total GULP energy -66955.639972 kJ/mol
# GULP energy per Si atom -5579.636664 kJ/mol
# Density = 2.792644 g / cm^3
# Si number density = 27.990142 Si / 1000 Ang^3
#
#
#
# Elastic Constant Matrix: (Units=GPa)
#
#
# Indices 1 2 3 4 5 6 
#
# 1 144.0969 11.3801 30.6243 0.0000 23.7500 0.0000
# 2 11.3801 70.7152 34.7491 0.0000 -0.5966 0.0000
# 3 30.6243 34.7491 177.4006 0.0000 36.8251 0.0000
# 4 0.0000 0.0000 0.0000 45.5248 0.0000 2.7027
# 5 23.7500 -0.5966 36.8251 0.0000 53.6067 0.0000
# 6 0.0000 0.0000 0.0000 2.7027 0.0000 30.8766
#
#
#
# Elastic Compliance Matrix: (Units=1/GPa)
#
#
# Indices 1 2 3 4 5 6 
#
# 1 0.007627 -0.001016 -0.000483 0.000000 -0.003059 0.000000
# 2 -0.001016 0.016115 -0.003629 0.000000 0.003123 0.000000
# 3 -0.000483 -0.003629 0.007459 0.000000 -0.004950 0.000000
# 4 0.000000 0.000000 0.000000 0.022081 0.000000 -0.001933
# 5 -0.003059 0.003123 -0.004950 0.000000 0.023445 0.000000
# 6 0.000000 0.000000 0.000000 -0.001933 0.000000 0.032556
#
#
# Mechanical properties :
#
#
# Convention : Reuss Voigt Hill
#
# Bulk Modulus (GPa) = 47.74606 60.63552 54.19079
# Shear Modulus (GPa) = 39.51970 47.03224 43.27597
#
# Velocity S-wave (km/s) = 3.76162 4.10361 3.93633
# Velocity P-wave (km/s) = 5.99680 6.64553 6.32948
#
# Compressibility (1/GPa) = 0.02094414
#
# Stress axis : x y z
#
# Youngs Moduli (GPa) = 131.11793 62.05585 134.07005
#
# Poissons Ratio (x) = 0.06305 0.06471
# Poissons Ratio (y) = 0.13321 0.48658
# Poissons Ratio (z) = 0.06328 0.22522
#
# Static dielectric constant tensor:
#      x y z
#    x 2.237800 0.000000 -0.086090 
#    y 0.000000 2.137110 0.000000 
#    z -0.086090 0.000000 2.270580 
# 
# From -- ./inp_files/14668.got.cif
#   From: 2010.05.17/outbox.cif.g08.bks.cpg/sg4_8_cif.got.tgz:14668.got - 2010.06.03 18:43:04.
