data_PCOD9118961
_publ_section_title
;
Structure prediction by ZEFSAII (Michael W. Deem and Ramdas Pophale) SiO2 
 PCOD9118961
Probable space group: P 21
;
_chemical_formula_sum "Si O2"
_cell_formula_units_Z 16
_cell_length_a 15.470526
_cell_length_b 5.496037
_cell_length_c 15.111528
_cell_angle_alpha 90.000000
_cell_angle_beta 29.817398
_cell_angle_gamma 90.000000
_cell_volume 638.891231
_symmetry_space_group_name_H-M "P 21"
_symmetry_group_IT_number 4
_symmetry_cell_setting 'monoclinic'
loop_
_space_group_symop_operation_xyz
x,y,z
-x,1/2+y,-z
loop_
_atom_site_type_symbol
_atom_site_label
_atom_site_fract_x
_atom_site_fract_y
_atom_site_fract_z
Si Si1 0.186383 0.740380 0.907694
Si Si2 0.217835 0.493282 0.049743
Si Si3 0.110520 0.590691 0.783186
Si Si4 0.164399 0.967175 0.575341
Si Si5 0.658339 0.481011 0.978112
Si Si6 0.686885 0.076780 0.659063
Si Si7 0.420560 0.360745 0.424698
Si Si8 0.020491 0.876231 0.429527
O O1 0.104149 0.711167 0.884538
O O2 0.381942 0.833113 0.722920
O O3 0.201979 0.504603 0.957195
O O4 0.054292 0.914493 0.077830
O O5 0.279744 0.231746 0.029054
O O6 0.032241 0.560438 0.258013
O O7 0.335538 0.726199 0.972266
O O8 0.122306 0.762062 0.687887
O O9 0.294902 0.450737 0.614415
O O10 0.233667 0.842613 0.424648
O O11 0.318429 0.123945 0.480294
O O12 0.795708 0.439443 0.778313
O O13 0.454852 0.530790 0.139848
O O14 0.849566 0.896260 0.518472
O O15 0.587930 0.034689 0.653673
O O16 0.977231 0.110566 0.529688
#
# Coordination Sequence:
#
# PCOD9118961 Si02
#       8
#     2   2   2   2   2   2   2   2
#     4  12  25  45  69 102 149 196 264 314 389 428
#     4  12  23  45  77 107 148 197 258 305 376 438
#     4  11  27  43  64 100 150 197 251 326 377 443
#     4  11  23  46  71 104 145 202 254 314 374 445
#     4  12  26  48  78 112 146 200 243 312 364 460
#     4  11  26  46  79 108 150 191 262 301 371 460
#     4  11  25  45  71 105 140 201 260 312 376 442
#     4  12  29  50  79 114 154 194 236 306 389 460
#
# _framework density 25.043389000000001
#
# number of rings (size 3 to 8) (size 9 to 14) (size 15 to 20)
#    0.000    0.500    3.750    3.750    3.500    1.000 
#    2.250    0.000    0.000    0.000    0.000    0.000 
#    0.000    0.000    0.000    0.000    0.000    0.000 
#
# Total GULP energy -89520.168962 kJ/mol
# GULP energy per Si atom -5595.010560 kJ/mol
# Density = 2.498639 g / cm^3
# Si number density = 25.043389 Si / 1000 Ang^3
#
#
#
# Elastic Constant Matrix: (Units=GPa)
#
#
# Indices 1 2 3 4 5 6 
#
# 1 30.0526 15.1100 -7.4928 0.0000 10.5459 0.0000
# 2 15.1100 98.9619 29.4120 0.0000 4.6129 0.0000
# 3 -7.4928 29.4120 179.4720 0.0000 -4.8672 0.0000
# 4 0.0000 0.0000 0.0000 48.3905 0.0000 6.2823
# 5 10.5459 4.6129 -4.8672 0.0000 27.0379 0.0000
# 6 0.0000 0.0000 0.0000 6.2823 0.0000 37.2773
#
#
#
# Elastic Compliance Matrix: (Units=1/GPa)
#
#
# Indices 1 2 3 4 5 6 
#
# 1 0.042410 -0.006498 0.002429 0.000000 -0.014996 0.000000
# 2 -0.006498 0.011742 -0.002192 0.000000 0.000137 0.000000
# 3 0.002429 -0.002192 0.006046 0.000000 0.000515 0.000000
# 4 0.000000 0.000000 0.000000 0.021127 0.000000 -0.003561
# 5 -0.014996 0.000137 0.000515 0.000000 0.042904 0.000000
# 6 0.000000 0.000000 0.000000 -0.003561 0.000000 0.027426
#
#
# Mechanical properties :
#
#
# Convention : Reuss Voigt Hill
#
# Bulk Modulus (GPa) = 20.97493 42.50500 31.73997
# Shear Modulus (GPa) = 27.76696 40.63829 34.20262
#
# Velocity S-wave (km/s) = 3.33341 4.03266 3.69959
# Velocity P-wave (km/s) = 4.81758 6.22033 5.56335
#
# Compressibility (1/GPa) = 0.04767596
#
# Stress axis : x y z
#
# Youngs Moduli (GPa) = 23.57939 85.16330 165.38547
#
# Poissons Ratio (x) = 0.55341 -0.40169
# Poissons Ratio (y) = 0.15322 0.36251
# Poissons Ratio (z) = -0.05727 0.18667
#
# Static dielectric constant tensor:
#      x y z
#    x 2.045130 0.000000 -0.007680 
#    y 0.000000 2.037420 0.000000 
#    z -0.007680 0.000000 1.983160 
# 
# From -- ./inp_files/14063.got.cif
#   From: 2010.05.17/outbox.cif.g08.bks.cpg/sg4_8_cif.got.tgz:14063.got - 2010.06.03 18:43:04.
