data_PCOD9118368
_publ_section_title
;
Structure prediction by ZEFSAII (Michael W. Deem and Ramdas Pophale) SiO2 
 PCOD9118368
Probable space group: P 21
;
_chemical_formula_sum "Si O2"
_cell_formula_units_Z 14
_cell_length_a 8.828994
_cell_length_b 5.365152
_cell_length_c 13.421253
_cell_angle_alpha 90.000000
_cell_angle_beta 79.235022
_cell_angle_gamma 90.000000
_cell_volume 624.561743
_symmetry_space_group_name_H-M "P 21"
_symmetry_group_IT_number 4
_symmetry_cell_setting 'monoclinic'
loop_
_space_group_symop_operation_xyz
x,y,z
-x,1/2+y,-z
loop_
_atom_site_type_symbol
_atom_site_label
_atom_site_fract_x
_atom_site_fract_y
_atom_site_fract_z
Si Si1 0.645250 0.266190 0.389880
Si Si2 0.546348 0.264916 0.624433
Si Si3 0.094553 0.024374 0.754855
Si Si4 0.400992 0.639094 0.005129
Si Si5 0.218081 0.782110 0.223326
Si Si6 0.901004 0.655227 0.898311
Si Si7 0.800026 0.862207 0.103980
O O1 0.645343 0.274894 0.509862
O O2 0.539228 0.499057 0.369587
O O3 0.812661 0.328567 0.323503
O O4 0.567776 0.004802 0.367258
O O5 0.656287 0.274741 0.706386
O O6 0.011400 0.879396 0.854628
O O7 0.216328 0.210660 0.792835
O O8 0.948642 0.168932 0.724951
O O9 0.285243 0.652221 0.114362
O O10 0.490493 0.899225 0.993153
O O11 0.311848 0.587707 0.911550
O O12 0.187638 0.062669 0.188361
O O13 0.022375 0.443315 0.912446
O O14 0.793185 0.699633 0.004895
#
# Coordination Sequence:
#
# PCOD9118368 Si02
#       7
#     2   2   2   2   2   2   2
#     4  10  25  50  75 106 133 189 237 288 368 433
#     4  10  25  51  75  99 147 179 233 302 359 429
#     4  11  25  42  72 104 136 190 242 288 352 421
#     4  12  28  43  65 102 147 189 237 282 345 422
#     4  11  26  45  67 107 142 184 236 299 353 408
#     4  11  21  40  66  93 141 184 224 286 343 408
#     4  11  22  41  62  95 142 187 229 279 338 413
#
# _framework density 22.415717000000001
#
# number of rings (size 3 to 8) (size 9 to 14) (size 15 to 20)
#    0.000    1.143    2.857    1.714   10.000    0.000 
#    2.571    0.000    0.000    0.000    0.000    0.000 
#    0.000    0.000    0.000    0.000    0.000    0.000 
#
# Total GULP energy -78227.564354 kJ/mol
# GULP energy per Si atom -5587.683168 kJ/mol
# Density = 2.236470 g / cm^3
# Si number density = 22.415717 Si / 1000 Ang^3
#
#
#
# Elastic Constant Matrix: (Units=GPa)
#
#
# Indices 1 2 3 4 5 6 
#
# 1 78.1519 31.6934 41.4363 0.0000 2.7745 0.0000
# 2 31.6934 108.8840 25.0120 0.0000 -3.4192 0.0000
# 3 41.4363 25.0120 77.5384 0.0000 -3.6328 0.0000
# 4 0.0000 0.0000 0.0000 33.4638 0.0000 -8.6635
# 5 2.7745 -3.4192 -3.6328 0.0000 41.3093 0.0000
# 6 0.0000 0.0000 0.0000 -8.6635 0.0000 39.7261
#
#
#
# Elastic Compliance Matrix: (Units=1/GPa)
#
#
# Indices 1 2 3 4 5 6 
#
# 1 0.019217 -0.003547 -0.009238 0.000000 -0.002397 0.000000
# 2 -0.003547 0.010586 -0.001473 0.000000 0.000985 0.000000
# 3 -0.009238 -0.001473 0.018408 0.000000 0.002117 0.000000
# 4 0.000000 0.000000 0.000000 0.031671 0.000000 0.006907
# 5 -0.002397 0.000985 0.002117 0.000000 0.024636 0.000000
# 6 0.000000 0.000000 0.000000 0.006907 0.000000 0.026679
#
#
# Mechanical properties :
#
#
# Convention : Reuss Voigt Hill
#
# Bulk Modulus (GPa) = 50.77362 51.20643 50.99002
# Shear Modulus (GPa) = 30.07034 33.99534 32.03284
#
# Velocity S-wave (km/s) = 3.66660 3.89856 3.78436
# Velocity P-wave (km/s) = 6.37380 6.56952 6.47240
#
# Compressibility (1/GPa) = 0.01969527
#
# Stress axis : x y z
#
# Youngs Moduli (GPa) = 52.03777 94.46613 54.32482
#
# Poissons Ratio (x) = 0.33505 0.50183
# Poissons Ratio (y) = 0.18457 0.08003
# Poissons Ratio (z) = 0.48070 0.13917
#
# Static dielectric constant tensor:
#      x y z
#    x 1.841640 0.000000 -0.019680 
#    y 0.000000 1.925290 0.000000 
#    z -0.019680 0.000000 1.822930 
# 
# From -- ./inp_files/7400.got.cif
#   From: 2010.05.17/outbox.cif.g08.bks.cpg/sg4_4_cif.got.tgz:7400.got - 2010.06.03 18:43:04.
