data_PCOD9118512
_publ_section_title
;
Structure prediction by ZEFSAII (Michael W. Deem and Ramdas Pophale) SiO2 
 PCOD9118512
Probable space group: P 21
;
_chemical_formula_sum "Si O2"
_cell_formula_units_Z 16
_cell_length_a 9.157785
_cell_length_b 5.623314
_cell_length_c 20.388713
_cell_angle_alpha 90.000000
_cell_angle_beta 41.555754
_cell_angle_gamma 90.000000
_cell_volume 696.489167
_symmetry_space_group_name_H-M "P 21"
_symmetry_group_IT_number 4
_symmetry_cell_setting 'monoclinic'
loop_
_space_group_symop_operation_xyz
x,y,z
-x,1/2+y,-z
loop_
_atom_site_type_symbol
_atom_site_label
_atom_site_fract_x
_atom_site_fract_y
_atom_site_fract_z
Si Si1 0.867851 0.473750 0.529228
Si Si2 0.636662 0.458779 0.462882
Si Si3 0.256425 0.524578 0.929721
Si Si4 0.383116 0.497072 0.740423
Si Si5 0.339405 0.923695 0.989063
Si Si6 0.009340 0.813780 0.870911
Si Si7 0.901834 0.682410 0.260409
Si Si8 0.648375 0.302156 0.871651
O O1 0.770482 0.461094 0.487006
O O2 0.644031 0.492275 0.647668
O O3 0.005349 0.722611 0.495671
O O4 0.518475 0.200764 0.489794
O O5 0.799323 0.509272 0.348034
O O6 0.291373 0.443488 0.843923
O O7 0.491876 0.479180 0.885940
O O8 0.224012 0.787394 0.968809
O O9 0.068767 0.382046 0.030795
O O10 0.263804 0.752536 0.772739
O O11 0.279172 0.332501 0.718422
O O12 0.418044 0.800856 0.029167
O O13 0.147575 0.089210 0.085710
O O14 0.546554 0.049896 0.885405
O O15 0.964797 0.028797 0.837659
O O16 0.095652 0.835390 0.228106
#
# Coordination Sequence:
#
# PCOD9118512 Si02
#       8
#     2   2   2   2   2   2   2   2
#     4  12  30  58  84 121 168 209 272 362 430 493
#     4  12  27  54  88 122 155 210 277 350 420 495
#     4  11  26  41  69 104 156 200 248 308 387 474
#     4  12  28  48  74 109 151 204 260 320 411 481
#     4  11  20  41  61 101 148 198 243 307 364 453
#     4  11  24  41  71 105 151 197 253 307 379 471
#     4  12  26  45  78 107 147 199 266 322 389 486
#     4  11  21  38  65  99 138 193 247 298 368 443
#
# _framework density 22.972358
#
# number of rings (size 3 to 8) (size 9 to 14) (size 15 to 20)
#    0.000    0.500    5.000    2.250    7.000    2.000 
#    0.000    0.000    0.000    0.000    0.000    0.000 
#    0.000    0.000    0.000    0.000    0.000    0.000 
#
# Total GULP energy -89155.465409 kJ/mol
# GULP energy per Si atom -5572.216588 kJ/mol
# Density = 2.292007 g / cm^3
# Si number density = 22.972358 Si / 1000 Ang^3
#
#
#
# Elastic Constant Matrix: (Units=GPa)
#
#
# Indices 1 2 3 4 5 6 
#
# 1 106.1298 34.2885 23.1294 0.0000 -5.8528 0.0000
# 2 34.2885 90.5795 11.3585 0.0000 -20.2851 0.0000
# 3 23.1294 11.3585 84.2130 0.0000 -13.9497 0.0000
# 4 0.0000 0.0000 0.0000 34.6583 0.0000 -12.9659
# 5 -5.8528 -20.2851 -13.9497 0.0000 47.0031 0.0000
# 6 0.0000 0.0000 0.0000 -12.9659 0.0000 -2.7015
#
#
#
# Elastic Compliance Matrix: (Units=1/GPa)
#
#
# Indices 1 2 3 4 5 6 
#
# 1 0.011314 -0.004213 -0.002742 0.000000 -0.001223 0.000000
# 2 -0.004213 0.013843 0.000203 0.000000 0.005510 0.000000
# 3 -0.002742 0.000203 0.013208 0.000000 0.003666 0.000000
# 4 0.000000 0.000000 0.000000 0.010321 0.000000 -0.049537
# 5 -0.001223 0.005510 0.003666 0.000000 0.024589 0.000000
# 6 0.000000 0.000000 0.000000 -0.049537 0.000000 -0.132413
#
#
# Mechanical properties :
#
#
# Convention : Reuss Voigt Hill
#
# Bulk Modulus (GPa) = 40.22420 46.49724 43.36072
# Shear Modulus (GPa) = -133.87580 29.93503 -51.97039
#
# Velocity S-wave (km/s) = -7.64221 3.61375 -4.76153
# Velocity P-wave (km/s) = 7.76681 6.13976 3.36353
#
# Compressibility (1/GPa) = 0.02486065
#
# Stress axis : x y z
#
# Youngs Moduli (GPa) = 88.38953 72.23716 75.71414
#
# Poissons Ratio (x) = 0.30432 0.20758
# Poissons Ratio (y) = 0.37237 -0.01534
# Poissons Ratio (z) = 0.24234 -0.01463
#
# Static dielectric constant tensor:
#      x y z
#    x 2.015500 0.000000 -0.063310 
#    y 0.000000 2.046040 0.000000 
#    z -0.063310 0.000000 1.874290 
# 
# From -- ./inp_files/15549.got.cif
#   From: 2010.05.17/outbox.cif.g08.bks.cpg/sg4_8_cif.got.tgz:15549.got - 2010.06.03 18:43:04.
