data_PCOD9118134
_publ_section_title
;
Structure prediction by ZEFSAII (Michael W. Deem and Ramdas Pophale) SiO2 
 PCOD9118134
Probable space group: P 21
;
_chemical_formula_sum "Si O2"
_cell_formula_units_Z 16
_cell_length_a 21.337064
_cell_length_b 5.357763
_cell_length_c 5.010428
_cell_angle_alpha 90.000000
_cell_angle_beta 95.068790
_cell_angle_gamma 90.000000
_cell_volume 570.546804
_symmetry_space_group_name_H-M "P 21"
_symmetry_group_IT_number 4
_symmetry_cell_setting 'monoclinic'
loop_
_space_group_symop_operation_xyz
x,y,z
-x,1/2+y,-z
loop_
_atom_site_type_symbol
_atom_site_label
_atom_site_fract_x
_atom_site_fract_y
_atom_site_fract_z
Si Si1 0.515092 0.085620 0.673877
Si Si2 0.262586 0.010439 0.905392
Si Si3 0.637279 0.984931 0.506837
Si Si4 0.136242 0.221423 0.004059
Si Si5 0.894669 0.998523 0.500660
Si Si6 0.016112 0.994091 0.850489
Si Si7 0.607144 0.491960 0.179747
Si Si8 0.234188 0.715885 0.385819
O O1 0.504000 0.356059 0.533325
O O2 0.590214 0.048830 0.735785
O O3 0.466808 0.036416 0.900134
O O4 0.255508 0.935791 0.594698
O O5 0.209665 0.204938 0.967516
O O6 0.335782 0.050390 0.000264
O O7 0.241296 0.782128 0.081047
O O8 0.618765 0.214718 0.300118
O O9 0.712525 0.006302 0.552140
O O10 0.619757 0.712131 0.398511
O O11 0.113039 0.447605 0.811842
O O12 0.091801 0.005901 0.861673
O O13 0.122939 0.262883 0.310556
O O14 0.967394 0.052116 0.592816
O O15 0.838376 0.173798 0.575209
O O16 0.002706 0.231455 0.034022
#
# Coordination Sequence:
#
# PCOD9118134 Si02
#       8
#     2   2   2   2   2   2   2   2
#     4   8  14  28  54  84 120 160 206 258 316 378
#     4  11  23  40  64  94 130 170 216 267 322 384
#     4   9  18  34  58  90 124 165 211 263 320 382
#     4  11  24  42  67  98 133 172 217 267 322 384
#     4  11  24  42  67  98 133 172 217 267 322 384
#     4  10  24  46  70 100 134 174 218 268 324 386
#     4   9  18  34  58  90 124 165 211 263 320 382
#     4  11  23  40  64  94 130 170 216 267 322 384
#
# _framework density 28.043274
#
# number of rings (size 3 to 8) (size 9 to 14) (size 15 to 20)
#    0.000    2.000    0.000    3.000    0.000    9.000 
#    0.000    0.000    0.000   21.000    0.000    0.000 
#    0.000    0.000    0.000    0.000    0.000    0.000 
#
# Total GULP energy -89451.339883 kJ/mol
# GULP energy per Si atom -5590.708743 kJ/mol
# Density = 2.797945 g / cm^3
# Si number density = 28.043274 Si / 1000 Ang^3
#
#
#
# Elastic Constant Matrix: (Units=GPa)
#
#
# Indices 1 2 3 4 5 6 
#
# 1 152.0804 53.4211 58.7303 0.0000 -33.5286 0.0000
# 2 53.4211 121.5771 36.9964 0.0000 16.6035 0.0000
# 3 58.7303 36.9964 64.0537 0.0000 1.3507 0.0000
# 4 0.0000 0.0000 0.0000 22.3780 0.0000 -3.3150
# 5 -33.5286 16.6035 1.3507 0.0000 37.0082 0.0000
# 6 0.0000 0.0000 0.0000 -3.3150 0.0000 58.7482
#
#
#
# Elastic Compliance Matrix: (Units=1/GPa)
#
#
# Indices 1 2 3 4 5 6 
#
# 1 0.018905 -0.006955 -0.013754 0.000000 0.020749 0.000000
# 2 -0.006955 0.013261 -0.001025 0.000000 -0.012213 0.000000
# 3 -0.013754 -0.001025 0.029090 0.000000 -0.013063 0.000000
# 4 0.000000 0.000000 0.000000 0.045063 0.000000 0.002543
# 5 0.020749 -0.012213 -0.013063 0.000000 0.051776 0.000000
# 6 0.000000 0.000000 0.000000 0.002543 0.000000 0.017165
#
#
# Mechanical properties :
#
#
# Convention : Reuss Voigt Hill
#
# Bulk Modulus (GPa) = 56.21688 70.66743 63.44216
# Shear Modulus (GPa) = 22.25617 36.19775 29.22696
#
# Velocity S-wave (km/s) = 2.82021 3.59664 3.23183
# Velocity P-wave (km/s) = 5.54029 6.51935 6.04966
#
# Compressibility (1/GPa) = 0.01778825
#
# Stress axis : x y z
#
# Youngs Moduli (GPa) = 52.89742 75.40868 34.37601
#
# Poissons Ratio (x) = 0.52447 0.47280
# Poissons Ratio (y) = 0.36790 0.03523
# Poissons Ratio (z) = 0.72754 0.07728
#
# Static dielectric constant tensor:
#      x y z
#    x 2.448310 0.000000 0.018080 
#    y 0.000000 2.234730 0.000000 
#    z 0.018080 0.000000 2.135110 
# 
# From -- ./inp_files/4361.got.cif
#   From: 2010.05.17/outbox.cif.g08.bks.cpg/sg4_3_cif.got.tgz:4361.got - 2010.06.03 18:43:04.
