data_PCOD9118932
_publ_section_title
;
Structure prediction by ZEFSAII (Michael W. Deem and Ramdas Pophale) SiO2 
 PCOD9118932
Probable space group: P 21
;
_chemical_formula_sum "Si O2"
_cell_formula_units_Z 16
_cell_length_a 11.081583
_cell_length_b 4.948708
_cell_length_c 12.280334
_cell_angle_alpha 90.000000
_cell_angle_beta 101.861647
_cell_angle_gamma 90.000000
_cell_volume 659.067339
_symmetry_space_group_name_H-M "P 21"
_symmetry_group_IT_number 4
_symmetry_cell_setting 'monoclinic'
loop_
_space_group_symop_operation_xyz
x,y,z
-x,1/2+y,-z
loop_
_atom_site_type_symbol
_atom_site_label
_atom_site_fract_x
_atom_site_fract_y
_atom_site_fract_z
Si Si1 0.642370 0.282260 0.827210
Si Si2 0.725147 0.377425 0.338876
Si Si3 0.190298 0.097032 0.282379
Si Si4 0.016637 0.585644 0.573971
Si Si5 0.327113 0.280172 0.016033
Si Si6 0.587481 0.639270 0.518972
Si Si7 0.076994 0.307236 0.038259
Si Si8 0.383177 0.351379 0.783879
O O1 0.750093 0.329933 0.761259
O O2 0.623696 0.560330 0.890623
O O3 0.507615 0.227694 0.754949
O O4 0.673581 0.059488 0.920246
O O5 0.855978 0.231476 0.372563
O O6 0.669069 0.483123 0.442680
O O7 0.726341 0.650181 0.269157
O O8 0.641512 0.151452 0.263020
O O9 0.312564 0.208257 0.367261
O O10 0.132361 0.258586 0.169242
O O11 0.080436 0.051087 0.346567
O O12 0.041477 0.298880 0.522429
O O13 0.183370 0.212523 0.974737
O O14 0.394138 0.316847 0.915411
O O15 0.519547 0.918974 0.474520
O O16 0.036982 0.609190 0.004057
#
# Coordination Sequence:
#
# PCOD9118932 Si02
#       8
#     2   2   2   2   2   2   2   2
#     4  11  23  45  70 110 137 195 245 297 375 453
#     4  12  26  46  68 112 140 191 248 303 371 453
#     4  11  27  48  79 103 150 201 236 317 376 432
#     4  12  28  49  74 105 149 191 255 302 374 458
#     4  11  24  43  70 103 148 187 248 299 369 442
#     4  12  27  48  77 110 148 192 250 313 376 454
#     4  11  26  45  70 106 142 191 252 295 356 445
#     4  12  25  44  74 105 152 188 240 310 375 437
#
# _framework density 24.276731999999999
#
# number of rings (size 3 to 8) (size 9 to 14) (size 15 to 20)
#    0.000    0.500    1.250    6.750    5.250    7.000 
#    0.000    0.000    0.000    0.000    0.000    0.000 
#    0.000    0.000    0.000    0.000    0.000    0.000 
#
# Total GULP energy -89531.297675 kJ/mol
# GULP energy per Si atom -5595.706105 kJ/mol
# Density = 2.422148 g / cm^3
# Si number density = 24.276732 Si / 1000 Ang^3
#
#
#
# Elastic Constant Matrix: (Units=GPa)
#
#
# Indices 1 2 3 4 5 6 
#
# 1 120.7990 29.4537 43.1343 0.0000 -8.4584 0.0000
# 2 29.4537 96.5079 39.0133 0.0000 -2.9434 0.0000
# 3 43.1343 39.0133 113.8164 0.0000 -9.9573 0.0000
# 4 0.0000 0.0000 0.0000 37.9502 0.0000 8.5051
# 5 -8.4584 -2.9434 -9.9573 0.0000 49.7075 0.0000
# 6 0.0000 0.0000 0.0000 8.5051 0.0000 41.2007
#
#
#
# Elastic Compliance Matrix: (Units=1/GPa)
#
#
# Indices 1 2 3 4 5 6 
#
# 1 0.009862 -0.001746 -0.003055 0.000000 0.000963 0.000000
# 2 -0.001746 0.012338 -0.003593 0.000000 -0.000286 0.000000
# 3 -0.003055 -0.003593 0.011309 0.000000 0.001533 0.000000
# 4 0.000000 0.000000 0.000000 0.027628 0.000000 -0.005703
# 5 0.000963 -0.000286 0.001533 0.000000 0.020572 0.000000
# 6 0.000000 0.000000 0.000000 -0.005703 0.000000 0.025449
#
#
# Mechanical properties :
#
#
# Convention : Reuss Voigt Hill
#
# Bulk Modulus (GPa) = 59.79687 61.59177 60.69432
# Shear Modulus (GPa) = 38.60419 40.40649 39.50534
#
# Velocity S-wave (km/s) = 3.99202 4.08415 4.03835
# Velocity P-wave (km/s) = 6.77740 6.90407 6.84103
#
# Compressibility (1/GPa) = 0.01672328
#
# Stress axis : x y z
#
# Youngs Moduli (GPa) = 101.39834 81.04906 88.42147
#
# Poissons Ratio (x) = 0.14147 0.27013
# Poissons Ratio (y) = 0.17699 0.31767
# Poissons Ratio (z) = 0.30977 0.29119
#
# Static dielectric constant tensor:
#      x y z
#    x 2.023090 0.000000 0.050530 
#    y 0.000000 1.878650 0.000000 
#    z 0.050530 0.000000 1.975440 
# 
# From -- ./inp_files/11714.got.cif
#   From: 2010.05.17/outbox.cif.g08.bks.cpg/sg4_6_cif.got.tgz:11714.got - 2010.06.03 18:43:04.
