data_PCOD9118176
_publ_section_title
;
Structure prediction by ZEFSAII (Michael W. Deem and Ramdas Pophale) SiO2 
 PCOD9118176
Probable space group: P 21
;
_chemical_formula_sum "Si O2"
_cell_formula_units_Z 16
_cell_length_a 5.257196
_cell_length_b 8.917114
_cell_length_c 13.754700
_cell_angle_alpha 90.000000
_cell_angle_beta 107.307739
_cell_angle_gamma 90.000000
_cell_volume 615.610352
_symmetry_space_group_name_H-M "P 21"
_symmetry_group_IT_number 4
_symmetry_cell_setting 'monoclinic'
loop_
_space_group_symop_operation_xyz
x,y,z
-x,1/2+y,-z
loop_
_atom_site_type_symbol
_atom_site_label
_atom_site_fract_x
_atom_site_fract_y
_atom_site_fract_z
Si Si1 0.413589 0.657680 0.070400
Si Si2 0.803674 0.924070 0.644241
Si Si3 0.737939 0.411149 0.066804
Si Si4 0.041542 0.518715 0.859501
Si Si5 0.682990 0.782702 0.829314
Si Si6 0.796260 0.224116 0.749549
Si Si7 0.105183 0.637536 0.655498
Si Si8 0.547981 0.470388 0.583623
O O1 0.694516 0.586856 0.071531
O O2 0.358438 0.648510 0.177810
O O3 0.379713 0.831093 0.040865
O O4 0.215796 0.566391 0.973444
O O5 0.661699 0.837606 0.716952
O O6 0.041973 0.813363 0.640662
O O7 0.899971 0.085607 0.695797
O O8 0.598317 0.936893 0.533380
O O9 0.550977 0.342205 0.129902
O O10 0.038617 0.360166 0.107308
O O11 0.990708 0.347344 0.822331
O O12 0.153493 0.594085 0.773674
O O13 0.239047 0.107420 0.157616
O O14 0.341281 0.574289 0.618223
O O15 0.612749 0.324698 0.657115
O O16 0.829367 0.552374 0.598259
#
# Coordination Sequence:
#
# PCOD9118176 Si02
#       8
#     2   2   2   2   2   2   2   2
#     4  11  26  43  75 110 154 199 253 313 385 469
#     4  11  24  48  80 113 153 208 272 332 395 473
#     4  11  26  44  69 108 147 197 248 307 387 456
#     4   9  24  42  73 102 156 194 250 306 398 450
#     4  10  24  47  68 104 148 199 246 315 381 463
#     4  11  25  48  78 119 154 205 269 328 381 486
#     4  10  25  48  74 107 157 204 256 325 403 470
#     4  11  26  50  77 113 157 206 260 332 404 463
#
# _framework density 25.990466999999999
#
# number of rings (size 3 to 8) (size 9 to 14) (size 15 to 20)
#    0.000    1.500    1.250    0.750    7.000   14.000 
#    4.500    0.000    0.000    0.000    0.000    0.000 
#    0.000    0.000    0.000    0.000    0.000    0.000 
#
# Total GULP energy -89674.388073 kJ/mol
# GULP energy per Si atom -5604.649255 kJ/mol
# Density = 2.593131 g / cm^3
# Si number density = 25.990467 Si / 1000 Ang^3
#
#
#
# Elastic Constant Matrix: (Units=GPa)
#
#
# Indices 1 2 3 4 5 6 
#
# 1 88.4662 37.9745 13.3620 0.0000 21.0337 0.0000
# 2 37.9745 208.0028 66.0403 0.0000 14.2530 0.0000
# 3 13.3620 66.0403 111.4103 0.0000 10.1269 0.0000
# 4 0.0000 0.0000 0.0000 43.8120 0.0000 5.5482
# 5 21.0337 14.2530 10.1269 0.0000 30.9933 0.0000
# 6 0.0000 0.0000 0.0000 5.5482 0.0000 37.3441
#
#
#
# Elastic Compliance Matrix: (Units=1/GPa)
#
#
# Indices 1 2 3 4 5 6 
#
# 1 0.014252 -0.002106 0.000340 0.000000 -0.008815 0.000000
# 2 -0.002106 0.006314 -0.003459 0.000000 -0.000344 0.000000
# 3 0.000340 -0.003459 0.011194 0.000000 -0.002298 0.000000
# 4 0.000000 0.000000 0.000000 0.023262 0.000000 -0.003456
# 5 -0.008815 -0.000344 -0.002298 0.000000 0.039157 0.000000
# 6 0.000000 0.000000 0.000000 -0.003456 0.000000 0.027291
#
#
# Mechanical properties :
#
#
# Convention : Reuss Voigt Hill
#
# Bulk Modulus (GPa) = 46.92361 71.40368 59.16365
# Shear Modulus (GPa) = 35.96518 41.79672 38.88095
#
# Velocity S-wave (km/s) = 3.72396 4.01453 3.87197
# Velocity P-wave (km/s) = 6.04846 7.00152 6.54237
#
# Compressibility (1/GPa) = 0.02131123
#
# Stress axis : x y z
#
# Youngs Moduli (GPa) = 70.16451 158.38201 89.33249
#
# Poissons Ratio (x) = 0.33355 -0.03040
# Poissons Ratio (y) = 0.14777 0.30898
# Poissons Ratio (z) = -0.02388 0.54781
#
# Static dielectric constant tensor:
#      x y z
#    x 2.072890 0.000000 0.048010 
#    y 0.000000 2.106040 0.000000 
#    z 0.048010 0.000000 2.040870 
# 
# From -- ./inp_files/13683.got.cif
#   From: 2010.05.17/outbox.cif.g08.bks.cpg/sg4_7_cif.got.tgz:13683.got - 2010.06.03 18:43:04.
