data_PCOD9118137
_publ_section_title
;
Structure prediction by ZEFSAII (Michael W. Deem and Ramdas Pophale) SiO2 
 PCOD9118137
Probable space group: P 21
;
_chemical_formula_sum "Si O2"
_cell_formula_units_Z 12
_cell_length_a 16.323978
_cell_length_b 5.162347
_cell_length_c 5.161915
_cell_angle_alpha 90.000000
_cell_angle_beta 85.843348
_cell_angle_gamma 90.000000
_cell_volume 433.850568
_symmetry_space_group_name_H-M "P 21"
_symmetry_group_IT_number 4
_symmetry_cell_setting 'monoclinic'
loop_
_space_group_symop_operation_xyz
x,y,z
-x,1/2+y,-z
loop_
_atom_site_type_symbol
_atom_site_label
_atom_site_fract_x
_atom_site_fract_y
_atom_site_fract_z
Si Si1 0.174350 0.192010 0.894828
Si Si2 0.951985 0.058026 0.921268
Si Si3 0.138905 0.873089 0.418253
Si Si4 0.681286 0.152194 0.564468
Si Si5 0.348998 0.346926 0.935565
Si Si6 0.515367 0.380918 0.662661
O O1 0.137572 0.481363 0.937563
O O2 0.149456 0.045341 0.159868
O O3 0.273209 0.171859 0.852806
O O4 0.997950 0.292631 0.054138
O O5 0.930685 0.164499 0.639866
O O6 0.130731 0.065880 0.659075
O O7 0.226126 0.738166 0.437489
O O8 0.611505 0.342667 0.695634
O O9 0.661538 0.078541 0.273511
O O10 0.672193 0.914096 0.765838
O O11 0.446204 0.293884 0.885880
O O12 0.501893 0.666759 0.556682
#
# Coordination Sequence:
#
# PCOD9118137 Si02
#       6
#     2   2   2   2   2   2
#     4  12  27  51  82 118 160 212 268 329 408 486
#     4  12  28  58  82 124 160 214 270 344 416 498
#     4  12  27  51  82 118 160 212 268 329 408 486
#     4  11  24  44  76 112 157 207 264 323 393 471
#     4  11  24  44  76 112 157 207 264 323 393 471
#     4  10  24  46  70 112 154 208 262 322 386 460
#
# _framework density 27.659291
#
# number of rings (size 3 to 8) (size 9 to 14) (size 15 to 20)
#    0.000    0.667    3.333    3.000    0.000    9.333 
#    6.000    0.000    0.000    0.000    0.000    0.000 
#    0.000    0.000    0.000    0.000    0.000    0.000 
#
# Total GULP energy -67254.859999 kJ/mol
# GULP energy per Si atom -5604.571667 kJ/mol
# Density = 2.759634 g / cm^3
# Si number density = 27.659291 Si / 1000 Ang^3
#
#
#
# Elastic Constant Matrix: (Units=GPa)
#
#
# Indices 1 2 3 4 5 6 
#
# 1 130.1409 45.3305 15.6325 0.0000 4.0203 0.0000
# 2 45.3305 105.5139 53.3769 0.0000 18.6511 0.0000
# 3 15.6325 53.3769 116.6386 0.0000 1.8292 0.0000
# 4 0.0000 0.0000 0.0000 42.5260 0.0000 -4.1703
# 5 4.0203 18.6511 1.8292 0.0000 38.0730 0.0000
# 6 0.0000 0.0000 0.0000 -4.1703 0.0000 65.1362
#
#
#
# Elastic Compliance Matrix: (Units=1/GPa)
#
#
# Indices 1 2 3 4 5 6 
#
# 1 0.009137 -0.004573 0.000849 0.000000 0.001235 0.000000
# 2 -0.004573 0.016035 -0.006615 0.000000 -0.007055 0.000000
# 3 0.000849 -0.006615 0.011446 0.000000 0.002601 0.000000
# 4 0.000000 0.000000 0.000000 0.023664 0.000000 0.001515
# 5 0.001235 -0.007055 0.002601 0.000000 0.029466 0.000000
# 6 0.000000 0.000000 0.000000 0.001515 0.000000 0.015449
#
#
# Mechanical properties :
#
#
# Convention : Reuss Voigt Hill
#
# Bulk Modulus (GPa) = 62.73365 64.55258 63.64311
# Shear Modulus (GPa) = 38.11329 45.01059 41.56194
#
# Velocity S-wave (km/s) = 3.71611 4.03839 3.88059
# Velocity P-wave (km/s) = 6.41426 6.71818 6.56798
#
# Compressibility (1/GPa) = 0.01594041
#
# Stress axis : x y z
#
# Youngs Moduli (GPa) = 109.44854 62.36280 87.36698
#
# Poissons Ratio (x) = 0.28518 -0.07415
# Poissons Ratio (y) = 0.50050 0.57790
# Poissons Ratio (z) = -0.09290 0.41251
#
# Static dielectric constant tensor:
#      x y z
#    x 2.246090 0.000000 -0.062700 
#    y 0.000000 2.190660 0.000000 
#    z -0.062700 0.000000 2.112070 
# 
# From -- ./inp_files/3296.got.cif
#   From: 2010.05.17/outbox.cif.g08.bks.cpg/sg4_2_cif.got.tgz:3296.got - 2010.06.03 18:43:04.
