data_PCOD9118554
_publ_section_title
;
Structure prediction by ZEFSAII (Michael W. Deem and Ramdas Pophale) SiO2 
 PCOD9118554
Probable space group: P 21
;
_chemical_formula_sum "Si O2"
_cell_formula_units_Z 16
_cell_length_a 10.401975
_cell_length_b 10.484389
_cell_length_c 9.771186
_cell_angle_alpha 90.000000
_cell_angle_beta 36.641140
_cell_angle_gamma 90.000000
_cell_volume 635.968896
_symmetry_space_group_name_H-M "P 21"
_symmetry_group_IT_number 4
_symmetry_cell_setting 'monoclinic'
loop_
_space_group_symop_operation_xyz
x,y,z
-x,1/2+y,-z
loop_
_atom_site_type_symbol
_atom_site_label
_atom_site_fract_x
_atom_site_fract_y
_atom_site_fract_z
Si Si1 0.311884 0.397830 0.592377
Si Si2 0.142118 0.794797 0.581745
Si Si3 0.039397 0.182553 0.977656
Si Si4 0.298697 0.381729 0.130793
Si Si5 0.472603 0.639780 0.115612
Si Si6 0.645991 0.249696 0.125939
Si Si7 0.497973 0.491824 0.699851
Si Si8 0.128003 0.990726 0.106824
O O1 0.501736 0.344970 0.338804
O O2 0.407665 0.490950 0.624381
O O3 0.127462 0.465986 0.660690
O O4 0.210482 0.277966 0.762644
O O5 0.052307 0.739491 0.800987
O O6 0.312694 0.698739 0.366006
O O7 0.944230 0.831991 0.651793
O O8 0.273421 0.923323 0.497498
O O9 0.843043 0.181378 0.039672
O O10 0.127896 0.044357 0.949089
O O11 0.353630 0.515874 0.155239
O O12 0.460501 0.265823 0.029607
O O13 0.345684 0.409162 0.930171
O O14 0.707090 0.588704 0.963668
O O15 0.492269 0.128859 0.238530
O O16 0.780323 0.353653 0.927787
#
# Coordination Sequence:
#
# PCOD9118554 Si02
#       8
#     2   2   2   2   2   2   2   2
#     4  11  23  39  67 103 137 183 218 280 340 416
#     4  11  23  45  74  99 130 186 229 287 347 418
#     4  11  21  40  66  97 137 180 225 266 346 411
#     4  11  26  50  74  98 139 183 234 300 347 410
#     4  11  27  48  76  99 135 184 240 290 352 413
#     4  11  26  37  65 105 147 180 230 281 335 432
#     4  11  23  43  67 103 137 180 230 280 348 413
#     4  11  25  42  65 100 138 186 224 284 347 409
#
# _framework density 25.158463000000001
#
# number of rings (size 3 to 8) (size 9 to 14) (size 15 to 20)
#    0.000    1.000    5.000    0.750    5.250    4.000 
#    0.000    0.000    0.000    0.000    0.000    0.000 
#    0.000    0.000    0.000    0.000    0.000    0.000 
#
# Total GULP energy -89342.141947 kJ/mol
# GULP energy per Si atom -5583.883872 kJ/mol
# Density = 2.510120 g / cm^3
# Si number density = 25.158463 Si / 1000 Ang^3
#
#
#
# Elastic Constant Matrix: (Units=GPa)
#
#
# Indices 1 2 3 4 5 6 
#
# 1 39.4387 9.3077 23.1903 0.0000 -26.5586 0.0000
# 2 9.3077 122.8488 19.7260 0.0000 -16.7037 0.0000
# 3 23.1903 19.7260 69.5511 0.0000 -12.8327 0.0000
# 4 0.0000 0.0000 0.0000 39.4637 0.0000 -6.2940
# 5 -26.5586 -16.7037 -12.8327 0.0000 29.0209 0.0000
# 6 0.0000 0.0000 0.0000 -6.2940 0.0000 50.8600
#
#
#
# Elastic Compliance Matrix: (Units=1/GPa)
#
#
# Indices 1 2 3 4 5 6 
#
# 1 0.080146 0.005921 -0.015506 0.000000 0.069898 0.000000
# 2 0.005921 0.009459 -0.002888 0.000000 0.009586 0.000000
# 3 -0.015506 -0.002888 0.018992 0.000000 -0.007455 0.000000
# 4 0.000000 0.000000 0.000000 0.025850 0.000000 0.003199
# 5 0.069898 0.009586 -0.007455 0.000000 0.100647 0.000000
# 6 0.000000 0.000000 0.000000 0.003199 0.000000 0.020058
#
#
# Mechanical properties :
#
#
# Convention : Reuss Voigt Hill
#
# Bulk Modulus (GPa) = 11.95438 37.36520 24.65979
# Shear Modulus (GPa) = 16.23482 35.84321 26.03902
#
# Velocity S-wave (km/s) = 2.54304 3.77861 3.22063
# Velocity P-wave (km/s) = 3.65850 5.82421 4.86344
#
# Compressibility (1/GPa) = 0.08365137
#
# Stress axis : x y z
#
# Youngs Moduli (GPa) = 12.47719 105.72356 52.65460
#
# Poissons Ratio (x) = -0.62604 0.81645
# Poissons Ratio (y) = -0.07388 0.15208
# Poissons Ratio (z) = 0.19347 0.30536
#
# Static dielectric constant tensor:
#      x y z
#    x 2.126720 0.000000 0.043710 
#    y 0.000000 2.037760 0.000000 
#    z 0.043710 0.000000 1.971890 
# 
# From -- ./inp_files/12268.got.cif
#   From: 2010.05.17/outbox.cif.g08.bks.cpg/sg4_7_cif.got.tgz:12268.got - 2010.06.03 18:43:04.
