data_PCOD9118716
_publ_section_title
;
Structure prediction by ZEFSAII (Michael W. Deem and Ramdas Pophale) SiO2 
 PCOD9118716
Probable space group: P 21
;
_chemical_formula_sum "Si O2"
_cell_formula_units_Z 16
_cell_length_a 6.580446
_cell_length_b 7.878336
_cell_length_c 16.541646
_cell_angle_alpha 90.000000
_cell_angle_beta 55.358323
_cell_angle_gamma 90.000000
_cell_volume 705.540978
_symmetry_space_group_name_H-M "P 21"
_symmetry_group_IT_number 4
_symmetry_cell_setting 'monoclinic'
loop_
_space_group_symop_operation_xyz
x,y,z
-x,1/2+y,-z
loop_
_atom_site_type_symbol
_atom_site_label
_atom_site_fract_x
_atom_site_fract_y
_atom_site_fract_z
Si Si1 0.997292 0.840200 0.100486
Si Si2 0.893144 0.382396 0.756059
Si Si3 0.774632 0.499509 0.232909
Si Si4 0.774193 0.209228 0.117024
Si Si5 0.713443 0.689344 0.690848
Si Si6 0.724766 0.159534 0.663272
Si Si7 0.147677 0.956292 0.595477
Si Si8 0.523448 0.953609 0.382397
O O1 0.859390 0.673432 0.168896
O O2 0.173246 0.897145 0.134889
O O3 0.836891 0.009934 0.117250
O O4 0.128477 0.775207 0.990343
O O5 0.818425 0.522011 0.709236
O O6 0.754516 0.220517 0.749125
O O7 0.191600 0.401571 0.687284
O O8 0.880260 0.336498 0.161970
O O9 0.475553 0.510715 0.298402
O O10 0.842374 0.488878 0.311418
O O11 0.483925 0.240528 0.195153
O O12 0.550412 0.624814 0.650192
O O13 0.957548 0.802049 0.623305
O O14 0.626379 0.304552 0.627913
O O15 0.002363 0.105166 0.581055
O O16 0.418248 0.951164 0.496625
#
# Coordination Sequence:
#
# PCOD9118716 Si02
#       8
#     2   2   2   2   2   2   2   2
#     4  12  23  47  76 105 139 195 241 298 377 433
#     4  11  23  46  69  98 144 188 241 300 364 431
#     4  12  25  48  73 102 149 187 242 309 358 434
#     4  12  25  47  76 106 145 192 239 309 369 436
#     4  11  25  46  68 107 147 185 246 301 359 443
#     4  11  22  44  68  96 143 184 241 296 362 423
#     4  12  25  41  71 107 145 193 241 293 374 436
#     4  11  24  43  73 103 146 196 237 300 363 438
#
# _framework density 22.677633
#
# number of rings (size 3 to 8) (size 9 to 14) (size 15 to 20)
#    0.000    0.500    6.250    2.250    0.000    4.000 
#    4.500    0.000    0.000    0.000    0.000    0.000 
#    0.000    0.000    0.000    0.000    0.000    0.000 
#
# Total GULP energy -89237.403109 kJ/mol
# GULP energy per Si atom -5577.337694 kJ/mol
# Density = 2.262602 g / cm^3
# Si number density = 22.677633 Si / 1000 Ang^3
#
#
#
# Elastic Constant Matrix: (Units=GPa)
#
#
# Indices 1 2 3 4 5 6 
#
# 1 74.8529 20.7711 19.4805 0.0000 11.9355 0.0000
# 2 20.7711 81.4285 33.9903 0.0000 2.6466 0.0000
# 3 19.4805 33.9903 130.6730 0.0000 9.7064 0.0000
# 4 0.0000 0.0000 0.0000 21.5361 0.0000 -4.2320
# 5 11.9355 2.6466 9.7064 0.0000 24.8752 0.0000
# 6 0.0000 0.0000 0.0000 -4.2320 0.0000 26.7259
#
#
#
# Elastic Compliance Matrix: (Units=1/GPa)
#
#
# Indices 1 2 3 4 5 6 
#
# 1 0.015620 -0.003368 -0.000950 0.000000 -0.006766 0.000000
# 2 -0.003368 0.014503 -0.003374 0.000000 0.001389 0.000000
# 3 -0.000950 -0.003374 0.008868 0.000000 -0.002646 0.000000
# 4 0.000000 0.000000 0.000000 0.047925 0.000000 0.007589
# 5 -0.006766 0.001389 -0.002646 0.000000 0.044332 0.000000
# 6 0.000000 0.000000 0.000000 0.007589 0.000000 0.038619
#
#
# Mechanical properties :
#
#
# Convention : Reuss Voigt Hill
#
# Bulk Modulus (GPa) = 42.35795 48.38204 45.36999
# Shear Modulus (GPa) = 25.89076 28.80827 27.34951
#
# Velocity S-wave (km/s) = 3.38255 3.56805 3.47654
# Velocity P-wave (km/s) = 5.82875 6.19319 6.01373
#
# Compressibility (1/GPa) = 0.02360832
#
# Stress axis : x y z
#
# Youngs Moduli (GPa) = 64.01963 68.95182 112.76052
#
# Poissons Ratio (x) = 0.23223 0.10712
# Poissons Ratio (y) = 0.21562 0.38040
# Poissons Ratio (z) = 0.06082 0.23261
#
# Static dielectric constant tensor:
#      x y z
#    x 1.840270 0.000000 0.007280 
#    y 0.000000 2.055310 0.000000 
#    z 0.007280 0.000000 1.823390 
# 
# From -- ./inp_files/3410.got.cif
#   From: 2010.05.17/outbox.cif.g08.bks.cpg/sg4_2_cif.got.tgz:3410.got - 2010.06.03 18:43:04.
