data_PCOD9118286
_publ_section_title
;
Structure prediction by ZEFSAII (Michael W. Deem and Ramdas Pophale) SiO2 
 PCOD9118286
Probable space group: P 21
;
_chemical_formula_sum "Si O2"
_cell_formula_units_Z 16
_cell_length_a 17.648435
_cell_length_b 8.296088
_cell_length_c 5.241382
_cell_angle_alpha 90.000000
_cell_angle_beta 120.712445
_cell_angle_gamma 90.000000
_cell_volume 659.770939
_symmetry_space_group_name_H-M "P 21"
_symmetry_group_IT_number 4
_symmetry_cell_setting 'monoclinic'
loop_
_space_group_symop_operation_xyz
x,y,z
-x,1/2+y,-z
loop_
_atom_site_type_symbol
_atom_site_label
_atom_site_fract_x
_atom_site_fract_y
_atom_site_fract_z
Si Si1 0.474932 0.121140 0.300611
Si Si2 0.849481 0.019192 0.954684
Si Si3 0.716502 0.527363 0.095080
Si Si4 0.106874 0.038309 0.925869
Si Si5 0.243709 0.389261 0.693434
Si Si6 0.176182 0.824418 0.403808
Si Si7 0.994831 0.341446 0.610285
Si Si8 0.438519 0.487539 0.062962
O O1 0.462388 0.307620 0.202455
O O2 0.533983 0.101065 0.653806
O O3 0.379420 0.040384 0.192636
O O4 0.513050 0.033390 0.115503
O O5 0.820355 0.199048 0.820988
O O6 0.816330 0.917019 0.655263
O O7 0.802677 0.955421 0.130333
O O8 0.954072 0.992645 0.170616
O O9 0.799089 0.514952 0.047977
O O10 0.729613 0.702333 0.245910
O O11 0.732902 0.375875 0.310926
O O12 0.067177 0.205177 0.771479
O O13 0.034596 0.907145 0.713543
O O14 0.132169 0.996988 0.255158
O O15 0.334697 0.486807 0.827234
O O16 0.096355 0.763798 0.443566
#
# Coordination Sequence:
#
# PCOD9118286 Si02
#       8
#     2   2   2   2   2   2   2   2
#     4  11  25  46  75 104 143 183 234 285 359 420
#     4  12  26  43  71 100 141 181 233 289 346 409
#     4  10  25  44  69  99 136 187 228 284 344 423
#     4  11  23  43  65  96 137 181 234 283 345 409
#     4  11  26  47  70 100 138 183 230 282 353 416
#     4  11  26  40  65 102 138 180 237 288 346 407
#     4  11  24  40  68  93 140 185 235 286 347 406
#     4  11  25  47  73 106 139 184 231 291 354 424
#
# _framework density 24.250841999999999
#
# number of rings (size 3 to 8) (size 9 to 14) (size 15 to 20)
#    0.000    1.000    1.250    3.750    8.750    7.000 
#    0.000    0.000    0.000    0.000    0.000    0.000 
#    0.000    0.000    0.000    0.000    0.000    0.000 
#
# Total GULP energy -89444.909696 kJ/mol
# GULP energy per Si atom -5590.306856 kJ/mol
# Density = 2.419565 g / cm^3
# Si number density = 24.250842 Si / 1000 Ang^3
#
#
#
# Elastic Constant Matrix: (Units=GPa)
#
#
# Indices 1 2 3 4 5 6 
#
# 1 57.3841 -0.5919 5.9384 0.0000 -13.3647 0.0000
# 2 -0.5919 70.0597 -15.5249 0.0000 -1.4308 0.0000
# 3 5.9384 -15.5249 78.0818 0.0000 -4.7896 0.0000
# 4 0.0000 0.0000 0.0000 40.2839 0.0000 4.3205
# 5 -13.3647 -1.4308 -4.7896 0.0000 16.7610 0.0000
# 6 0.0000 0.0000 0.0000 4.3205 0.0000 26.5724
#
#
#
# Elastic Compliance Matrix: (Units=1/GPa)
#
#
# Indices 1 2 3 4 5 6 
#
# 1 0.021439 0.000416 -0.000506 0.000000 0.016986 0.000000
# 2 0.000416 0.015017 0.003108 0.000000 0.002502 0.000000
# 3 -0.000506 0.003108 0.013695 0.000000 0.003775 0.000000
# 4 0.000000 0.000000 0.000000 0.025264 0.000000 -0.004108
# 5 0.016986 0.002502 0.003775 0.000000 0.074499 0.000000
# 6 0.000000 0.000000 0.000000 -0.004108 0.000000 0.038301
#
#
# Mechanical properties :
#
#
# Convention : Reuss Voigt Hill
#
# Bulk Modulus (GPa) = 17.79798 20.57429 19.18613
# Shear Modulus (GPa) = 24.88700 31.10375 27.99537
#
# Velocity S-wave (km/s) = 3.20696 3.58520 3.40134
# Velocity P-wave (km/s) = 4.58997 5.06366 4.83262
#
# Compressibility (1/GPa) = 0.05618615
#
# Stress axis : x y z
#
# Youngs Moduli (GPa) = 46.64381 66.59221 73.01922
#
# Poissons Ratio (x) = -0.02770 0.03694
# Poissons Ratio (y) = -0.01940 -0.22691
# Poissons Ratio (z) = 0.02360 -0.20694
#
# Static dielectric constant tensor:
#      x y z
#    x 1.990690 0.000000 -0.042120 
#    y 0.000000 2.034620 0.000000 
#    z -0.042120 0.000000 1.891550 
# 
# From -- ./inp_files/3418.got.cif
#   From: 2010.05.17/outbox.cif.g08.bks.cpg/sg4_2_cif.got.tgz:3418.got - 2010.06.03 18:43:04.
