data_PCOD9118969
_publ_section_title
;
Structure prediction by ZEFSAII (Michael W. Deem and Ramdas Pophale) SiO2 
 PCOD9118969
Probable space group: P 21
;
_chemical_formula_sum "Si O2"
_cell_formula_units_Z 16
_cell_length_a 8.734732
_cell_length_b 5.177250
_cell_length_c 14.762718
_cell_angle_alpha 90.000000
_cell_angle_beta 114.418581
_cell_angle_gamma 90.000000
_cell_volume 607.881146
_symmetry_space_group_name_H-M "P 21"
_symmetry_group_IT_number 4
_symmetry_cell_setting 'monoclinic'
loop_
_space_group_symop_operation_xyz
x,y,z
-x,1/2+y,-z
loop_
_atom_site_type_symbol
_atom_site_label
_atom_site_fract_x
_atom_site_fract_y
_atom_site_fract_z
Si Si1 0.898856 0.998980 0.616618
Si Si2 0.561692 0.469796 0.286743
Si Si3 0.120016 0.384203 0.921993
Si Si4 0.800332 0.240556 0.227397
Si Si5 0.598084 0.522389 0.989677
Si Si6 0.868073 0.857992 0.401093
Si Si7 0.452942 0.248847 0.438055
Si Si8 0.252234 0.729591 0.125115
O O1 0.911001 0.893007 0.516252
O O2 0.036690 0.915550 0.722956
O O3 0.724774 0.891885 0.607360
O O4 0.957739 0.287697 0.608530
O O5 0.629433 0.396928 0.203096
O O6 0.715538 0.651193 0.358767
O O7 0.531179 0.259946 0.357743
O O8 0.379697 0.598543 0.226082
O O9 0.509926 0.268152 0.007141
O O10 0.919832 0.348507 0.878006
O O11 0.187968 0.530730 0.029743
O O12 0.213033 0.107653 0.936077
O O13 0.821216 0.049383 0.149727
O O14 0.803506 0.088185 0.323618
O O15 0.632022 0.448846 0.893722
O O16 0.447293 0.957850 0.474458
#
# Coordination Sequence:
#
# PCOD9118969 Si02
#       8
#     2   2   2   2   2   2   2   2
#     4  11  24  44  78 111 161 212 270 338 414 493
#     4  11  29  50  79 124 164 218 283 348 423 509
#     4  12  29  53  83 121 171 221 282 353 433 504
#     4  11  28  49  82 116 161 217 288 336 426 502
#     4  12  28  51  87 122 160 222 280 344 421 503
#     4  11  23  46  75 114 154 211 272 339 407 501
#     4  12  28  49  81 120 170 217 274 346 425 500
#     4  12  29  54  83 120 175 218 283 358 429 504
#
# _framework density 26.320934000000001
#
# number of rings (size 3 to 8) (size 9 to 14) (size 15 to 20)
#    0.000    0.500    5.000    0.750   10.500    2.000 
#    0.000    0.000    0.000    0.000    0.000    0.000 
#    0.000    0.000    0.000    0.000    0.000    0.000 
#
# Total GULP energy -89532.895788 kJ/mol
# GULP energy per Si atom -5595.805987 kJ/mol
# Density = 2.626103 g / cm^3
# Si number density = 26.320934 Si / 1000 Ang^3
#
#
#
# Elastic Constant Matrix: (Units=GPa)
#
#
# Indices 1 2 3 4 5 6 
#
# 1 115.2782 19.3357 5.2849 0.0000 3.8108 0.0000
# 2 19.3357 81.6881 11.1551 0.0000 -4.8342 0.0000
# 3 5.2849 11.1551 106.1247 0.0000 -7.1983 0.0000
# 4 0.0000 0.0000 0.0000 31.8867 0.0000 6.7035
# 5 3.8108 -4.8342 -7.1983 0.0000 40.7557 0.0000
# 6 0.0000 0.0000 0.0000 6.7035 0.0000 43.3525
#
#
#
# Elastic Compliance Matrix: (Units=1/GPa)
#
#
# Indices 1 2 3 4 5 6 
#
# 1 0.009093 -0.002180 -0.000303 0.000000 -0.001162 0.000000
# 2 -0.002180 0.013006 -0.001154 0.000000 0.001543 0.000000
# 3 -0.000303 -0.001154 0.009668 0.000000 0.001599 0.000000
# 4 0.000000 0.000000 0.000000 0.032415 0.000000 -0.005012
# 5 -0.001162 0.001543 0.001599 0.000000 0.025110 0.000000
# 6 0.000000 0.000000 0.000000 -0.005012 0.000000 0.023842
#
#
# Mechanical properties :
#
#
# Convention : Reuss Voigt Hill
#
# Bulk Modulus (GPa) = 40.82564 41.62694 41.22629
# Shear Modulus (GPa) = 38.88906 41.02001 39.95453
#
# Velocity S-wave (km/s) = 3.84799 3.95201 3.90035
# Velocity P-wave (km/s) = 5.94029 6.05591 5.99838
#
# Compressibility (1/GPa) = 0.02449441
#
# Stress axis : x y z
#
# Youngs Moduli (GPa) = 109.98007 76.88469 103.43734
#
# Poissons Ratio (x) = 0.16758 0.03129
# Poissons Ratio (y) = 0.23972 0.11936
# Poissons Ratio (z) = 0.03327 0.08872
#
# Static dielectric constant tensor:
#      x y z
#    x 2.040920 0.000000 0.026560 
#    y 0.000000 2.153160 0.000000 
#    z 0.026560 0.000000 2.133900 
# 
# From -- ./inp_files/8833.got.cif
#   From: 2010.05.17/outbox.cif.g08.bks.cpg/sg4_5_cif.got.tgz:8833.got - 2010.06.03 18:43:04.
