data_PCOD9118472
_publ_section_title
;
Structure prediction by ZEFSAII (Michael W. Deem and Ramdas Pophale) SiO2 
 PCOD9118472
Probable space group: P 21
;
_chemical_formula_sum "Si O2"
_cell_formula_units_Z 12
_cell_length_a 20.674357
_cell_length_b 5.714704
_cell_length_c 9.109345
_cell_angle_alpha 90.000000
_cell_angle_beta 25.578059
_cell_angle_gamma 90.000000
_cell_volume 464.660289
_symmetry_space_group_name_H-M "P 21"
_symmetry_group_IT_number 4
_symmetry_cell_setting 'monoclinic'
loop_
_space_group_symop_operation_xyz
x,y,z
-x,1/2+y,-z
loop_
_atom_site_type_symbol
_atom_site_label
_atom_site_fract_x
_atom_site_fract_y
_atom_site_fract_z
Si Si1 0.069058 0.245220 0.201587
Si Si2 0.427422 0.386530 0.187045
Si Si3 0.762028 0.419354 0.912979
Si Si4 0.192580 0.177679 0.462088
Si Si5 0.314060 0.612947 0.692677
Si Si6 0.868532 0.401142 0.151929
O O1 0.892097 0.259175 0.577968
O O2 0.144016 0.058565 0.155931
O O3 0.159617 0.480327 0.048039
O O4 0.106478 0.160470 0.962374
O O5 0.284333 0.363310 0.370686
O O6 0.407973 0.427784 0.403802
O O7 0.507005 0.625124 0.970128
O O8 0.728719 0.606757 0.852638
O O9 0.644264 0.260746 0.246470
O O10 0.177175 0.939492 0.588296
O O11 0.021544 0.266693 0.800390
O O12 0.266504 0.790887 0.661924
#
# Coordination Sequence:
#
# PCOD9118472 Si02
#       6
#     2   2   2   2   2   2
#     4  11  19  38  62 107 153 190 213 281 410 482
#     4  12  29  53  78 102 147 216 277 318 371 443
#     4  11  22  36  69 113 152 189 231 304 396 473
#     4  12  23  42  71 115 147 190 257 328 371 463
#     4  11  23  45  71 104 151 196 236 307 387 476
#     4  11  22  38  69 109 152 185 236 312 405 453
#
# _framework density 25.825317999999999
#
# number of rings (size 3 to 8) (size 9 to 14) (size 15 to 20)
#    0.000    0.667    5.000    4.000    2.333    1.333 
#    0.000    0.000    3.667    0.000    0.000    0.000 
#    0.000    0.000    0.000    0.000    0.000    0.000 
#
# Total GULP energy -66993.129765 kJ/mol
# GULP energy per Si atom -5582.760814 kJ/mol
# Density = 2.576654 g / cm^3
# Si number density = 25.825318 Si / 1000 Ang^3
#
#
#
# Elastic Constant Matrix: (Units=GPa)
#
#
# Indices 1 2 3 4 5 6 
#
# 1 75.4945 15.4339 29.0711 0.0000 31.1797 0.0000
# 2 15.4339 92.2450 36.3131 0.0000 13.0084 0.0000
# 3 29.0711 36.3131 78.5322 0.0000 26.6488 0.0000
# 4 0.0000 0.0000 0.0000 49.5233 0.0000 6.4336
# 5 31.1797 13.0084 26.6488 0.0000 41.8117 0.0000
# 6 0.0000 0.0000 0.0000 6.4336 0.0000 46.2894
#
#
#
# Elastic Compliance Matrix: (Units=1/GPa)
#
#
# Indices 1 2 3 4 5 6 
#
# 1 0.019671 -0.000403 -0.002756 0.000000 -0.012787 0.000000
# 2 -0.000403 0.013264 -0.005979 0.000000 -0.000016 0.000000
# 3 -0.002756 -0.005979 0.019382 0.000000 -0.008437 0.000000
# 4 0.000000 0.000000 0.000000 0.020564 0.000000 -0.002858
# 5 -0.012787 -0.000016 -0.008437 0.000000 0.038834 0.000000
# 6 0.000000 0.000000 0.000000 -0.002858 0.000000 0.022000
#
#
# Mechanical properties :
#
#
# Convention : Reuss Voigt Hill
#
# Bulk Modulus (GPa) = 29.37712 45.32308 37.35010
# Shear Modulus (GPa) = 30.61140 38.55513 34.58327
#
# Velocity S-wave (km/s) = 3.44659 3.86802 3.66337
# Velocity P-wave (km/s) = 5.21907 6.12673 5.69102
#
# Compressibility (1/GPa) = 0.03404010
#
# Stress axis : x y z
#
# Youngs Moduli (GPa) = 50.83685 75.39265 51.59522
#
# Poissons Ratio (x) = 0.03038 0.14222
# Poissons Ratio (y) = 0.02048 0.30847
# Poissons Ratio (z) = 0.14013 0.45075
#
# Static dielectric constant tensor:
#      x y z
#    x 2.071800 0.000000 -0.041500 
#    y 0.000000 2.058050 0.000000 
#    z -0.041500 0.000000 2.141810 
# 
# From -- ./inp_files/8743.got.cif
#   From: 2010.05.17/outbox.cif.g08.bks.cpg/sg4_5_cif.got.tgz:8743.got - 2010.06.03 18:43:04.
