data_PCOD9118429
_publ_section_title
;
Structure prediction by ZEFSAII (Michael W. Deem and Ramdas Pophale) SiO2 
 PCOD9118429
Probable space group: P 21
;
_chemical_formula_sum "Si O2"
_cell_formula_units_Z 16
_cell_length_a 13.808135
_cell_length_b 5.623535
_cell_length_c 25.934415
_cell_angle_alpha 90.000000
_cell_angle_beta 20.098631
_cell_angle_gamma 90.000000
_cell_volume 692.023951
_symmetry_space_group_name_H-M "P 21"
_symmetry_group_IT_number 4
_symmetry_cell_setting 'monoclinic'
loop_
_space_group_symop_operation_xyz
x,y,z
-x,1/2+y,-z
loop_
_atom_site_type_symbol
_atom_site_label
_atom_site_fract_x
_atom_site_fract_y
_atom_site_fract_z
Si Si1 0.309385 0.953440 0.718852
Si Si2 0.338262 0.503809 0.358708
Si Si3 0.338241 0.994436 0.303030
Si Si4 0.240887 0.316072 0.660698
Si Si5 0.281775 0.398902 0.182855
Si Si6 0.690606 0.044756 0.028236
Si Si7 0.281734 0.099324 0.535396
Si Si8 0.240878 0.182158 0.098426
O O1 0.530999 0.039811 0.650162
O O2 0.469461 0.707613 0.623743
O O3 0.265631 0.095818 0.687445
O O4 0.999979 0.999071 0.898097
O O5 0.420828 0.749127 0.289582
O O6 0.000010 0.499118 0.531099
O O7 0.421986 0.249129 0.288998
O O8 0.468936 0.958391 0.181179
O O9 0.179162 0.274661 0.631625
O O10 0.554446 0.414734 0.510388
O O11 0.000022 0.499141 0.799593
O O12 0.530592 0.290620 0.093181
O O13 0.179183 0.223543 0.189213
O O14 0.000017 0.499124 0.350478
O O15 0.445588 0.583469 0.064817
O O16 0.734361 0.902431 0.953068
#
# Coordination Sequence:
#
# PCOD9118429 Si02
#       8
#     2   2   2   2   2   2   2   2
#     4  12  27  45  70 105 144 194 244 309 381 452
#     4  10  26  50  78 108 142 184 246 316 384 461
#     4  10  26  50  78 108 142 184 246 316 384 461
#     4  12  24  44  66 102 154 195 244 304 370 447
#     4  12  26  41  69 104 149 201 250 301 365 451
#     4  12  27  45  70 105 144 194 244 309 381 452
#     4  12  26  41  69 104 149 201 250 301 365 451
#     4  12  24  44  66 102 154 195 244 304 370 447
#
# _framework density 23.120588000000001
#
# number of rings (size 3 to 8) (size 9 to 14) (size 15 to 20)
#    0.000    0.500    5.000    2.250    7.000    2.000 
#    0.000    0.000    0.000    0.000    0.000    0.000 
#    0.000    0.000    0.000    0.000    0.000    0.000 
#
# Total GULP energy -89084.003266 kJ/mol
# GULP energy per Si atom -5567.750204 kJ/mol
# Density = 2.306796 g / cm^3
# Si number density = 23.120588 Si / 1000 Ang^3
#
#
#
# Elastic Constant Matrix: (Units=GPa)
#
#
# Indices 1 2 3 4 5 6 
#
# 1 49.3173 7.6505 -1.4323 0.0000 -7.4546 0.0000
# 2 7.6505 73.3909 38.1719 0.0000 -16.2327 0.0000
# 3 -1.4323 38.1719 90.3354 0.0000 -14.3567 0.0000
# 4 0.0000 0.0000 0.0000 44.8631 0.0000 -11.6553
# 5 -7.4546 -16.2327 -14.3567 0.0000 36.0443 0.0000
# 6 0.0000 0.0000 0.0000 -11.6553 0.0000 22.9244
#
#
#
# Elastic Compliance Matrix: (Units=1/GPa)
#
#
# Indices 1 2 3 4 5 6 
#
# 1 0.021324 -0.002338 0.001985 0.000000 0.004148 0.000000
# 2 -0.002338 0.018707 -0.007131 0.000000 0.005101 0.000000
# 3 0.001985 -0.007131 0.014593 0.000000 0.003012 0.000000
# 4 0.000000 0.000000 0.000000 0.025682 0.000000 0.013058
# 5 0.004148 0.005101 0.003012 0.000000 0.032098 0.000000
# 6 0.000000 0.000000 0.000000 0.013058 0.000000 0.050260
#
#
# Mechanical properties :
#
#
# Convention : Reuss Voigt Hill
#
# Bulk Modulus (GPa) = 25.21660 33.53600 29.37630
# Shear Modulus (GPa) = 26.19841 32.00993 29.10417
#
# Velocity S-wave (km/s) = 3.36984 3.72489 3.55180
# Velocity P-wave (km/s) = 5.10601 5.74770 5.43633
#
# Compressibility (1/GPa) = 0.03965641
#
# Stress axis : x y z
#
# Youngs Moduli (GPa) = 46.89511 53.45725 68.52489
#
# Poissons Ratio (x) = 0.12498 -0.13604
# Poissons Ratio (y) = 0.10964 0.48865
# Poissons Ratio (z) = -0.09310 0.38121
#
# Static dielectric constant tensor:
#      x y z
#    x 1.878050 0.000000 -0.058330 
#    y 0.000000 2.087500 0.000000 
#    z -0.058330 0.000000 1.987710 
# 
# From -- ./inp_files/10137.got.cif
#   From: 2010.05.17/outbox.cif.g08.bks.cpg/sg4_6_cif.got.tgz:10137.got - 2010.06.03 18:43:04.
