data_PCOD9118612
_publ_section_title
;
Structure prediction by ZEFSAII (Michael W. Deem and Ramdas Pophale) SiO2 
 PCOD9118612
Probable space group: P 21
;
_chemical_formula_sum "Si O2"
_cell_formula_units_Z 14
_cell_length_a 8.957641
_cell_length_b 13.671857
_cell_length_c 7.754498
_cell_angle_alpha 90.000000
_cell_angle_beta 146.731319
_cell_angle_gamma 90.000000
_cell_volume 520.959102
_symmetry_space_group_name_H-M "P 21"
_symmetry_group_IT_number 4
_symmetry_cell_setting 'monoclinic'
loop_
_space_group_symop_operation_xyz
x,y,z
-x,1/2+y,-z
loop_
_atom_site_type_symbol
_atom_site_label
_atom_site_fract_x
_atom_site_fract_y
_atom_site_fract_z
Si Si1 0.798911 0.441540 0.547782
Si Si2 0.526545 0.255800 0.731949
Si Si3 0.032993 0.300802 0.063359
Si Si4 0.849643 0.669647 0.109923
Si Si5 0.274755 0.542125 0.154546
Si Si6 0.678343 0.038754 0.394027
Si Si7 0.800689 0.845308 0.294854
O O1 0.898512 0.384903 0.472887
O O2 0.486481 0.468607 0.263232
O O3 0.893898 0.375109 0.799486
O O4 0.996768 0.533725 0.777000
O O5 0.345364 0.310307 0.414068
O O6 0.578887 0.145413 0.728359
O O7 0.330591 0.265405 0.703254
O O8 0.828642 0.300826 0.029066
O O9 0.033597 0.196323 0.966172
O O10 0.747232 0.775601 0.074988
O O11 0.101982 0.620562 0.453263
O O12 0.612798 0.590651 0.882818
O O13 0.250480 0.516852 0.335209
O O14 0.687844 0.943924 0.281154
#
# Coordination Sequence:
#
# PCOD9118612 Si02
#       7
#     2   2   2   2   2   2   2
#     4  11  26  43  70 102 141 184 231 289 357 426
#     4  12  25  44  72 107 137 185 239 296 350 422
#     4  11  21  46  69  99 139 181 238 288 344 419
#     4  11  25  47  70 105 146 188 241 302 356 426
#     4  12  24  46  75 103 137 189 244 292 345 433
#     4  12  25  47  75 103 146 194 243 296 360 422
#     4  11  30  45  73 109 150 193 232 301 372 432
#
# _framework density 26.873508999999999
#
# number of rings (size 3 to 8) (size 9 to 14) (size 15 to 20)
#    0.000    0.571    2.857    4.286    4.000    8.000 
#    0.000    0.000    0.000    0.000    0.000    0.000 
#    0.000    0.000    0.000    0.000    0.000    0.000 
#
# Total GULP energy -78166.699403 kJ/mol
# GULP energy per Si atom -5583.335672 kJ/mol
# Density = 2.681234 g / cm^3
# Si number density = 26.873509 Si / 1000 Ang^3
#
#
#
# Elastic Constant Matrix: (Units=GPa)
#
#
# Indices 1 2 3 4 5 6 
#
# 1 159.9190 36.4859 24.2626 0.0000 7.4294 0.0000
# 2 36.4859 105.7293 16.0296 0.0000 4.6747 0.0000
# 3 24.2626 16.0296 88.5939 0.0000 28.2934 0.0000
# 4 0.0000 0.0000 0.0000 28.1211 0.0000 2.5377
# 5 7.4294 4.6747 28.2934 0.0000 30.6013 0.0000
# 6 0.0000 0.0000 0.0000 2.5377 0.0000 47.4328
#
#
#
# Elastic Compliance Matrix: (Units=1/GPa)
#
#
# Indices 1 2 3 4 5 6 
#
# 1 0.006981 -0.002179 -0.001536 0.000000 0.000058 0.000000
# 2 -0.002179 0.010406 -0.001344 0.000000 0.000182 0.000000
# 3 -0.001536 -0.001344 0.016697 0.000000 -0.014859 0.000000
# 4 0.000000 0.000000 0.000000 0.035733 0.000000 -0.001912
# 5 0.000058 0.000182 -0.014859 0.000000 0.046375 0.000000
# 6 0.000000 0.000000 0.000000 -0.001912 0.000000 0.021185
#
#
# Mechanical properties :
#
#
# Convention : Reuss Voigt Hill
#
# Bulk Modulus (GPa) = 41.72757 56.42202 49.07479
# Shear Modulus (GPa) = 32.15799 39.72864 35.94332
#
# Velocity S-wave (km/s) = 3.46301 3.84911 3.66115
# Velocity P-wave (km/s) = 5.61703 6.38711 6.01441
#
# Compressibility (1/GPa) = 0.02396497
#
# Stress axis : x y z
#
# Youngs Moduli (GPa) = 143.25475 96.10146 59.89152
#
# Poissons Ratio (x) = 0.20937 0.09200
# Poissons Ratio (y) = 0.31209 0.08051
# Poissons Ratio (z) = 0.22007 0.12919
#
# Static dielectric constant tensor:
#      x y z
#    x 2.160620 0.000000 -0.065830 
#    y 0.000000 2.213760 0.000000 
#    z -0.065830 0.000000 2.037880 
# 
# From -- ./inp_files/6523.got.cif
#   From: 2010.05.17/outbox.cif.g08.bks.cpg/sg4_4_cif.got.tgz:6523.got - 2010.06.03 18:43:04.
