data_PCOD9118287
_publ_section_title
;
Structure prediction by ZEFSAII (Michael W. Deem and Ramdas Pophale) SiO2 
 PCOD9118287
Probable space group: P 21
;
_chemical_formula_sum "Si O2"
_cell_formula_units_Z 14
_cell_length_a 8.692781
_cell_length_b 12.874979
_cell_length_c 8.213813
_cell_angle_alpha 90.000000
_cell_angle_beta 139.119385
_cell_angle_gamma 90.000000
_cell_volume 601.658155
_symmetry_space_group_name_H-M "P 21"
_symmetry_group_IT_number 4
_symmetry_cell_setting 'monoclinic'
loop_
_space_group_symop_operation_xyz
x,y,z
-x,1/2+y,-z
loop_
_atom_site_type_symbol
_atom_site_label
_atom_site_fract_x
_atom_site_fract_y
_atom_site_fract_z
Si Si1 0.167111 0.779200 0.061343
Si Si2 0.738253 0.845449 0.905289
Si Si3 0.467135 0.456217 0.758303
Si Si4 0.934465 0.825574 0.420025
Si Si5 0.340041 0.957329 0.734630
Si Si6 0.525158 0.157642 0.457084
Si Si7 0.880076 0.641836 0.597532
O O1 0.366752 0.862022 0.172831
O O2 0.247015 0.710691 0.280258
O O3 0.936542 0.846353 0.925180
O O4 0.095553 0.693541 0.868646
O O5 0.554775 0.939359 0.781782
O O6 0.589109 0.742564 0.752430
O O7 0.863767 0.836896 0.177965
O O8 0.214176 0.406347 0.590836
O O9 0.449601 0.549979 0.617414
O O10 0.566543 0.493007 0.014636
O O11 0.857134 0.714693 0.423369
O O12 0.208633 0.848564 0.661512
O O13 0.140104 0.027012 0.490225
O O14 0.339331 0.148456 0.455883
#
# Coordination Sequence:
#
# PCOD9118287 Si02
#       7
#     2   2   2   2   2   2   2
#     4  11  24  49  72 104 149 188 240 311 352 437
#     4  10  25  44  71 105 140 189 234 300 357 427
#     4  11  25  46  72 103 142 192 243 297 375 418
#     4  11  23  45  71 103 145 185 236 308 349 440
#     4  11  25  46  74 105 144 194 241 301 362 441
#     4  11  25  44  71 105 145 189 244 301 355 445
#     4  11  25  44  71 107 141 189 242 298 368 422
#
# _framework density 23.269024999999999
#
# number of rings (size 3 to 8) (size 9 to 14) (size 15 to 20)
#    0.000    1.143    2.857    1.714    4.000    6.857 
#    2.571    0.000    0.000    0.000    0.000    0.000 
#    0.000    0.000    0.000    0.000    0.000    0.000 
#
# Total GULP energy -78273.318329 kJ/mol
# GULP energy per Si atom -5590.951309 kJ/mol
# Density = 2.321606 g / cm^3
# Si number density = 23.269025 Si / 1000 Ang^3
#
#
#
# Elastic Constant Matrix: (Units=GPa)
#
#
# Indices 1 2 3 4 5 6 
#
# 1 91.1473 39.8744 19.7616 0.0000 13.6815 0.0000
# 2 39.8744 90.2763 33.2484 0.0000 -5.6699 0.0000
# 3 19.7616 33.2484 76.5200 0.0000 -4.8528 0.0000
# 4 0.0000 0.0000 0.0000 35.8509 0.0000 -7.7714
# 5 13.6815 -5.6699 -4.8528 0.0000 27.1371 0.0000
# 6 0.0000 0.0000 0.0000 -7.7714 0.0000 37.6440
#
#
#
# Elastic Compliance Matrix: (Units=1/GPa)
#
#
# Indices 1 2 3 4 5 6 
#
# 1 0.015863 -0.007003 -0.001673 0.000000 -0.009760 0.000000
# 2 -0.007003 0.016362 -0.004916 0.000000 0.006070 0.000000
# 3 -0.001673 -0.004916 0.015804 0.000000 0.002642 0.000000
# 4 0.000000 0.000000 0.000000 0.029200 0.000000 0.006028
# 5 -0.009760 0.006070 0.002642 0.000000 0.043511 0.000000
# 6 0.000000 0.000000 0.000000 0.006028 0.000000 0.027809
#
#
# Mechanical properties :
#
#
# Convention : Reuss Voigt Hill
#
# Bulk Modulus (GPa) = 47.97254 49.30138 48.63696
# Shear Modulus (GPa) = 27.37013 31.13037 29.25025
#
# Velocity S-wave (km/s) = 3.43337 3.66163 3.54933
# Velocity P-wave (km/s) = 6.03147 6.25382 6.14365
#
# Compressibility (1/GPa) = 0.02084526
#
# Stress axis : x y z
#
# Youngs Moduli (GPa) = 63.04134 61.11656 63.27537
#
# Poissons Ratio (x) = 0.42802 0.10583
# Poissons Ratio (y) = 0.44150 0.31105
# Poissons Ratio (z) = 0.10544 0.30044
#
# Static dielectric constant tensor:
#      x y z
#    x 1.865880 0.000000 -0.011350 
#    y 0.000000 1.858440 0.000000 
#    z -0.011350 0.000000 1.873310 
# 
# From -- ./inp_files/1112.got.cif
#   From: 2010.05.17/outbox.cif.g08.bks.cpg/sg4_1_cif.got.tgz:1112.got - 2010.06.03 18:43:04.
