data_PCOD9118795
_publ_section_title
;
Structure prediction by ZEFSAII (Michael W. Deem and Ramdas Pophale) SiO2 
 PCOD9118795
Probable space group: P 21
;
_chemical_formula_sum "Si O2"
_cell_formula_units_Z 16
_cell_length_a 22.303638
_cell_length_b 5.083230
_cell_length_c 14.242203
_cell_angle_alpha 90.000000
_cell_angle_beta 158.233648
_cell_angle_gamma 90.000000
_cell_volume 598.768188
_symmetry_space_group_name_H-M "P 21"
_symmetry_group_IT_number 4
_symmetry_cell_setting 'monoclinic'
loop_
_space_group_symop_operation_xyz
x,y,z
-x,1/2+y,-z
loop_
_atom_site_type_symbol
_atom_site_label
_atom_site_fract_x
_atom_site_fract_y
_atom_site_fract_z
Si Si1 0.619973 0.178260 0.532474
Si Si2 0.634210 0.757923 0.986156
Si Si3 0.699994 0.582262 0.809439
Si Si4 0.834926 0.231545 0.272168
Si Si5 0.590440 0.764975 0.136593
Si Si6 0.129735 0.348613 0.337252
Si Si7 0.916608 0.867851 0.996160
Si Si8 0.996308 0.916882 0.645267
O O1 0.536586 0.261881 0.314643
O O2 0.691293 0.417521 0.699036
O O3 0.472521 0.092095 0.388944
O O4 0.760066 0.967309 0.708946
O O5 0.713306 0.473712 0.093778
O O6 0.645725 0.839036 0.111591
O O7 0.735976 0.987102 0.085937
O O8 0.807805 0.836777 0.934596
O O9 0.819896 0.449776 0.056285
O O10 0.989692 0.258463 0.429875
O O11 0.907854 0.180067 0.481841
O O12 0.679437 0.845212 0.363633
O O13 0.568326 0.451770 0.096017
O O14 0.029946 0.608073 0.162210
O O15 0.085323 0.299923 0.382914
O O16 0.046488 0.099605 0.168441
#
# Coordination Sequence:
#
# PCOD9118795 Si02
#       8
#     2   2   2   2   2   2   2   2
#     4  12  24  41  63 101 155 192 252 260 335 405
#     4  12  29  44  72 105 145 188 234 308 349 433
#     4  11  24  37  62  98 145 214 232 269 309 415
#     4  12  26  42  62 106 153 191 232 281 352 419
#     4  12  27  54  80 106 131 174 238 319 395 430
#     4  11  25  42  72 103 134 178 244 278 353 423
#     4  11  23  40  64 102 139 191 232 280 311 411
#     4  11  24  40  63 101 148 198 224 277 332 426
#
# _framework density 26.721526000000001
#
# number of rings (size 3 to 8) (size 9 to 14) (size 15 to 20)
#    0.000    0.500    6.250    2.250    8.750    0.000 
#    0.000    0.000    0.000    3.000    0.000    0.000 
#    0.000    0.000    0.000    0.000    0.000    0.000 
#
# Total GULP energy -89252.899592 kJ/mol
# GULP energy per Si atom -5578.306224 kJ/mol
# Density = 2.666071 g / cm^3
# Si number density = 26.721526 Si / 1000 Ang^3
#
#
#
# Elastic Constant Matrix: (Units=GPa)
#
#
# Indices 1 2 3 4 5 6 
#
# 1 41.0506 -15.9950 -3.0982 0.0000 -13.8722 0.0000
# 2 -15.9950 117.6465 52.3742 0.0000 -7.5868 0.0000
# 3 -3.0982 52.3742 160.7656 0.0000 -41.8160 0.0000
# 4 0.0000 0.0000 0.0000 34.8508 0.0000 0.5706
# 5 -13.8722 -7.5868 -41.8160 0.0000 32.8655 0.0000
# 6 0.0000 0.0000 0.0000 0.5706 0.0000 21.6371
#
#
#
# Elastic Compliance Matrix: (Units=1/GPa)
#
#
# Indices 1 2 3 4 5 6 
#
# 1 0.033356 0.003694 0.004967 0.000000 0.021252 0.000000
# 2 0.003694 0.010518 -0.003465 0.000000 -0.000421 0.000000
# 3 0.004967 -0.003465 0.011631 0.000000 0.016096 0.000000
# 4 0.000000 0.000000 0.000000 0.028706 0.000000 -0.000757
# 5 0.021252 -0.000421 0.016096 0.000000 0.059779 0.000000
# 6 0.000000 0.000000 0.000000 -0.000757 0.000000 0.046237
#
#
# Mechanical properties :
#
#
# Convention : Reuss Voigt Hill
#
# Bulk Modulus (GPa) = 15.17496 42.89165 29.03331
# Shear Modulus (GPa) = 24.77702 36.94946 30.86324
#
# Velocity S-wave (km/s) = 3.04835 3.72258 3.40221
# Velocity P-wave (km/s) = 4.25220 5.87903 5.13051
#
# Compressibility (1/GPa) = 0.06589801
#
# Stress axis : x y z
#
# Youngs Moduli (GPa) = 29.97954 95.07866 85.97530
#
# Poissons Ratio (x) = -0.35125 -0.42704
# Poissons Ratio (y) = -0.11075 0.29788
# Poissons Ratio (z) = -0.14891 0.32942
#
# Static dielectric constant tensor:
#      x y z
#    x 2.293120 0.000000 0.162250 
#    y 0.000000 2.193180 0.000000 
#    z 0.162250 0.000000 2.400820 
# 
# From -- ./inp_files/14534.got.cif
#   From: 2010.05.17/outbox.cif.g08.bks.cpg/sg4_8_cif.got.tgz:14534.got - 2010.06.03 18:43:04.
