data_PCOD9118279
_publ_section_title
;
Structure prediction by ZEFSAII (Michael W. Deem and Ramdas Pophale) SiO2 
 PCOD9118279
Probable space group: P 21
;
_chemical_formula_sum "Si O2"
_cell_formula_units_Z 14
_cell_length_a 13.660957
_cell_length_b 8.808114
_cell_length_c 8.296162
_cell_angle_alpha 90.000000
_cell_angle_beta 33.577048
_cell_angle_gamma 90.000000
_cell_volume 552.092482
_symmetry_space_group_name_H-M "P 21"
_symmetry_group_IT_number 4
_symmetry_cell_setting 'monoclinic'
loop_
_space_group_symop_operation_xyz
x,y,z
-x,1/2+y,-z
loop_
_atom_site_type_symbol
_atom_site_label
_atom_site_fract_x
_atom_site_fract_y
_atom_site_fract_z
Si Si1 0.226181 0.146360 0.591987
Si Si2 0.840419 0.852065 0.866525
Si Si3 0.386945 0.061137 0.804514
Si Si4 0.761556 0.392446 0.703138
Si Si5 0.026232 0.408774 0.959978
Si Si6 0.638646 0.126507 0.032813
Si Si7 0.694992 0.273036 0.277803
O O1 0.156553 0.318456 0.658878
O O2 0.432344 0.155468 0.356090
O O3 0.231197 0.019115 0.445596
O O4 0.075221 0.070315 0.915696
O O5 0.033809 0.874798 0.525223
O O6 0.775165 0.679579 0.965095
O O7 0.868777 0.902775 0.014925
O O8 0.698398 0.952517 0.963290
O O9 0.556637 0.163614 0.549607
O O10 0.382583 0.934839 0.670983
O O11 0.371646 0.966630 0.987316
O O12 0.690837 0.218359 0.799428
O O13 0.851045 0.305560 0.185367
O O14 0.747904 0.199334 0.033693
#
# Coordination Sequence:
#
# PCOD9118279 Si02
#       7
#     2   2   2   2   2   2   2
#     4  11  25  44  66 101 138 179 232 283 345 407
#     4  11  22  41  65  95 132 174 227 282 344 408
#     4  11  23  41  66  97 132 177 228 284 342 407
#     4  10  25  44  65  97 136 181 229 281 346 408
#     4  11  23  41  68 100 136 177 227 286 341 406
#     4  11  24  44  69  98 139 184 229 284 340 411
#     4  11  22  39  65  98 133 176 230 280 340 403
#
# _framework density 25.358073000000001
#
# number of rings (size 3 to 8) (size 9 to 14) (size 15 to 20)
#    0.000    1.143    0.000    6.857    0.000    8.000 
#    0.000    4.286    0.000    0.000    0.000    0.000 
#    0.000    0.000    0.000    0.000    0.000    0.000 
#
# Total GULP energy -78102.255381 kJ/mol
# GULP energy per Si atom -5578.732527 kJ/mol
# Density = 2.530036 g / cm^3
# Si number density = 25.358073 Si / 1000 Ang^3
#
#
#
# Elastic Constant Matrix: (Units=GPa)
#
#
# Indices 1 2 3 4 5 6 
#
# 1 46.2725 34.8543 21.0771 0.0000 -12.1070 0.0000
# 2 34.8543 141.5053 51.9895 0.0000 -11.8754 0.0000
# 3 21.0771 51.9895 92.0345 0.0000 -6.9959 0.0000
# 4 0.0000 0.0000 0.0000 68.7507 0.0000 0.0972
# 5 -12.1070 -11.8754 -6.9959 0.0000 33.6829 0.0000
# 6 0.0000 0.0000 0.0000 0.0972 0.0000 41.8988
#
#
#
# Elastic Compliance Matrix: (Units=1/GPa)
#
#
# Indices 1 2 3 4 5 6 
#
# 1 0.029131 -0.005400 -0.003017 0.000000 0.007940 0.000000
# 2 -0.005400 0.010072 -0.004400 0.000000 0.000696 0.000000
# 3 -0.003017 -0.004400 0.014064 0.000000 0.000285 0.000000
# 4 0.000000 0.000000 0.000000 0.014545 0.000000 -0.000034
# 5 0.007940 0.000696 0.000285 0.000000 0.032847 0.000000
# 6 0.000000 0.000000 0.000000 -0.000034 0.000000 0.023867
#
#
# Mechanical properties :
#
#
# Convention : Reuss Voigt Hill
#
# Bulk Modulus (GPa) = 36.19063 55.07266 45.63164
# Shear Modulus (GPa) = 31.37330 40.32592 35.84961
#
# Velocity S-wave (km/s) = 3.52122 3.99213 3.76405
# Velocity P-wave (km/s) = 5.55291 6.55855 6.07657
#
# Compressibility (1/GPa) = 0.02763146
#
# Stress axis : x y z
#
# Youngs Moduli (GPa) = 34.32815 99.28519 71.10554
#
# Poissons Ratio (x) = 0.53617 0.21453
# Poissons Ratio (y) = 0.18538 0.31286
# Poissons Ratio (z) = 0.10357 0.43685
#
# Static dielectric constant tensor:
#      x y z
#    x 2.013850 0.000000 0.048880 
#    y 0.000000 2.065920 0.000000 
#    z 0.048880 0.000000 2.038270 
# 
# From -- ./inp_files/9114.got.cif
#   From: 2010.05.17/outbox.cif.g08.bks.cpg/sg4_5_cif.got.tgz:9114.got - 2010.06.03 18:43:04.
