data_PCOD9118045
_publ_section_title
;
Structure prediction by ZEFSAII (Michael W. Deem and Ramdas Pophale) SiO2 
 PCOD9118045
Probable space group: P 21
;
_chemical_formula_sum "Si O2"
_cell_formula_units_Z 12
_cell_length_a 5.239866
_cell_length_b 4.952532
_cell_length_c 18.886620
_cell_angle_alpha 90.000000
_cell_angle_beta 59.679517
_cell_angle_gamma 90.000000
_cell_volume 423.078306
_symmetry_space_group_name_H-M "P 21"
_symmetry_group_IT_number 4
_symmetry_cell_setting 'monoclinic'
loop_
_space_group_symop_operation_xyz
x,y,z
-x,1/2+y,-z
loop_
_atom_site_type_symbol
_atom_site_label
_atom_site_fract_x
_atom_site_fract_y
_atom_site_fract_z
Si Si1 0.510469 0.618910 0.546443
Si Si2 0.908825 0.405828 0.681507
Si Si3 0.660731 0.930351 0.657645
Si Si4 0.399682 0.137754 0.920058
Si Si5 0.993003 0.013126 0.794513
Si Si6 0.916081 0.132894 0.106509
O O1 0.605170 0.358204 0.488870
O O2 0.696830 0.778498 0.578117
O O3 0.239762 0.508658 0.631486
O O4 0.729609 0.683405 0.702608
O O5 0.851354 0.203151 0.624700
O O6 0.852314 0.182295 0.749360
O O7 0.336251 0.039970 0.724838
O O8 0.271319 0.372571 0.888028
O O9 0.751532 0.130630 0.885067
O O10 0.295284 0.871700 0.892909
O O11 0.214311 0.142168 0.018358
O O12 0.006196 0.704385 0.822916
#
# Coordination Sequence:
#
# PCOD9118045 Si02
#       6
#     2   2   2   2   2   2
#     4  12  27  52  81 110 146 190 240 294 361 440
#     4  12  27  48  75 111 149 190 241 298 363 432
#     4  12  27  48  75 111 149 190 241 298 363 432
#     4  10  24  44  68 102 143 192 250 308 365 422
#     4  12  25  46  75 104 148 196 244 300 361 434
#     4  10  24  44  68 102 143 192 250 308 365 422
#
# _framework density 28.363543
#
# number of rings (size 3 to 8) (size 9 to 14) (size 15 to 20)
#    0.000    0.667    0.000    7.000    0.000   13.333 
#    0.000    3.333    0.000    0.000    0.000    0.000 
#    0.000    0.000    0.000    0.000    0.000    0.000 
#
# Total GULP energy -67085.588784 kJ/mol
# GULP energy per Si atom -5590.465732 kJ/mol
# Density = 2.829899 g / cm^3
# Si number density = 28.363543 Si / 1000 Ang^3
#
#
#
# Elastic Constant Matrix: (Units=GPa)
#
#
# Indices 1 2 3 4 5 6 
#
# 1 67.5178 55.9470 13.3628 0.0000 -7.6478 0.0000
# 2 55.9470 226.7595 28.4079 0.0000 7.0938 0.0000
# 3 13.3628 28.4079 84.0738 0.0000 9.5846 0.0000
# 4 0.0000 0.0000 0.0000 46.9834 0.0000 11.8948
# 5 -7.6478 7.0938 9.5846 0.0000 21.3725 0.0000
# 6 0.0000 0.0000 0.0000 11.8948 0.0000 59.3647
#
#
#
# Elastic Compliance Matrix: (Units=1/GPa)
#
#
# Indices 1 2 3 4 5 6 
#
# 1 0.020755 -0.005099 -0.002756 0.000000 0.010355 0.000000
# 2 -0.005099 0.005873 -0.000784 0.000000 -0.003423 0.000000
# 3 -0.002756 -0.000784 0.013363 0.000000 -0.006719 0.000000
# 4 0.000000 0.000000 0.000000 0.022421 0.000000 -0.004493
# 5 0.010355 -0.003423 -0.006719 0.000000 0.054644 0.000000
# 6 0.000000 0.000000 0.000000 -0.004493 0.000000 0.017745
#
#
# Mechanical properties :
#
#
# Convention : Reuss Voigt Hill
#
# Bulk Modulus (GPa) = 44.02887 63.75404 53.89146
# Shear Modulus (GPa) = 31.31815 44.25301 37.78558
#
# Velocity S-wave (km/s) = 3.32651 3.95423 3.65388
# Velocity P-wave (km/s) = 5.50554 6.58591 6.06981
#
# Compressibility (1/GPa) = 0.02271237
#
# Stress axis : x y z
#
# Youngs Moduli (GPa) = 48.18146 170.25999 74.83206
#
# Poissons Ratio (x) = 0.86822 0.20626
# Poissons Ratio (y) = 0.24570 0.05866
# Poissons Ratio (z) = 0.13280 0.13346
#
# Static dielectric constant tensor:
#      x y z
#    x 2.437370 0.000000 0.148650 
#    y 0.000000 2.115750 0.000000 
#    z 0.148650 0.000000 2.207330 
# 
# From -- ./inp_files/15457.got.cif
#   From: 2010.05.17/outbox.cif.g08.bks.cpg/sg4_8_cif.got.tgz:15457.got - 2010.06.03 18:43:04.
