data_PCOD9118014
_publ_section_title
;
Structure prediction by ZEFSAII (Michael W. Deem and Ramdas Pophale) SiO2 
 PCOD9118014
Probable space group: P 21
;
_chemical_formula_sum "Si O2"
_cell_formula_units_Z 14
_cell_length_a 4.991176
_cell_length_b 19.411567
_cell_length_c 5.006608
_cell_angle_alpha 90.000000
_cell_angle_beta 93.906636
_cell_angle_gamma 90.000000
_cell_volume 483.945845
_symmetry_space_group_name_H-M "P 21"
_symmetry_group_IT_number 4
_symmetry_cell_setting 'monoclinic'
loop_
_space_group_symop_operation_xyz
x,y,z
-x,1/2+y,-z
loop_
_atom_site_type_symbol
_atom_site_label
_atom_site_fract_x
_atom_site_fract_y
_atom_site_fract_z
Si Si1 0.984290 0.917020 0.156535
Si Si2 0.416167 0.250501 0.568640
Si Si3 0.321807 0.012611 0.849603
Si Si4 0.639174 0.103721 0.514499
Si Si5 0.940101 0.265952 0.926110
Si Si6 0.990004 0.619093 0.931390
Si Si7 0.517155 0.899786 0.551712
O O1 0.744536 0.920359 0.353909
O O2 0.990858 0.844223 0.998698
O O3 0.239726 0.913569 0.376320
O O4 0.055676 0.975790 0.946283
O O5 0.501099 0.177290 0.460285
O O6 0.628934 0.260953 0.826943
O O7 0.463852 0.318208 0.396621
O O8 0.121624 0.252640 0.674699
O O9 0.411766 0.049255 0.581221
O O10 0.293163 0.082001 0.028021
O O11 0.508586 0.944826 0.821586
O O12 0.835401 0.110698 0.785854
O O13 0.841097 0.085329 0.292984
O O14 0.019083 0.201461 0.114765
#
# Coordination Sequence:
#
# PCOD9118014 Si02
#       7
#     2   2   2   2   2   2   2
#     4  10  24  43  70  98 141 183 236 288 354 419
#     4   9  19  44  68 101 134 185 235 289 345 421
#     4  12  26  40  70 102 142 184 232 298 350 426
#     4  11  26  45  72 102 144 187 238 291 356 421
#     4   9  19  44  68 101 134 185 235 289 345 421
#     4  11  26  45  72 102 144 187 238 291 356 421
#     4  10  24  43  70  98 141 183 236 288 354 419
#
# _framework density 28.928856
#
# number of rings (size 3 to 8) (size 9 to 14) (size 15 to 20)
#    0.000    1.714    1.429    0.857   10.000    0.000 
#    0.000    0.000    0.000    0.000    0.000    0.000 
#    0.000    0.000    0.000    0.000    0.000    0.000 
#
# Total GULP energy -78419.911564 kJ/mol
# GULP energy per Si atom -5601.422255 kJ/mol
# Density = 2.886301 g / cm^3
# Si number density = 28.928856 Si / 1000 Ang^3
#
#
#
# Elastic Constant Matrix: (Units=GPa)
#
#
# Indices 1 2 3 4 5 6 
#
# 1 125.1913 12.5915 54.8968 0.0000 -17.0163 0.0000
# 2 12.5915 235.6781 55.4467 0.0000 -34.7754 0.0000
# 3 54.8968 55.4467 158.9388 0.0000 -31.3324 0.0000
# 4 0.0000 0.0000 0.0000 49.2004 0.0000 -23.1545
# 5 -17.0163 -34.7754 -31.3324 0.0000 60.8386 0.0000
# 6 0.0000 0.0000 0.0000 -23.1545 0.0000 34.3362
#
#
#
# Elastic Compliance Matrix: (Units=1/GPa)
#
#
# Indices 1 2 3 4 5 6 
#
# 1 0.009514 0.000428 -0.003186 0.000000 0.001265 0.000000
# 2 0.000428 0.004875 -0.001420 0.000000 0.002175 0.000000
# 3 -0.003186 -0.001420 0.008405 0.000000 0.002626 0.000000
# 4 0.000000 0.000000 0.000000 0.029774 0.000000 0.020078
# 5 0.001265 0.002175 0.002626 0.000000 0.019386 0.000000
# 6 0.000000 0.000000 0.000000 0.020078 0.000000 0.042663
#
#
# Mechanical properties :
#
#
# Convention : Reuss Voigt Hill
#
# Bulk Modulus (GPa) = 69.25965 85.07535 77.16750
# Shear Modulus (GPa) = 39.12788 55.33326 47.23057
#
# Velocity S-wave (km/s) = 3.68170 4.37823 4.04498
# Velocity P-wave (km/s) = 6.48587 7.41828 6.96769
#
# Compressibility (1/GPa) = 0.01443842
#
# Stress axis : x y z
#
# Youngs Moduli (GPa) = 105.11168 205.12067 118.97522
#
# Poissons Ratio (x) = -0.08776 0.37905
# Poissons Ratio (y) = -0.04497 0.16891
# Poissons Ratio (z) = 0.33488 0.29121
#
# Static dielectric constant tensor:
#      x y z
#    x 2.275470 0.000000 0.148180 
#    y 0.000000 2.263100 0.000000 
#    z 0.148180 0.000000 2.164780 
# 
# From -- ./inp_files/431.got.cif
#   From: 2010.05.17/outbox.cif.g08.bks.cpg/sg4_1_cif.got.tgz:431.got - 2010.06.03 18:43:04.
