data_PCOD9118558
_publ_section_title
;
Structure prediction by ZEFSAII (Michael W. Deem and Ramdas Pophale) SiO2 
 PCOD9118558
Probable space group: P 21
;
_chemical_formula_sum "Si O2"
_cell_formula_units_Z 14
_cell_length_a 17.392483
_cell_length_b 7.702682
_cell_length_c 8.561496
_cell_angle_alpha 90.000000
_cell_angle_beta 148.576678
_cell_angle_gamma 90.000000
_cell_volume 597.982456
_symmetry_space_group_name_H-M "P 21"
_symmetry_group_IT_number 4
_symmetry_cell_setting 'monoclinic'
loop_
_space_group_symop_operation_xyz
x,y,z
-x,1/2+y,-z
loop_
_atom_site_type_symbol
_atom_site_label
_atom_site_fract_x
_atom_site_fract_y
_atom_site_fract_z
Si Si1 0.323620 0.541030 0.520045
Si Si2 0.485456 0.855607 0.944527
Si Si3 0.647119 0.202038 0.771848
Si Si4 0.760982 0.898761 0.183673
Si Si5 0.793032 0.541757 0.658709
Si Si6 0.303928 0.112417 0.175594
Si Si7 0.941642 0.853989 0.778341
O O1 0.389840 0.683344 0.754297
O O2 0.322721 0.620699 0.347569
O O3 0.167816 0.470669 0.306431
O O4 0.444993 0.390021 0.765320
O O5 0.364256 0.996917 0.684000
O O6 0.621834 0.860094 0.058638
O O7 0.689381 0.405627 0.850018
O O8 0.471576 0.178704 0.484251
O O9 0.726977 0.076534 0.033654
O O10 0.907315 0.910577 0.542468
O O11 0.767368 0.736393 0.077185
O O12 0.774641 0.633122 0.794095
O O13 0.882241 0.661088 0.695757
O O14 0.894571 0.377507 0.875996
#
# Coordination Sequence:
#
# PCOD9118558 Si02
#       7
#     2   2   2   2   2   2   2
#     4  11  22  40  68 104 136 175 226 287 336 406
#     4  11  21  40  69 102 135 174 233 278 341 400
#     4  12  22  41  74 103 143 171 227 283 351 403
#     4  11  24  47  66 109 138 172 232 290 338 413
#     4  12  24  47  67  96 136 184 229 281 346 407
#     4  12  23  41  73 104 137 183 221 284 350 410
#     4  11  28  46  69  96 141 181 234 283 342 411
#
# _framework density 23.412058999999999
#
# number of rings (size 3 to 8) (size 9 to 14) (size 15 to 20)
#    0.000    0.571    5.714    3.429    0.000    2.286 
#    5.143    0.000    0.000    0.000    0.000    0.000 
#    0.000    0.000    0.000    0.000    0.000    0.000 
#
# Total GULP energy -78381.316516 kJ/mol
# GULP energy per Si atom -5598.665465 kJ/mol
# Density = 2.335877 g / cm^3
# Si number density = 23.412059 Si / 1000 Ang^3
#
#
#
# Elastic Constant Matrix: (Units=GPa)
#
#
# Indices 1 2 3 4 5 6 
#
# 1 47.3474 6.0163 18.0163 0.0000 -14.1110 0.0000
# 2 6.0163 99.1978 21.9907 0.0000 -19.6345 0.0000
# 3 18.0163 21.9907 106.9569 0.0000 -8.9373 0.0000
# 4 0.0000 0.0000 0.0000 32.9427 0.0000 -3.4351
# 5 -14.1110 -19.6345 -8.9373 0.0000 20.1479 0.0000
# 6 0.0000 0.0000 0.0000 -3.4351 0.0000 39.3312
#
#
#
# Elastic Compliance Matrix: (Units=1/GPa)
#
#
# Indices 1 2 3 4 5 6 
#
# 1 0.028547 0.003371 -0.003693 0.000000 0.021640 0.000000
# 2 0.003371 0.013161 -0.002082 0.000000 0.014263 0.000000
# 3 -0.003693 -0.002082 0.010400 0.000000 -0.000003 0.000000
# 4 0.000000 0.000000 0.000000 0.030635 0.000000 0.002676
# 5 0.021640 0.014263 -0.000003 0.000000 0.078687 0.000000
# 6 0.000000 0.000000 0.000000 0.002676 0.000000 0.025659
#
#
# Mechanical properties :
#
#
# Convention : Reuss Voigt Hill
#
# Bulk Modulus (GPa) = 21.14251 38.39433 29.76842
# Shear Modulus (GPa) = 24.07746 32.31630 28.19688
#
# Velocity S-wave (km/s) = 3.21038 3.71931 3.47417
# Velocity P-wave (km/s) = 4.77412 5.90587 5.36990
#
# Compressibility (1/GPa) = 0.04729806
#
# Stress axis : x y z
#
# Youngs Moduli (GPa) = 35.03015 75.98180 96.15822
#
# Poissons Ratio (x) = -0.25610 0.35515
# Poissons Ratio (y) = -0.11807 0.20019
# Poissons Ratio (z) = 0.12938 0.15819
#
# Static dielectric constant tensor:
#      x y z
#    x 1.868110 0.000000 -0.010730 
#    y 0.000000 2.011300 0.000000 
#    z -0.010730 0.000000 1.835170 
# 
# From -- ./inp_files/7599.got.cif
#   From: 2010.05.17/outbox.cif.g08.bks.cpg/sg4_4_cif.got.tgz:7599.got - 2010.06.03 18:43:04.
