data_PCOD9118553
_publ_section_title
;
Structure prediction by ZEFSAII (Michael W. Deem and Ramdas Pophale) SiO2 
 PCOD9118553
Probable space group: P 21
;
_chemical_formula_sum "Si O2"
_cell_formula_units_Z 16
_cell_length_a 8.317736
_cell_length_b 11.417679
_cell_length_c 8.465526
_cell_angle_alpha 90.000000
_cell_angle_beta 65.066976
_cell_angle_gamma 90.000000
_cell_volume 729.036025
_symmetry_space_group_name_H-M "P 21"
_symmetry_group_IT_number 4
_symmetry_cell_setting 'monoclinic'
loop_
_space_group_symop_operation_xyz
x,y,z
-x,1/2+y,-z
loop_
_atom_site_type_symbol
_atom_site_label
_atom_site_fract_x
_atom_site_fract_y
_atom_site_fract_z
Si Si1 0.662696 0.550650 0.148693
Si Si2 0.474334 0.292365 0.736268
Si Si3 0.326278 0.456325 0.080643
Si Si4 0.194836 0.839698 0.239352
Si Si5 0.732729 0.604572 0.793962
Si Si6 0.670167 0.189584 0.084380
Si Si7 0.300659 0.839683 0.635056
Si Si8 0.060105 0.312714 0.408292
O O1 0.621513 0.670813 0.254528
O O2 0.495442 0.497968 0.116282
O O3 0.716967 0.452732 0.247890
O O4 0.790043 0.592435 0.953386
O O5 0.665988 0.255240 0.729532
O O6 0.528556 0.353131 0.550240
O O7 0.381460 0.367128 0.915008
O O8 0.196837 0.396089 0.260010
O O9 0.250998 0.569642 0.019210
O O10 0.996866 0.834342 0.387093
O O11 0.266305 0.969014 0.255111
O O12 0.232460 0.796595 0.047310
O O13 0.541124 0.668799 0.861182
O O14 0.866485 0.682291 0.640642
O O15 0.681202 0.225133 0.261928
O O16 0.123299 0.827756 0.608362
#
# Coordination Sequence:
#
# PCOD9118553 Si02
#       8
#     2   2   2   2   2   2   2   2
#     4  11  21  41  74  84 124 173 226 264 307 382
#     4  11  21  40  65  97 124 165 219 265 321 380
#     4  11  22  42  69  89 120 174 223 260 309 389
#     4  11  21  40  65  97 124 165 219 265 321 380
#     4  11  21  41  74  84 124 173 226 264 307 382
#     4  11  22  42  69  89 120 174 223 260 309 389
#     4  11  26  39  59  96 136 161 205 273 334 380
#     4  11  26  39  59  96 136 161 205 273 334 380
#
# _framework density 21.946788000000002
#
# number of rings (size 3 to 8) (size 9 to 14) (size 15 to 20)
#    0.000    1.000    7.500    0.750    3.500    1.000 
#    0.000    2.500    0.000    0.000    0.000    0.000 
#    0.000    0.000    0.000    0.000    0.000    0.000 
#
# Total GULP energy -89169.045961 kJ/mol
# GULP energy per Si atom -5573.065373 kJ/mol
# Density = 2.189684 g / cm^3
# Si number density = 21.946788 Si / 1000 Ang^3
#
#
#
# Elastic Constant Matrix: (Units=GPa)
#
#
# Indices 1 2 3 4 5 6 
#
# 1 14.8937 10.1582 11.4926 0.0000 -6.2990 0.0000
# 2 10.1582 103.1055 31.8800 0.0000 -18.7680 0.0000
# 3 11.4926 31.8800 129.3577 0.0000 -26.7078 0.0000
# 4 0.0000 0.0000 0.0000 25.1704 0.0000 -0.1402
# 5 -6.2990 -18.7680 -26.7078 0.0000 27.0255 0.0000
# 6 0.0000 0.0000 0.0000 -0.1402 0.0000 26.7471
#
#
#
# Elastic Compliance Matrix: (Units=1/GPa)
#
#
# Indices 1 2 3 4 5 6 
#
# 1 0.077752 -0.004490 -0.003396 0.000000 0.011648 0.000000
# 2 -0.004490 0.011578 -0.001270 0.000000 0.005740 0.000000
# 3 -0.003396 -0.001270 0.010050 0.000000 0.008259 0.000000
# 4 0.000000 0.000000 0.000000 0.039730 0.000000 0.000208
# 5 0.011648 0.005740 0.008259 0.000000 0.051865 0.000000
# 6 0.000000 0.000000 0.000000 0.000208 0.000000 0.037388
#
#
# Mechanical properties :
#
#
# Convention : Reuss Voigt Hill
#
# Bulk Modulus (GPa) = 12.33524 39.37984 25.85754
# Shear Modulus (GPa) = 18.26829 28.71034 23.48931
#
# Velocity S-wave (km/s) = 2.88825 3.62080 3.27507
# Velocity P-wave (km/s) = 4.09333 5.95504 5.10969
#
# Compressibility (1/GPa) = 0.08106856
#
# Stress axis : x y z
#
# Youngs Moduli (GPa) = 12.86147 86.36719 99.49951
#
# Poissons Ratio (x) = 0.38778 0.33794
# Poissons Ratio (y) = 0.05775 0.12632
# Poissons Ratio (z) = 0.04368 0.10965
#
# Static dielectric constant tensor:
#      x y z
#    x 1.806970 0.000000 -0.004750 
#    y 0.000000 1.849140 0.000000 
#    z -0.004750 0.000000 1.936170 
# 
# From -- ./inp_files/6414.got.cif
#   From: 2010.05.17/outbox.cif.g08.bks.cpg/sg4_4_cif.got.tgz:6414.got - 2010.06.03 18:43:04.
