data_PCOD9118534
_publ_section_title
;
Structure prediction by ZEFSAII (Michael W. Deem and Ramdas Pophale) SiO2 
 PCOD9118534
Probable space group: P 21
;
_chemical_formula_sum "Si O2"
_cell_formula_units_Z 12
_cell_length_a 17.760883
_cell_length_b 5.686667
_cell_length_c 10.035345
_cell_angle_alpha 90.000000
_cell_angle_beta 26.899884
_cell_angle_gamma 90.000000
_cell_volume 458.573380
_symmetry_space_group_name_H-M "P 21"
_symmetry_group_IT_number 4
_symmetry_cell_setting 'monoclinic'
loop_
_space_group_symop_operation_xyz
x,y,z
-x,1/2+y,-z
loop_
_atom_site_type_symbol
_atom_site_label
_atom_site_fract_x
_atom_site_fract_y
_atom_site_fract_z
Si Si1 0.823227 0.570180 0.463352
Si Si2 0.180642 0.550360 0.582210
Si Si3 0.455091 0.534483 0.909120
Si Si4 0.908681 0.648322 0.628320
Si Si5 0.634617 0.145188 0.446126
Si Si6 0.341771 0.868410 0.850122
O O1 0.892508 0.310280 0.324665
O O2 0.636983 0.583952 0.691374
O O3 0.824238 0.602524 0.619655
O O4 0.918086 0.806461 0.269440
O O5 0.254407 0.546375 0.612845
O O6 0.327120 0.530057 0.236687
O O7 0.511239 0.317521 0.725650
O O8 0.363186 0.710409 0.949588
O O9 0.975615 0.914141 0.532872
O O10 0.768608 0.598268 0.956231
O O11 0.725636 0.259984 0.178382
O O12 0.529841 0.947486 0.535985
#
# Coordination Sequence:
#
# PCOD9118534 Si02
#       6
#     2   2   2   2   2   2
#     4  11  21  39  65  96 130 169 242 285 341 405
#     4  11  21  36  64 100 137 174 217 287 359 422
#     4  11  21  37  65 103 136 178 218 306 362 412
#     4  12  28  47  69 100 148 204 245 283 337 440
#     4  11  24  37  67 111 148 174 219 312 392 415
#     4  12  23  42  66 108 149 181 227 299 375 428
#
# _framework density 26.168115
#
# number of rings (size 3 to 8) (size 9 to 14) (size 15 to 20)
#    0.000    0.667    5.000    5.000    2.333    0.000 
#    0.000    0.000    0.000   12.000    0.000    0.000 
#    0.000    0.000    0.000    0.000    0.000    0.000 
#
# Total GULP energy -66964.228754 kJ/mol
# GULP energy per Si atom -5580.352396 kJ/mol
# Density = 2.610855 g / cm^3
# Si number density = 26.168115 Si / 1000 Ang^3
#
#
#
# Elastic Constant Matrix: (Units=GPa)
#
#
# Indices 1 2 3 4 5 6 
#
# 1 153.0649 45.2874 52.4671 0.0000 12.5326 0.0000
# 2 45.2874 169.2286 14.6119 0.0000 -12.0722 0.0000
# 3 52.4671 14.6119 49.0008 0.0000 4.0314 0.0000
# 4 0.0000 0.0000 0.0000 25.6512 0.0000 0.9595
# 5 12.5326 -12.0722 4.0314 0.0000 19.7578 0.0000
# 6 0.0000 0.0000 0.0000 0.9595 0.0000 51.3801
#
#
#
# Elastic Compliance Matrix: (Units=1/GPa)
#
#
# Indices 1 2 3 4 5 6 
#
# 1 0.011705 -0.002649 -0.011187 0.000000 -0.006760 0.000000
# 2 -0.002649 0.007018 0.000257 0.000000 0.005916 0.000000
# 3 -0.011187 0.000257 0.032254 0.000000 0.000672 0.000000
# 4 0.000000 0.000000 0.000000 0.039012 0.000000 -0.000729
# 5 -0.006760 0.005916 0.000672 0.000000 0.058379 0.000000
# 6 0.000000 0.000000 0.000000 -0.000729 0.000000 0.019476
#
#
# Mechanical properties :
#
#
# Convention : Reuss Voigt Hill
#
# Bulk Modulus (GPa) = 41.98297 66.22522 54.10410
# Shear Modulus (GPa) = 24.63763 36.61968 30.62865
#
# Velocity S-wave (km/s) = 3.07174 3.74491 3.42491
# Velocity P-wave (km/s) = 5.35342 6.63790 6.02996
#
# Compressibility (1/GPa) = 0.02381918
#
# Stress axis : x y z
#
# Youngs Moduli (GPa) = 85.43350 142.49417 31.00358
#
# Poissons Ratio (x) = 0.37743 0.34684
# Poissons Ratio (y) = 0.22629 -0.00796
# Poissons Ratio (z) = 0.95574 -0.03658
#
# Static dielectric constant tensor:
#      x y z
#    x 2.035740 0.000000 0.010320 
#    y 0.000000 2.172960 0.000000 
#    z 0.010320 0.000000 2.116070 
# 
# From -- ./inp_files/8979.got.cif
#   From: 2010.05.17/outbox.cif.g08.bks.cpg/sg4_5_cif.got.tgz:8979.got - 2010.06.03 18:43:04.
