data_PCOD9118121
_publ_section_title
;
Structure prediction by ZEFSAII (Michael W. Deem and Ramdas Pophale) SiO2 
 PCOD9118121
Probable space group: P 21
;
_chemical_formula_sum "Si O2"
_cell_formula_units_Z 14
_cell_length_a 9.378611
_cell_length_b 13.031520
_cell_length_c 5.227743
_cell_angle_alpha 90.000000
_cell_angle_beta 80.299117
_cell_angle_gamma 90.000000
_cell_volume 629.785950
_symmetry_space_group_name_H-M "P 21"
_symmetry_group_IT_number 4
_symmetry_cell_setting 'monoclinic'
loop_
_space_group_symop_operation_xyz
x,y,z
-x,1/2+y,-z
loop_
_atom_site_type_symbol
_atom_site_label
_atom_site_fract_x
_atom_site_fract_y
_atom_site_fract_z
Si Si1 0.753806 0.645310 0.175227
Si Si2 0.621189 0.513473 0.619541
Si Si3 0.919621 0.485846 0.754729
Si Si4 0.849179 0.148785 0.335863
Si Si5 0.550758 0.191388 0.203873
Si Si6 0.031521 0.750327 0.215814
Si Si7 0.522506 0.803124 0.253160
O O1 0.632671 0.574305 0.349075
O O2 0.675225 0.752755 0.120035
O O3 0.877922 0.694678 0.323902
O O4 0.844335 0.563993 0.979166
O O5 0.784479 0.473136 0.603623
O O6 0.572280 0.607201 0.815058
O O7 0.510672 0.422806 0.711336
O O8 0.968148 0.372545 0.817187
O O9 0.062736 0.545981 0.626039
O O10 0.687422 0.132727 0.283819
O O11 0.865074 0.218759 0.581198
O O12 0.920676 0.205601 0.071654
O O13 0.503361 0.264508 0.450244
O O14 0.579381 0.256587 0.940563
#
# Coordination Sequence:
#
# PCOD9118121 Si02
#       7
#     2   2   2   2   2   2   2
#     4  10  24  46  62 108 130 172 228 274 318 410
#     4  11  23  42  71  93 137 179 216 273 336 386
#     4  11  23  42  71  93 137 179 216 273 336 386
#     4  11  24  43  63 103 132 168 230 271 321 405
#     4  11  24  43  63 103 132 168 230 271 321 405
#     4  11  25  41  71  93 137 173 220 275 330 387
#     4  11  25  41  71  93 137 173 220 275 330 387
#
# _framework density 22.229772000000001
#
# number of rings (size 3 to 8) (size 9 to 14) (size 15 to 20)
#    0.000    1.143    2.857    2.571    8.000    0.000 
#    0.000    0.000    0.000    0.000    0.000    0.000 
#    0.000    0.000    0.000    0.000    0.000    0.000 
#
# Total GULP energy -77953.047158 kJ/mol
# GULP energy per Si atom -5568.074797 kJ/mol
# Density = 2.217918 g / cm^3
# Si number density = 22.229772 Si / 1000 Ang^3
#
#
#
# Elastic Constant Matrix: (Units=GPa)
#
#
# Indices 1 2 3 4 5 6 
#
# 1 39.9183 14.1887 5.9027 0.0000 8.6852 0.0000
# 2 14.1887 104.1989 30.5769 0.0000 -6.2686 0.0000
# 3 5.9027 30.5769 87.1818 0.0000 7.7414 0.0000
# 4 0.0000 0.0000 0.0000 22.7972 0.0000 -10.5930
# 5 8.6852 -6.2686 7.7414 0.0000 28.5924 0.0000
# 6 0.0000 0.0000 0.0000 -10.5930 0.0000 22.3319
#
#
#
# Elastic Compliance Matrix: (Units=1/GPa)
#
#
# Indices 1 2 3 4 5 6 
#
# 1 0.028792 -0.004687 0.000576 0.000000 -0.009930 0.000000
# 2 -0.004687 0.011803 -0.004281 0.000000 0.005171 0.000000
# 3 0.000576 -0.004281 0.013353 0.000000 -0.004729 0.000000
# 4 0.000000 0.000000 0.000000 0.056267 0.000000 0.026690
# 5 -0.009930 0.005171 -0.004729 0.000000 0.040404 0.000000
# 6 0.000000 0.000000 0.000000 0.026690 0.000000 0.057439
#
#
# Mechanical properties :
#
#
# Convention : Reuss Voigt Hill
#
# Bulk Modulus (GPa) = 26.90819 36.95952 31.93386
# Shear Modulus (GPa) = 21.07657 26.78636 23.93146
#
# Velocity S-wave (km/s) = 3.08250 3.47504 3.28464
# Velocity P-wave (km/s) = 4.97995 5.72394 5.36486
#
# Compressibility (1/GPa) = 0.03716340
#
# Stress axis : x y z
#
# Youngs Moduli (GPa) = 34.73141 84.72659 74.89095
#
# Poissons Ratio (x) = 0.39712 -0.04315
# Poissons Ratio (y) = 0.16279 0.32063
# Poissons Ratio (z) = -0.02001 0.36274
#
# Static dielectric constant tensor:
#      x y z
#    x 1.939790 0.000000 0.010220 
#    y 0.000000 1.781570 0.000000 
#    z 0.010220 0.000000 1.850830 
# 
# From -- ./inp_files/1184.got.cif
#   From: 2010.05.17/outbox.cif.g08.bks.cpg/sg4_1_cif.got.tgz:1184.got - 2010.06.03 18:43:04.
