data_PCOD9118713
_publ_section_title
;
Structure prediction by ZEFSAII (Michael W. Deem and Ramdas Pophale) SiO2 
 PCOD9118713
Probable space group: P 21
;
_chemical_formula_sum "Si O2"
_cell_formula_units_Z 16
_cell_length_a 15.215013
_cell_length_b 5.461267
_cell_length_c 8.296656
_cell_angle_alpha 90.000000
_cell_angle_beta 67.205118
_cell_angle_gamma 90.000000
_cell_volume 635.552721
_symmetry_space_group_name_H-M "P 21"
_symmetry_group_IT_number 4
_symmetry_cell_setting 'monoclinic'
loop_
_space_group_symop_operation_xyz
x,y,z
-x,1/2+y,-z
loop_
_atom_site_type_symbol
_atom_site_label
_atom_site_fract_x
_atom_site_fract_y
_atom_site_fract_z
Si Si1 0.442622 0.128680 0.039257
Si Si2 0.252591 0.135218 0.317802
Si Si3 0.986797 0.191778 0.411384
Si Si4 0.748376 0.633041 0.311310
Si Si5 0.945293 0.681377 0.986070
Si Si6 0.219395 0.632183 0.382917
Si Si7 0.573111 0.811710 0.276423
Si Si8 0.372236 0.650354 0.567571
O O1 0.366041 0.136935 0.233701
O O2 0.510028 0.364799 0.995667
O O3 0.389136 0.183398 0.907806
O O4 0.217817 0.390999 0.275526
O O5 0.219013 0.139370 0.527310
O O6 0.223116 0.874408 0.272140
O O7 0.007790 0.961973 0.514069
O O8 0.876403 0.148306 0.444448
O O9 0.050726 0.173576 0.209194
O O10 0.661195 0.835328 0.349702
O O11 0.692008 0.382736 0.325066
O O12 0.838855 0.680238 0.135940
O O13 0.999901 0.433289 0.004678
O O14 0.308170 0.620673 0.440189
O O15 0.475612 0.698726 0.404437
O O16 0.569630 0.100752 0.289012
#
# Coordination Sequence:
#
# PCOD9118713 Si02
#       8
#     2   2   2   2   2   2   2   2
#     4  12  28  45  66 100 147 195 246 302 369 436
#     4  11  22  44  67 105 136 200 237 298 373 444
#     4  12  27  51  80 117 156 201 253 328 401 467
#     4  11  25  42  75 103 147 188 253 312 367 437
#     4  12  27  51  80 117 152 202 265 320 386 474
#     4  11  23  44  77  98 146 197 245 296 385 449
#     4  12  25  42  72 104 148 193 256 308 361 447
#     4  11  23  43  69 106 142 198 251 310 368 438
#
# _framework density 25.174935999999999
#
# number of rings (size 3 to 8) (size 9 to 14) (size 15 to 20)
#    0.000    0.500    2.500    6.750    3.500    2.000 
#    2.250    0.000    0.000    0.000    0.000    0.000 
#    0.000    0.000    0.000    0.000    0.000    0.000 
#
# Total GULP energy -89243.603130 kJ/mol
# GULP energy per Si atom -5577.725196 kJ/mol
# Density = 2.511764 g / cm^3
# Si number density = 25.174936 Si / 1000 Ang^3
#
#
#
# Elastic Constant Matrix: (Units=GPa)
#
#
# Indices 1 2 3 4 5 6 
#
# 1 109.3209 48.7410 29.4941 0.0000 -32.3111 0.0000
# 2 48.7410 183.2076 47.7359 0.0000 -2.7926 0.0000
# 3 29.4941 47.7359 120.3636 0.0000 -30.8185 0.0000
# 4 0.0000 0.0000 0.0000 35.4065 0.0000 2.9114
# 5 -32.3111 -2.7926 -30.8185 0.0000 49.4028 0.0000
# 6 0.0000 0.0000 0.0000 2.9114 0.0000 48.0850
#
#
#
# Elastic Compliance Matrix: (Units=1/GPa)
#
#
# Indices 1 2 3 4 5 6 
#
# 1 0.013141 -0.003458 0.000359 0.000000 0.008623 0.000000
# 2 -0.003458 0.007078 -0.002899 0.000000 -0.003670 0.000000
# 3 0.000359 -0.002899 0.011173 0.000000 0.007041 0.000000
# 4 0.000000 0.000000 0.000000 0.028385 0.000000 -0.001719
# 5 0.008623 -0.003670 0.007041 0.000000 0.030067 0.000000
# 6 0.000000 0.000000 0.000000 -0.001719 0.000000 0.020901
#
#
# Mechanical properties :
#
#
# Convention : Reuss Voigt Hill
#
# Bulk Modulus (GPa) = 51.55933 73.87048 62.71491
# Shear Modulus (GPa) = 38.69809 45.70693 42.20251
#
# Velocity S-wave (km/s) = 3.92493 4.26558 4.09879
# Velocity P-wave (km/s) = 6.40819 7.32576 6.88229
#
# Compressibility (1/GPa) = 0.01939513
#
# Stress axis : x y z
#
# Youngs Moduli (GPa) = 76.09736 141.28565 89.50291
#
# Poissons Ratio (x) = 0.48861 -0.03217
# Poissons Ratio (y) = 0.26317 0.25951
# Poissons Ratio (z) = -0.02735 0.40965
#
# Static dielectric constant tensor:
#      x y z
#    x 2.153720 0.000000 0.090290 
#    y 0.000000 2.124540 0.000000 
#    z 0.090290 0.000000 2.000250 
# 
# From -- ./inp_files/8924.got.cif
#   From: 2010.05.17/outbox.cif.g08.bks.cpg/sg4_5_cif.got.tgz:8924.got - 2010.06.03 18:43:04.
