data_PCOD9118117
_publ_section_title
;
Structure prediction by ZEFSAII (Michael W. Deem and Ramdas Pophale) SiO2 
 PCOD9118117
Probable space group: P 21
;
_chemical_formula_sum "Si O2"
_cell_formula_units_Z 12
_cell_length_a 14.093650
_cell_length_b 7.616949
_cell_length_c 6.197999
_cell_angle_alpha 90.000000
_cell_angle_beta 46.243316
_cell_angle_gamma 90.000000
_cell_volume 480.577681
_symmetry_space_group_name_H-M "P 21"
_symmetry_group_IT_number 4
_symmetry_cell_setting 'monoclinic'
loop_
_space_group_symop_operation_xyz
x,y,z
-x,1/2+y,-z
loop_
_atom_site_type_symbol
_atom_site_label
_atom_site_fract_x
_atom_site_fract_y
_atom_site_fract_z
Si Si1 0.471597 0.198500 0.733427
Si Si2 0.924562 0.893488 0.634195
Si Si3 0.154118 0.618625 0.607554
Si Si4 0.313046 0.417525 0.678059
Si Si5 0.079417 0.091719 0.700840
Si Si6 0.343827 0.942291 0.296781
O O1 0.398341 0.254753 0.628560
O O2 0.531008 0.370972 0.763494
O O3 0.594739 0.085888 0.464579
O O4 0.393292 0.068333 0.023016
O O5 0.906619 0.725673 0.515952
O O6 0.034926 0.915397 0.642366
O O7 0.932997 0.048516 0.448957
O O8 0.792770 0.928133 0.969438
O O9 0.234310 0.447853 0.579345
O O10 0.267894 0.757559 0.366813
O O11 0.044982 0.657327 0.964630
O O12 0.218041 0.048107 0.597129
#
# Coordination Sequence:
#
# PCOD9118117 Si02
#       6
#     2   2   2   2   2   2
#     4  11  26  45  74 106 147 195 243 297 361 441
#     4  11  23  44  73 102 145 183 240 307 362 425
#     4  10  24  45  75 105 143 184 243 303 363 431
#     4  10  25  45  67 107 138 190 244 291 358 434
#     4  11  23  45  70 109 140 189 242 303 367 432
#     4  11  25  46  71 109 145 195 240 303 363 433
#
# _framework density 24.969949
#
# number of rings (size 3 to 8) (size 9 to 14) (size 15 to 20)
#    0.000    1.333    1.667    2.000    7.000    2.667 
#    6.000    1.667    0.000    0.000    0.000    0.000 
#    0.000    0.000    0.000    0.000    0.000    0.000 
#
# Total GULP energy -66917.421853 kJ/mol
# GULP energy per Si atom -5576.451821 kJ/mol
# Density = 2.491312 g / cm^3
# Si number density = 24.969949 Si / 1000 Ang^3
#
#
#
# Elastic Constant Matrix: (Units=GPa)
#
#
# Indices 1 2 3 4 5 6 
#
# 1 155.4777 34.6773 25.1925 0.0000 0.9326 0.0000
# 2 34.6773 108.8444 29.1665 0.0000 2.2764 0.0000
# 3 25.1925 29.1665 145.1683 0.0000 -9.3486 0.0000
# 4 0.0000 0.0000 0.0000 53.7438 0.0000 6.0416
# 5 0.9326 2.2764 -9.3486 0.0000 25.5777 0.0000
# 6 0.0000 0.0000 0.0000 6.0416 0.0000 47.1004
#
#
#
# Elastic Compliance Matrix: (Units=1/GPa)
#
#
# Indices 1 2 3 4 5 6 
#
# 1 0.007017 -0.002002 -0.000840 0.000000 -0.000385 0.000000
# 2 -0.002002 0.010347 -0.001829 0.000000 -0.001516 0.000000
# 3 -0.000840 -0.001829 0.007593 0.000000 0.002969 0.000000
# 4 0.000000 0.000000 0.000000 0.018879 0.000000 -0.002422
# 5 -0.000385 -0.001516 0.002969 0.000000 0.040331 0.000000
# 6 0.000000 0.000000 0.000000 -0.002422 0.000000 0.021542
#
#
# Mechanical properties :
#
#
# Convention : Reuss Voigt Hill
#
# Bulk Modulus (GPa) = 64.04562 65.28478 64.66520
# Shear Modulus (GPa) = 41.57786 46.64799 44.11292
#
# Velocity S-wave (km/s) = 4.08501 4.32692 4.20770
# Velocity P-wave (km/s) = 6.92492 7.15297 7.03987
#
# Compressibility (1/GPa) = 0.01561387
#
# Stress axis : x y z
#
# Youngs Moduli (GPa) = 142.51446 96.64442 131.69981
#
# Poissons Ratio (x) = 0.19352 0.11065
# Poissons Ratio (y) = 0.28536 0.24089
# Poissons Ratio (z) = 0.11974 0.17677
#
# Static dielectric constant tensor:
#      x y z
#    x 2.163080 0.000000 0.062100 
#    y 0.000000 2.119240 0.000000 
#    z 0.062100 0.000000 1.933980 
# 
# From -- ./inp_files/2350.got.cif
#   From: 2010.05.17/outbox.cif.g08.bks.cpg/sg4_2_cif.got.tgz:2350.got - 2010.06.03 18:43:04.
