data_PCOD9118844
_publ_section_title
;
Structure prediction by ZEFSAII (Michael W. Deem and Ramdas Pophale) SiO2 
 PCOD9118844
Probable space group: P 21
;
_chemical_formula_sum "Si O2"
_cell_formula_units_Z 16
_cell_length_a 7.487984
_cell_length_b 8.214586
_cell_length_c 16.039652
_cell_angle_alpha 90.000000
_cell_angle_beta 146.711949
_cell_angle_gamma 90.000000
_cell_volume 541.499439
_symmetry_space_group_name_H-M "P 21"
_symmetry_group_IT_number 4
_symmetry_cell_setting 'monoclinic'
loop_
_space_group_symop_operation_xyz
x,y,z
-x,1/2+y,-z
loop_
_atom_site_type_symbol
_atom_site_label
_atom_site_fract_x
_atom_site_fract_y
_atom_site_fract_z
Si Si1 0.663398 0.671980 0.317057
Si Si2 0.932340 0.172090 0.278954
Si Si3 0.222890 0.506105 0.951771
Si Si4 0.805643 0.920209 0.507600
Si Si5 0.784717 0.944770 0.793714
Si Si6 0.841377 0.665790 0.170749
Si Si7 0.215771 0.851664 0.441718
Si Si8 0.615384 0.614308 0.789513
O O1 0.727042 0.752375 0.432002
O O2 0.306488 0.604881 0.188527
O O3 0.859930 0.504946 0.385567
O O4 0.858763 0.809881 0.342696
O O5 0.833609 0.138010 0.145337
O O6 0.636668 0.139450 0.231157
O O7 0.111647 0.342718 0.369513
O O8 0.183630 0.023989 0.385939
O O9 0.245862 0.331121 0.913971
O O10 0.922503 0.493587 0.898482
O O11 0.552669 0.590242 0.115920
O O12 0.575790 0.053029 0.370413
O O13 0.088592 0.015554 0.862834
O O14 0.496067 0.882226 0.618017
O O15 0.801483 0.785311 0.855111
O O16 0.169059 0.714280 0.351198
#
# Coordination Sequence:
#
# PCOD9118844 Si02
#       8
#     2   2   2   2   2   2   2   2
#     4  12  18  36  64 102 152 178 243 308 384 457
#     4  11  23  44  72 108 153 197 255 315 384 458
#     4  11  28  53  72 105 154 210 263 314 361 478
#     4  12  18  36  66 108 152 191 241 325 382 449
#     4  12  23  43  71 113 148 193 254 318 397 451
#     4  11  28  52  72 104 160 201 261 318 372 463
#     4  11  23  42  71 110 147 194 246 324 393 446
#     4  12  23  44  74 108 154 200 253 318 389 456
#
# _framework density 29.547584000000001
#
# number of rings (size 3 to 8) (size 9 to 14) (size 15 to 20)
#    0.000    0.500    7.500    1.500    0.000    4.000 
#    6.750    0.000    0.000    0.000    0.000    0.000 
#    0.000    0.000    0.000    0.000    0.000    0.000 
#
# Total GULP energy -89238.581230 kJ/mol
# GULP energy per Si atom -5577.411327 kJ/mol
# Density = 2.948033 g / cm^3
# Si number density = 29.547584 Si / 1000 Ang^3
#
#
#
# Elastic Constant Matrix: (Units=GPa)
#
#
# Indices 1 2 3 4 5 6 
#
# 1 110.0348 24.0965 40.1687 0.0000 -0.4244 0.0000
# 2 24.0965 165.1346 36.2559 0.0000 -11.0117 0.0000
# 3 40.1687 36.2559 113.2201 0.0000 -2.1079 0.0000
# 4 0.0000 0.0000 0.0000 59.3496 0.0000 -3.2938
# 5 -0.4244 -11.0117 -2.1079 0.0000 28.4943 0.0000
# 6 0.0000 0.0000 0.0000 -3.2938 0.0000 48.8065
#
#
#
# Elastic Compliance Matrix: (Units=1/GPa)
#
#
# Indices 1 2 3 4 5 6 
#
# 1 0.010535 -0.000798 -0.003490 0.000000 -0.000410 0.000000
# 2 -0.000798 0.006737 -0.001828 0.000000 0.002457 0.000000
# 3 -0.003490 -0.001828 0.010657 0.000000 0.000030 0.000000
# 4 0.000000 0.000000 0.000000 0.016913 0.000000 0.001141
# 5 -0.000410 0.002457 0.000030 0.000000 0.036040 0.000000
# 6 0.000000 0.000000 0.000000 0.001141 0.000000 0.020566
#
#
# Mechanical properties :
#
#
# Convention : Reuss Voigt Hill
#
# Bulk Modulus (GPa) = 63.71070 65.49242 64.60156
# Shear Modulus (GPa) = 42.04744 46.52132 44.28438
#
# Velocity S-wave (km/s) = 3.77641 3.97224 3.87557
# Velocity P-wave (km/s) = 6.37369 6.57659 6.47593
#
# Compressibility (1/GPa) = 0.01569595
#
# Stress axis : x y z
#
# Youngs Moduli (GPa) = 94.91960 148.42443 93.83933
#
# Poissons Ratio (x) = 0.11851 0.32747
# Poissons Ratio (y) = 0.07579 0.17158
# Poissons Ratio (z) = 0.33124 0.27139
#
# Static dielectric constant tensor:
#      x y z
#    x 2.500240 0.000000 -0.044560 
#    y 0.000000 2.170320 0.000000 
#    z -0.044560 0.000000 2.436680 
# 
# From -- ./inp_files/15627.got.cif
#   From: 2010.05.17/outbox.cif.g08.bks.cpg/sg4_8_cif.got.tgz:15627.got - 2010.06.03 18:43:04.
