data_PCOD9118826
_publ_section_title
;
Structure prediction by ZEFSAII (Michael W. Deem and Ramdas Pophale) SiO2 
 PCOD9118826
Probable space group: P 21
;
_chemical_formula_sum "Si O2"
_cell_formula_units_Z 10
_cell_length_a 6.858812
_cell_length_b 7.122024
_cell_length_c 7.990502
_cell_angle_alpha 90.000000
_cell_angle_beta 116.110640
_cell_angle_gamma 90.000000
_cell_volume 350.490741
_symmetry_space_group_name_H-M "P 21"
_symmetry_group_IT_number 4
_symmetry_cell_setting 'monoclinic'
loop_
_space_group_symop_operation_xyz
x,y,z
-x,1/2+y,-z
loop_
_atom_site_type_symbol
_atom_site_label
_atom_site_fract_x
_atom_site_fract_y
_atom_site_fract_z
Si Si1 0.702938 0.171570 0.918737
Si Si2 0.938537 0.779423 0.427943
Si Si3 0.481053 0.495177 0.673463
Si Si4 0.638836 0.360190 0.239321
Si Si5 0.141281 0.454046 0.292184
O O1 0.661071 0.342118 0.774791
O O2 0.866676 0.017846 0.902597
O O3 0.482916 0.050521 0.848054
O O4 0.739920 0.279455 0.104963
O O5 0.182508 0.857376 0.546171
O O6 0.980417 0.604923 0.323280
O O7 0.739752 0.919164 0.308033
O O8 0.876513 0.762019 0.604653
O O9 0.530300 0.698488 0.765550
O O10 0.385759 0.508695 0.450929
#
# Coordination Sequence:
#
# PCOD9118826 Si02
#       5
#     2   2   2   2   2
#     4  12  23  42  65  97 133 163 216 261 325 374
#     4   9  20  43  61  89 124 161 220 254 307 372
#     4   9  22  42  65  92 125 172 215 265 304 385
#     4  11  23  42  63  96 133 169 203 272 316 378
#     4   9  22  39  66  92 117 171 214 262 308 375
#
# _framework density 28.531424999999999
#
# number of rings (size 3 to 8) (size 9 to 14) (size 15 to 20)
#    1.200    0.800    2.000    1.200    5.600    0.000 
#    7.200    0.000    0.000    0.000    0.000    0.000 
#    0.000    0.000    0.000    0.000    0.000    0.000 
#
# Total GULP energy -55681.568327 kJ/mol
# GULP energy per Si atom -5568.156833 kJ/mol
# Density = 2.846649 g / cm^3
# Si number density = 28.531425 Si / 1000 Ang^3
#
#
#
# Elastic Constant Matrix: (Units=GPa)
#
#
# Indices 1 2 3 4 5 6 
#
# 1 73.1305 5.3272 13.4761 0.0000 -11.3794 0.0000
# 2 5.3272 136.8582 40.9223 0.0000 -1.4244 0.0000
# 3 13.4761 40.9223 82.7220 0.0000 -11.8358 0.0000
# 4 0.0000 0.0000 0.0000 49.5576 0.0000 -15.4718
# 5 -11.3794 -1.4244 -11.8358 0.0000 45.7295 0.0000
# 6 0.0000 0.0000 0.0000 -15.4718 0.0000 41.0686
#
#
#
# Elastic Compliance Matrix: (Units=1/GPa)
#
#
# Indices 1 2 3 4 5 6 
#
# 1 0.014513 0.000049 -0.001943 0.000000 0.003110 0.000000
# 2 0.000049 0.008608 -0.004389 0.000000 -0.000856 0.000000
# 3 -0.001943 -0.004389 0.015045 0.000000 0.003274 0.000000
# 4 0.000000 0.000000 0.000000 0.022868 0.000000 0.008615
# 5 0.003110 -0.000856 0.003274 0.000000 0.023462 0.000000
# 6 0.000000 0.000000 0.000000 0.008615 0.000000 0.027595
#
#
# Mechanical properties :
#
#
# Convention : Reuss Voigt Hill
#
# Bulk Modulus (GPa) = 39.06463 45.79575 42.43019
# Shear Modulus (GPa) = 37.53996 42.80350 40.17173
#
# Velocity S-wave (km/s) = 3.63125 3.87747 3.75638
# Velocity P-wave (km/s) = 5.59489 6.01101 5.80668
#
# Compressibility (1/GPa) = 0.02559860
#
# Stress axis : x y z
#
# Youngs Moduli (GPa) = 68.90537 116.16608 66.46815
#
# Poissons Ratio (x) = -0.00564 0.12917
# Poissons Ratio (y) = -0.00334 0.29172
# Poissons Ratio (z) = 0.13390 0.50984
#
# Static dielectric constant tensor:
#      x y z
#    x 2.449520 0.000000 -0.008550 
#    y 0.000000 2.296320 0.000000 
#    z -0.008550 0.000000 2.198450 
# 
# From -- ./inp_files/4484.got.cif
#   From: 2010.05.17/outbox.cif.g08.bks.cpg/sg4_3_cif.got.tgz:4484.got - 2010.06.03 18:43:04.
