data_PCOD9118806
_publ_section_title
;
Structure prediction by ZEFSAII (Michael W. Deem and Ramdas Pophale) SiO2 
 PCOD9118806
Probable space group: P 21
;
_chemical_formula_sum "Si O2"
_cell_formula_units_Z 16
_cell_length_a 8.961542
_cell_length_b 8.926408
_cell_length_c 11.936967
_cell_angle_alpha 90.000000
_cell_angle_beta 55.019770
_cell_angle_gamma 90.000000
_cell_volume 782.389261
_symmetry_space_group_name_H-M "P 21"
_symmetry_group_IT_number 4
_symmetry_cell_setting 'monoclinic'
loop_
_space_group_symop_operation_xyz
x,y,z
-x,1/2+y,-z
loop_
_atom_site_type_symbol
_atom_site_label
_atom_site_fract_x
_atom_site_fract_y
_atom_site_fract_z
Si Si1 0.814946 0.220920 0.513536
Si Si2 0.913859 0.552979 0.741389
Si Si3 0.051019 0.498423 0.350076
Si Si4 0.136489 0.258591 0.644890
Si Si5 0.421838 0.342466 0.710661
Si Si6 0.645948 0.687985 0.030816
Si Si7 0.370401 0.146331 0.332321
Si Si8 0.559408 0.878613 0.865216
O O1 0.876679 0.119128 0.591115
O O2 0.600778 0.242592 0.608558
O O3 0.899518 0.137331 0.370575
O O4 0.913587 0.382129 0.466880
O O5 0.765231 0.584399 0.707106
O O6 0.973475 0.379800 0.713955
O O7 0.825560 0.624392 0.890522
O O8 0.224197 0.409288 0.232790
O O9 0.950489 0.594707 0.298612
O O10 0.276590 0.315232 0.676725
O O11 0.250269 0.227511 0.480474
O O12 0.337990 0.286367 0.864505
O O13 0.502541 0.510894 0.681922
O O14 0.536370 0.536519 0.101204
O O15 0.531275 0.788995 0.992185
O O16 0.486315 0.273023 0.219375
#
# Coordination Sequence:
#
# PCOD9118806 Si02
#       8
#     2   2   2   2   2   2   2   2
#     4  12  21  40  72  97 131 171 226 291 327 400
#     4  11  24  44  70  99 132 178 237 285 335 409
#     4  12  21  40  68 105 129 174 231 282 338 396
#     4  12  27  42  68 105 138 180 225 286 356 403
#     4  12  27  44  65 101 145 178 220 284 354 423
#     4  11  24  44  67 102 136 182 223 281 348 406
#     4  11  23  44  70 102 128 179 233 289 336 393
#     4  11  23  40  72 101 131 174 235 286 328 404
#
# _framework density 20.450178000000001
#
# number of rings (size 3 to 8) (size 9 to 14) (size 15 to 20)
#    0.000    0.500    6.250    3.750    3.500    0.000 
#    2.250    0.000    0.000    0.000    0.000    0.000 
#    0.000    0.000    0.000    0.000    0.000    0.000 
#
# Total GULP energy -89378.885619 kJ/mol
# GULP energy per Si atom -5586.180351 kJ/mol
# Density = 2.040363 g / cm^3
# Si number density = 20.450178 Si / 1000 Ang^3
#
#
#
# Elastic Constant Matrix: (Units=GPa)
#
#
# Indices 1 2 3 4 5 6 
#
# 1 64.0396 28.0022 20.9307 0.0000 5.4916 0.0000
# 2 28.0022 114.9796 19.5986 0.0000 2.0040 0.0000
# 3 20.9307 19.5986 91.1462 0.0000 0.1363 0.0000
# 4 0.0000 0.0000 0.0000 47.0225 0.0000 -9.3506
# 5 5.4916 2.0040 0.1363 0.0000 17.8280 0.0000
# 6 0.0000 0.0000 0.0000 -9.3506 0.0000 25.6208
#
#
#
# Elastic Compliance Matrix: (Units=1/GPa)
#
#
# Indices 1 2 3 4 5 6 
#
# 1 0.018933 -0.003921 -0.003496 0.000000 -0.005364 0.000000
# 2 -0.003921 0.009858 -0.001219 0.000000 0.000109 0.000000
# 3 -0.003496 -0.001219 0.012035 0.000000 0.001122 0.000000
# 4 0.000000 0.000000 0.000000 0.022931 0.000000 0.008369
# 5 -0.005364 0.000109 0.001122 0.000000 0.057723 0.000000
# 6 0.000000 0.000000 0.000000 0.008369 0.000000 0.042085
#
#
# Mechanical properties :
#
#
# Convention : Reuss Voigt Hill
#
# Bulk Modulus (GPa) = 42.46064 45.24760 43.85412
# Shear Modulus (GPa) = 26.49856 31.53652 29.01754
#
# Velocity S-wave (km/s) = 3.60357 3.93124 3.77097
# Velocity P-wave (km/s) = 6.17433 6.54064 6.36012
#
# Compressibility (1/GPa) = 0.02355122
#
# Stress axis : x y z
#
# Youngs Moduli (GPa) = 52.81821 101.43872 83.09209
#
# Poissons Ratio (x) = 0.39779 0.29053
# Poissons Ratio (y) = 0.20712 0.10132
# Poissons Ratio (z) = 0.18468 0.12369
#
# Static dielectric constant tensor:
#      x y z
#    x 1.710650 0.000000 -0.003990 
#    y 0.000000 1.775290 0.000000 
#    z -0.003990 0.000000 1.770730 
# 
# From -- ./inp_files/10846.got.cif
#   From: 2010.05.17/outbox.cif.g08.bks.cpg/sg4_6_cif.got.tgz:10846.got - 2010.06.03 18:43:04.
