data_PCOD9118126
_publ_section_title
;
Structure prediction by ZEFSAII (Michael W. Deem and Ramdas Pophale) SiO2 
 PCOD9118126
Probable space group: P 21
;
_chemical_formula_sum "Si O2"
_cell_formula_units_Z 14
_cell_length_a 12.289328
_cell_length_b 5.654622
_cell_length_c 11.157898
_cell_angle_alpha 90.000000
_cell_angle_beta 134.630423
_cell_angle_gamma 90.000000
_cell_volume 551.800965
_symmetry_space_group_name_H-M "P 21"
_symmetry_group_IT_number 4
_symmetry_cell_setting 'monoclinic'
loop_
_space_group_symop_operation_xyz
x,y,z
-x,1/2+y,-z
loop_
_atom_site_type_symbol
_atom_site_label
_atom_site_fract_x
_atom_site_fract_y
_atom_site_fract_z
Si Si1 0.680464 0.319850 0.699272
Si Si2 0.800676 0.365846 0.391677
Si Si3 0.688676 0.114892 0.084114
Si Si4 0.567223 0.714220 0.284202
Si Si5 0.077428 0.858219 0.918875
Si Si6 0.890496 0.719167 0.245012
Si Si7 0.267844 0.315228 0.382836
O O1 0.557034 0.283309 0.710840
O O2 0.656541 0.570498 0.611197
O O3 0.683668 0.068861 0.633062
O O4 0.841092 0.340016 0.892455
O O5 0.738738 0.157015 0.259033
O O6 0.648885 0.458447 0.340662
O O7 0.854327 0.550824 0.330166
O O8 0.949462 0.337919 0.589328
O O9 0.818303 0.223561 0.097744
O O10 0.725550 0.841532 0.095380
O O11 0.529483 0.221078 0.913851
O O12 0.711650 0.845918 0.457220
O O13 0.906859 0.771408 0.783846
O O14 0.072548 0.115364 0.856122
#
# Coordination Sequence:
#
# PCOD9118126 Si02
#       7
#     2   2   2   2   2   2   2
#     4  11  27  51  74 110 152 193 259 319 380 461
#     4  11  24  45  71 108 148 203 256 315 390 459
#     4  10  24  46  68 107 153 196 256 318 378 473
#     4  11  27  46  71 109 153 208 248 319 394 463
#     4  10  25  44  78 110 141 198 249 328 386 450
#     4  11  23  45  73 109 150 195 265 318 383 466
#     4  12  26  49  77 111 147 199 257 315 387 456
#
# _framework density 25.371466000000002
#
# number of rings (size 3 to 8) (size 9 to 14) (size 15 to 20)
#    0.000    1.143    1.429    2.571   12.000    0.000 
#    7.714    0.000    0.000    0.000    0.000    0.000 
#    0.000    0.000    0.000    0.000    0.000    0.000 
#
# Total GULP energy -78032.556080 kJ/mol
# GULP energy per Si atom -5573.754006 kJ/mol
# Density = 2.531372 g / cm^3
# Si number density = 25.371466 Si / 1000 Ang^3
#
#
#
# Elastic Constant Matrix: (Units=GPa)
#
#
# Indices 1 2 3 4 5 6 
#
# 1 81.5741 39.3193 25.9424 0.0000 7.2821 0.0000
# 2 39.3193 83.5402 40.4967 0.0000 -17.8392 0.0000
# 3 25.9424 40.4967 169.8889 0.0000 7.7888 0.0000
# 4 0.0000 0.0000 0.0000 54.2129 0.0000 23.1626
# 5 7.2821 -17.8392 7.7888 0.0000 46.2801 0.0000
# 6 0.0000 0.0000 0.0000 23.1626 0.0000 75.2564
#
#
#
# Elastic Compliance Matrix: (Units=1/GPa)
#
#
# Indices 1 2 3 4 5 6 
#
# 1 0.017459 -0.009538 -0.000099 0.000000 -0.006407 0.000000
# 2 -0.009538 0.020492 -0.003889 0.000000 0.010054 0.000000
# 3 -0.000099 -0.003889 0.006950 0.000000 -0.002653 0.000000
# 4 0.000000 0.000000 0.000000 0.021239 0.000000 -0.006537
# 5 -0.006407 0.010054 -0.002653 0.000000 0.026938 0.000000
# 6 0.000000 0.000000 0.000000 -0.006537 0.000000 0.015300
#
#
# Mechanical properties :
#
#
# Convention : Reuss Voigt Hill
#
# Bulk Modulus (GPa) = 56.02370 60.72444 58.37407
# Shear Modulus (GPa) = 35.36608 50.43288 42.89948
#
# Velocity S-wave (km/s) = 3.73759 4.46329 4.11646
# Velocity P-wave (km/s) = 6.38400 7.10967 6.75658
#
# Compressibility (1/GPa) = 0.01784959
#
# Stress axis : x y z
#
# Youngs Moduli (GPa) = 57.27561 48.80060 143.88519
#
# Poissons Ratio (x) = 0.46545 0.01422
# Poissons Ratio (y) = 0.54628 0.55959
# Poissons Ratio (z) = 0.00566 0.18979
#
# Static dielectric constant tensor:
#      x y z
#    x 1.983320 0.000000 0.014290 
#    y 0.000000 2.221590 0.000000 
#    z 0.014290 0.000000 2.006180 
# 
# From -- ./inp_files/11555.got.cif
#   From: 2010.05.17/outbox.cif.g08.bks.cpg/sg4_6_cif.got.tgz:11555.got - 2010.06.03 18:43:04.
