data_PCOD9118215
_publ_section_title
;
Structure prediction by ZEFSAII (Michael W. Deem and Ramdas Pophale) SiO2 
 PCOD9118215
Probable space group: P 21
;
_chemical_formula_sum "Si O2"
_cell_formula_units_Z 16
_cell_length_a 6.813336
_cell_length_b 13.298788
_cell_length_c 8.499311
_cell_angle_alpha 90.000000
_cell_angle_beta 124.381800
_cell_angle_gamma 90.000000
_cell_volume 635.570467
_symmetry_space_group_name_H-M "P 21"
_symmetry_group_IT_number 4
_symmetry_cell_setting 'monoclinic'
loop_
_space_group_symop_operation_xyz
x,y,z
-x,1/2+y,-z
loop_
_atom_site_type_symbol
_atom_site_label
_atom_site_fract_x
_atom_site_fract_y
_atom_site_fract_z
Si Si1 0.329939 0.214040 0.891147
Si Si2 0.124679 0.933253 0.609947
Si Si3 0.129318 0.934979 0.238683
Si Si4 0.361128 0.123209 0.222932
Si Si5 0.655972 0.918645 0.899449
Si Si6 0.858486 0.133259 0.575368
Si Si7 0.349609 0.737494 0.239599
Si Si8 0.204510 0.301493 0.345688
O O1 0.558724 0.204910 0.886491
O O2 0.092543 0.202399 0.679086
O O3 0.306263 0.130644 0.015412
O O4 0.346125 0.319835 0.988819
O O5 0.129566 0.916210 0.424730
O O6 0.392041 0.961833 0.780008
O O7 0.024747 0.840817 0.666405
O O8 0.946821 0.024312 0.566292
O O9 0.167868 0.830420 0.163480
O O10 0.331596 0.013066 0.280083
O O11 0.877462 0.979782 0.068305
O O12 0.631124 0.162415 0.367872
O O13 0.189737 0.196796 0.244209
O O14 0.715473 0.881757 0.750120
O O15 0.753696 0.147189 0.703415
O O16 0.578997 0.782996 0.435274
#
# Coordination Sequence:
#
# PCOD9118215 Si02
#       8
#     2   2   2   2   2   2   2   2
#     4  11  26  47  77 109 149 199 247 316 376 443
#     4  12  28  46  74 109 156 204 248 312 384 439
#     4  12  26  50  75 113 151 200 253 311 372 457
#     4  10  27  50  75 114 152 198 256 312 376 449
#     4  11  26  48  73 111 148 202 253 306 375 449
#     4  11  27  49  73 113 150 197 252 311 379 444
#     4  11  24  48  81 104 152 196 252 310 376 446
#     4  10  24  48  76 105 152 196 253 308 370 451
#
# _framework density 25.174233999999998
#
# number of rings (size 3 to 8) (size 9 to 14) (size 15 to 20)
#    0.000    1.000    2.500    1.500    7.000    1.000 
#    4.500    1.250    0.000    0.000    0.000    0.000 
#    0.000    0.000    0.000    0.000    0.000    0.000 
#
# Total GULP energy -89683.840609 kJ/mol
# GULP energy per Si atom -5605.240038 kJ/mol
# Density = 2.511694 g / cm^3
# Si number density = 25.174234 Si / 1000 Ang^3
#
#
#
# Elastic Constant Matrix: (Units=GPa)
#
#
# Indices 1 2 3 4 5 6 
#
# 1 136.8427 34.5036 53.2428 0.0000 4.2629 0.0000
# 2 34.5036 72.8257 18.6408 0.0000 -15.3205 0.0000
# 3 53.2428 18.6408 97.5159 0.0000 18.9335 0.0000
# 4 0.0000 0.0000 0.0000 25.3848 0.0000 6.7251
# 5 4.2629 -15.3205 18.9335 0.0000 34.6962 0.0000
# 6 0.0000 0.0000 0.0000 6.7251 0.0000 46.8119
#
#
#
# Elastic Compliance Matrix: (Units=1/GPa)
#
#
# Indices 1 2 3 4 5 6 
#
# 1 0.010079 -0.003601 -0.004771 0.000000 -0.000225 0.000000
# 2 -0.003601 0.018618 -0.003663 0.000000 0.010662 0.000000
# 3 -0.004771 -0.003663 0.015391 0.000000 -0.009430 0.000000
# 4 0.000000 0.000000 0.000000 0.040952 0.000000 -0.005883
# 5 -0.000225 0.010662 -0.009430 0.000000 0.038703 0.000000
# 6 0.000000 0.000000 0.000000 -0.005883 0.000000 0.022207
#
#
# Mechanical properties :
#
#
# Convention : Reuss Voigt Hill
#
# Bulk Modulus (GPa) = 49.95602 57.77321 53.86461
# Shear Modulus (GPa) = 28.29752 34.76503 31.53127
#
# Velocity S-wave (km/s) = 3.35635 3.72018 3.54294
# Velocity P-wave (km/s) = 5.90824 6.43833 6.17897
#
# Compressibility (1/GPa) = 0.02001761
#
# Stress axis : x y z
#
# Youngs Moduli (GPa) = 99.21609 53.71036 64.97447
#
# Poissons Ratio (x) = 0.19344 0.30999
# Poissons Ratio (y) = 0.35732 0.23799
# Poissons Ratio (z) = 0.47335 0.19673
#
# Static dielectric constant tensor:
#      x y z
#    x 1.925110 0.000000 0.028550 
#    y 0.000000 1.957140 0.000000 
#    z 0.028550 0.000000 1.967290 
# 
# From -- ./inp_files/4809.got.cif
#   From: 2010.05.17/outbox.cif.g08.bks.cpg/sg4_3_cif.got.tgz:4809.got - 2010.06.03 18:43:04.
