data_PCOD9118722
_publ_section_title
;
Structure prediction by ZEFSAII (Michael W. Deem and Ramdas Pophale) SiO2 
 PCOD9118722
Probable space group: P 21
;
_chemical_formula_sum "Si O2"
_cell_formula_units_Z 14
_cell_length_a 9.729823
_cell_length_b 9.248361
_cell_length_c 11.153912
_cell_angle_alpha 90.000000
_cell_angle_beta 139.149599
_cell_angle_gamma 90.000000
_cell_volume 656.495794
_symmetry_space_group_name_H-M "P 21"
_symmetry_group_IT_number 4
_symmetry_cell_setting 'monoclinic'
loop_
_space_group_symop_operation_xyz
x,y,z
-x,1/2+y,-z
loop_
_atom_site_type_symbol
_atom_site_label
_atom_site_fract_x
_atom_site_fract_y
_atom_site_fract_z
Si Si1 0.623429 0.955060 0.553786
Si Si2 0.724554 0.418193 0.066448
Si Si3 0.957391 0.708189 0.830089
Si Si4 0.712524 0.964439 0.335135
Si Si5 0.009528 0.654466 0.136239
Si Si6 0.836605 0.428304 0.640824
Si Si7 0.883195 0.285664 0.417093
O O1 0.763526 0.816168 0.680775
O O2 0.622582 0.970172 0.410288
O O3 0.392159 0.945461 0.452389
O O4 0.757739 0.088411 0.694408
O O5 0.856434 0.562292 0.120823
O O6 0.771451 0.359997 0.229769
O O7 0.829815 0.299509 0.047234
O O8 0.481764 0.444115 0.881712
O O9 0.945158 0.583537 0.723072
O O10 0.944157 0.644934 0.954863
O O11 0.873088 0.830816 0.433524
O O12 0.832406 0.115854 0.391350
O O13 0.023734 0.818019 0.189298
O O14 0.812946 0.361280 0.494179
#
# Coordination Sequence:
#
# PCOD9118722 Si02
#       7
#     2   2   2   2   2   2   2
#     4  11  23  46  69 103 147 190 238 301 365 417
#     4  11  26  49  72 104 148 194 234 304 365 428
#     4  11  23  43  71 108 145 184 247 294 355 433
#     4  12  26  52  75  99 147 195 241 302 364 427
#     4  11  22  44  71 104 147 185 243 303 353 423
#     4  12  24  41  74 107 141 193 240 300 361 430
#     4  12  26  49  72 109 145 191 247 296 361 446
#
# _framework density 21.325344000000001
#
# number of rings (size 3 to 8) (size 9 to 14) (size 15 to 20)
#    0.000    0.571    4.286    5.143    2.000    2.286 
#    5.143    0.000    0.000    0.000    0.000    0.000 
#    0.000    0.000    0.000    0.000    0.000    0.000 
#
# Total GULP energy -78380.101049 kJ/mol
# GULP energy per Si atom -5598.578646 kJ/mol
# Density = 2.127681 g / cm^3
# Si number density = 21.325344 Si / 1000 Ang^3
#
#
#
# Elastic Constant Matrix: (Units=GPa)
#
#
# Indices 1 2 3 4 5 6 
#
# 1 84.8482 -2.7339 20.8121 0.0000 -8.9842 0.0000
# 2 -2.7339 76.9065 10.3884 0.0000 20.8158 0.0000
# 3 20.8121 10.3884 91.5245 0.0000 8.2203 0.0000
# 4 0.0000 0.0000 0.0000 15.8575 0.0000 -8.2741
# 5 -8.9842 20.8158 8.2203 0.0000 37.4125 0.0000
# 6 0.0000 0.0000 0.0000 -8.2741 0.0000 9.0481
#
#
#
# Elastic Compliance Matrix: (Units=1/GPa)
#
#
# Indices 1 2 3 4 5 6 
#
# 1 0.013005 -0.000158 -0.003293 0.000000 0.003934 0.000000
# 2 -0.000158 0.015399 -0.000958 0.000000 -0.008395 0.000000
# 3 -0.003293 -0.000958 0.012044 0.000000 -0.002904 0.000000
# 4 0.000000 0.000000 0.000000 0.120608 0.000000 0.110290
# 5 0.003934 -0.008395 -0.002904 0.000000 0.032983 0.000000
# 6 0.000000 0.000000 0.000000 0.110290 0.000000 0.211375
#
#
# Mechanical properties :
#
#
# Convention : Reuss Voigt Hill
#
# Bulk Modulus (GPa) = 31.61431 34.46806 33.04118
# Shear Modulus (GPa) = 11.77096 27.45114 19.61105
#
# Velocity S-wave (km/s) = 2.35195 3.59173 3.03580
# Velocity P-wave (km/s) = 4.71514 5.77916 5.27405
#
# Compressibility (1/GPa) = 0.03163125
#
# Stress axis : x y z
#
# Youngs Moduli (GPa) = 76.89410 64.93996 83.02654
#
# Poissons Ratio (x) = 0.01025 0.27338
# Poissons Ratio (y) = 0.01213 0.07954
# Poissons Ratio (z) = 0.25319 0.06221
#
# Static dielectric constant tensor:
#      x y z
#    x 1.761190 0.000000 -0.014540 
#    y 0.000000 1.770370 0.000000 
#    z -0.014540 0.000000 1.732280 
# 
# From -- ./inp_files/10782.got.cif
#   From: 2010.05.17/outbox.cif.g08.bks.cpg/sg4_6_cif.got.tgz:10782.got - 2010.06.03 18:43:04.
