data_PCOD9118686
_publ_section_title
;
Structure prediction by ZEFSAII (Michael W. Deem and Ramdas Pophale) SiO2 
 PCOD9118686
Probable space group: P 21
;
_chemical_formula_sum "Si O2"
_cell_formula_units_Z 12
_cell_length_a 14.651534
_cell_length_b 6.360462
_cell_length_c 5.191480
_cell_angle_alpha 90.000000
_cell_angle_beta 107.895205
_cell_angle_gamma 90.000000
_cell_volume 460.390721
_symmetry_space_group_name_H-M "P 21"
_symmetry_group_IT_number 4
_symmetry_cell_setting 'monoclinic'
loop_
_space_group_symop_operation_xyz
x,y,z
-x,1/2+y,-z
loop_
_atom_site_type_symbol
_atom_site_label
_atom_site_fract_x
_atom_site_fract_y
_atom_site_fract_z
Si Si1 0.162932 0.170230 0.557126
Si Si2 0.594621 0.369006 0.323955
Si Si3 0.395074 0.152532 0.155406
Si Si4 0.877113 0.301972 0.780830
Si Si5 0.723996 0.991245 0.649145
Si Si6 0.993771 0.476814 0.282930
O O1 0.237989 0.351249 0.558008
O O2 0.061716 0.283683 0.413850
O O3 0.188939 0.986533 0.379239
O O4 0.118587 0.031012 0.750607
O O5 0.490447 0.278238 0.155816
O O6 0.584033 0.516748 0.567645
O O7 0.653669 0.165025 0.469096
O O8 0.633306 0.499893 0.108159
O O9 0.320270 0.329941 0.184648
O O10 0.811152 0.125010 0.853727
O O11 0.971271 0.416610 0.969812
O O12 0.930244 0.163245 0.611685
#
# Coordination Sequence:
#
# PCOD9118686 Si02
#       6
#     2   2   2   2   2   2
#     4  11  23  46  70 108 146 203 262 322 393 469
#     4  12  27  55  87 119 160 210 270 333 414 496
#     4  12  27  55  87 119 160 210 270 333 414 496
#     4  11  23  46  70 108 146 203 262 322 393 469
#     4  11  28  52  74 120 158 204 270 332 400 481
#     4  11  22  42  74  98 146 198 258 318 392 467
#
# _framework density 26.064819
#
# number of rings (size 3 to 8) (size 9 to 14) (size 15 to 20)
#    0.000    0.667    5.000    2.000    0.000    0.000 
#   18.000    0.000    0.000    0.000    0.000    0.000 
#    0.000    0.000    0.000    0.000    0.000    0.000 
#
# Total GULP energy -66811.218829 kJ/mol
# GULP energy per Si atom -5567.601569 kJ/mol
# Density = 2.600549 g / cm^3
# Si number density = 26.064819 Si / 1000 Ang^3
#
#
#
# Elastic Constant Matrix: (Units=GPa)
#
#
# Indices 1 2 3 4 5 6 
#
# 1 115.2383 51.1053 4.7388 0.0000 -5.6543 0.0000
# 2 51.1053 131.5580 26.3767 0.0000 -12.7992 0.0000
# 3 4.7388 26.3767 74.9360 0.0000 -7.4129 0.0000
# 4 0.0000 0.0000 0.0000 29.8130 0.0000 14.7977
# 5 -5.6543 -12.7992 -7.4129 0.0000 24.9067 0.0000
# 6 0.0000 0.0000 0.0000 14.7977 0.0000 132.7685
#
#
#
# Elastic Compliance Matrix: (Units=1/GPa)
#
#
# Indices 1 2 3 4 5 6 
#
# 1 0.010537 -0.004220 0.000867 0.000000 0.000481 0.000000
# 2 -0.004220 0.010166 -0.002977 0.000000 0.003380 0.000000
# 3 0.000867 -0.002977 0.014637 0.000000 0.003023 0.000000
# 4 0.000000 0.000000 0.000000 0.035507 0.000000 -0.003957
# 5 0.000481 0.003380 0.003023 0.000000 0.042896 0.000000
# 6 0.000000 0.000000 0.000000 -0.003957 0.000000 0.007973
#
#
# Mechanical properties :
#
#
# Convention : Reuss Voigt Hill
#
# Bulk Modulus (GPa) = 44.09345 54.01932 49.05638
# Shear Modulus (GPa) = 35.22683 53.46507 44.34595
#
# Velocity S-wave (km/s) = 3.68028 4.53397 4.12924
# Velocity P-wave (km/s) = 5.91716 6.94112 6.44949
#
# Compressibility (1/GPa) = 0.02267911
#
# Stress axis : x y z
#
# Youngs Moduli (GPa) = 94.90165 98.36333 68.32040
#
# Poissons Ratio (x) = 0.41512 -0.05922
# Poissons Ratio (y) = 0.40051 0.20340
# Poissons Ratio (z) = -0.08226 0.29285
#
# Static dielectric constant tensor:
#      x y z
#    x 2.048990 0.000000 0.032910 
#    y 0.000000 2.240830 0.000000 
#    z 0.032910 0.000000 2.056770 
# 
# From -- ./inp_files/3370.got.cif
#   From: 2010.05.17/outbox.cif.g08.bks.cpg/sg4_2_cif.got.tgz:3370.got - 2010.06.03 18:43:04.
