data_PCOD9118746
_publ_section_title
;
Structure prediction by ZEFSAII (Michael W. Deem and Ramdas Pophale) SiO2 
 PCOD9118746
Probable space group: P 21
;
_chemical_formula_sum "Si O2"
_cell_formula_units_Z 16
_cell_length_a 9.027183
_cell_length_b 15.098309
_cell_length_c 6.803953
_cell_angle_alpha 90.000000
_cell_angle_beta 58.164247
_cell_angle_gamma 90.000000
_cell_volume 787.839607
_symmetry_space_group_name_H-M "P 21"
_symmetry_group_IT_number 4
_symmetry_cell_setting 'monoclinic'
loop_
_space_group_symop_operation_xyz
x,y,z
-x,1/2+y,-z
loop_
_atom_site_type_symbol
_atom_site_label
_atom_site_fract_x
_atom_site_fract_y
_atom_site_fract_z
Si Si1 0.069104 0.521860 0.076487
Si Si2 0.114504 0.261770 0.502722
Si Si3 0.332906 0.919119 0.170824
Si Si4 0.077160 0.848431 0.014663
Si Si5 0.350042 0.580548 0.578400
Si Si6 0.726313 0.581658 0.513740
Si Si7 0.712137 0.947945 0.728592
Si Si8 0.774666 0.261353 0.478395
O O1 0.197315 0.577135 0.848051
O O2 0.038030 0.426390 0.998439
O O3 0.161607 0.504597 0.219962
O O4 0.881272 0.564147 0.249937
O O5 0.243470 0.179083 0.420647
O O6 0.203165 0.352429 0.369491
O O7 0.037316 0.282580 0.772695
O O8 0.952096 0.241263 0.473794
O O9 0.214112 0.892838 0.068880
O O10 0.321357 0.838076 0.332194
O O11 0.260022 0.006014 0.330099
O O12 0.528687 0.936172 0.965883
O O13 0.174551 0.799667 0.769670
O O14 0.537543 0.572912 0.548214
O O15 0.319141 0.499961 0.451059
O O16 0.334739 0.672522 0.472335
#
# Coordination Sequence:
#
# PCOD9118746 Si02
#       8
#     2   2   2   2   2   2   2   2
#     4  12  23  47  74  99 136 184 232 283 347 411
#     4  11  25  44  69 103 138 184 233 287 346 414
#     4  11  26  44  71 102 142 182 231 287 343 417
#     4  11  22  45  74  97 133 185 228 286 352 402
#     4  12  28  45  72 105 141 185 231 290 346 412
#     4  12  26  47  69 105 143 183 234 286 347 412
#     4  12  25  46  72 101 144 183 232 288 344 414
#     4  11  25  46  71 102 139 182 235 287 347 412
#
# _framework density 20.308702
#
# number of rings (size 3 to 8) (size 9 to 14) (size 15 to 20)
#    0.000    0.500    5.000    3.000    3.500    3.000 
#    4.500    0.000    0.000    0.000    0.000    0.000 
#    0.000    0.000    0.000    0.000    0.000    0.000 
#
# Total GULP energy -89572.818372 kJ/mol
# GULP energy per Si atom -5598.301148 kJ/mol
# Density = 2.026248 g / cm^3
# Si number density = 20.308702 Si / 1000 Ang^3
#
#
#
# Elastic Constant Matrix: (Units=GPa)
#
#
# Indices 1 2 3 4 5 6 
#
# 1 58.9824 0.0108 26.5599 0.0000 -2.1173 0.0000
# 2 0.0108 55.4130 5.2878 0.0000 14.0296 0.0000
# 3 26.5599 5.2878 94.9524 0.0000 -7.9912 0.0000
# 4 0.0000 0.0000 0.0000 -14.0064 0.0000 3.7193
# 5 -2.1173 14.0296 -7.9912 0.0000 35.5808 0.0000
# 6 0.0000 0.0000 0.0000 3.7193 0.0000 34.6672
#
#
#
# Elastic Compliance Matrix: (Units=1/GPa)
#
#
# Indices 1 2 3 4 5 6 
#
# 1 0.019415 0.000600 -0.005491 0.000000 -0.000314 0.000000
# 2 0.000600 0.020378 -0.002014 0.000000 -0.008452 0.000000
# 3 -0.005491 -0.002014 0.012454 0.000000 0.003265 0.000000
# 4 0.000000 0.000000 0.000000 -0.069418 0.000000 0.007448
# 5 -0.000314 -0.008452 0.003265 0.000000 0.032152 0.000000
# 6 0.000000 0.000000 0.000000 0.007448 0.000000 0.028047
#
#
# Mechanical properties :
#
#
# Convention : Reuss Voigt Hill
#
# Bulk Modulus (GPa) = 26.01581 30.34054 28.17817
# Shear Modulus (GPa) = 71.78679 23.08095 47.43387
#
# Velocity S-wave (km/s) = 5.95185 3.37487 4.83809
# Velocity P-wave (km/s) = 7.75053 5.49167 6.71674
#
# Compressibility (1/GPa) = 0.03843817
#
# Stress axis : x y z
#
# Youngs Moduli (GPa) = 51.50590 49.07199 80.29336
#
# Poissons Ratio (x) = -0.02943 0.44086
# Poissons Ratio (y) = -0.03089 0.16170
# Poissons Ratio (z) = 0.28280 0.09883
#
# Static dielectric constant tensor:
#      x y z
#    x 1.692220 0.000000 -0.003400 
#    y 0.000000 1.707300 0.000000 
#    z -0.003400 0.000000 1.707820 
# 
# From -- ./inp_files/1648.got.cif
#   From: 2010.05.17/outbox.cif.g08.bks.cpg/sg4_1_cif.got.tgz:1648.got - 2010.06.03 18:43:04.
