data_PCOD9118843
_publ_section_title
;
Structure prediction by ZEFSAII (Michael W. Deem and Ramdas Pophale) SiO2 
 PCOD9118843
Probable space group: P 21
;
_chemical_formula_sum "Si O2"
_cell_formula_units_Z 16
_cell_length_a 16.295743
_cell_length_b 8.322363
_cell_length_c 9.395437
_cell_angle_alpha 90.000000
_cell_angle_beta 30.749471
_cell_angle_gamma 90.000000
_cell_volume 651.479848
_symmetry_space_group_name_H-M "P 21"
_symmetry_group_IT_number 4
_symmetry_cell_setting 'monoclinic'
loop_
_space_group_symop_operation_xyz
x,y,z
-x,1/2+y,-z
loop_
_atom_site_type_symbol
_atom_site_label
_atom_site_fract_x
_atom_site_fract_y
_atom_site_fract_z
Si Si1 0.701650 0.523240 0.246822
Si Si2 0.847592 0.512255 0.477736
Si Si3 0.461168 0.918179 0.258887
Si Si4 0.764727 0.068198 0.673664
Si Si5 0.158142 0.364490 0.913056
Si Si6 0.367151 0.568885 0.438536
Si Si7 0.018678 0.352113 0.804012
Si Si8 0.328671 0.884740 0.016995
O O1 0.554389 0.522414 0.575095
O O2 0.757395 0.706832 0.153177
O O3 0.675630 0.427250 0.141216
O O4 0.844981 0.418406 0.104935
O O5 0.690692 0.473819 0.613862
O O6 0.942848 0.674528 0.303857
O O7 0.778932 0.512800 0.737963
O O8 0.989582 0.384321 0.243082
O O9 0.459636 0.735652 0.316837
O O10 0.623330 0.949505 0.932870
O O11 0.731792 0.111005 0.557029
O O12 0.926610 0.968217 0.408004
O O13 0.739361 0.218363 0.816945
O O14 0.273689 0.519083 0.721443
O O15 0.116235 0.350999 0.807169
O O16 0.485744 0.421672 0.222397
#
# Coordination Sequence:
#
# PCOD9118843 Si02
#       8
#     2   2   2   2   2   2   2   2
#     4  12  27  45  67 104 148 187 231 296 362 415
#     4  12  23  41  71 102 136 185 240 287 348 425
#     4  12  23  41  71 102 136 185 240 287 348 425
#     4  11  23  42  73 102 139 185 238 289 346 423
#     4  11  23  42  73 102 139 185 238 289 346 423
#     4  11  23  42  71 105 136 184 240 291 346 418
#     4  11  23  42  71 105 136 184 240 291 346 418
#     4  12  27  45  67 104 148 187 231 296 362 415
#
# _framework density 24.559470999999998
#
# number of rings (size 3 to 8) (size 9 to 14) (size 15 to 20)
#    0.000    0.500    5.000    3.000    3.500    4.000 
#    0.000    3.750    0.000    0.000    0.000    0.000 
#    0.000    0.000    0.000    0.000    0.000    0.000 
#
# Total GULP energy -89357.773697 kJ/mol
# GULP energy per Si atom -5584.860856 kJ/mol
# Density = 2.450357 g / cm^3
# Si number density = 24.559471 Si / 1000 Ang^3
#
#
#
# Elastic Constant Matrix: (Units=GPa)
#
#
# Indices 1 2 3 4 5 6 
#
# 1 46.9426 12.1665 -2.1900 0.0000 17.7486 0.0000
# 2 12.1665 74.7191 -14.4092 0.0000 -1.4866 0.0000
# 3 -2.1900 -14.4092 109.4866 0.0000 3.3791 0.0000
# 4 0.0000 0.0000 0.0000 46.0863 0.0000 8.2593
# 5 17.7486 -1.4866 3.3791 0.0000 20.5613 0.0000
# 6 0.0000 0.0000 0.0000 8.2593 0.0000 19.7218
#
#
#
# Elastic Compliance Matrix: (Units=1/GPa)
#
#
# Indices 1 2 3 4 5 6 
#
# 1 0.034322 -0.006030 0.000825 0.000000 -0.030198 0.000000
# 2 -0.006030 0.014802 0.001642 0.000000 0.006006 0.000000
# 3 0.000825 0.001642 0.009432 0.000000 -0.002143 0.000000
# 4 0.000000 0.000000 0.000000 0.023459 0.000000 -0.009824
# 5 -0.030198 0.006006 -0.002143 0.000000 0.075489 0.000000
# 6 0.000000 0.000000 0.000000 -0.009824 0.000000 0.054820
#
#
# Mechanical properties :
#
#
# Convention : Reuss Voigt Hill
#
# Bulk Modulus (GPa) = 19.44443 24.69810 22.07127
# Shear Modulus (GPa) = 21.13335 32.97929 27.05632
#
# Velocity S-wave (km/s) = 2.93661 3.66845 3.32274
# Velocity P-wave (km/s) = 4.40825 5.29354 4.87105
#
# Compressibility (1/GPa) = 0.05142860
#
# Stress axis : x y z
#
# Youngs Moduli (GPa) = 29.13608 67.56057 106.01883
#
# Poissons Ratio (x) = 0.40741 -0.08745
# Poissons Ratio (y) = 0.17570 -0.17408
# Poissons Ratio (z) = -0.02403 -0.11094
#
# Static dielectric constant tensor:
#      x y z
#    x 2.078780 0.000000 -0.108970 
#    y 0.000000 2.033350 0.000000 
#    z -0.108970 0.000000 1.929080 
# 
# From -- ./inp_files/5743.got.cif
#   From: 2010.05.17/outbox.cif.g08.bks.cpg/sg4_3_cif.got.tgz:5743.got - 2010.06.03 18:43:04.
