data_PCOD9118348
_publ_section_title
;
Structure prediction by ZEFSAII (Michael W. Deem and Ramdas Pophale) SiO2 
 PCOD9118348
Probable space group: P 21
;
_chemical_formula_sum "Si O2"
_cell_formula_units_Z 16
_cell_length_a 19.663372
_cell_length_b 5.511402
_cell_length_c 10.164487
_cell_angle_alpha 90.000000
_cell_angle_beta 34.439789
_cell_angle_gamma 90.000000
_cell_volume 622.972355
_symmetry_space_group_name_H-M "P 21"
_symmetry_group_IT_number 4
_symmetry_cell_setting 'monoclinic'
loop_
_space_group_symop_operation_xyz
x,y,z
-x,1/2+y,-z
loop_
_atom_site_type_symbol
_atom_site_label
_atom_site_fract_x
_atom_site_fract_y
_atom_site_fract_z
Si Si1 0.835574 0.791690 0.360004
Si Si2 0.918812 0.104382 0.985039
Si Si3 0.345554 0.610523 0.205198
Si Si4 0.283156 0.940775 0.102390
Si Si5 0.948853 0.141985 0.523236
Si Si6 0.165262 0.250515 0.073880
Si Si7 0.281539 0.989087 0.655367
Si Si8 0.495807 0.227919 0.796868
O O1 0.726867 0.651515 0.461948
O O2 0.902977 0.909754 0.126856
O O3 0.775341 0.979920 0.554226
O O4 0.940637 0.644335 0.263779
O O5 0.837498 0.324397 0.164494
O O6 0.853572 0.017486 0.955512
O O7 0.311120 0.881654 0.210969
O O8 0.433758 0.628806 0.188108
O O9 0.409018 0.443960 0.991510
O O10 0.189995 0.713731 0.236597
O O11 0.212755 0.153126 0.138848
O O12 0.419370 0.015553 0.848621
O O13 0.015445 0.389352 0.467501
O O14 0.032218 0.128628 0.258973
O O15 0.262373 0.138316 0.818194
O O16 0.402419 0.836660 0.458971
#
# Coordination Sequence:
#
# PCOD9118348 Si02
#       8
#     2   2   2   2   2   2   2   2
#     4  11  24  42  73 122 152 204 252 330 422 483
#     4  11  23  42  77 108 161 196 259 328 404 498
#     4  12  26  44  78 108 155 200 269 333 397 492
#     4  11  28  48  73 109 150 208 264 331 409 484
#     4  10  25  47  77 110 159 204 268 339 410 500
#     4  10  27  47  73 110 150 204 266 328 414 487
#     4  11  25  46  73 108 163 198 262 332 400 495
#     4  12  26  48  72 109 150 202 268 329 400 491
#
# _framework density 25.683322
#
# number of rings (size 3 to 8) (size 9 to 14) (size 15 to 20)
#    0.000    1.000    3.750    0.750   10.500    0.000 
#    4.500    0.000    0.000    0.000    0.000    0.000 
#    0.000    0.000    0.000    0.000    0.000    0.000 
#
# Total GULP energy -89192.014815 kJ/mol
# GULP energy per Si atom -5574.500926 kJ/mol
# Density = 2.562487 g / cm^3
# Si number density = 25.683322 Si / 1000 Ang^3
#
#
#
# Elastic Constant Matrix: (Units=GPa)
#
#
# Indices 1 2 3 4 5 6 
#
# 1 84.9287 39.6731 36.7047 0.0000 -20.6309 0.0000
# 2 39.6731 74.2445 33.3855 0.0000 -7.5443 0.0000
# 3 36.7047 33.3855 144.1476 0.0000 -21.4190 0.0000
# 4 0.0000 0.0000 0.0000 58.6457 0.0000 -10.5830
# 5 -20.6309 -7.5443 -21.4190 0.0000 40.5720 0.0000
# 6 0.0000 0.0000 0.0000 -10.5830 0.0000 46.6635
#
#
#
# Elastic Compliance Matrix: (Units=1/GPa)
#
#
# Indices 1 2 3 4 5 6 
#
# 1 0.017940 -0.008147 -0.001683 0.000000 0.006719 0.000000
# 2 -0.008147 0.018775 -0.002573 0.000000 -0.002010 0.000000
# 3 -0.001683 -0.002573 0.008424 0.000000 0.003113 0.000000
# 4 0.000000 0.000000 0.000000 0.017779 0.000000 0.004032
# 5 0.006719 -0.002010 0.003113 0.000000 0.029334 0.000000
# 6 0.000000 0.000000 0.000000 0.004032 0.000000 0.022345
#
#
# Mechanical properties :
#
#
# Convention : Reuss Voigt Hill
#
# Bulk Modulus (GPa) = 49.17723 58.09416 53.63569
# Shear Modulus (GPa) = 34.20465 42.08007 38.14236
#
# Velocity S-wave (km/s) = 3.65332 4.05213 3.85788
# Velocity P-wave (km/s) = 6.08151 6.67544 6.38539
#
# Compressibility (1/GPa) = 0.02033461
#
# Stress axis : x y z
#
# Youngs Moduli (GPa) = 55.74244 53.26269 118.70475
#
# Poissons Ratio (x) = 0.43392 0.19976
# Poissons Ratio (y) = 0.45412 0.30538
# Poissons Ratio (z) = 0.09380 0.13702
#
# Static dielectric constant tensor:
#      x y z
#    x 2.100680 0.000000 0.032710 
#    y 0.000000 2.160400 0.000000 
#    z 0.032710 0.000000 2.243680 
# 
# From -- ./inp_files/12960.got.cif
#   From: 2010.05.17/outbox.cif.g08.bks.cpg/sg4_7_cif.got.tgz:12960.got - 2010.06.03 18:43:04.
