data_PCOD9118077
_publ_section_title
;
Structure prediction by ZEFSAII (Michael W. Deem and Ramdas Pophale) SiO2 
 PCOD9118077
Probable space group: P 21
;
_chemical_formula_sum "Si O2"
_cell_formula_units_Z 14
_cell_length_a 10.130763
_cell_length_b 5.205114
_cell_length_c 16.605365
_cell_angle_alpha 90.000000
_cell_angle_beta 38.938801
_cell_angle_gamma 90.000000
_cell_volume 550.324897
_symmetry_space_group_name_H-M "P 21"
_symmetry_group_IT_number 4
_symmetry_cell_setting 'monoclinic'
loop_
_space_group_symop_operation_xyz
x,y,z
-x,1/2+y,-z
loop_
_atom_site_type_symbol
_atom_site_label
_atom_site_fract_x
_atom_site_fract_y
_atom_site_fract_z
Si Si1 0.219406 0.091950 0.085472
Si Si2 0.631233 0.370116 0.825189
Si Si3 0.030686 0.606716 0.433935
Si Si4 0.610795 0.794753 0.350472
Si Si5 0.372911 0.293163 0.464893
Si Si6 0.922074 0.430883 0.130592
Si Si7 0.686167 0.196730 0.100346
O O1 0.006018 0.236967 0.159785
O O2 0.224436 0.001546 0.175374
O O3 0.424083 0.272349 0.971650
O O4 0.266235 0.856809 0.003097
O O5 0.753567 0.151952 0.717746
O O6 0.539691 0.570552 0.803364
O O7 0.010503 0.821325 0.514117
O O8 0.847382 0.695266 0.461246
O O9 0.438990 0.578666 0.407696
O O10 0.623065 0.794231 0.440786
O O11 0.829191 0.684986 0.215136
O O12 0.539492 0.075608 0.358763
O O13 0.749311 0.364473 0.145937
O O14 0.137477 0.474906 0.979869
#
# Coordination Sequence:
#
# PCOD9118077 Si02
#       7
#     2   2   2   2   2   2   2
#     4  11  24  45  72 114 143 197 251 316 391 464
#     4  11  27  46  78 103 158 198 258 318 385 465
#     4  12  30  50  75 110 153 210 257 315 374 462
#     4  10  24  44  77 102 144 187 240 319 362 444
#     4  10  24  47  69 109 138 188 258 297 370 434
#     4  11  25  41  74 105 145 191 241 311 388 452
#     4  11  24  45  67 111 143 187 243 308 386 461
#
# _framework density 25.439518
#
# number of rings (size 3 to 8) (size 9 to 14) (size 15 to 20)
#    0.000    1.143    2.857    0.857    8.000    4.571 
#    0.000    0.000    0.000    0.000    0.000    0.000 
#    0.000    0.000    0.000    0.000    0.000    0.000 
#
# Total GULP energy -78417.865837 kJ/mol
# GULP energy per Si atom -5601.276131 kJ/mol
# Density = 2.538162 g / cm^3
# Si number density = 25.439518 Si / 1000 Ang^3
#
#
#
# Elastic Constant Matrix: (Units=GPa)
#
#
# Indices 1 2 3 4 5 6 
#
# 1 95.3595 33.3613 17.4543 0.0000 -5.8480 0.0000
# 2 33.3613 60.7049 13.5890 0.0000 8.1843 0.0000
# 3 17.4543 13.5890 72.7305 0.0000 -1.4221 0.0000
# 4 0.0000 0.0000 0.0000 44.5055 0.0000 -2.9098
# 5 -5.8480 8.1843 -1.4221 0.0000 27.2329 0.0000
# 6 0.0000 0.0000 0.0000 -2.9098 0.0000 41.2955
#
#
#
# Elastic Compliance Matrix: (Units=1/GPa)
#
#
# Indices 1 2 3 4 5 6 
#
# 1 0.013920 -0.007973 -0.001748 0.000000 0.005294 0.000000
# 2 -0.007973 0.022571 -0.002472 0.000000 -0.008624 0.000000
# 3 -0.001748 -0.002472 0.014653 0.000000 0.001133 0.000000
# 4 0.000000 0.000000 0.000000 0.022573 0.000000 0.001591
# 5 0.005294 -0.008624 0.001133 0.000000 0.040508 0.000000
# 6 0.000000 0.000000 0.000000 0.001591 0.000000 0.024328
#
#
# Mechanical properties :
#
#
# Convention : Reuss Voigt Hill
#
# Bulk Modulus (GPa) = 37.37102 39.73379 38.55241
# Shear Modulus (GPa) = 29.09373 33.56614 31.32994
#
# Velocity S-wave (km/s) = 3.38545 3.63636 3.51315
# Velocity P-wave (km/s) = 5.47756 5.76920 5.62527
#
# Compressibility (1/GPa) = 0.02675870
#
# Stress axis : x y z
#
# Youngs Moduli (GPa) = 71.83694 44.30487 68.24597
#
# Poissons Ratio (x) = 0.35323 0.11926
# Poissons Ratio (y) = 0.57274 0.16873
# Poissons Ratio (z) = 0.12554 0.10954
#
# Static dielectric constant tensor:
#      x y z
#    x 1.985240 0.000000 -0.043600 
#    y 0.000000 2.045830 0.000000 
#    z -0.043600 0.000000 2.036010 
# 
# From -- ./inp_files/7250.got.cif
#   From: 2010.05.17/outbox.cif.g08.bks.cpg/sg4_4_cif.got.tgz:7250.got - 2010.06.03 18:43:04.
