data_PCOD9118154
_publ_section_title
;
Structure prediction by ZEFSAII (Michael W. Deem and Ramdas Pophale) SiO2 
 PCOD9118154
Probable space group: P 21
;
_chemical_formula_sum "Si O2"
_cell_formula_units_Z 16
_cell_length_a 12.008354
_cell_length_b 8.935440
_cell_length_c 6.759680
_cell_angle_alpha 90.000000
_cell_angle_beta 76.668995
_cell_angle_gamma 90.000000
_cell_volume 705.769055
_symmetry_space_group_name_H-M "P 21"
_symmetry_group_IT_number 4
_symmetry_cell_setting 'monoclinic'
loop_
_space_group_symop_operation_xyz
x,y,z
-x,1/2+y,-z
loop_
_atom_site_type_symbol
_atom_site_label
_atom_site_fract_x
_atom_site_fract_y
_atom_site_fract_z
Si Si1 0.762449 0.799290 0.162735
Si Si2 0.122316 0.829193 0.755699
Si Si3 0.263790 0.548287 0.556928
Si Si4 0.380424 0.168665 0.119239
Si Si5 0.947700 0.975567 0.580670
Si Si6 0.685381 0.542589 0.449732
Si Si7 0.510500 0.967447 0.746073
Si Si8 0.978995 0.289311 0.791979
O O1 0.687270 0.706582 0.352274
O O2 0.895639 0.780548 0.159267
O O3 0.731205 0.968895 0.231151
O O4 0.721591 0.738610 0.970434
O O5 0.191813 0.697240 0.623491
O O6 0.194343 0.973863 0.665078
O O7 0.110688 0.805090 0.993866
O O8 0.996534 0.857867 0.718444
O O9 0.181658 0.454703 0.441118
O O10 0.385501 0.553682 0.404143
O O11 0.334097 0.062475 0.311835
O O12 0.448419 0.308291 0.186341
O O13 0.458791 0.069604 0.941618
O O14 0.960055 0.138993 0.672419
O O15 0.019478 0.933448 0.353254
O O16 0.587654 0.448767 0.379383
#
# Coordination Sequence:
#
# PCOD9118154 Si02
#       8
#     2   2   2   2   2   2   2   2
#     4  10  24  46  73 104 144 197 241 296 367 435
#     4  12  28  44  74 109 151 190 244 308 367 447
#     4  11  26  46  73 108 150 193 246 311 356 450
#     4  11  27  47  78 108 146 202 240 306 368 439
#     4  11  25  48  69 110 150 188 247 300 369 430
#     4  11  26  49  70 111 150 190 242 308 361 438
#     4  11  28  46  77 109 147 196 249 302 370 437
#     4  11  26  46  74 107 146 198 241 303 368 442
#
# _framework density 22.670307000000001
#
# number of rings (size 3 to 8) (size 9 to 14) (size 15 to 20)
#    0.000    1.000    3.750    0.000   10.500    4.000 
#    0.000    0.000    0.000    0.000    0.000    0.000 
#    0.000    0.000    0.000    0.000    0.000    0.000 
#
# Total GULP energy -89453.255794 kJ/mol
# GULP energy per Si atom -5590.828487 kJ/mol
# Density = 2.261871 g / cm^3
# Si number density = 22.670307 Si / 1000 Ang^3
#
#
#
# Elastic Constant Matrix: (Units=GPa)
#
#
# Indices 1 2 3 4 5 6 
#
# 1 75.6730 9.1937 58.1681 0.0000 3.3892 0.0000
# 2 9.1937 73.8440 49.8409 0.0000 -4.9197 0.0000
# 3 58.1681 49.8409 173.8124 0.0000 -5.0790 0.0000
# 4 0.0000 0.0000 0.0000 28.5489 0.0000 1.6911
# 5 3.3892 -4.9197 -5.0790 0.0000 35.8661 0.0000
# 6 0.0000 0.0000 0.0000 1.6911 0.0000 29.3497
#
#
#
# Elastic Compliance Matrix: (Units=1/GPa)
#
#
# Indices 1 2 3 4 5 6 
#
# 1 0.018296 0.002161 -0.006813 0.000000 -0.002397 0.000000
# 2 0.002161 0.017142 -0.005599 0.000000 0.001354 0.000000
# 3 -0.006813 -0.005599 0.009675 0.000000 0.001246 0.000000
# 4 0.000000 0.000000 0.000000 0.035148 0.000000 -0.002025
# 5 -0.002397 0.001354 0.001246 0.000000 0.028470 0.000000
# 6 0.000000 0.000000 0.000000 -0.002025 0.000000 0.034189
#
#
# Mechanical properties :
#
#
# Convention : Reuss Voigt Hill
#
# Bulk Modulus (GPa) = 40.63126 61.97053 51.30090
# Shear Modulus (GPa) = 29.13303 32.49473 30.81388
#
# Velocity S-wave (km/s) = 3.58868 3.79008 3.69076
# Velocity P-wave (km/s) = 5.92732 6.82260 6.39066
#
# Compressibility (1/GPa) = 0.02461159
#
# Stress axis : x y z
#
# Youngs Moduli (GPa) = 54.65569 58.33490 103.35700
#
# Poissons Ratio (x) = -0.12604 0.70414
# Poissons Ratio (y) = -0.11809 0.57870
# Poissons Ratio (z) = 0.37235 0.32662
#
# Static dielectric constant tensor:
#      x y z
#    x 1.836790 0.000000 0.023790 
#    y 0.000000 1.894020 0.000000 
#    z 0.023790 0.000000 1.838530 
# 
# From -- ./inp_files/2619.got.cif
#   From: 2010.05.17/outbox.cif.g08.bks.cpg/sg4_2_cif.got.tgz:2619.got - 2010.06.03 18:43:04.
