data_PCOD9118252
_publ_section_title
;
Structure prediction by ZEFSAII (Michael W. Deem and Ramdas Pophale) SiO2 
 PCOD9118252
Probable space group: P 21
;
_chemical_formula_sum "Si O2"
_cell_formula_units_Z 12
_cell_length_a 15.625466
_cell_length_b 5.189087
_cell_length_c 9.342291
_cell_angle_alpha 90.000000
_cell_angle_beta 34.950273
_cell_angle_gamma 90.000000
_cell_volume 433.940137
_symmetry_space_group_name_H-M "P 21"
_symmetry_group_IT_number 4
_symmetry_cell_setting 'monoclinic'
loop_
_space_group_symop_operation_xyz
x,y,z
-x,1/2+y,-z
loop_
_atom_site_type_symbol
_atom_site_label
_atom_site_fract_x
_atom_site_fract_y
_atom_site_fract_z
Si Si1 0.928047 0.447430 0.871666
Si Si2 0.413815 0.501082 0.168134
Si Si3 0.888485 0.460859 0.327875
Si Si4 0.349694 0.693584 0.548234
Si Si5 0.150909 0.304498 0.365348
Si Si6 0.311759 0.295606 0.842455
O O1 0.003412 0.717354 0.809580
O O2 0.980358 0.382234 0.636069
O O3 0.715309 0.017026 0.235819
O O4 0.752734 0.517532 0.120774
O O5 0.392386 0.482083 0.366202
O O6 0.253233 0.500812 0.315181
O O7 0.500461 0.759594 0.013524
O O8 0.759613 0.383328 0.392808
O O9 0.827394 0.546996 0.568428
O O10 0.986709 0.719707 0.159603
O O11 0.487067 0.301749 0.635008
O O12 0.215227 0.327617 0.119545
#
# Coordination Sequence:
#
# PCOD9118252 Si02
#       6
#     2   2   2   2   2   2
#     4  10  26  52  88 126 167 238 305 374 440 548
#     4  12  25  47  86 119 169 241 309 353 437 574
#     4  10  24  54  89 117 165 244 317 338 449 566
#     4  12  28  52  85 136 191 240 293 388 471 547
#     4  10  25  47  92 121 176 237 316 365 454 546
#     4  12  30  50  84 145 192 220 304 406 473 505
#
# _framework density 27.653580999999999
#
# number of rings (size 3 to 8) (size 9 to 14) (size 15 to 20)
#    1.000    0.000    3.333    1.000    4.667    2.667 
#    0.000    5.000    0.000    0.000    4.333    0.000 
#    0.000    0.000    0.000    0.000    0.000    0.000 
#
# Total GULP energy -67194.884093 kJ/mol
# GULP energy per Si atom -5599.573674 kJ/mol
# Density = 2.759064 g / cm^3
# Si number density = 27.653581 Si / 1000 Ang^3
#
#
#
# Elastic Constant Matrix: (Units=GPa)
#
#
# Indices 1 2 3 4 5 6 
#
# 1 188.8598 77.0064 92.8925 0.0000 -8.2266 0.0000
# 2 77.0064 209.1972 72.1883 0.0000 -14.7137 0.0000
# 3 92.8925 72.1883 155.1623 0.0000 6.0636 0.0000
# 4 0.0000 0.0000 0.0000 46.1151 0.0000 -9.9893
# 5 -8.2266 -14.7137 6.0636 0.0000 77.8541 0.0000
# 6 0.0000 0.0000 0.0000 -9.9893 0.0000 40.4148
#
#
#
# Elastic Compliance Matrix: (Units=1/GPa)
#
#
# Indices 1 2 3 4 5 6 
#
# 1 0.007949 -0.001441 -0.004124 0.000000 0.000889 0.000000
# 2 -0.001441 0.006087 -0.002014 0.000000 0.001155 0.000000
# 3 -0.004124 -0.002014 0.009913 0.000000 -0.001588 0.000000
# 4 0.000000 0.000000 0.000000 0.022912 0.000000 0.005663
# 5 0.000889 0.001155 -0.001588 0.000000 0.013280 0.000000
# 6 0.000000 0.000000 0.000000 0.005663 0.000000 0.026143
#
#
# Mechanical properties :
#
#
# Convention : Reuss Voigt Hill
#
# Bulk Modulus (GPa) = 113.74575 115.26596 114.50585
# Shear Modulus (GPa) = 47.90550 53.61897 50.76224
#
# Velocity S-wave (km/s) = 4.16666 4.40813 4.28909
# Velocity P-wave (km/s) = 8.02307 8.22687 8.12561
#
# Compressibility (1/GPa) = 0.00879154
#
# Stress axis : x y z
#
# Youngs Moduli (GPa) = 125.79740 164.28708 100.87933
#
# Poissons Ratio (x) = 0.23669 0.41598
# Poissons Ratio (y) = 0.18124 0.20322
# Poissons Ratio (z) = 0.51873 0.33095
#
# Static dielectric constant tensor:
#      x y z
#    x 2.172880 0.000000 0.020910 
#    y 0.000000 2.263160 0.000000 
#    z 0.020910 0.000000 2.374330 
# 
# From -- ./inp_files/9447.got.cif
#   From: 2010.05.17/outbox.cif.g08.bks.cpg/sg4_5_cif.got.tgz:9447.got - 2010.06.03 18:43:04.
