data_PCOD9118430
_publ_section_title
;
Structure prediction by ZEFSAII (Michael W. Deem and Ramdas Pophale) SiO2 
 PCOD9118430
Probable space group: P 21
;
_chemical_formula_sum "Si O2"
_cell_formula_units_Z 8
_cell_length_a 7.662866
_cell_length_b 8.395332
_cell_length_c 7.662852
_cell_angle_alpha 90.000000
_cell_angle_beta 144.853801
_cell_angle_gamma 90.000000
_cell_volume 283.784838
_symmetry_space_group_name_H-M "P 21"
_symmetry_group_IT_number 4
_symmetry_cell_setting 'monoclinic'
loop_
_space_group_symop_operation_xyz
x,y,z
-x,1/2+y,-z
loop_
_atom_site_type_symbol
_atom_site_label
_atom_site_fract_x
_atom_site_fract_y
_atom_site_fract_z
Si Si1 0.497922 0.953890 0.244900
Si Si2 0.212310 0.220797 0.787691
Si Si3 0.244900 0.987704 0.497923
Si Si4 0.915701 0.970797 0.915701
O O1 0.583488 0.848193 0.148992
O O2 0.767971 0.983836 0.601857
O O3 0.218343 0.866688 0.115015
O O4 0.370581 0.119902 0.068080
O O5 0.931921 0.321693 0.629419
O O6 0.148993 0.093401 0.583489
O O7 0.601857 0.957758 0.767972
O O8 0.115015 0.074906 0.218344
#
# Coordination Sequence:
#
# PCOD9118430 Si02
#       4
#     2   2   2   2
#     4  11  27  50  79 113 154 202 254 313 379 452
#     4  12  28  52  80 114 152 202 256 314 376 452
#     4  11  27  50  79 113 154 202 254 313 379 452
#     4  10  26  50  78 112 156 200 252 312 382 450
#
# _framework density 28.190373000000001
#
# number of rings (size 3 to 8) (size 9 to 14) (size 15 to 20)
#    0.000    1.000    0.000    3.000    0.000   26.000 
#    0.000    0.000    0.000    0.000    0.000    0.000 
#    0.000    0.000    0.000    0.000    0.000    0.000 
#
# Total GULP energy -44690.370247 kJ/mol
# GULP energy per Si atom -5586.296281 kJ/mol
# Density = 2.812621 g / cm^3
# Si number density = 28.190373 Si / 1000 Ang^3
#
#
#
# Elastic Constant Matrix: (Units=GPa)
#
#
# Indices 1 2 3 4 5 6 
#
# 1 180.1561 9.3797 49.1263 0.0000 -1.5707 0.0000
# 2 9.3797 104.6312 20.3810 0.0000 3.1744 0.0000
# 3 49.1263 20.3810 199.8581 0.0000 7.2542 0.0000
# 4 0.0000 0.0000 0.0000 39.7842 0.0000 12.7416
# 5 -1.5707 3.1744 7.2542 0.0000 65.3479 0.0000
# 6 0.0000 0.0000 0.0000 12.7416 0.0000 -4.3536
#
#
#
# Elastic Compliance Matrix: (Units=1/GPa)
#
#
# Indices 1 2 3 4 5 6 
#
# 1 0.005963 -0.000262 -0.001450 0.000000 0.000317 0.000000
# 2 -0.000262 0.009771 -0.000918 0.000000 -0.000379 0.000000
# 3 -0.001450 -0.000918 0.005475 0.000000 -0.000598 0.000000
# 4 0.000000 0.000000 0.000000 0.012974 0.000000 0.037972
# 5 0.000317 -0.000379 -0.000598 0.000000 0.015395 0.000000
# 6 0.000000 0.000000 0.000000 0.037972 0.000000 -0.118563
#
#
# Mechanical properties :
#
#
# Convention : Reuss Voigt Hill
#
# Bulk Modulus (GPa) = 62.70231 71.37993 67.04112
# Shear Modulus (GPa) = -85.60604 47.20626 -19.19989
#
# Velocity S-wave (km/s) = -5.51662 4.09657 -2.61258
# Velocity P-wave (km/s) = 4.27629 6.91024 3.83828
#
# Compressibility (1/GPa) = 0.01594838
#
# Stress axis : x y z
#
# Youngs Moduli (GPa) = 167.71048 102.34141 182.63342
#
# Poissons Ratio (x) = 0.02677 0.26491
# Poissons Ratio (y) = 0.04387 0.16773
# Poissons Ratio (z) = 0.24326 0.09399
#
# Static dielectric constant tensor:
#      x y z
#    x 2.245360 0.000000 -0.023800 
#    y 0.000000 2.424600 0.000000 
#    z -0.023800 0.000000 2.162910 
# 
# From -- ./inp_files/5313.got.cif
#   From: 2010.05.17/outbox.cif.g08.bks.cpg/sg4_3_cif.got.tgz:5313.got - 2010.06.03 18:43:04.
