data_PCOD9118798
_publ_section_title
;
Structure prediction by ZEFSAII (Michael W. Deem and Ramdas Pophale) SiO2 
 PCOD9118798
Probable space group: P 21
;
_chemical_formula_sum "Si O2"
_cell_formula_units_Z 16
_cell_length_a 18.138827
_cell_length_b 4.948848
_cell_length_c 9.374867
_cell_angle_alpha 90.000000
_cell_angle_beta 132.586854
_cell_angle_gamma 90.000000
_cell_volume 619.591049
_symmetry_space_group_name_H-M "P 21"
_symmetry_group_IT_number 4
_symmetry_cell_setting 'monoclinic'
loop_
_space_group_symop_operation_xyz
x,y,z
-x,1/2+y,-z
loop_
_atom_site_type_symbol
_atom_site_label
_atom_site_fract_x
_atom_site_fract_y
_atom_site_fract_z
Si Si1 0.643559 0.754230 0.954589
Si Si2 0.523692 0.503018 0.434093
Si Si3 0.744077 0.558358 0.652531
Si Si4 0.736020 0.245522 0.914451
Si Si5 0.889525 0.497050 0.303576
Si Si6 0.083194 0.631389 0.428353
Si Si7 0.048596 0.338297 0.998703
Si Si8 0.222448 0.160751 0.625332
O O1 0.532730 0.873141 0.776215
O O2 0.669609 0.464678 0.916666
O O3 0.700472 0.959261 0.919872
O O4 0.669247 0.721827 0.157049
O O5 0.468120 0.740369 0.450508
O O6 0.629299 0.640446 0.530452
O O7 0.746900 0.300014 0.761876
O O8 0.837619 0.740711 0.832524
O O9 0.756044 0.507620 0.500320
O O10 0.845721 0.319087 0.123168
O O11 0.827328 0.752135 0.268446
O O12 0.005842 0.524987 0.445202
O O13 0.854159 0.375047 0.415689
O O14 0.154790 0.405289 0.464723
O O15 0.001663 0.760706 0.217235
O O16 0.980302 0.147589 0.011811
#
# Coordination Sequence:
#
# PCOD9118798 Si02
#       8
#     2   2   2   2   2   2   2   2
#     4  11  23  48  72 104 142 192 246 312 371 463
#     4  12  25  48  79 110 145 197 258 317 382 463
#     4  12  25  48  75 114 149 201 251 325 385 449
#     4  11  23  43  74 102 141 193 253 298 375 450
#     4  11  23  40  66 101 139 205 244 304 365 460
#     4  12  22  40  69  97 145 197 251 300 368 454
#     4  12  28  46  69 106 155 196 245 310 381 450
#     4  11  25  45  68 106 150 187 252 312 385 447
#
# _framework density 25.823487
#
# number of rings (size 3 to 8) (size 9 to 14) (size 15 to 20)
#    0.000    0.500    7.500    0.750    0.000    2.000 
#    4.500    3.750    0.000    0.000    0.000    0.000 
#    0.000    0.000    0.000    0.000    0.000    0.000 
#
# Total GULP energy -89085.370352 kJ/mol
# GULP energy per Si atom -5567.835647 kJ/mol
# Density = 2.576471 g / cm^3
# Si number density = 25.823487 Si / 1000 Ang^3
#
#
#
# Elastic Constant Matrix: (Units=GPa)
#
#
# Indices 1 2 3 4 5 6 
#
# 1 104.0651 12.8960 53.6759 0.0000 0.1702 0.0000
# 2 12.8960 48.0783 18.2565 0.0000 0.4586 0.0000
# 3 53.6759 18.2565 185.0514 0.0000 -15.8342 0.0000
# 4 0.0000 0.0000 0.0000 42.4726 0.0000 2.6562
# 5 0.1702 0.4586 -15.8342 0.0000 41.3607 0.0000
# 6 0.0000 0.0000 0.0000 2.6562 0.0000 30.6775
#
#
#
# Elastic Compliance Matrix: (Units=1/GPa)
#
#
# Indices 1 2 3 4 5 6 
#
# 1 0.011527 -0.001837 -0.003272 0.000000 -0.001280 0.000000
# 2 -0.001837 0.021950 -0.001709 0.000000 -0.000890 0.000000
# 3 -0.003272 -0.001709 0.006745 0.000000 0.002615 0.000000
# 4 0.000000 0.000000 0.000000 0.023673 0.000000 -0.002050
# 5 -0.001280 -0.000890 0.002615 0.000000 0.025194 0.000000
# 6 0.000000 0.000000 0.000000 -0.002050 0.000000 0.032775
#
#
# Mechanical properties :
#
#
# Convention : Reuss Voigt Hill
#
# Bulk Modulus (GPa) = 37.61356 56.31687 46.96521
# Shear Modulus (GPa) = 34.63572 39.72659 37.18115
#
# Velocity S-wave (km/s) = 3.66628 3.92649 3.79861
# Velocity P-wave (km/s) = 5.70258 6.51246 6.12093
#
# Compressibility (1/GPa) = 0.02658616
#
# Stress axis : x y z
#
# Youngs Moduli (GPa) = 86.75569 45.55900 148.25416
#
# Poissons Ratio (x) = 0.08370 0.48503
# Poissons Ratio (y) = 0.15939 0.25332
# Poissons Ratio (z) = 0.28383 0.07785
#
# Static dielectric constant tensor:
#      x y z
#    x 2.123040 0.000000 0.055900 
#    y 0.000000 2.190380 0.000000 
#    z 0.055900 0.000000 2.615720 
# 
# From -- ./inp_files/9524.got.cif
#   From: 2010.05.17/outbox.cif.g08.bks.cpg/sg4_5_cif.got.tgz:9524.got - 2010.06.03 18:43:04.
