data_PCOD9118161
_publ_section_title
;
Structure prediction by ZEFSAII (Michael W. Deem and Ramdas Pophale) SiO2 
 PCOD9118161
Probable space group: P 21
;
_chemical_formula_sum "Si O2"
_cell_formula_units_Z 16
_cell_length_a 14.922428
_cell_length_b 5.174769
_cell_length_c 8.864290
_cell_angle_alpha 90.000000
_cell_angle_beta 118.466931
_cell_angle_gamma 90.000000
_cell_volume 601.740058
_symmetry_space_group_name_H-M "P 21"
_symmetry_group_IT_number 4
_symmetry_cell_setting 'monoclinic'
loop_
_space_group_symop_operation_xyz
x,y,z
-x,1/2+y,-z
loop_
_atom_site_type_symbol
_atom_site_label
_atom_site_fract_x
_atom_site_fract_y
_atom_site_fract_z
Si Si1 0.864714 0.324780 0.310343
Si Si2 0.400695 0.135609 0.380116
Si Si3 0.776481 0.043826 0.736733
Si Si4 0.616049 0.271623 0.412427
Si Si5 0.942433 0.128898 0.674832
Si Si6 0.291230 0.099949 0.008130
Si Si7 0.568245 0.981670 0.070124
Si Si8 0.892177 0.934097 0.089110
O O1 0.882232 0.285133 0.499419
O O2 0.755441 0.433297 0.167674
O O3 0.877803 0.046741 0.243328
O O4 0.961405 0.487361 0.325248
O O5 0.320017 0.366965 0.304111
O O6 0.516964 0.175304 0.425736
O O7 0.401244 0.072840 0.560863
O O8 0.357323 0.975967 0.196604
O O9 0.720756 0.250097 0.588243
O O10 0.866624 0.937149 0.700952
O O11 0.840756 0.132720 0.932733
O O12 0.616127 0.113700 0.258378
O O13 0.994696 0.330418 0.832642
O O14 0.354514 0.340187 0.984678
O O15 0.185968 0.201106 0.994514
O O16 0.506624 0.233959 0.957442
#
# Coordination Sequence:
#
# PCOD9118161 Si02
#       8
#     2   2   2   2   2   2   2   2
#     4  11  23  46  76 104 158 200 262 334 427 501
#     4  11  24  51  75 109 157 217 267 341 417 503
#     4  11  27  44  75 111 152 204 276 332 410 497
#     4  12  26  47  82 113 161 214 278 340 424 497
#     4  11  25  45  71 115 144 206 255 341 407 499
#     4  10  25  48  77 108 156 215 273 334 426 498
#     4  12  30  49  80 124 166 220 285 359 414 506
#     4  10  24  46  74 104 152 206 264 335 413 495
#
# _framework density 26.589554
#
# number of rings (size 3 to 8) (size 9 to 14) (size 15 to 20)
#    0.000    1.000    3.750    0.750    7.000    3.000 
#    0.000    0.000    0.000    0.000    0.000    0.000 
#    0.000    0.000    0.000    0.000    0.000    0.000 
#
# Total GULP energy -89146.839462 kJ/mol
# GULP energy per Si atom -5571.677466 kJ/mol
# Density = 2.652903 g / cm^3
# Si number density = 26.589554 Si / 1000 Ang^3
#
#
#
# Elastic Constant Matrix: (Units=GPa)
#
#
# Indices 1 2 3 4 5 6 
#
# 1 122.4754 28.5940 47.3978 0.0000 -1.3433 0.0000
# 2 28.5940 73.3913 25.6184 0.0000 3.1453 0.0000
# 3 47.3978 25.6184 158.7481 0.0000 24.0839 0.0000
# 4 0.0000 0.0000 0.0000 43.2747 0.0000 0.5582
# 5 -1.3433 3.1453 24.0839 0.0000 27.7225 0.0000
# 6 0.0000 0.0000 0.0000 0.5582 0.0000 28.3459
#
#
#
# Elastic Compliance Matrix: (Units=1/GPa)
#
#
# Indices 1 2 3 4 5 6 
#
# 1 0.010089 -0.003014 -0.003055 0.000000 0.003484 0.000000
# 2 -0.003014 0.015344 -0.001486 0.000000 -0.000596 0.000000
# 3 -0.003055 -0.001486 0.008579 0.000000 -0.007432 0.000000
# 4 0.000000 0.000000 0.000000 0.023114 0.000000 -0.000455
# 5 0.003484 -0.000596 -0.007432 0.000000 0.042765 0.000000
# 6 0.000000 0.000000 0.000000 -0.000455 0.000000 0.035287
#
#
# Mechanical properties :
#
#
# Convention : Reuss Voigt Hill
#
# Bulk Modulus (GPa) = 52.90168 61.98169 57.44168
# Shear Modulus (GPa) = 31.93106 36.73558 34.33332
#
# Velocity S-wave (km/s) = 3.46914 3.72099 3.59727
# Velocity P-wave (km/s) = 5.99879 6.46701 6.23729
#
# Compressibility (1/GPa) = 0.01890299
#
# Stress axis : x y z
#
# Youngs Moduli (GPa) = 99.11941 65.17193 116.56914
#
# Poissons Ratio (x) = 0.19642 0.35606
# Poissons Ratio (y) = 0.29873 0.17321
# Poissons Ratio (z) = 0.30276 0.09684
#
# Static dielectric constant tensor:
#      x y z
#    x 2.126070 0.000000 -0.035450 
#    y 0.000000 2.390620 0.000000 
#    z -0.035450 0.000000 2.246040 
# 
# From -- ./inp_files/8952.got.cif
#   From: 2010.05.17/outbox.cif.g08.bks.cpg/sg4_5_cif.got.tgz:8952.got - 2010.06.03 18:43:04.
