data_PCOD9118245
_publ_section_title
;
Structure prediction by ZEFSAII (Michael W. Deem and Ramdas Pophale) SiO2 
 PCOD9118245
Probable space group: P 21
;
_chemical_formula_sum "Si O2"
_cell_formula_units_Z 16
_cell_length_a 19.713722
_cell_length_b 6.350878
_cell_length_c 13.699999
_cell_angle_alpha 90.000000
_cell_angle_beta 157.763963
_cell_angle_gamma 90.000000
_cell_volume 649.083422
_symmetry_space_group_name_H-M "P 21"
_symmetry_group_IT_number 4
_symmetry_cell_setting 'monoclinic'
loop_
_space_group_symop_operation_xyz
x,y,z
-x,1/2+y,-z
loop_
_atom_site_type_symbol
_atom_site_label
_atom_site_fract_x
_atom_site_fract_y
_atom_site_fract_z
Si Si1 0.713209 0.293160 0.768914
Si Si2 0.986169 0.043508 0.736804
Si Si3 0.112332 0.837302 0.560169
Si Si4 0.965321 0.922518 0.051380
Si Si5 0.273604 0.535249 0.908419
Si Si6 0.456068 0.957526 0.908793
Si Si7 0.796059 0.789322 0.629431
Si Si8 0.529391 0.627144 0.406848
O O1 0.675144 0.456408 0.632385
O O2 0.526201 0.247425 0.570731
O O3 0.849085 0.385391 0.030637
O O4 0.801938 0.079745 0.852100
O O5 0.037695 0.233167 0.877660
O O6 0.939065 0.126436 0.568894
O O7 0.817033 0.931692 0.563484
O O8 0.226511 0.768524 0.806199
O O9 0.244019 0.960861 0.660663
O O10 0.923157 0.932265 0.341994
O O11 0.939082 0.855856 0.903976
O O12 0.144495 0.052346 0.313129
O O13 0.428457 0.452275 0.039765
O O14 0.360060 0.523055 0.130478
O O15 0.493880 0.706377 0.993172
O O16 0.608284 0.784690 0.431800
#
# Coordination Sequence:
#
# PCOD9118245 Si02
#       8
#     2   2   2   2   2   2   2   2
#     4  11  26  44  67 101 150 186 249 308 385 462
#     4  11  25  44  72 105 140 203 239 314 385 455
#     4  11  26  49  76 109 154 198 259 326 392 468
#     4  11  20  43  67 103 141 193 243 291 377 464
#     4  11  27  48  78 112 150 203 261 320 397 474
#     4  10  24  51  82 117 157 205 268 332 398 474
#     4  11  22  40  71 102 148 184 251 306 375 463
#     4  12  26  45  69 109 148 194 246 321 385 470
#
# _framework density 24.650145999999999
#
# number of rings (size 3 to 8) (size 9 to 14) (size 15 to 20)
#    0.000    1.000    2.500    3.000    5.250    4.000 
#    6.750    0.000    0.000    0.000    0.000    0.000 
#    0.000    0.000    0.000    0.000    0.000    0.000 
#
# Total GULP energy -89246.661454 kJ/mol
# GULP energy per Si atom -5577.916341 kJ/mol
# Density = 2.459404 g / cm^3
# Si number density = 24.650146 Si / 1000 Ang^3
#
#
#
# Elastic Constant Matrix: (Units=GPa)
#
#
# Indices 1 2 3 4 5 6 
#
# 1 114.6081 38.2752 34.8503 0.0000 26.5170 0.0000
# 2 38.2752 82.8824 14.4247 0.0000 8.6218 0.0000
# 3 34.8503 14.4247 85.6068 0.0000 16.0345 0.0000
# 4 0.0000 0.0000 0.0000 36.9564 0.0000 8.6014
# 5 26.5170 8.6218 16.0345 0.0000 47.6029 0.0000
# 6 0.0000 0.0000 0.0000 8.6014 0.0000 45.3678
#
#
#
# Elastic Compliance Matrix: (Units=1/GPa)
#
#
# Indices 1 2 3 4 5 6 
#
# 1 0.012445 -0.004647 -0.003354 0.000000 -0.004961 0.000000
# 2 -0.004647 0.014288 -0.000550 0.000000 0.000186 0.000000
# 3 -0.003354 -0.000550 0.013631 0.000000 -0.002623 0.000000
# 4 0.000000 0.000000 0.000000 0.028308 0.000000 -0.005367
# 5 -0.004961 0.000186 -0.002623 0.000000 0.024620 0.000000
# 6 0.000000 0.000000 0.000000 -0.005367 0.000000 0.023060
#
#
# Mechanical properties :
#
#
# Convention : Reuss Voigt Hill
#
# Bulk Modulus (GPa) = 42.99228 50.91087 46.95157
# Shear Modulus (GPa) = 35.40838 39.02190 37.21514
#
# Velocity S-wave (km/s) = 3.79415 3.98305 3.88974
# Velocity P-wave (km/s) = 6.05582 6.46924 6.26594
#
# Compressibility (1/GPa) = 0.02325999
#
# Stress axis : x y z
#
# Youngs Moduli (GPa) = 80.35199 69.98936 73.36286
#
# Poissons Ratio (x) = 0.32527 0.24607
# Poissons Ratio (y) = 0.37343 0.04038
# Poissons Ratio (z) = 0.26951 0.03853
#
# Static dielectric constant tensor:
#      x y z
#    x 1.932150 0.000000 0.026670 
#    y 0.000000 1.968130 0.000000 
#    z 0.026670 0.000000 1.999670 
# 
# From -- ./inp_files/14449.got.cif
#   From: 2010.05.17/outbox.cif.g08.bks.cpg/sg4_8_cif.got.tgz:14449.got - 2010.06.03 18:43:04.
