data_PCOD9118767
_publ_section_title
;
Structure prediction by ZEFSAII (Michael W. Deem and Ramdas Pophale) SiO2 
 PCOD9118767
Probable space group: P 21
;
_chemical_formula_sum "Si O2"
_cell_formula_units_Z 14
_cell_length_a 12.624112
_cell_length_b 9.380183
_cell_length_c 5.059118
_cell_angle_alpha 90.000000
_cell_angle_beta 67.779595
_cell_angle_gamma 90.000000
_cell_volume 554.592632
_symmetry_space_group_name_H-M "P 21"
_symmetry_group_IT_number 4
_symmetry_cell_setting 'monoclinic'
loop_
_space_group_symop_operation_xyz
x,y,z
-x,1/2+y,-z
loop_
_atom_site_type_symbol
_atom_site_label
_atom_site_fract_x
_atom_site_fract_y
_atom_site_fract_z
Si Si1 0.592916 0.182850 0.290673
Si Si2 0.156212 0.745635 0.003606
Si Si3 0.729306 0.642869 0.584929
Si Si4 0.857318 0.555811 0.944783
Si Si5 0.349715 0.455904 0.369039
Si Si6 0.546490 0.387040 0.829780
Si Si7 0.896789 0.111421 0.443409
O O1 0.567545 0.300514 0.542420
O O2 0.571205 0.040833 0.493624
O O3 0.727350 0.160564 0.119199
O O4 0.560988 0.267495 0.049590
O O5 0.078316 0.665501 0.286661
O O6 0.112846 0.746751 0.745599
O O7 0.189417 0.899509 0.074949
O O8 0.814663 0.593858 0.274501
O O9 0.673937 0.790667 0.542065
O O10 0.632659 0.522786 0.731864
O O11 0.801532 0.662230 0.785740
O O12 0.992618 0.534841 0.777948
O O13 0.223298 0.526674 0.452121
O O14 0.423373 0.452525 0.028612
#
# Coordination Sequence:
#
# PCOD9118767 Si02
#       7
#     2   2   2   2   2   2   2
#     4  11  24  47  73 106 145 199 245 301 372 456
#     4  11  22  47  70 100 139 196 248 291 375 449
#     4  12  26  48  74 112 143 195 248 318 367 441
#     4  12  26  46  74 104 148 190 252 308 375 446
#     4  11  29  47  75 114 154 189 254 315 375 442
#     4  12  24  48  78 106 149 197 251 300 384 450
#     4  11  27  43  74 104 144 196 242 309 372 444
#
# _framework density 25.243755
#
# number of rings (size 3 to 8) (size 9 to 14) (size 15 to 20)
#    0.000    0.571    2.857    4.286    4.000   10.286 
#    0.000    0.000    0.000    0.000    0.000    0.000 
#    0.000    0.000    0.000    0.000    0.000    0.000 
#
# Total GULP energy -78176.612396 kJ/mol
# GULP energy per Si atom -5584.043743 kJ/mol
# Density = 2.518630 g / cm^3
# Si number density = 25.243755 Si / 1000 Ang^3
#
#
#
# Elastic Constant Matrix: (Units=GPa)
#
#
# Indices 1 2 3 4 5 6 
#
# 1 70.1306 20.1674 45.8997 0.0000 -3.1613 0.0000
# 2 20.1674 129.6381 32.6964 0.0000 8.8029 0.0000
# 3 45.8997 32.6964 193.8092 0.0000 -7.1085 0.0000
# 4 0.0000 0.0000 0.0000 23.1536 0.0000 2.0560
# 5 -3.1613 8.8029 -7.1085 0.0000 44.1391 0.0000
# 6 0.0000 0.0000 0.0000 2.0560 0.0000 23.7825
#
#
#
# Elastic Compliance Matrix: (Units=1/GPa)
#
#
# Indices 1 2 3 4 5 6 
#
# 1 0.017279 -0.001810 -0.003750 0.000000 0.000994 0.000000
# 2 -0.001810 0.008397 -0.001060 0.000000 -0.001975 0.000000
# 3 -0.003750 -0.001060 0.006262 0.000000 0.000951 0.000000
# 4 0.000000 0.000000 0.000000 0.043524 0.000000 -0.003763
# 5 0.000994 -0.001975 0.000951 0.000000 0.023274 0.000000
# 6 0.000000 0.000000 0.000000 -0.003763 0.000000 0.042373
#
#
# Mechanical properties :
#
#
# Convention : Reuss Voigt Hill
#
# Bulk Modulus (GPa) = 53.48587 65.67833 59.58210
# Shear Modulus (GPa) = 31.13685 37.86936 34.50310
#
# Velocity S-wave (km/s) = 3.51586 3.87738 3.70103
# Velocity P-wave (km/s) = 6.14129 6.79114 6.47437
#
# Compressibility (1/GPa) = 0.01869653
#
# Stress axis : x y z
#
# Youngs Moduli (GPa) = 57.87397 119.09195 159.70086
#
# Poissons Ratio (x) = 0.21552 0.59894
# Poissons Ratio (y) = 0.10473 0.16935
# Poissons Ratio (z) = 0.21705 0.12629
#
# Static dielectric constant tensor:
#      x y z
#    x 2.192100 0.000000 0.028670 
#    y 0.000000 2.110440 0.000000 
#    z 0.028670 0.000000 1.953370 
# 
# From -- ./inp_files/3379.got.cif
#   From: 2010.05.17/outbox.cif.g08.bks.cpg/sg4_2_cif.got.tgz:3379.got - 2010.06.03 18:43:04.
