data_PCOD9118709
_publ_section_title
;
Structure prediction by ZEFSAII (Michael W. Deem and Ramdas Pophale) SiO2 
 PCOD9118709
Probable space group: P 21
;
_chemical_formula_sum "Si O2"
_cell_formula_units_Z 16
_cell_length_a 16.420766
_cell_length_b 8.019867
_cell_length_c 6.816831
_cell_angle_alpha 90.000000
_cell_angle_beta 52.168914
_cell_angle_gamma 90.000000
_cell_volume 709.042930
_symmetry_space_group_name_H-M "P 21"
_symmetry_group_IT_number 4
_symmetry_cell_setting 'monoclinic'
loop_
_space_group_symop_operation_xyz
x,y,z
-x,1/2+y,-z
loop_
_atom_site_type_symbol
_atom_site_label
_atom_site_fract_x
_atom_site_fract_y
_atom_site_fract_z
Si Si1 0.313731 0.300990 0.583054
Si Si2 0.356218 0.050755 0.828908
Si Si3 0.110468 0.620640 0.415922
Si Si4 0.463495 0.271271 0.995329
Si Si5 0.908058 0.823018 0.264404
Si Si6 0.441036 0.517319 0.694547
Si Si7 0.330400 0.756280 0.088950
Si Si8 0.015221 0.960939 0.725631
O O1 0.287514 0.165672 0.791052
O O2 0.209155 0.347623 0.632787
O O3 0.370511 0.437631 0.632458
O O4 0.395517 0.252145 0.291711
O O5 0.430087 0.137530 0.882662
O O6 0.442714 0.998180 0.543947
O O7 0.290098 0.930745 0.062725
O O8 0.070781 0.471402 0.613163
O O9 0.232945 0.641140 0.265566
O O10 0.080570 0.547806 0.247160
O O11 0.063659 0.805045 0.530691
O O12 0.432555 0.437552 0.923845
O O13 0.584767 0.274268 0.866513
O O14 0.919348 0.630323 0.321271
O O15 0.981030 0.866890 0.973708
O O16 0.398305 0.698540 0.801267
#
# Coordination Sequence:
#
# PCOD9118709 Si02
#       8
#     2   2   2   2   2   2   2   2
#     4  11  25  43  70 100 143 191 231 290 364 434
#     4  11  24  41  62 100 149 190 232 293 344 420
#     4  12  28  49  78 113 147 191 249 318 376 444
#     4  11  23  42  66  97 147 188 233 287 349 429
#     4  12  27  50  81 110 144 195 249 308 386 443
#     4  11  22  44  63  98 148 190 233 290 344 422
#     4  12  24  42  71 105 141 191 243 288 363 445
#     4  12  27  53  79 109 151 186 250 326 378 439
#
# _framework density 22.565626999999999
#
# number of rings (size 3 to 8) (size 9 to 14) (size 15 to 20)
#    0.000    0.500    5.000    3.000    3.500    3.000 
#    4.500    0.000    0.000    0.000    0.000    0.000 
#    0.000    0.000    0.000    0.000    0.000    0.000 
#
# Total GULP energy -89208.293403 kJ/mol
# GULP energy per Si atom -5575.518338 kJ/mol
# Density = 2.251427 g / cm^3
# Si number density = 22.565627 Si / 1000 Ang^3
#
#
#
# Elastic Constant Matrix: (Units=GPa)
#
#
# Indices 1 2 3 4 5 6 
#
# 1 87.6001 15.9051 16.6825 0.0000 18.0825 0.0000
# 2 15.9051 90.6610 22.9846 0.0000 10.3052 0.0000
# 3 16.6825 22.9846 60.0914 0.0000 17.3804 0.0000
# 4 0.0000 0.0000 0.0000 45.7343 0.0000 9.0221
# 5 18.0825 10.3052 17.3804 0.0000 33.2280 0.0000
# 6 0.0000 0.0000 0.0000 9.0221 0.0000 34.0058
#
#
#
# Elastic Compliance Matrix: (Units=1/GPa)
#
#
# Indices 1 2 3 4 5 6 
#
# 1 0.013160 -0.001262 -0.001429 0.000000 -0.006023 0.000000
# 2 -0.001262 0.012407 -0.004101 0.000000 -0.001016 0.000000
# 3 -0.001429 -0.004101 0.021225 0.000000 -0.009053 0.000000
# 4 0.000000 0.000000 0.000000 0.023073 0.000000 -0.006122
# 5 -0.006023 -0.001016 -0.009053 0.000000 0.038423 0.000000
# 6 0.000000 0.000000 0.000000 -0.006122 0.000000 0.031031
#
#
# Mechanical properties :
#
#
# Convention : Reuss Voigt Hill
#
# Bulk Modulus (GPa) = 30.11354 38.83297 34.47326
# Shear Modulus (GPa) = 30.49305 34.77896 32.63600
#
# Velocity S-wave (km/s) = 3.68000 3.93012 3.80711
# Velocity P-wave (km/s) = 5.60628 6.15148 5.88520
#
# Compressibility (1/GPa) = 0.03320765
#
# Stress axis : x y z
#
# Youngs Moduli (GPa) = 75.98797 80.60144 47.11421
#
# Poissons Ratio (x) = 0.10171 0.06732
# Poissons Ratio (y) = 0.09589 0.19323
# Poissons Ratio (z) = 0.10857 0.33058
#
# Static dielectric constant tensor:
#      x y z
#    x 1.767650 0.000000 0.055810 
#    y 0.000000 2.026400 0.000000 
#    z 0.055810 0.000000 1.714890 
# 
# From -- ./inp_files/3632.got.cif
#   From: 2010.05.17/outbox.cif.g08.bks.cpg/sg4_2_cif.got.tgz:3632.got - 2010.06.03 18:43:04.
