data_PCOD9118596
_publ_section_title
;
Structure prediction by ZEFSAII (Michael W. Deem and Ramdas Pophale) SiO2 
 PCOD9118596
Probable space group: P 21
;
_chemical_formula_sum "Si O2"
_cell_formula_units_Z 16
_cell_length_a 14.146259
_cell_length_b 10.230793
_cell_length_c 14.761556
_cell_angle_alpha 90.000000
_cell_angle_beta 159.938107
_cell_angle_gamma 90.000000
_cell_volume 732.860843
_symmetry_space_group_name_H-M "P 21"
_symmetry_group_IT_number 4
_symmetry_cell_setting 'monoclinic'
loop_
_space_group_symop_operation_xyz
x,y,z
-x,1/2+y,-z
loop_
_atom_site_type_symbol
_atom_site_label
_atom_site_fract_x
_atom_site_fract_y
_atom_site_fract_z
Si Si1 0.310777 0.974130 0.499517
Si Si2 0.695915 0.880307 0.464080
Si Si3 0.343129 0.531436 0.881389
Si Si4 0.095690 0.285927 0.762489
Si Si5 0.906666 0.328662 0.008711
Si Si6 0.084097 0.534656 0.020452
Si Si7 0.387031 0.618729 0.726661
Si Si8 0.236383 0.156837 0.604375
O O1 0.130297 0.852522 0.374237
O O2 0.621467 0.969549 0.741239
O O3 0.328523 0.070868 0.600647
O O4 0.119601 0.027893 0.248095
O O5 0.782773 0.801533 0.452392
O O6 0.883682 0.843210 0.718431
O O7 0.677654 0.031230 0.419228
O O8 0.390936 0.837428 0.214761
O O9 0.273333 0.393656 0.866713
O O10 0.426820 0.529722 0.852005
O O11 0.059654 0.607971 0.634329
O O12 0.558988 0.617834 0.131817
O O13 0.888326 0.206316 0.510873
O O14 0.329737 0.201173 0.023697
O O15 0.962976 0.448846 0.992379
O O16 0.904099 0.190652 0.952484
#
# Coordination Sequence:
#
# PCOD9118596 Si02
#       8
#     2   2   2   2   2   2   2   2
#     4  11  22  44  73  95 131 181 237 278 358 414
#     4  12  26  46  70 102 143 191 224 297 357 432
#     4  11  25  41  69 100 133 187 230 292 340 412
#     4  11  25  46  65 104 138 181 240 295 346 434
#     4  12  26  46  71 107 147 181 253 288 373 432
#     4  12  24  44  72 105 136 187 234 308 347 442
#     4  12  27  43  68 101 148 182 235 296 358 415
#     4  11  21  44  72  96 132 178 237 280 333 427
#
# _framework density 21.832248
#
# number of rings (size 3 to 8) (size 9 to 14) (size 15 to 20)
#    0.000    0.500    2.500    6.750    3.500    3.000 
#    0.000    0.000    0.000    0.000    0.000    0.000 
#    0.000    0.000    0.000    0.000    0.000    0.000 
#
# Total GULP energy -89421.037159 kJ/mol
# GULP energy per Si atom -5588.814822 kJ/mol
# Density = 2.178256 g / cm^3
# Si number density = 21.832248 Si / 1000 Ang^3
#
#
#
# Elastic Constant Matrix: (Units=GPa)
#
#
# Indices 1 2 3 4 5 6 
#
# 1 51.4801 19.0797 17.6698 0.0000 -16.1770 0.0000
# 2 19.0797 116.2338 2.5822 0.0000 6.0533 0.0000
# 3 17.6698 2.5822 124.8285 0.0000 -3.7329 0.0000
# 4 0.0000 0.0000 0.0000 54.9623 0.0000 -36.9609
# 5 -16.1770 6.0533 -3.7329 0.0000 41.6812 0.0000
# 6 0.0000 0.0000 0.0000 -36.9609 0.0000 108.1097
#
#
#
# Elastic Compliance Matrix: (Units=1/GPa)
#
#
# Indices 1 2 3 4 5 6 
#
# 1 0.025475 -0.004646 -0.003203 0.000000 0.010275 0.000000
# 2 -0.004646 0.009522 0.000366 0.000000 -0.003153 0.000000
# 3 -0.003203 0.000366 0.008441 0.000000 -0.000540 0.000000
# 4 0.000000 0.000000 0.000000 0.023626 0.000000 0.008077
# 5 0.010275 -0.003153 -0.000540 0.000000 0.028389 0.000000
# 6 0.000000 0.000000 0.000000 0.008077 0.000000 0.012011
#
#
# Mechanical properties :
#
#
# Convention : Reuss Voigt Hill
#
# Bulk Modulus (GPa) = 35.12041 41.24511 38.18276
# Shear Modulus (GPa) = 37.90203 57.83134 47.86668
#
# Velocity S-wave (km/s) = 4.17112 5.15233 4.68747
# Velocity P-wave (km/s) = 6.27049 7.37076 6.84278
#
# Compressibility (1/GPa) = 0.02847347
#
# Stress axis : x y z
#
# Youngs Moduli (GPa) = 39.25448 105.01996 118.47490
#
# Poissons Ratio (x) = 0.48788 0.37944
# Poissons Ratio (y) = 0.18236 -0.04340
# Poissons Ratio (z) = 0.12572 -0.03847
#
# Static dielectric constant tensor:
#      x y z
#    x 1.784820 0.000000 -0.007420 
#    y 0.000000 1.869980 0.000000 
#    z -0.007420 0.000000 1.719880 
# 
# From -- ./inp_files/14223.got.cif
#   From: 2010.05.17/outbox.cif.g08.bks.cpg/sg4_8_cif.got.tgz:14223.got - 2010.06.03 18:43:04.
