data_PCOD9118025
_publ_section_title
;
Structure prediction by ZEFSAII (Michael W. Deem and Ramdas Pophale) SiO2 
 PCOD9118025
Probable space group: P 21
;
_chemical_formula_sum "Si O2"
_cell_formula_units_Z 14
_cell_length_a 11.329235
_cell_length_b 5.144790
_cell_length_c 16.014605
_cell_angle_alpha 90.000000
_cell_angle_beta 145.967751
_cell_angle_gamma 90.000000
_cell_volume 522.406176
_symmetry_space_group_name_H-M "P 21"
_symmetry_group_IT_number 4
_symmetry_cell_setting 'monoclinic'
loop_
_space_group_symop_operation_xyz
x,y,z
-x,1/2+y,-z
loop_
_atom_site_type_symbol
_atom_site_label
_atom_site_fract_x
_atom_site_fract_y
_atom_site_fract_z
Si Si1 0.247347 0.322930 0.233623
Si Si2 0.013239 0.335888 0.567236
Si Si3 0.472905 0.457881 0.854252
Si Si4 0.793141 0.074053 0.955680
Si Si5 0.363166 0.553954 0.599131
Si Si6 0.087745 0.292881 0.317258
Si Si7 0.813501 0.777191 0.118429
O O1 0.297985 0.529149 0.190001
O O2 0.426953 0.109302 0.327940
O O3 0.231822 0.374276 0.322439
O O4 0.012396 0.222980 0.075177
O O5 0.240003 0.368341 0.745879
O O6 0.971391 0.580601 0.482598
O O7 0.811357 0.280223 0.505403
O O8 0.425473 0.551397 0.732439
O O9 0.635201 0.224531 0.926895
O O10 0.566625 0.680530 0.969879
O O11 0.839456 0.803571 0.031129
O O12 0.234286 0.316814 0.483920
O O13 0.919966 0.524640 0.219581
O O14 0.953407 0.031453 0.224129
#
# Coordination Sequence:
#
# PCOD9118025 Si02
#       7
#     2   2   2   2   2   2   2
#     4  11  21  37  67 103 154 196 245 297 375 439
#     4  10  24  43  73 110 145 187 247 316 367 428
#     4  11  22  44  79 103 142 190 261 305 360 427
#     4  11  21  38  69 109 136 195 253 314 336 449
#     4  11  25  45  69 114 149 195 237 308 374 448
#     4  11  27  43  68 105 158 190 234 303 381 439
#     4  11  22  46  69 102 140 193 247 301 353 440
#
# _framework density 26.799073
#
# number of rings (size 3 to 8) (size 9 to 14) (size 15 to 20)
#    0.000    1.143    4.286    2.571    2.000    8.000 
#    0.000    0.000    3.143    0.000    0.000    0.000 
#    0.000    0.000    0.000    0.000    0.000    0.000 
#
# Total GULP energy -78221.136298 kJ/mol
# GULP energy per Si atom -5587.224021 kJ/mol
# Density = 2.673808 g / cm^3
# Si number density = 26.799073 Si / 1000 Ang^3
#
#
#
# Elastic Constant Matrix: (Units=GPa)
#
#
# Indices 1 2 3 4 5 6 
#
# 1 60.3498 -2.8012 -12.5181 0.0000 15.4566 0.0000
# 2 -2.8012 121.7186 41.8540 0.0000 -8.8572 0.0000
# 3 -12.5181 41.8540 134.4754 0.0000 -1.1570 0.0000
# 4 0.0000 0.0000 0.0000 51.9506 0.0000 -9.8685
# 5 15.4566 -8.8572 -1.1570 0.0000 38.8012 0.0000
# 6 0.0000 0.0000 0.0000 -9.8685 0.0000 37.0864
#
#
#
# Elastic Compliance Matrix: (Units=1/GPa)
#
#
# Indices 1 2 3 4 5 6 
#
# 1 0.018895 -0.000788 0.001938 0.000000 -0.007649 0.000000
# 2 -0.000788 0.009393 -0.002977 0.000000 0.002370 0.000000
# 3 0.001938 -0.002977 0.008533 0.000000 -0.001197 0.000000
# 4 0.000000 0.000000 0.000000 0.020274 0.000000 0.005395
# 5 -0.007649 0.002370 -0.001197 0.000000 0.029325 0.000000
# 6 0.000000 0.000000 0.000000 0.005395 0.000000 0.028400
#
#
# Mechanical properties :
#
#
# Convention : Reuss Voigt Hill
#
# Bulk Modulus (GPa) = 30.14961 41.06815 35.60888
# Shear Modulus (GPa) = 38.60172 44.90158 41.75165
#
# Velocity S-wave (km/s) = 3.79939 4.09772 3.95137
# Velocity P-wave (km/s) = 5.52466 6.14379 5.84243
#
# Compressibility (1/GPa) = 0.03316792
#
# Stress axis : x y z
#
# Youngs Moduli (GPa) = 52.92525 106.45673 117.19369
#
# Poissons Ratio (x) = 0.08392 -0.22717
# Poissons Ratio (y) = 0.04172 0.34884
# Poissons Ratio (z) = -0.10259 0.31688
#
# Static dielectric constant tensor:
#      x y z
#    x 2.244940 0.000000 -0.052730 
#    y 0.000000 2.205470 0.000000 
#    z -0.052730 0.000000 2.181990 
# 
# From -- ./inp_files/15090.got.cif
#   From: 2010.05.17/outbox.cif.g08.bks.cpg/sg4_8_cif.got.tgz:15090.got - 2010.06.03 18:43:04.
