data_PCOD9118024
_publ_section_title
;
Structure prediction by ZEFSAII (Michael W. Deem and Ramdas Pophale) SiO2 
 PCOD9118024
Probable space group: P 21
;
_chemical_formula_sum "Si O2"
_cell_formula_units_Z 16
_cell_length_a 8.249529
_cell_length_b 12.377974
_cell_length_c 9.609721
_cell_angle_alpha 90.000000
_cell_angle_beta 135.580036
_cell_angle_gamma 90.000000
_cell_volume 686.804436
_symmetry_space_group_name_H-M "P 21"
_symmetry_group_IT_number 4
_symmetry_cell_setting 'monoclinic'
loop_
_space_group_symop_operation_xyz
x,y,z
-x,1/2+y,-z
loop_
_atom_site_type_symbol
_atom_site_label
_atom_site_fract_x
_atom_site_fract_y
_atom_site_fract_z
Si Si1 0.081263 0.540870 0.337775
Si Si2 0.597159 0.402754 0.304294
Si Si3 0.947521 0.579644 0.571432
Si Si4 0.747692 0.320887 0.827912
Si Si5 0.901701 0.315530 0.233981
Si Si6 0.095175 0.148144 0.016080
Si Si7 0.531046 0.210986 0.468722
Si Si8 0.090941 0.473972 0.927759
O O1 0.308598 0.605174 0.431840
O O2 0.039788 0.572288 0.471473
O O3 0.087816 0.412018 0.325781
O O4 0.874894 0.583228 0.109367
O O5 0.698226 0.519798 0.411064
O O6 0.733744 0.361599 0.251307
O O7 0.637104 0.309254 0.442183
O O8 0.324742 0.412915 0.109816
O O9 0.989855 0.700884 0.653784
O O10 0.081868 0.499934 0.759566
O O11 0.530414 0.265694 0.620766
O O12 0.835773 0.437490 0.830067
O O13 0.764458 0.310232 0.003512
O O14 0.968562 0.257998 0.897685
O O15 0.301957 0.176714 0.245990
O O16 0.899544 0.086826 0.984601
#
# Coordination Sequence:
#
# PCOD9118024 Si02
#       8
#     2   2   2   2   2   2   2   2
#     4  10  24  43  73 106 146 189 243 305 361 432
#     4  11  25  46  75 102 148 202 234 301 379 425
#     4  11  24  45  72 106 149 190 245 300 360 438
#     4  11  23  45  70 102 145 184 243 305 358 429
#     4  11  23  49  68 110 150 187 250 305 354 446
#     4  11  24  44  71 101 145 183 244 306 352 443
#     4  11  23  46  74 104 141 202 236 297 383 424
#     4  12  24  46  69 107 148 187 245 303 359 433
#
# _framework density 23.296298
#
# number of rings (size 3 to 8) (size 9 to 14) (size 15 to 20)
#    0.000    1.000    6.250    0.000    0.000    4.000 
#    2.250    2.500    0.000    0.000    0.000    0.000 
#    0.000    0.000    0.000    0.000    0.000    0.000 
#
# Total GULP energy -89271.527334 kJ/mol
# GULP energy per Si atom -5579.470458 kJ/mol
# Density = 2.324327 g / cm^3
# Si number density = 23.296298 Si / 1000 Ang^3
#
#
#
# Elastic Constant Matrix: (Units=GPa)
#
#
# Indices 1 2 3 4 5 6 
#
# 1 46.4946 18.4034 46.3550 0.0000 -11.8775 0.0000
# 2 18.4034 96.1944 55.6632 0.0000 -2.4620 0.0000
# 3 46.3550 55.6632 183.2755 0.0000 -25.6111 0.0000
# 4 0.0000 0.0000 0.0000 48.9054 0.0000 3.0879
# 5 -11.8775 -2.4620 -25.6111 0.0000 45.1653 0.0000
# 6 0.0000 0.0000 0.0000 3.0879 0.0000 33.9834
#
#
#
# Elastic Compliance Matrix: (Units=1/GPa)
#
#
# Indices 1 2 3 4 5 6 
#
# 1 0.029630 -0.001890 -0.006349 0.000000 0.004089 0.000000
# 2 -0.001890 0.012842 -0.003686 0.000000 -0.001887 0.000000
# 3 -0.006349 -0.003686 0.008602 0.000000 0.003007 0.000000
# 4 0.000000 0.000000 0.000000 0.020566 0.000000 -0.001869
# 5 0.004089 -0.001887 0.003007 0.000000 0.024819 0.000000
# 6 0.000000 0.000000 0.000000 -0.001869 0.000000 0.029596
#
#
# Mechanical properties :
#
#
# Convention : Reuss Voigt Hill
#
# Bulk Modulus (GPa) = 36.73232 62.97863 49.85548
# Shear Modulus (GPa) = 31.45082 39.31366 35.38224
#
# Velocity S-wave (km/s) = 3.67827 4.11244 3.90140
# Velocity P-wave (km/s) = 5.81732 7.04570 6.46077
#
# Compressibility (1/GPa) = 0.02722398
#
# Stress axis : x y z
#
# Youngs Moduli (GPa) = 33.74920 77.87088 116.25642
#
# Poissons Ratio (x) = 0.14720 0.73808
# Poissons Ratio (y) = 0.06380 0.42850
# Poissons Ratio (z) = 0.21426 0.28702
#
# Static dielectric constant tensor:
#      x y z
#    x 1.872780 0.000000 0.011200 
#    y 0.000000 1.960350 0.000000 
#    z 0.011200 0.000000 1.929360 
# 
# From -- ./inp_files/6487.got.cif
#   From: 2010.05.17/outbox.cif.g08.bks.cpg/sg4_4_cif.got.tgz:6487.got - 2010.06.03 18:43:04.
