data_PCOD9118255
_publ_section_title
;
Structure prediction by ZEFSAII (Michael W. Deem and Ramdas Pophale) SiO2 
 PCOD9118255
Probable space group: P 21
;
_chemical_formula_sum "Si O2"
_cell_formula_units_Z 16
_cell_length_a 10.687602
_cell_length_b 5.299322
_cell_length_c 11.623754
_cell_angle_alpha 90.000000
_cell_angle_beta 76.123486
_cell_angle_gamma 90.000000
_cell_volume 639.121478
_symmetry_space_group_name_H-M "P 21"
_symmetry_group_IT_number 4
_symmetry_cell_setting 'monoclinic'
loop_
_space_group_symop_operation_xyz
x,y,z
-x,1/2+y,-z
loop_
_atom_site_type_symbol
_atom_site_label
_atom_site_fract_x
_atom_site_fract_y
_atom_site_fract_z
Si Si1 0.328378 0.186300 0.391168
Si Si2 0.254407 0.360784 0.778813
Si Si3 0.892091 0.945383 0.399861
Si Si4 0.075648 0.243738 0.017792
Si Si5 0.587734 0.383700 0.273638
Si Si6 0.798096 0.931469 0.788420
Si Si7 0.459486 0.598392 0.068724
Si Si8 0.840126 0.296636 0.574431
O O1 0.215197 0.292859 0.499758
O O2 0.467397 0.300218 0.379357
O O3 0.285925 0.240339 0.268748
O O4 0.307454 0.887986 0.391797
O O5 0.127638 0.382296 0.726692
O O6 0.205542 0.280411 0.914814
O O7 0.327030 0.630197 0.762290
O O8 0.335078 0.131568 0.705331
O O9 0.034319 0.955151 0.421344
O O10 0.851422 0.228295 0.438346
O O11 0.108184 0.295815 0.143758
O O12 0.980973 0.468906 0.997366
O O13 0.527418 0.485795 0.167283
O O14 0.857872 0.094546 0.672780
O O15 0.694680 0.099051 0.880273
O O16 0.506680 0.881001 0.031830
#
# Coordination Sequence:
#
# PCOD9118255 Si02
#       8
#     2   2   2   2   2   2   2   2
#     4  10  25  44  74 100 139 182 247 300 361 412
#     4  12  28  47  72 106 151 193 234 287 369 440
#     4  11  25  43  74 104 139 190 238 308 360 425
#     4  12  27  46  70 105 148 192 237 291 363 438
#     4  11  26  46  69 104 148 187 239 293 357 443
#     4  10  25  40  70 101 136 184 234 299 359 415
#     4  11  23  41  71  98 135 186 241 293 345 412
#     4  11  23  45  72 106 138 180 254 305 358 417
#
# _framework density 25.034367
#
# number of rings (size 3 to 8) (size 9 to 14) (size 15 to 20)
#    0.000    1.000    1.250    3.750   14.000    1.000 
#    0.000    0.000    0.000    0.000    0.000    0.000 
#    0.000    0.000    0.000    0.000    0.000    0.000 
#
# Total GULP energy -89297.012871 kJ/mol
# GULP energy per Si atom -5581.063304 kJ/mol
# Density = 2.497739 g / cm^3
# Si number density = 25.034367 Si / 1000 Ang^3
#
#
#
# Elastic Constant Matrix: (Units=GPa)
#
#
# Indices 1 2 3 4 5 6 
#
# 1 68.4449 18.1315 6.7260 0.0000 -1.8415 0.0000
# 2 18.1315 61.0813 -0.7661 0.0000 -3.8713 0.0000
# 3 6.7260 -0.7661 58.0999 0.0000 -0.9077 0.0000
# 4 0.0000 0.0000 0.0000 28.9273 0.0000 -6.5896
# 5 -1.8415 -3.8713 -0.9077 0.0000 29.7518 0.0000
# 6 0.0000 0.0000 0.0000 -6.5896 0.0000 44.7752
#
#
#
# Elastic Compliance Matrix: (Units=1/GPa)
#
#
# Indices 1 2 3 4 5 6 
#
# 1 0.016072 -0.004775 -0.001919 0.000000 0.000315 0.000000
# 2 -0.004775 0.017930 0.000821 0.000000 0.002063 0.000000
# 3 -0.001919 0.000821 0.017453 0.000000 0.000521 0.000000
# 4 0.000000 0.000000 0.000000 0.035769 0.000000 0.005264
# 5 0.000315 0.002063 0.000521 0.000000 0.033915 0.000000
# 6 0.000000 0.000000 0.000000 0.005264 0.000000 0.023109
#
#
# Mechanical properties :
#
#
# Convention : Reuss Voigt Hill
#
# Bulk Modulus (GPa) = 25.18218 26.20100 25.69159
# Shear Modulus (GPa) = 29.54580 31.59317 30.56948
#
# Velocity S-wave (km/s) = 3.43915 3.55631 3.49822
# Velocity P-wave (km/s) = 5.08440 5.22990 5.15766
#
# Compressibility (1/GPa) = 0.03971062
#
# Stress axis : x y z
#
# Youngs Moduli (GPa) = 62.21911 55.77227 57.29732
#
# Poissons Ratio (x) = 0.26631 0.10993
# Poissons Ratio (y) = 0.29710 -0.04707
# Poissons Ratio (z) = 0.11938 -0.04581
#
# Static dielectric constant tensor:
#      x y z
#    x 2.016840 0.000000 -0.051370 
#    y 0.000000 2.291340 0.000000 
#    z -0.051370 0.000000 1.958630 
# 
# From -- ./inp_files/10735.got.cif
#   From: 2010.05.17/outbox.cif.g08.bks.cpg/sg4_6_cif.got.tgz:10735.got - 2010.06.03 18:43:04.
