data_PCOD9118529
_publ_section_title
;
Structure prediction by ZEFSAII (Michael W. Deem and Ramdas Pophale) SiO2 
 PCOD9118529
Probable space group: P 21
;
_chemical_formula_sum "Si O2"
_cell_formula_units_Z 16
_cell_length_a 12.802909
_cell_length_b 7.323342
_cell_length_c 11.493259
_cell_angle_alpha 90.000000
_cell_angle_beta 44.046297
_cell_angle_gamma 90.000000
_cell_volume 749.196158
_symmetry_space_group_name_H-M "P 21"
_symmetry_group_IT_number 4
_symmetry_cell_setting 'monoclinic'
loop_
_space_group_symop_operation_xyz
x,y,z
-x,1/2+y,-z
loop_
_atom_site_type_symbol
_atom_site_label
_atom_site_fract_x
_atom_site_fract_y
_atom_site_fract_z
Si Si1 0.905069 0.047400 0.941107
Si Si2 0.289778 0.112740 0.140883
Si Si3 0.893481 0.472725 0.002929
Si Si4 0.644239 0.247774 0.511880
Si Si5 0.572156 0.419581 0.317671
Si Si6 0.545120 0.258590 0.085281
Si Si7 0.008170 0.736011 0.711890
Si Si8 0.612871 0.894870 0.124937
O O1 0.895885 0.266348 0.950106
O O2 0.021335 0.983265 0.944432
O O3 0.953390 0.942399 0.784916
O O4 0.745195 0.960838 0.103420
O O5 0.378329 0.219864 0.170924
O O6 0.109258 0.146415 0.287168
O O7 0.347716 0.216596 0.979332
O O8 0.355815 0.907171 0.065893
O O9 0.723567 0.528760 0.165606
O O10 0.971053 0.609970 0.853001
O O11 0.619824 0.326580 0.401028
O O12 0.811067 0.240702 0.433176
O O13 0.539641 0.363320 0.683675
O O14 0.571316 0.048074 0.558569
O O15 0.543927 0.303011 0.223662
O O16 0.614409 0.056823 0.028230
#
# Coordination Sequence:
#
# PCOD9118529 Si02
#       8
#     2   2   2   2   2   2   2   2
#     4  11  21  35  62  93 125 170 215 268 319 382
#     4  11  23  43  73  96 124 172 233 282 318 376
#     4  12  21  38  63  91 127 169 221 269 317 385
#     4  12  26  42  64 102 146 177 209 264 348 413
#     4  12  24  41  63  99 138 175 216 266 333 401
#     4  12  22  44  70 100 122 173 231 279 322 380
#     4  11  24  42  60  96 131 170 219 272 323 392
#     4  11  23  41  67  95 137 170 216 274 330 397
#
# _framework density 21.356221999999999
#
# number of rings (size 3 to 8) (size 9 to 14) (size 15 to 20)
#    0.000    0.500    7.500    1.500    1.750    0.000 
#    2.250    1.250    0.000    0.000    0.000    0.000 
#    0.000    0.000    0.000    0.000    0.000    0.000 
#
# Total GULP energy -89199.543349 kJ/mol
# GULP energy per Si atom -5574.971459 kJ/mol
# Density = 2.130761 g / cm^3
# Si number density = 21.356222 Si / 1000 Ang^3
#
#
#
# Elastic Constant Matrix: (Units=GPa)
#
#
# Indices 1 2 3 4 5 6 
#
# 1 139.9875 3.5803 33.2690 0.0000 -40.2852 0.0000
# 2 3.5803 50.8537 8.0708 0.0000 -0.3017 0.0000
# 3 33.2690 8.0708 79.0226 0.0000 -34.9890 0.0000
# 4 0.0000 0.0000 0.0000 23.9094 0.0000 -2.4510
# 5 -40.2852 -0.3017 -34.9890 0.0000 37.2294 0.0000
# 6 0.0000 0.0000 0.0000 -2.4510 0.0000 32.6976
#
#
#
# Elastic Compliance Matrix: (Units=1/GPa)
#
#
# Indices 1 2 3 4 5 6 
#
# 1 0.010459 -0.000851 0.001185 0.000000 0.012424 0.000000
# 2 -0.000851 0.020256 -0.003503 0.000000 -0.004049 0.000000
# 3 0.001185 -0.003503 0.022383 0.000000 0.022289 0.000000
# 4 0.000000 0.000000 0.000000 0.042148 0.000000 0.003159
# 5 0.012424 -0.004049 0.022289 0.000000 0.061219 0.000000
# 6 0.000000 0.000000 0.000000 0.003159 0.000000 0.030820
#
#
# Mechanical properties :
#
#
# Convention : Reuss Voigt Hill
#
# Bulk Modulus (GPa) = 21.38632 39.96711 30.67672
# Shear Modulus (GPa) = 23.89930 33.76353 28.83141
#
# Velocity S-wave (km/s) = 3.34889 3.98045 3.67825
# Velocity P-wave (km/s) = 4.99893 6.31510 5.69516
#
# Compressibility (1/GPa) = 0.04675885
#
# Stress axis : x y z
#
# Youngs Moduli (GPa) = 95.61088 49.36777 44.67720
#
# Poissons Ratio (x) = 0.04199 -0.05292
# Poissons Ratio (y) = 0.08133 0.15652
# Poissons Ratio (z) = -0.11325 0.17296
#
# Static dielectric constant tensor:
#      x y z
#    x 1.904310 0.000000 -0.016050 
#    y 0.000000 1.832490 0.000000 
#    z -0.016050 0.000000 1.769970 
# 
# From -- ./inp_files/11968.got.cif
#   From: 2010.05.17/outbox.cif.g08.bks.cpg/sg4_6_cif.got.tgz:11968.got - 2010.06.03 18:43:04.
