data_PCOD9118458
_publ_section_title
;
Structure prediction by ZEFSAII (Michael W. Deem and Ramdas Pophale) SiO2 
 PCOD9118458
Probable space group: P 21
;
_chemical_formula_sum "Si O2"
_cell_formula_units_Z 14
_cell_length_a 7.723491
_cell_length_b 8.353309
_cell_length_c 12.004364
_cell_angle_alpha 90.000000
_cell_angle_beta 131.107652
_cell_angle_gamma 90.000000
_cell_volume 583.553308
_symmetry_space_group_name_H-M "P 21"
_symmetry_group_IT_number 4
_symmetry_cell_setting 'monoclinic'
loop_
_space_group_symop_operation_xyz
x,y,z
-x,1/2+y,-z
loop_
_atom_site_type_symbol
_atom_site_label
_atom_site_fract_x
_atom_site_fract_y
_atom_site_fract_z
Si Si1 0.257718 0.615660 0.108079
Si Si2 0.936898 0.541912 0.294790
Si Si3 0.601978 0.576992 0.948177
Si Si4 0.423824 0.839961 0.728200
Si Si5 0.686304 0.829271 0.250867
Si Si6 0.592206 0.024879 0.429131
Si Si7 0.143626 0.938890 0.164041
O O1 0.387364 0.471902 0.225910
O O2 0.470749 0.708895 0.142033
O O3 0.132614 0.748997 0.132920
O O4 0.088722 0.537767 0.946329
O O5 0.779093 0.538093 0.119273
O O6 0.809656 0.428199 0.331816
O O7 0.907876 0.725379 0.322769
O O8 0.206226 0.510926 0.396123
O O9 0.529549 0.754918 0.883995
O O10 0.365555 0.476659 0.851478
O O11 0.725451 0.509180 0.889560
O O12 0.399290 0.699320 0.627013
O O13 0.672257 0.895680 0.369556
O O14 0.325509 0.980168 0.338634
#
# Coordination Sequence:
#
# PCOD9118458 Si02
#       7
#     2   2   2   2   2   2   2
#     4   9  16  30  54  68  82 115 157 194 213 255
#     4  11  17  28  47  68  97 121 146 184 228 267
#     4   9  18  29  44  69  95 120 149 184 223 266
#     4   9  18  30  47  67  89 121 154 184 221 260
#     4   8  18  31  45  69  91 119 156 184 217 262
#     4   9  18  29  44  69  95 120 149 184 223 266
#     4   9  17  31  49  70  89 112 155 188 221 264
#
# _framework density 23.990953000000001
#
# number of rings (size 3 to 8) (size 9 to 14) (size 15 to 20)
#    0.000    3.429    0.000    3.429    0.000    0.000 
#    0.000    0.000    0.000   15.429    0.000    0.000 
#    0.000    0.000    0.000    0.000    0.000    0.000 
#
# Total GULP energy -78037.315407 kJ/mol
# GULP energy per Si atom -5574.093958 kJ/mol
# Density = 2.393635 g / cm^3
# Si number density = 23.990953 Si / 1000 Ang^3
#
#
#
# Elastic Constant Matrix: (Units=GPa)
#
#
# Indices 1 2 3 4 5 6 
#
# 1 41.2054 17.5285 14.9219 0.0000 6.2640 0.0000
# 2 17.5285 115.3840 38.8899 0.0000 18.7837 0.0000
# 3 14.9219 38.8899 130.1576 0.0000 33.5422 0.0000
# 4 0.0000 0.0000 0.0000 5.6104 0.0000 -2.7534
# 5 6.2640 18.7837 33.5422 0.0000 24.1885 0.0000
# 6 0.0000 0.0000 0.0000 -2.7534 0.0000 9.6251
#
#
#
# Elastic Compliance Matrix: (Units=1/GPa)
#
#
# Indices 1 2 3 4 5 6 
#
# 1 0.026503 -0.003140 -0.001494 0.000000 -0.002354 0.000000
# 2 -0.003140 0.010491 -0.001377 0.000000 -0.005425 0.000000
# 3 -0.001494 -0.001377 0.012278 0.000000 -0.015570 0.000000
# 4 0.000000 0.000000 0.000000 0.207349 0.000000 0.059315
# 5 -0.002354 -0.005425 -0.015570 0.000000 0.067755 0.000000
# 6 0.000000 0.000000 0.000000 0.059315 0.000000 0.120863
#
#
# Mechanical properties :
#
#
# Convention : Reuss Voigt Hill
#
# Bulk Modulus (GPa) = 26.84418 47.71418 37.27918
# Shear Modulus (GPa) = 10.64563 22.24524 16.44543
#
# Velocity S-wave (km/s) = 2.10879 3.04836 2.62102
# Velocity P-wave (km/s) = 4.14040 5.68520 4.97315
#
# Compressibility (1/GPa) = 0.03725202
#
# Stress axis : x y z
#
# Youngs Moduli (GPa) = 37.73156 95.32220 81.44594
#
# Poissons Ratio (x) = 0.29927 0.12166
# Poissons Ratio (y) = 0.11846 0.11212
# Poissons Ratio (z) = 0.05636 0.13123
#
# Static dielectric constant tensor:
#      x y z
#    x 1.981290 0.000000 0.013040 
#    y 0.000000 1.975040 0.000000 
#    z 0.013040 0.000000 2.041680 
# 
# From -- ./inp_files/7714.got.cif
#   From: 2010.05.17/outbox.cif.g08.bks.cpg/sg4_4_cif.got.tgz:7714.got - 2010.06.03 18:43:04.
