data_PCOD9118338
_publ_section_title
;
Structure prediction by ZEFSAII (Michael W. Deem and Ramdas Pophale) SiO2 
 PCOD9118338
Probable space group: P 21
;
_chemical_formula_sum "Si O2"
_cell_formula_units_Z 16
_cell_length_a 15.864534
_cell_length_b 4.958046
_cell_length_c 12.532010
_cell_angle_alpha 90.000000
_cell_angle_beta 38.204858
_cell_angle_gamma 90.000000
_cell_volume 609.650270
_symmetry_space_group_name_H-M "P 21"
_symmetry_group_IT_number 4
_symmetry_cell_setting 'monoclinic'
loop_
_space_group_symop_operation_xyz
x,y,z
-x,1/2+y,-z
loop_
_atom_site_type_symbol
_atom_site_label
_atom_site_fract_x
_atom_site_fract_y
_atom_site_fract_z
Si Si1 0.510387 0.289540 0.918800
Si Si2 0.443530 0.547596 0.674261
Si Si3 0.061242 0.518982 0.973233
Si Si4 0.088822 0.411647 0.406435
Si Si5 0.226452 0.677387 0.462027
Si Si6 0.689505 0.894536 0.403749
Si Si7 0.923656 0.880712 0.809221
Si Si8 0.330270 0.048952 0.912083
O O1 0.647805 0.338905 0.713970
O O2 0.400900 0.138019 0.952457
O O3 0.462497 0.571975 0.014763
O O4 0.600450 0.632477 0.517456
O O5 0.391606 0.568952 0.604320
O O6 0.398460 0.258148 0.760845
O O7 0.372035 0.759504 0.826011
O O8 0.171638 0.345917 0.797352
O O9 0.088368 0.546755 0.070712
O O10 0.060956 0.807102 0.918429
O O11 0.185686 0.465807 0.409028
O O12 0.134779 0.501190 0.242648
O O13 0.956501 0.601922 0.557220
O O14 0.278147 0.535770 0.517258
O O15 0.083757 0.825852 0.629505
O O16 0.829971 0.618037 0.923490
#
# Coordination Sequence:
#
# PCOD9118338 Si02
#       8
#     2   2   2   2   2   2   2   2
#     4  12  28  52  76 112 152 203 269 329 391 463
#     4  12  28  49  74 113 152 210 259 318 402 468
#     4  12  29  47  74 116 153 204 257 327 389 467
#     4  10  25  47  72 107 148 199 254 313 385 461
#     4  11  26  50  81 116 151 209 262 326 389 475
#     4  12  27  49  82 112 162 204 272 320 398 481
#     4  11  26  48  80 110 164 199 261 320 404 462
#     4  12  27  50  77 112 154 206 258 329 392 471
#
# _framework density 26.244555999999999
#
# number of rings (size 3 to 8) (size 9 to 14) (size 15 to 20)
#    0.000    0.500    3.750    2.250    3.500   10.000 
#    0.000    0.000    0.000    0.000    0.000    0.000 
#    0.000    0.000    0.000    0.000    0.000    0.000 
#
# Total GULP energy -89663.923720 kJ/mol
# GULP energy per Si atom -5603.995232 kJ/mol
# Density = 2.618482 g / cm^3
# Si number density = 26.244556 Si / 1000 Ang^3
#
#
#
# Elastic Constant Matrix: (Units=GPa)
#
#
# Indices 1 2 3 4 5 6 
#
# 1 144.3690 19.9309 17.9159 0.0000 41.2444 0.0000
# 2 19.9309 70.3710 12.3404 0.0000 -1.0176 0.0000
# 3 17.9159 12.3404 115.2580 0.0000 11.9241 0.0000
# 4 0.0000 0.0000 0.0000 34.6522 0.0000 7.3841
# 5 41.2444 -1.0176 11.9241 0.0000 52.8821 0.0000
# 6 0.0000 0.0000 0.0000 7.3841 0.0000 35.4787
#
#
#
# Elastic Compliance Matrix: (Units=1/GPa)
#
#
# Indices 1 2 3 4 5 6 
#
# 1 0.009445 -0.002707 -0.000421 0.000000 -0.007324 0.000000
# 2 -0.002707 0.015280 -0.001499 0.000000 0.002743 0.000000
# 3 -0.000421 -0.001499 0.009083 0.000000 -0.001749 0.000000
# 4 0.000000 0.000000 0.000000 0.030197 0.000000 -0.006285
# 5 -0.007324 0.002743 -0.001749 0.000000 0.025069 0.000000
# 6 0.000000 0.000000 0.000000 -0.006285 0.000000 0.029494
#
#
# Mechanical properties :
#
#
# Convention : Reuss Voigt Hill
#
# Bulk Modulus (GPa) = 40.72649 47.81914 44.27282
# Shear Modulus (GPa) = 36.76299 43.25664 40.00982
#
# Velocity S-wave (km/s) = 3.74677 4.06422 3.90872
# Velocity P-wave (km/s) = 5.85401 6.34697 6.10547
#
# Compressibility (1/GPa) = 0.02455404
#
# Stress axis : x y z
#
# Youngs Moduli (GPa) = 105.87726 65.44634 110.09588
#
# Poissons Ratio (x) = 0.17718 0.04631
# Poissons Ratio (y) = 0.28663 0.16503
# Poissons Ratio (z) = 0.04453 0.09810
#
# Static dielectric constant tensor:
#      x y z
#    x 2.109060 0.000000 -0.088030 
#    y 0.000000 2.049950 0.000000 
#    z -0.088030 0.000000 2.116870 
# 
# From -- ./inp_files/12467.got.cif
#   From: 2010.05.17/outbox.cif.g08.bks.cpg/sg4_7_cif.got.tgz:12467.got - 2010.06.03 18:43:04.
