data_PCOD9118629
_publ_section_title
;
Structure prediction by ZEFSAII (Michael W. Deem and Ramdas Pophale) SiO2 
 PCOD9118629
Probable space group: P 21
;
_chemical_formula_sum "Si O2"
_cell_formula_units_Z 16
_cell_length_a 27.478206
_cell_length_b 6.161837
_cell_length_c 12.148223
_cell_angle_alpha 90.000000
_cell_angle_beta 21.187744
_cell_angle_gamma 90.000000
_cell_volume 743.412198
_symmetry_space_group_name_H-M "P 21"
_symmetry_group_IT_number 4
_symmetry_cell_setting 'monoclinic'
loop_
_space_group_symop_operation_xyz
x,y,z
-x,1/2+y,-z
loop_
_atom_site_type_symbol
_atom_site_label
_atom_site_fract_x
_atom_site_fract_y
_atom_site_fract_z
Si Si1 0.417247 0.310750 0.832341
Si Si2 0.643763 0.627125 0.264587
Si Si3 0.940282 0.216740 0.459219
Si Si4 0.286700 0.680126 0.222968
Si Si5 0.842226 0.018317 0.095374
Si Si6 0.562747 0.928500 0.624613
Si Si7 0.065779 0.710380 0.876418
Si Si8 0.900475 0.355568 0.790614
O O1 0.515545 0.475052 0.560006
O O2 0.346496 0.176643 0.884663
O O3 0.511394 0.168162 0.710921
O O4 0.316126 0.434135 0.125459
O O5 0.613630 0.838753 0.399924
O O6 0.777022 0.520067 0.033169
O O7 0.796189 0.262232 0.709203
O O8 0.947771 0.301166 0.568128
O O9 0.980693 0.966167 0.389904
O O10 0.050045 0.327943 0.149310
O O11 0.189570 0.709032 0.530295
O O12 0.431281 0.791606 0.934687
O O13 0.884835 0.176264 0.103228
O O14 0.692491 0.925593 0.428518
O O15 0.846814 0.152157 0.971831
O O16 0.996225 0.462200 0.001443
#
# Coordination Sequence:
#
# PCOD9118629 Si02
#       8
#     2   2   2   2   2   2   2   2
#     4  11  23  39  67 100 151 194 242 297 376 455
#     4  11  22  37  63 100 148 199 238 294 372 458
#     4  12  25  43  68 105 148 190 246 303 374 453
#     4  11  28  47  73 109 142 200 253 316 371 459
#     4  12  26  48  75 104 149 196 244 315 380 451
#     4  11  24  44  67 106 145 186 246 305 378 447
#     4  12  29  56  85 111 148 204 264 318 384 458
#     4  12  25  38  66 109 147 189 247 304 379 451
#
# _framework density 21.522378
#
# number of rings (size 3 to 8) (size 9 to 14) (size 15 to 20)
#    0.000    0.500    6.250    1.500    7.000    2.000 
#    2.250    0.000    0.000    0.000    0.000    0.000 
#    0.000    0.000    0.000    0.000    0.000    0.000 
#
# Total GULP energy -89310.520939 kJ/mol
# GULP energy per Si atom -5581.907559 kJ/mol
# Density = 2.147339 g / cm^3
# Si number density = 21.522378 Si / 1000 Ang^3
#
#
#
# Elastic Constant Matrix: (Units=GPa)
#
#
# Indices 1 2 3 4 5 6 
#
# 1 58.0609 6.6002 19.8630 0.0000 -9.5155 0.0000
# 2 6.6002 62.8060 31.2657 0.0000 -7.7979 0.0000
# 3 19.8630 31.2657 90.1899 0.0000 -5.9898 0.0000
# 4 0.0000 0.0000 0.0000 39.8417 0.0000 -8.1778
# 5 -9.5155 -7.7979 -5.9898 0.0000 35.3231 0.0000
# 6 0.0000 0.0000 0.0000 -8.1778 0.0000 27.6619
#
#
#
# Elastic Compliance Matrix: (Units=1/GPa)
#
#
# Indices 1 2 3 4 5 6 
#
# 1 0.019338 0.000617 -0.004165 0.000000 0.004639 0.000000
# 2 0.000617 0.019616 -0.006713 0.000000 0.003358 0.000000
# 3 -0.004165 -0.006713 0.014320 0.000000 -0.000176 0.000000
# 4 0.000000 0.000000 0.000000 0.026721 0.000000 0.007900
# 5 0.004639 0.003358 -0.000176 0.000000 0.030272 0.000000
# 6 0.000000 0.000000 0.000000 0.007900 0.000000 0.038486
#
#
# Mechanical properties :
#
#
# Convention : Reuss Voigt Hill
#
# Bulk Modulus (GPa) = 30.53133 36.27942 33.40537
# Shear Modulus (GPa) = 27.74812 30.78720 29.26766
#
# Velocity S-wave (km/s) = 3.59453 3.78626 3.69164
# Velocity P-wave (km/s) = 5.60751 6.00063 5.80740
#
# Compressibility (1/GPa) = 0.03275324
#
# Stress axis : x y z
#
# Youngs Moduli (GPa) = 51.71090 50.97881 69.83014
#
# Poissons Ratio (x) = -0.03146 0.29083
# Poissons Ratio (y) = -0.03191 0.46877
# Poissons Ratio (z) = 0.21536 0.34222
#
# Static dielectric constant tensor:
#      x y z
#    x 1.779540 0.000000 -0.051270 
#    y 0.000000 1.881570 0.000000 
#    z -0.051270 0.000000 1.779870 
# 
# From -- ./inp_files/7300.got.cif
#   From: 2010.05.17/outbox.cif.g08.bks.cpg/sg4_4_cif.got.tgz:7300.got - 2010.06.03 18:43:04.
