data_PCOD9118225
_publ_section_title
;
Structure prediction by ZEFSAII (Michael W. Deem and Ramdas Pophale) SiO2 
 PCOD9118225
Probable space group: P 21
;
_chemical_formula_sum "Si O2"
_cell_formula_units_Z 16
_cell_length_a 5.182759
_cell_length_b 7.991913
_cell_length_c 17.154941
_cell_angle_alpha 90.000000
_cell_angle_beta 65.970855
_cell_angle_gamma 90.000000
_cell_volume 648.982115
_symmetry_space_group_name_H-M "P 21"
_symmetry_group_IT_number 4
_symmetry_cell_setting 'monoclinic'
loop_
_space_group_symop_operation_xyz
x,y,z
-x,1/2+y,-z
loop_
_atom_site_type_symbol
_atom_site_label
_atom_site_fract_x
_atom_site_fract_y
_atom_site_fract_z
Si Si1 0.244363 0.428720 0.974919
Si Si2 0.558470 0.884309 0.431261
Si Si3 0.197993 0.733291 0.076892
Si Si4 0.900637 0.847049 0.546306
Si Si5 0.901477 0.183916 0.336008
Si Si6 0.264002 0.276454 0.751504
Si Si7 0.448885 0.093180 0.202054
Si Si8 0.448692 0.930982 0.714202
O O1 0.477979 0.288782 0.963474
O O2 0.404576 0.561538 0.898391
O O3 0.984127 0.344640 0.961829
O O4 0.164657 0.539259 0.058849
O O5 0.724085 0.839037 0.489462
O O6 0.682009 0.770043 0.347155
O O7 0.225781 0.879148 0.486203
O O8 0.643297 0.067815 0.390862
O O9 0.053953 0.773756 0.177459
O O10 0.722814 0.966546 0.626080
O O11 0.927766 0.693724 0.603826
O O12 0.790414 0.359444 0.316056
O O13 0.108851 0.099381 0.248171
O O14 0.433241 0.436206 0.762963
O O15 0.384042 0.099940 0.767030
O O16 0.521138 0.273137 0.231261
#
# Coordination Sequence:
#
# PCOD9118225 Si02
#       8
#     2   2   2   2   2   2   2   2
#     4  11  25  47  81 110 159 190 250 301 379 448
#     4  12  25  44  71  95 150 197 239 316 372 434
#     4  11  26  49  77 118 148 200 246 304 381 457
#     4  11  27  43  68 104 139 196 253 304 377 436
#     4  11  24  47  70 100 147 192 253 304 384 439
#     4  11  26  48  75 108 151 195 252 306 379 444
#     4  10  24  49  72 107 150 199 238 311 379 447
#     4  11  25  47  72 108 144 195 257 310 369 451
#
# _framework density 24.653993
#
# number of rings (size 3 to 8) (size 9 to 14) (size 15 to 20)
#    0.000    1.000    2.500    2.250    7.000    3.000 
#   18.000    0.000    0.000    0.000    0.000    0.000 
#    0.000    0.000    0.000    0.000    0.000    0.000 
#
# Total GULP energy -89487.966023 kJ/mol
# GULP energy per Si atom -5592.997876 kJ/mol
# Density = 2.459788 g / cm^3
# Si number density = 24.653993 Si / 1000 Ang^3
#
#
#
# Elastic Constant Matrix: (Units=GPa)
#
#
# Indices 1 2 3 4 5 6 
#
# 1 104.4931 -1.6570 12.2182 0.0000 -1.2971 0.0000
# 2 -1.6570 93.0761 -4.6273 0.0000 3.7328 0.0000
# 3 12.2182 -4.6273 37.6143 0.0000 -13.9498 0.0000
# 4 0.0000 0.0000 0.0000 30.8989 0.0000 -5.0670
# 5 -1.2971 3.7328 -13.9498 0.0000 28.3829 0.0000
# 6 0.0000 0.0000 0.0000 -5.0670 0.0000 29.6910
#
#
#
# Elastic Compliance Matrix: (Units=1/GPa)
#
#
# Indices 1 2 3 4 5 6 
#
# 1 0.009993 0.000047 -0.003758 0.000000 -0.001397 0.000000
# 2 0.000047 0.010831 0.000966 0.000000 -0.000948 0.000000
# 3 -0.003758 0.000966 0.034014 0.000000 0.016419 0.000000
# 4 0.000000 0.000000 0.000000 0.033295 0.000000 0.005682
# 5 -0.001397 -0.000948 0.016419 0.000000 0.043363 0.000000
# 6 0.000000 0.000000 0.000000 0.005682 0.000000 0.034650
#
#
# Mechanical properties :
#
#
# Convention : Reuss Voigt Hill
#
# Bulk Modulus (GPa) = 20.26462 27.45015 23.85739
# Shear Modulus (GPa) = 26.58360 33.07787 29.83073
#
# Velocity S-wave (km/s) = 3.28726 3.66687 3.48224
# Velocity P-wave (km/s) = 4.75874 5.39317 5.08586
#
# Compressibility (1/GPa) = 0.04934708
#
# Stress axis : x y z
#
# Youngs Moduli (GPa) = 100.07157 92.32975 29.39939
#
# Poissons Ratio (x) = -0.00435 0.11049
# Poissons Ratio (y) = -0.00471 -0.02839
# Poissons Ratio (z) = 0.37608 -0.08916
#
# Static dielectric constant tensor:
#      x y z
#    x 2.018730 0.000000 0.021270 
#    y 0.000000 2.014680 0.000000 
#    z 0.021270 0.000000 2.044040 
# 
# From -- ./inp_files/14681.got.cif
#   From: 2010.05.17/outbox.cif.g08.bks.cpg/sg4_8_cif.got.tgz:14681.got - 2010.06.03 18:43:04.
