data_PCOD9118159
_publ_section_title
;
Structure prediction by ZEFSAII (Michael W. Deem and Ramdas Pophale) SiO2 
 PCOD9118159
Probable space group: P 21
;
_chemical_formula_sum "Si O2"
_cell_formula_units_Z 14
_cell_length_a 22.648828
_cell_length_b 5.184080
_cell_length_c 10.167418
_cell_angle_alpha 90.000000
_cell_angle_beta 28.348868
_cell_angle_gamma 90.000000
_cell_volume 566.858275
_symmetry_space_group_name_H-M "P 21"
_symmetry_group_IT_number 4
_symmetry_cell_setting 'monoclinic'
loop_
_space_group_symop_operation_xyz
x,y,z
-x,1/2+y,-z
loop_
_atom_site_type_symbol
_atom_site_label
_atom_site_fract_x
_atom_site_fract_y
_atom_site_fract_z
Si Si1 0.746165 0.229700 0.249623
Si Si2 0.394934 0.341438 0.326760
Si Si3 0.480132 0.818208 0.457151
Si Si4 0.106383 0.417360 0.604576
Si Si5 0.617126 0.980742 0.947190
Si Si6 0.869041 0.603839 0.174374
Si Si7 0.980378 0.106485 0.622593
O O1 0.659463 0.393448 0.318732
O O2 0.834547 0.311121 0.200714
O O3 0.630263 0.111936 0.557332
O O4 0.845685 0.092820 0.958612
O O5 0.402224 0.342224 0.155343
O O6 0.260795 0.217215 0.624521
O O7 0.517081 0.209436 0.141534
O O8 0.475751 0.537130 0.528820
O O9 0.583108 0.819139 0.140980
O O10 0.238866 0.553811 0.330829
O O11 0.114339 0.228256 0.716482
O O12 0.072066 0.238910 0.548942
O O13 0.998368 0.627393 0.843889
O O14 0.978226 0.328729 0.513359
#
# Coordination Sequence:
#
# PCOD9118159 Si02
#       7
#     2   2   2   2   2   2   2
#     4  11  26  49  78 103 153 205 257 324 397 456
#     4  11  24  47  79 110 152 197 251 327 409 452
#     4  12  28  48  74 107 154 207 259 310 378 472
#     4  10  26  44  79 114 151 195 260 323 387 463
#     4  11  25  46  75 113 149 194 261 320 386 459
#     4  10  24  46  73 114 145 193 245 324 404 449
#     4  11  29  50  78 113 158 211 261 314 383 471
#
# _framework density 24.69753
#
# number of rings (size 3 to 8) (size 9 to 14) (size 15 to 20)
#    0.000    1.143    1.429    1.714   16.000    0.000 
#    2.571    0.000    0.000    0.000    0.000    0.000 
#    0.000    0.000    0.000    0.000    0.000    0.000 
#
# Total GULP energy -78128.121253 kJ/mol
# GULP energy per Si atom -5580.580090 kJ/mol
# Density = 2.464132 g / cm^3
# Si number density = 24.697530 Si / 1000 Ang^3
#
#
#
# Elastic Constant Matrix: (Units=GPa)
#
#
# Indices 1 2 3 4 5 6 
#
# 1 88.2281 -2.7826 44.7691 0.0000 -14.7067 0.0000
# 2 -2.7826 22.4119 33.6584 0.0000 -2.1646 0.0000
# 3 44.7691 33.6584 195.2339 0.0000 -17.2717 0.0000
# 4 0.0000 0.0000 0.0000 34.3074 0.0000 -0.6447
# 5 -14.7067 -2.1646 -17.2717 0.0000 53.2936 0.0000
# 6 0.0000 0.0000 0.0000 -0.6447 0.0000 20.0346
#
#
#
# Elastic Compliance Matrix: (Units=1/GPa)
#
#
# Indices 1 2 3 4 5 6 
#
# 1 0.014430 0.008983 -0.004605 0.000000 0.002854 0.000000
# 2 0.008983 0.065847 -0.013339 0.000000 0.000831 0.000000
# 3 -0.004605 -0.013339 0.008563 0.000000 0.000962 0.000000
# 4 0.000000 0.000000 0.000000 0.029166 0.000000 0.000938
# 5 0.002854 0.000831 0.000962 0.000000 0.019897 0.000000
# 6 0.000000 0.000000 0.000000 0.000938 0.000000 0.049944
#
#
# Mechanical properties :
#
#
# Convention : Reuss Voigt Hill
#
# Bulk Modulus (GPa) = 14.10055 50.79598 32.44827
# Shear Modulus (GPa) = 21.79533 36.87573 29.33553
#
# Velocity S-wave (km/s) = 2.97390 3.86825 3.45017
# Velocity P-wave (km/s) = 4.18495 6.36891 5.38873
#
# Compressibility (1/GPa) = 0.07091921
#
# Stress axis : x y z
#
# Youngs Moduli (GPa) = 69.29913 15.18678 116.78425
#
# Poissons Ratio (x) = -0.13643 0.53782
# Poissons Ratio (y) = -0.62255 1.55773
# Poissons Ratio (z) = 0.31914 0.20257
#
# Static dielectric constant tensor:
#      x y z
#    x 2.048360 0.000000 -0.027260 
#    y 0.000000 2.426220 0.000000 
#    z -0.027260 0.000000 1.937630 
# 
# From -- ./inp_files/9757.got.cif
#   From: 2010.05.17/outbox.cif.g08.bks.cpg/sg4_5_cif.got.tgz:9757.got - 2010.06.03 18:43:04.
