data_PCOD9118120
_publ_section_title
;
Structure prediction by ZEFSAII (Michael W. Deem and Ramdas Pophale) SiO2 
 PCOD9118120
Probable space group: P 21
;
_chemical_formula_sum "Si O2"
_cell_formula_units_Z 14
_cell_length_a 19.980054
_cell_length_b 5.157448
_cell_length_c 5.059528
_cell_angle_alpha 90.000000
_cell_angle_beta 78.198334
_cell_angle_gamma 90.000000
_cell_volume 510.343680
_symmetry_space_group_name_H-M "P 21"
_symmetry_group_IT_number 4
_symmetry_cell_setting 'monoclinic'
loop_
_space_group_symop_operation_xyz
x,y,z
-x,1/2+y,-z
loop_
_atom_site_type_symbol
_atom_site_label
_atom_site_fract_x
_atom_site_fract_y
_atom_site_fract_z
Si Si1 0.651929 0.924480 0.398979
Si Si2 0.375696 0.762604 0.059786
Si Si3 0.226284 0.854323 0.208193
Si Si4 0.795983 0.840562 0.451109
Si Si5 0.063276 0.569273 0.778259
Si Si6 0.918365 0.365568 0.744871
Si Si7 0.457465 0.056429 0.610105
O O1 0.734084 0.915875 0.306539
O O2 0.612497 0.653672 0.476765
O O3 0.494252 0.807862 0.450814
O O4 0.620771 0.030463 0.154707
O O5 0.302363 0.891098 0.044796
O O6 0.366214 0.618323 0.345989
O O7 0.435360 0.957805 0.920644
O O8 0.214868 0.556794 0.307450
O O9 0.158225 0.941027 0.105209
O O10 0.222418 0.051577 0.454376
O O11 0.875830 0.867205 0.321803
O O12 0.083387 0.802230 0.563319
O O13 0.985067 0.527147 0.759473
O O14 0.066413 0.616143 0.086793
#
# Coordination Sequence:
#
# PCOD9118120 Si02
#       7
#     2   2   2   2   2   2   2
#     4  11  27  53  81 117 157 206 261 324 389 473
#     4  11  27  53  81 117 157 206 261 324 389 473
#     4  10  24  45  76 109 149 199 253 314 376 449
#     4  10  24  45  76 109 149 199 253 314 376 449
#     4  11  23  43  67 106 150 199 252 311 377 445
#     4  11  23  43  67 106 150 199 252 311 377 445
#     4  12  28  56  82 122 160 212 262 330 402 488
#
# _framework density 27.432493000000001
#
# number of rings (size 3 to 8) (size 9 to 14) (size 15 to 20)
#    0.000    1.143    1.429    2.571    8.000    2.286 
#    7.714    0.000    0.000    0.000    0.000    0.000 
#    0.000    0.000    0.000    0.000    0.000    0.000 
#
# Total GULP energy -78295.187900 kJ/mol
# GULP energy per Si atom -5592.513421 kJ/mol
# Density = 2.737006 g / cm^3
# Si number density = 27.432493 Si / 1000 Ang^3
#
#
#
# Elastic Constant Matrix: (Units=GPa)
#
#
# Indices 1 2 3 4 5 6 
#
# 1 145.9502 33.4975 15.7309 0.0000 -13.7487 0.0000
# 2 33.4975 114.0603 44.9466 0.0000 -13.2612 0.0000
# 3 15.7309 44.9466 74.2790 0.0000 -17.8388 0.0000
# 4 0.0000 0.0000 0.0000 26.8283 0.0000 1.8958
# 5 -13.7487 -13.2612 -17.8388 0.0000 41.9352 0.0000
# 6 0.0000 0.0000 0.0000 1.8958 0.0000 56.3922
#
#
#
# Elastic Compliance Matrix: (Units=1/GPa)
#
#
# Indices 1 2 3 4 5 6 
#
# 1 0.007479 -0.002012 0.000078 0.000000 0.001849 0.000000
# 2 -0.002012 0.012075 -0.006819 0.000000 0.000258 0.000000
# 3 0.000078 -0.006819 0.019002 0.000000 0.005952 0.000000
# 4 0.000000 0.000000 0.000000 0.037363 0.000000 -0.001256
# 5 0.001849 0.000258 0.005952 0.000000 0.027066 0.000000
# 6 0.000000 0.000000 0.000000 -0.001256 0.000000 0.017775
#
#
# Mechanical properties :
#
#
# Convention : Reuss Voigt Hill
#
# Bulk Modulus (GPa) = 47.50600 58.07107 52.78853
# Shear Modulus (GPa) = 34.41551 41.03877 37.72714
#
# Velocity S-wave (km/s) = 3.54581 3.87200 3.71249
# Velocity P-wave (km/s) = 5.84112 6.41908 6.13691
#
# Compressibility (1/GPa) = 0.02104997
#
# Stress axis : x y z
#
# Youngs Moduli (GPa) = 133.70293 82.81447 52.62665
#
# Poissons Ratio (x) = 0.16664 -0.00408
# Poissons Ratio (y) = 0.26903 0.35884
# Poissons Ratio (z) = -0.01038 0.56468
#
# Static dielectric constant tensor:
#      x y z
#    x 2.248240 0.000000 -0.010810 
#    y 0.000000 2.204850 0.000000 
#    z -0.010810 0.000000 2.154270 
# 
# From -- ./inp_files/3896.got.cif
#   From: 2010.05.17/outbox.cif.g08.bks.cpg/sg4_2_cif.got.tgz:3896.got - 2010.06.03 18:43:04.
