data_PCOD9118282
_publ_section_title
;
Structure prediction by ZEFSAII (Michael W. Deem and Ramdas Pophale) SiO2 
 PCOD9118282
Probable space group: P 21
;
_chemical_formula_sum "Si O2"
_cell_formula_units_Z 16
_cell_length_a 10.748806
_cell_length_b 6.141597
_cell_length_c 13.910458
_cell_angle_alpha 90.000000
_cell_angle_beta 136.314767
_cell_angle_gamma 90.000000
_cell_volume 634.263829
_symmetry_space_group_name_H-M "P 21"
_symmetry_group_IT_number 4
_symmetry_cell_setting 'monoclinic'
loop_
_space_group_symop_operation_xyz
x,y,z
-x,1/2+y,-z
loop_
_atom_site_type_symbol
_atom_site_label
_atom_site_fract_x
_atom_site_fract_y
_atom_site_fract_z
Si Si1 0.510896 0.282110 0.969208
Si Si2 0.849001 0.381013 0.528154
Si Si3 0.105038 0.257186 0.293909
Si Si4 0.189613 0.568373 0.972440
Si Si5 0.243518 0.833032 0.167408
Si Si6 0.082941 0.118599 0.902025
Si Si7 0.377119 0.490034 0.548319
Si Si8 0.221953 0.244294 0.644678
O O1 0.369079 0.303650 0.804435
O O2 0.531462 0.533779 0.015796
O O3 0.710536 0.224714 0.044678
O O4 0.918900 0.569840 0.640164
O O5 0.700015 0.233960 0.498148
O O6 0.757365 0.503296 0.386975
O O7 0.025398 0.269899 0.581329
O O8 0.993350 0.483538 0.230493
O O9 0.307595 0.343850 0.419889
O O10 0.019426 0.150399 0.150072
O O11 0.209784 0.322236 0.948924
O O12 0.282856 0.613724 0.125994
O O13 0.415793 0.940606 0.313106
O O14 0.093064 0.737898 0.153164
O O15 0.168593 0.989962 0.040400
O O16 0.262840 0.397911 0.575983
#
# Coordination Sequence:
#
# PCOD9118282 Si02
#       8
#     2   2   2   2   2   2   2   2
#     4  12  30  44  71 109 152 201 253 313 377 455
#     4  11  23  42  70 102 147 202 243 303 377 452
#     4  10  25  44  68 101 144 189 240 307 375 442
#     4  11  24  45  70 102 144 190 247 303 376 452
#     4  11  24  45  76 105 137 187 251 308 383 449
#     4  11  24  47  74 103 139 194 245 314 379 454
#     4  11  24  44  70 105 145 193 246 310 366 449
#     4  11  24  41  69 101 148 198 251 294 365 453
#
# _framework density 25.226096999999999
#
# number of rings (size 3 to 8) (size 9 to 14) (size 15 to 20)
#    0.000    1.000    3.750    1.500    8.750    0.000 
#    2.250    0.000    0.000    0.000    0.000    0.000 
#    0.000    0.000    0.000    0.000    0.000    0.000 
#
# Total GULP energy -89204.841896 kJ/mol
# GULP energy per Si atom -5575.302618 kJ/mol
# Density = 2.516868 g / cm^3
# Si number density = 25.226097 Si / 1000 Ang^3
#
#
#
# Elastic Constant Matrix: (Units=GPa)
#
#
# Indices 1 2 3 4 5 6 
#
# 1 46.2659 32.7716 7.9967 0.0000 15.3297 0.0000
# 2 32.7716 110.7561 33.9944 0.0000 2.4812 0.0000
# 3 7.9967 33.9944 116.4397 0.0000 18.1048 0.0000
# 4 0.0000 0.0000 0.0000 46.8258 0.0000 -4.7556
# 5 15.3297 2.4812 18.1048 0.0000 34.9607 0.0000
# 6 0.0000 0.0000 0.0000 -4.7556 0.0000 37.2839
#
#
#
# Elastic Compliance Matrix: (Units=1/GPa)
#
#
# Indices 1 2 3 4 5 6 
#
# 1 0.033812 -0.010644 0.003234 0.000000 -0.015745 0.000000
# 2 -0.010644 0.013293 -0.004055 0.000000 0.005824 0.000000
# 3 0.003234 -0.004055 0.010577 0.000000 -0.006608 0.000000
# 4 0.000000 0.000000 0.000000 0.021636 0.000000 0.002760
# 5 -0.015745 0.005824 -0.006608 0.000000 0.038516 0.000000
# 6 0.000000 0.000000 0.000000 0.002760 0.000000 0.027173
#
#
# Mechanical properties :
#
#
# Convention : Reuss Voigt Hill
#
# Bulk Modulus (GPa) = 28.77696 46.99857 37.88777
# Shear Modulus (GPa) = 27.85158 37.06068 32.45613
#
# Velocity S-wave (km/s) = 3.32637 3.83710 3.59082
# Velocity P-wave (km/s) = 5.11717 6.18890 5.67837
#
# Compressibility (1/GPa) = 0.03475002
#
# Stress axis : x y z
#
# Youngs Moduli (GPa) = 29.57524 75.22949 94.54100
#
# Poissons Ratio (x) = 0.80078 -0.30572
# Poissons Ratio (y) = 0.31481 0.38339
# Poissons Ratio (z) = -0.09564 0.30508
#
# Static dielectric constant tensor:
#      x y z
#    x 2.055580 0.000000 0.007260 
#    y 0.000000 2.176620 0.000000 
#    z 0.007260 0.000000 1.965130 
# 
# From -- ./inp_files/9078.got.cif
#   From: 2010.05.17/outbox.cif.g08.bks.cpg/sg4_5_cif.got.tgz:9078.got - 2010.06.03 18:43:04.
