data_PCOD9118424
_publ_section_title
;
Structure prediction by ZEFSAII (Michael W. Deem and Ramdas Pophale) SiO2 
 PCOD9118424
Probable space group: P 21
;
_chemical_formula_sum "Si O2"
_cell_formula_units_Z 16
_cell_length_a 9.386314
_cell_length_b 6.969777
_cell_length_c 15.755251
_cell_angle_alpha 90.000000
_cell_angle_beta 143.704948
_cell_angle_gamma 90.000000
_cell_volume 610.126096
_symmetry_space_group_name_H-M "P 21"
_symmetry_group_IT_number 4
_symmetry_cell_setting 'monoclinic'
loop_
_space_group_symop_operation_xyz
x,y,z
-x,1/2+y,-z
loop_
_atom_site_type_symbol
_atom_site_label
_atom_site_fract_x
_atom_site_fract_y
_atom_site_fract_z
Si Si1 0.159465 0.616350 0.402209
Si Si2 0.802295 0.689208 0.823953
Si Si3 0.344362 0.131363 0.779626
Si Si4 0.106582 0.607629 0.128306
Si Si5 0.578860 0.345153 0.623090
Si Si6 0.280231 0.356568 0.960257
Si Si7 0.688865 0.052748 0.192646
Si Si8 0.720843 0.296742 0.362789
O O1 0.929791 0.746416 0.093776
O O2 0.305920 0.416982 0.481846
O O3 0.307800 0.734549 0.402553
O O4 0.172103 0.738446 0.495865
O O5 0.717233 0.542733 0.712105
O O6 0.561292 0.738586 0.762314
O O7 0.891829 0.893957 0.834428
O O8 0.997779 0.603369 0.982188
O O9 0.127095 0.088726 0.743222
O O10 0.396219 0.357068 0.801186
O O11 0.259207 0.016289 0.655452
O O12 0.583374 0.022516 0.923028
O O13 0.363647 0.705730 0.269503
O O14 0.188581 0.460647 0.830990
O O15 0.487965 0.192980 0.055772
O O16 0.812872 0.175302 0.326004
#
# Coordination Sequence:
#
# PCOD9118424 Si02
#       8
#     2   2   2   2   2   2   2   2
#     4  11  28  55  71 111 154 208 271 306 384 452
#     4  11  24  47  77 116 158 195 253 322 389 465
#     4  11  24  47  76 107 150 197 246 323 378 463
#     4  12  24  47  77 120 153 199 253 319 403 453
#     4  11  28  52  76 111 153 211 262 322 373 468
#     4  11  24  44  71 117 154 187 247 314 397 459
#     4  11  22  44  70 108 149 193 243 313 390 451
#     4  10  26  48  72 110 147 200 257 307 384 453
#
# _framework density 26.224084999999999
#
# number of rings (size 3 to 8) (size 9 to 14) (size 15 to 20)
#    0.000    1.000    5.000    0.750    5.250    4.000 
#   11.250    0.000    0.000    0.000    0.000    0.000 
#    0.000    0.000    0.000    0.000    0.000    0.000 
#
# Total GULP energy -89536.188568 kJ/mol
# GULP energy per Si atom -5596.011785 kJ/mol
# Density = 2.616440 g / cm^3
# Si number density = 26.224085 Si / 1000 Ang^3
#
#
#
# Elastic Constant Matrix: (Units=GPa)
#
#
# Indices 1 2 3 4 5 6 
#
# 1 101.8076 15.4877 12.3567 0.0000 -5.0132 0.0000
# 2 15.4877 115.1522 10.0984 0.0000 -2.4299 0.0000
# 3 12.3567 10.0984 109.3966 0.0000 -7.5810 0.0000
# 4 0.0000 0.0000 0.0000 47.9822 0.0000 -9.3903
# 5 -5.0132 -2.4299 -7.5810 0.0000 19.8213 0.0000
# 6 0.0000 0.0000 0.0000 -9.3903 0.0000 55.5766
#
#
#
# Elastic Compliance Matrix: (Units=1/GPa)
#
#
# Indices 1 2 3 4 5 6 
#
# 1 0.010225 -0.001253 -0.000894 0.000000 0.002090 0.000000
# 2 -0.001253 0.008920 -0.000645 0.000000 0.000530 0.000000
# 3 -0.000894 -0.000645 0.009533 0.000000 0.003341 0.000000
# 4 0.000000 0.000000 0.000000 0.021554 0.000000 0.003642
# 5 0.002090 0.000530 0.003341 0.000000 0.052322 0.000000
# 6 0.000000 0.000000 0.000000 0.003642 0.000000 0.018608
#
#
# Mechanical properties :
#
#
# Convention : Reuss Voigt Hill
#
# Bulk Modulus (GPa) = 43.30216 44.69356 43.99786
# Shear Modulus (GPa) = 37.18994 43.90358 40.54676
#
# Velocity S-wave (km/s) = 3.76993 4.09610 3.93640
# Velocity P-wave (km/s) = 5.95802 6.28098 6.12163
#
# Compressibility (1/GPa) = 0.02309354
#
# Stress axis : x y z
#
# Youngs Moduli (GPa) = 97.80428 112.10260 104.89708
#
# Poissons Ratio (x) = 0.14042 0.09382
# Poissons Ratio (y) = 0.12251 0.06768
# Poissons Ratio (z) = 0.08748 0.07233
#
# Static dielectric constant tensor:
#      x y z
#    x 2.096420 0.000000 0.008980 
#    y 0.000000 2.018990 0.000000 
#    z 0.008980 0.000000 2.137600 
# 
# From -- ./inp_files/14144.got.cif
#   From: 2010.05.17/outbox.cif.g08.bks.cpg/sg4_8_cif.got.tgz:14144.got - 2010.06.03 18:43:04.
