data_PCOD9118271
_publ_section_title
;
Structure prediction by ZEFSAII (Michael W. Deem and Ramdas Pophale) SiO2 
 PCOD9118271
Probable space group: P 21
;
_chemical_formula_sum "Si O2"
_cell_formula_units_Z 16
_cell_length_a 13.981307
_cell_length_b 10.082175
_cell_length_c 6.462656
_cell_angle_alpha 90.000000
_cell_angle_beta 132.562407
_cell_angle_gamma 90.000000
_cell_volume 670.980648
_symmetry_space_group_name_H-M "P 21"
_symmetry_group_IT_number 4
_symmetry_cell_setting 'monoclinic'
loop_
_space_group_symop_operation_xyz
x,y,z
-x,1/2+y,-z
loop_
_atom_site_type_symbol
_atom_site_label
_atom_site_fract_x
_atom_site_fract_y
_atom_site_fract_z
Si Si1 0.163446 0.917120 0.761825
Si Si2 0.607202 0.473081 0.223789
Si Si3 0.015033 0.175923 0.432884
Si Si4 0.223269 0.346990 0.932817
Si Si5 0.610804 0.731050 0.494094
Si Si6 0.846219 0.069295 0.862889
Si Si7 0.351416 0.796411 0.342200
Si Si8 0.327115 0.469635 0.710913
O O1 0.269002 0.951054 0.740646
O O2 0.097243 0.771317 0.634801
O O3 0.244650 0.898074 0.092393
O O4 0.057487 0.036334 0.600392
O O5 0.621833 0.590672 0.407011
O O6 0.597828 0.343742 0.359252
O O7 0.476841 0.515209 0.908423
O O8 0.136462 0.271393 0.640902
O O9 0.971638 0.146338 0.132512
O O10 0.310002 0.446984 0.928163
O O11 0.307530 0.240954 0.177354
O O12 0.150759 0.434068 0.999591
O O13 0.467049 0.776885 0.349059
O O14 0.666225 0.835621 0.411835
O O15 0.723069 0.157438 0.750958
O O16 0.801401 0.042316 0.563917
#
# Coordination Sequence:
#
# PCOD9118271 Si02
#       8
#     2   2   2   2   2   2   2   2
#     4  11  25  48  73 108 151 201 262 312 386 451
#     4  12  25  43  75 110 145 197 246 319 384 465
#     4  11  23  49  75 100 150 203 253 318 370 454
#     4  11  22  46  74 101 144 196 243 307 383 448
#     4  11  24  41  70 109 145 184 247 306 384 460
#     4  10  25  43  67 103 141 193 248 303 374 446
#     4  11  24  44  68 109 150 191 243 316 385 454
#     4  11  24  42  70 108 142 187 240 311 386 448
#
# _framework density 23.845694000000002
#
# number of rings (size 3 to 8) (size 9 to 14) (size 15 to 20)
#    0.000    1.000    3.750    2.250    3.500    3.000 
#    4.500    6.250    0.000    0.000    0.000    0.000 
#    0.000    0.000    0.000    0.000    0.000    0.000 
#
# Total GULP energy -89295.410391 kJ/mol
# GULP energy per Si atom -5580.963149 kJ/mol
# Density = 2.379142 g / cm^3
# Si number density = 23.845694 Si / 1000 Ang^3
#
#
#
# Elastic Constant Matrix: (Units=GPa)
#
#
# Indices 1 2 3 4 5 6 
#
# 1 42.3879 12.7118 28.0405 0.0000 2.0366 0.0000
# 2 12.7118 88.2106 40.6710 0.0000 7.3322 0.0000
# 3 28.0405 40.6710 131.9717 0.0000 25.5118 0.0000
# 4 0.0000 0.0000 0.0000 50.8112 0.0000 0.4766
# 5 2.0366 7.3322 25.5118 0.0000 22.3146 0.0000
# 6 0.0000 0.0000 0.0000 0.4766 0.0000 29.9460
#
#
#
# Elastic Compliance Matrix: (Units=1/GPa)
#
#
# Indices 1 2 3 4 5 6 
#
# 1 0.028119 -0.001474 -0.006570 0.000000 0.005429 0.000000
# 2 -0.001474 0.013294 -0.003807 0.000000 0.000118 0.000000
# 3 -0.006570 -0.003807 0.012566 0.000000 -0.012516 0.000000
# 4 0.000000 0.000000 0.000000 0.019684 0.000000 -0.000313
# 5 0.005429 0.000118 -0.012516 0.000000 0.058589 0.000000
# 6 0.000000 0.000000 0.000000 -0.000313 0.000000 0.033398
#
#
# Mechanical properties :
#
#
# Convention : Reuss Voigt Hill
#
# Bulk Modulus (GPa) = 33.02761 47.26852 40.14806
# Shear Modulus (GPa) = 25.06973 32.69082 28.88028
#
# Velocity S-wave (km/s) = 3.24594 3.70663 3.48391
# Velocity P-wave (km/s) = 5.28477 6.17936 5.74949
#
# Compressibility (1/GPa) = 0.03027770
#
# Stress axis : x y z
#
# Youngs Moduli (GPa) = 35.56326 75.22053 79.58053
#
# Poissons Ratio (x) = 0.11090 0.52282
# Poissons Ratio (y) = 0.05243 0.30293
# Poissons Ratio (z) = 0.23364 0.28634
#
# Static dielectric constant tensor:
#      x y z
#    x 1.863220 0.000000 0.017530 
#    y 0.000000 1.931900 0.000000 
#    z 0.017530 0.000000 1.968150 
# 
# From -- ./inp_files/3809.got.cif
#   From: 2010.05.17/outbox.cif.g08.bks.cpg/sg4_2_cif.got.tgz:3809.got - 2010.06.03 18:43:04.
