data_PCOD9118840
_publ_section_title
;
Structure prediction by ZEFSAII (Michael W. Deem and Ramdas Pophale) SiO2 
 PCOD9118840
Probable space group: P 21
;
_chemical_formula_sum "Si O2"
_cell_formula_units_Z 16
_cell_length_a 12.189198
_cell_length_b 6.009279
_cell_length_c 19.254027
_cell_angle_alpha 90.000000
_cell_angle_beta 148.851051
_cell_angle_gamma 90.000000
_cell_volume 729.511077
_symmetry_space_group_name_H-M "P 21"
_symmetry_group_IT_number 4
_symmetry_cell_setting 'monoclinic'
loop_
_space_group_symop_operation_xyz
x,y,z
-x,1/2+y,-z
loop_
_atom_site_type_symbol
_atom_site_label
_atom_site_fract_x
_atom_site_fract_y
_atom_site_fract_z
Si Si1 0.451180 0.592690 0.201016
Si Si2 0.197339 0.313402 0.291428
Si Si3 0.390094 0.310391 0.931654
Si Si4 0.269468 0.725176 0.596603
Si Si5 0.418615 0.487658 0.541252
Si Si6 0.200070 0.390807 0.676549
Si Si7 0.229350 0.699522 0.211038
Si Si8 0.133290 0.462996 0.911973
O O1 0.528072 0.383637 0.287566
O O2 0.665543 0.718443 0.297189
O O3 0.289792 0.721239 0.163665
O O4 0.329733 0.532788 0.065512
O O5 0.251420 0.451796 0.389591
O O6 0.405620 0.164984 0.388656
O O7 0.162538 0.462045 0.204525
O O8 0.989579 0.165911 0.190537
O O9 0.289967 0.360923 0.802272
O O10 0.213976 0.297792 0.896664
O O11 0.504700 0.557516 0.010528
O O12 0.313471 0.559323 0.556757
O O13 0.243908 0.618936 0.659297
O O14 0.049317 0.845674 0.460373
O O15 0.556373 0.267657 0.631735
O O16 0.041261 0.860613 0.131392
#
# Coordination Sequence:
#
# PCOD9118840 Si02
#       8
#     2   2   2   2   2   2   2   2
#     4  12  25  50  70 104 151 188 250 321 379 462
#     4  11  24  43  69 105 145 195 243 302 394 455
#     4  12  29  54  79 110 155 209 256 318 391 463
#     4  12  26  44  74 109 139 199 254 320 391 455
#     4  11  23  42  70 104 145 187 242 314 379 463
#     4  12  27  46  78 105 149 199 263 317 389 464
#     4  11  25  42  72 105 143 189 243 307 390 457
#     4  11  29  45  72 110 145 200 251 313 389 465
#
# _framework density 21.932496
#
# number of rings (size 3 to 8) (size 9 to 14) (size 15 to 20)
#    0.000    0.500    6.250    0.750    5.250    3.000 
#    0.000    0.000    0.000    0.000    0.000    0.000 
#    0.000    0.000    0.000    0.000    0.000    0.000 
#
# Total GULP energy -89354.847042 kJ/mol
# GULP energy per Si atom -5584.677940 kJ/mol
# Density = 2.188258 g / cm^3
# Si number density = 21.932496 Si / 1000 Ang^3
#
#
#
# Elastic Constant Matrix: (Units=GPa)
#
#
# Indices 1 2 3 4 5 6 
#
# 1 88.7985 -8.7264 8.2442 0.0000 -2.6704 0.0000
# 2 -8.7264 45.9029 17.3162 0.0000 2.4538 0.0000
# 3 8.2442 17.3162 79.6203 0.0000 -3.4819 0.0000
# 4 0.0000 0.0000 0.0000 17.7501 0.0000 -1.0512
# 5 -2.6704 2.4538 -3.4819 0.0000 37.7084 0.0000
# 6 0.0000 0.0000 0.0000 -1.0512 0.0000 37.5134
#
#
#
# Elastic Compliance Matrix: (Units=1/GPa)
#
#
# Indices 1 2 3 4 5 6 
#
# 1 0.011729 0.002892 -0.001823 0.000000 0.000474 0.000000
# 2 0.002892 0.024601 -0.005734 0.000000 -0.001925 0.000000
# 3 -0.001823 -0.005734 0.014063 0.000000 0.001543 0.000000
# 4 0.000000 0.000000 0.000000 0.056431 0.000000 0.001581
# 5 0.000474 -0.001925 0.001543 0.000000 0.026821 0.000000
# 6 0.000000 0.000000 0.000000 0.001581 0.000000 0.026701
#
#
# Mechanical properties :
#
#
# Convention : Reuss Voigt Hill
#
# Bulk Modulus (GPa) = 24.35252 27.55444 25.95348
# Shear Modulus (GPa) = 27.26824 31.76022 29.51423
#
# Velocity S-wave (km/s) = 3.52984 3.80951 3.67234
# Velocity P-wave (km/s) = 5.26693 5.65158 5.46264
#
# Compressibility (1/GPa) = 0.04106351
#
# Stress axis : x y z
#
# Youngs Moduli (GPa) = 85.25772 40.64894 71.10931
#
# Poissons Ratio (x) = -0.11756 0.12961
# Poissons Ratio (y) = -0.24657 0.40774
# Poissons Ratio (z) = 0.15540 0.23308
#
# Static dielectric constant tensor:
#      x y z
#    x 1.814990 0.000000 0.014140 
#    y 0.000000 1.878560 0.000000 
#    z 0.014140 0.000000 1.770800 
# 
# From -- ./inp_files/7368.got.cif
#   From: 2010.05.17/outbox.cif.g08.bks.cpg/sg4_4_cif.got.tgz:7368.got - 2010.06.03 18:43:04.
