data_PCOD9118290
_publ_section_title
;
Structure prediction by ZEFSAII (Michael W. Deem and Ramdas Pophale) SiO2 
 PCOD9118290
Probable space group: P 21
;
_chemical_formula_sum "Si O2"
_cell_formula_units_Z 16
_cell_length_a 12.089936
_cell_length_b 12.527762
_cell_length_c 9.453689
_cell_angle_alpha 90.000000
_cell_angle_beta 154.106100
_cell_angle_gamma 90.000000
_cell_volume 625.299354
_symmetry_space_group_name_H-M "P 21"
_symmetry_group_IT_number 4
_symmetry_cell_setting 'monoclinic'
loop_
_space_group_symop_operation_xyz
x,y,z
-x,1/2+y,-z
loop_
_atom_site_type_symbol
_atom_site_label
_atom_site_fract_x
_atom_site_fract_y
_atom_site_fract_z
Si Si1 0.468711 0.990510 0.573193
Si Si2 0.656476 0.895959 0.350968
Si Si3 0.862985 0.676593 0.316402
Si Si4 0.825124 0.261504 0.087371
Si Si5 0.063970 0.363244 0.805916
Si Si6 0.601500 0.516940 0.192577
Si Si7 0.780527 0.261248 0.716576
Si Si8 0.586222 0.585638 0.773247
O O1 0.306424 0.883159 0.368333
O O2 0.451282 0.041149 0.706439
O O3 0.366309 0.065572 0.334801
O O4 0.750916 0.943932 0.900907
O O5 0.930623 0.841195 0.653257
O O6 0.613044 0.995428 0.406817
O O7 0.432777 0.818055 0.155203
O O8 0.586389 0.947071 0.118496
O O9 0.845808 0.790927 0.221912
O O10 0.641595 0.628925 0.159358
O O11 0.090816 0.682667 0.689543
O O12 0.835257 0.590423 0.157488
O O13 0.807483 0.216067 0.906572
O O14 0.842885 0.437113 0.486803
O O15 0.998774 0.275592 0.852059
O O16 0.563187 0.195713 0.388209
#
# Coordination Sequence:
#
# PCOD9118290 Si02
#       8
#     2   2   2   2   2   2   2   2
#     4  11  23  48  72 104 154 196 256 317 391 450
#     4  11  25  48  76 108 153 204 251 321 387 465
#     4  11  25  46  72 109 147 199 254 314 385 463
#     4  12  26  48  75 111 155 202 254 320 392 455
#     4  11  23  47  74 104 155 196 253 320 390 451
#     4  10  25  44  72 110 147 204 250 320 382 464
#     4  11  26  44  75 110 145 205 254 320 378 467
#     4  11  25  47  74 112 146 200 258 314 389 461
#
# _framework density 25.587745999999999
#
# number of rings (size 3 to 8) (size 9 to 14) (size 15 to 20)
#    0.000    1.000    3.750    1.500    3.500    4.000 
#    4.500    0.000    0.000    0.000    0.000    0.000 
#    0.000    0.000    0.000    0.000    0.000    0.000 
#
# Total GULP energy -89365.334568 kJ/mol
# GULP energy per Si atom -5585.333410 kJ/mol
# Density = 2.552951 g / cm^3
# Si number density = 25.587746 Si / 1000 Ang^3
#
#
#
# Elastic Constant Matrix: (Units=GPa)
#
#
# Indices 1 2 3 4 5 6 
#
# 1 102.2804 47.6890 46.5967 0.0000 -31.1638 0.0000
# 2 47.6890 68.8804 25.4231 0.0000 1.2297 0.0000
# 3 46.5967 25.4231 99.6176 0.0000 -26.7599 0.0000
# 4 0.0000 0.0000 0.0000 -17.2508 0.0000 -17.2276
# 5 -31.1638 1.2297 -26.7599 0.0000 46.1647 0.0000
# 6 0.0000 0.0000 0.0000 -17.2276 0.0000 39.5884
#
#
#
# Elastic Compliance Matrix: (Units=1/GPa)
#
#
# Indices 1 2 3 4 5 6 
#
# 1 0.021896 -0.014297 -0.002985 0.000000 0.013431 0.000000
# 2 -0.014297 0.025803 -0.003168 0.000000 -0.012175 0.000000
# 3 -0.002985 -0.003168 0.013887 0.000000 0.006119 0.000000
# 4 0.000000 0.000000 0.000000 -0.040408 0.000000 -0.017584
# 5 0.013431 -0.012175 0.006119 0.000000 0.034600 0.000000
# 6 0.000000 0.000000 0.000000 -0.017584 0.000000 0.017608
#
#
# Mechanical properties :
#
#
# Convention : Reuss Voigt Hill
#
# Bulk Modulus (GPa) = 48.34454 56.68844 52.51649
# Shear Modulus (GPa) = 41.26049 23.77175 32.51612
#
# Velocity S-wave (km/s) = 4.01996 3.05130 3.56865
# Velocity P-wave (km/s) = 6.36250 5.88358 6.12772
#
# Compressibility (1/GPa) = 0.02068486
#
# Stress axis : x y z
#
# Youngs Moduli (GPa) = 45.67134 38.75475 72.01034
#
# Poissons Ratio (x) = 0.55409 0.21495
# Poissons Ratio (y) = 0.65298 0.22814
# Poissons Ratio (z) = 0.13633 0.12278
#
# Static dielectric constant tensor:
#      x y z
#    x 2.115230 0.000000 0.043550 
#    y 0.000000 2.054730 0.000000 
#    z 0.043550 0.000000 1.999050 
# 
# From -- ./inp_files/4668.got.cif
#   From: 2010.05.17/outbox.cif.g08.bks.cpg/sg4_3_cif.got.tgz:4668.got - 2010.06.03 18:43:04.
