data_PCOD9118160
_publ_section_title
;
Structure prediction by ZEFSAII (Michael W. Deem and Ramdas Pophale) SiO2 
 PCOD9118160
Probable space group: P 21
;
_chemical_formula_sum "Si O2"
_cell_formula_units_Z 16
_cell_length_a 9.184642
_cell_length_b 10.795759
_cell_length_c 9.151511
_cell_angle_alpha 90.000000
_cell_angle_beta 54.306273
_cell_angle_gamma 90.000000
_cell_volume 736.958588
_symmetry_space_group_name_H-M "P 21"
_symmetry_group_IT_number 4
_symmetry_cell_setting 'monoclinic'
loop_
_space_group_symop_operation_xyz
x,y,z
-x,1/2+y,-z
loop_
_atom_site_type_symbol
_atom_site_label
_atom_site_fract_x
_atom_site_fract_y
_atom_site_fract_z
Si Si1 0.954683 0.593070 0.966195
Si Si2 0.337603 0.615360 0.763559
Si Si3 0.275612 0.069368 0.372100
Si Si4 0.843529 0.721055 0.309495
Si Si5 0.948664 0.145245 0.412366
Si Si6 0.333180 0.461688 0.477127
Si Si7 0.662347 0.377785 0.107827
Si Si8 0.203880 0.811318 0.261626
O O1 0.148122 0.553869 0.919760
O O2 0.014160 0.658088 0.780756
O O3 0.864006 0.688067 0.129473
O O4 0.825204 0.476857 0.012207
O O5 0.512399 0.585791 0.756956
O O6 0.377687 0.560851 0.578596
O O7 0.308730 0.762484 0.799420
O O8 0.215072 0.095004 0.573667
O O9 0.144973 0.165843 0.366670
O O10 0.218742 0.943711 0.329650
O O11 0.701789 0.828378 0.428480
O O12 0.031380 0.769015 0.266499
O O13 0.807979 0.223521 0.589706
O O14 0.855231 0.009857 0.477193
O O15 0.485893 0.447222 0.267849
O O16 0.647916 0.319346 0.953730
#
# Coordination Sequence:
#
# PCOD9118160 Si02
#       8
#     2   2   2   2   2   2   2   2
#     4  11  24  46  75 104 143 192 246 296 360 426
#     4  11  25  42  73 106 142 186 245 297 367 417
#     4  11  22  46  69 104 146 188 232 300 363 429
#     4  11  22  44  76 102 142 192 235 298 360 427
#     4  10  24  46  74 104 146 189 237 295 368 425
#     4  11  24  46  70 103 146 186 241 303 352 427
#     4  12  24  46  73 104 146 188 241 302 351 439
#     4  11  23  46  70 105 147 185 237 295 361 428
#
# _framework density 21.710854999999999
#
# number of rings (size 3 to 8) (size 9 to 14) (size 15 to 20)
#    0.000    1.000    5.000    1.500    0.000    5.000 
#    0.000    0.000    0.000    0.000    0.000    0.000 
#    0.000    0.000    0.000    0.000    0.000    0.000 
#
# Total GULP energy -89136.721900 kJ/mol
# GULP energy per Si atom -5571.045119 kJ/mol
# Density = 2.166144 g / cm^3
# Si number density = 21.710855 Si / 1000 Ang^3
#
#
#
# Elastic Constant Matrix: (Units=GPa)
#
#
# Indices 1 2 3 4 5 6 
#
# 1 86.5401 14.2834 40.6157 0.0000 -16.4312 0.0000
# 2 14.2834 49.2882 58.1426 0.0000 13.2455 0.0000
# 3 40.6157 58.1426 173.2437 0.0000 11.1335 0.0000
# 4 0.0000 0.0000 0.0000 44.6304 0.0000 -0.6024
# 5 -16.4312 13.2455 11.1335 0.0000 29.4608 0.0000
# 6 0.0000 0.0000 0.0000 -0.6024 0.0000 20.0878
#
#
#
# Elastic Compliance Matrix: (Units=1/GPa)
#
#
# Indices 1 2 3 4 5 6 
#
# 1 0.015977 -0.004171 -0.003115 0.000000 0.011963 0.000000
# 2 -0.004171 0.038641 -0.010992 0.000000 -0.015545 0.000000
# 3 -0.003115 -0.010992 0.010234 0.000000 -0.000663 0.000000
# 4 0.000000 0.000000 0.000000 0.022415 0.000000 0.000672
# 5 0.011963 -0.015545 -0.000663 0.000000 0.047855 0.000000
# 6 0.000000 0.000000 0.000000 0.000672 0.000000 0.049802
#
#
# Mechanical properties :
#
#
# Convention : Reuss Voigt Hill
#
# Bulk Modulus (GPa) = 35.33798 59.46172 47.39985
# Shear Modulus (GPa) = 21.65332 31.90447 26.77889
#
# Velocity S-wave (km/s) = 3.16151 3.83759 3.51584
# Velocity P-wave (km/s) = 5.44416 6.86175 6.19364
#
# Compressibility (1/GPa) = 0.02829817
#
# Stress axis : x y z
#
# Youngs Moduli (GPa) = 62.59014 25.87900 97.71344
#
# Poissons Ratio (x) = 0.10793 0.30436
# Poissons Ratio (y) = 0.26104 1.07404
# Poissons Ratio (z) = 0.19496 0.28445
#
# Static dielectric constant tensor:
#      x y z
#    x 1.868070 0.000000 0.005760 
#    y 0.000000 1.839760 0.000000 
#    z 0.005760 0.000000 1.809640 
# 
# From -- ./inp_files/6409.got.cif
#   From: 2010.05.17/outbox.cif.g08.bks.cpg/sg4_4_cif.got.tgz:6409.got - 2010.06.03 18:43:04.
