data_PCOD9118272
_publ_section_title
;
Structure prediction by ZEFSAII (Michael W. Deem and Ramdas Pophale) SiO2 
 PCOD9118272
Probable space group: P 21
;
_chemical_formula_sum "Si O2"
_cell_formula_units_Z 14
_cell_length_a 4.936343
_cell_length_b 9.127168
_cell_length_c 11.303765
_cell_angle_alpha 90.000000
_cell_angle_beta 102.640480
_cell_angle_gamma 90.000000
_cell_volume 496.945282
_symmetry_space_group_name_H-M "P 21"
_symmetry_group_IT_number 4
_symmetry_cell_setting 'monoclinic'
loop_
_space_group_symop_operation_xyz
x,y,z
-x,1/2+y,-z
loop_
_atom_site_type_symbol
_atom_site_label
_atom_site_fract_x
_atom_site_fract_y
_atom_site_fract_z
Si Si1 0.981117 0.078710 0.902557
Si Si2 0.739578 0.551063 0.475485
Si Si3 0.052761 0.325751 0.640804
Si Si4 0.272741 0.154820 0.283209
Si Si5 0.630462 0.339952 0.783003
Si Si6 0.235729 0.874831 0.755356
Si Si7 0.364386 0.307932 0.058427
O O1 0.748195 0.209186 0.871875
O O2 0.044412 0.020384 0.776286
O O3 0.233729 0.171426 0.983062
O O4 0.827177 0.949582 0.959567
O O5 0.835566 0.699475 0.427926
O O6 0.584225 0.603243 0.581835
O O7 0.645859 0.444150 0.360133
O O8 0.000417 0.467567 0.558188
O O9 0.299230 0.352487 0.759313
O O10 0.752523 0.293246 0.666958
O O11 0.434344 0.262646 0.206790
O O12 0.988833 0.242063 0.281233
O O13 0.247114 0.004819 0.204852
O O14 0.326579 0.866431 0.912165
#
# Coordination Sequence:
#
# PCOD9118272 Si02
#       7
#     2   2   2   2   2   2   2
#     4  11  25  47  71 106 144 194 252 319 375 449
#     4  11  22  45  68 110 150 194 242 313 374 454
#     4  11  25  42  71 106 152 195 249 308 377 457
#     4  10  25  43  67 107 145 192 249 303 375 453
#     4  11  25  45  71 109 146 199 253 302 383 447
#     4  11  24  47  72 108 144 195 248 313 377 458
#     4  11  26  47  74 104 149 191 259 312 383 446
#
# _framework density 28.172113
#
# number of rings (size 3 to 8) (size 9 to 14) (size 15 to 20)
#    0.000    1.143    2.857    1.714    4.000    8.000 
#    0.000    0.000    0.000    0.000    0.000    0.000 
#    0.000    0.000    0.000    0.000    0.000    0.000 
#
# Total GULP energy -78075.419848 kJ/mol
# GULP energy per Si atom -5576.815703 kJ/mol
# Density = 2.810799 g / cm^3
# Si number density = 28.172113 Si / 1000 Ang^3
#
#
#
# Elastic Constant Matrix: (Units=GPa)
#
#
# Indices 1 2 3 4 5 6 
#
# 1 98.4447 22.8962 50.7556 0.0000 -4.0209 0.0000
# 2 22.8962 162.0130 61.9885 0.0000 -19.9090 0.0000
# 3 50.7556 61.9885 89.2316 0.0000 -4.7371 0.0000
# 4 0.0000 0.0000 0.0000 70.0092 0.0000 2.5296
# 5 -4.0209 -19.9090 -4.7371 0.0000 12.9267 0.0000
# 6 0.0000 0.0000 0.0000 2.5296 0.0000 27.2851
#
#
#
# Elastic Compliance Matrix: (Units=1/GPa)
#
#
# Indices 1 2 3 4 5 6 
#
# 1 0.014839 0.002154 -0.009705 0.000000 0.004377 0.000000
# 2 0.002154 0.010605 -0.007842 0.000000 0.014129 0.000000
# 3 -0.009705 -0.007842 0.021797 0.000000 -0.007109 0.000000
# 4 0.000000 0.000000 0.000000 0.014332 0.000000 -0.001329
# 5 0.004377 0.014129 -0.007109 0.000000 0.097876 0.000000
# 6 0.000000 0.000000 0.000000 -0.001329 0.000000 0.036773
#
#
# Mechanical properties :
#
#
# Convention : Reuss Voigt Hill
#
# Bulk Modulus (GPa) = 60.76960 68.99664 64.88312
# Shear Modulus (GPa) = 21.50599 36.31413 28.91006
#
# Velocity S-wave (km/s) = 2.76593 3.59417 3.20690
# Velocity P-wave (km/s) = 5.64076 6.46285 6.06575
#
# Compressibility (1/GPa) = 0.01645560
#
# Stress axis : x y z
#
# Youngs Moduli (GPa) = 67.38888 94.29821 45.87745
#
# Poissons Ratio (x) = -0.20310 0.44522
# Poissons Ratio (y) = -0.14514 0.35977
# Poissons Ratio (z) = 0.65398 0.73949
#
# Static dielectric constant tensor:
#      x y z
#    x 2.148140 0.000000 -0.085730 
#    y 0.000000 2.458400 0.000000 
#    z -0.085730 0.000000 2.357020 
# 
# From -- ./inp_files/13338.got.cif
#   From: 2010.05.17/outbox.cif.g08.bks.cpg/sg4_7_cif.got.tgz:13338.got - 2010.06.03 18:43:04.
