data_PCOD9118194
_publ_section_title
;
Structure prediction by ZEFSAII (Michael W. Deem and Ramdas Pophale) SiO2 
 PCOD9118194
Probable space group: P 21
;
_chemical_formula_sum "Si O2"
_cell_formula_units_Z 16
_cell_length_a 18.180351
_cell_length_b 5.610574
_cell_length_c 7.178484
_cell_angle_alpha 90.000000
_cell_angle_beta 71.574450
_cell_angle_gamma 90.000000
_cell_volume 694.683991
_symmetry_space_group_name_H-M "P 21"
_symmetry_group_IT_number 4
_symmetry_cell_setting 'monoclinic'
loop_
_space_group_symop_operation_xyz
x,y,z
-x,1/2+y,-z
loop_
_atom_site_type_symbol
_atom_site_label
_atom_site_fract_x
_atom_site_fract_y
_atom_site_fract_z
Si Si1 0.692500 0.869900 0.395531
Si Si2 0.900159 0.294999 0.036580
Si Si3 0.673063 0.389968 0.798832
Si Si4 0.564558 0.216264 0.571697
Si Si5 0.399046 0.045795 0.772389
Si Si6 0.806518 0.731329 0.623423
Si Si7 0.762593 0.068125 0.969718
Si Si8 0.925426 0.790341 0.230929
O O1 0.670700 0.629582 0.305252
O O2 0.754347 0.866460 0.509407
O O3 0.611903 0.970376 0.537955
O O4 0.726349 0.023318 0.199666
O O5 0.896115 0.551451 0.143809
O O6 0.900791 0.050524 0.164271
O O7 0.828491 0.263594 0.954863
O O8 0.981873 0.288388 0.862669
O O9 0.614001 0.371964 0.677329
O O10 0.756769 0.489026 0.670297
O O11 0.693494 0.147711 0.889625
O O12 0.633914 0.540542 0.994782
O O13 0.475844 0.206391 0.702622
O O14 0.571059 0.308507 0.354827
O O15 0.891008 0.747464 0.464532
O O16 0.802446 0.850552 0.829032
#
# Coordination Sequence:
#
# PCOD9118194 Si02
#       8
#     2   2   2   2   2   2   2   2
#     4  12  24  44  70  94 132 180 232 276 348 428
#     4  10  24  47  74 105 147 195 239 293 359 428
#     4  12  28  42  68 106 136 174 238 298 344 422
#     4  12  26  44  68  95 133 180 227 287 357 423
#     4  12  26  44  68  95 133 180 227 287 357 423
#     4  12  26  43  71 105 138 185 232 293 351 425
#     4  12  26  43  71 105 138 185 232 293 351 425
#     4  10  24  47  74 105 147 195 239 293 359 428
#
# _framework density 23.032056000000001
#
# number of rings (size 3 to 8) (size 9 to 14) (size 15 to 20)
#    0.000    0.500    7.500    0.000    7.000    3.000 
#    2.250    0.000    0.000    0.000    0.000    0.000 
#    0.000    0.000    0.000    0.000    0.000    0.000 
#
# Total GULP energy -89307.058673 kJ/mol
# GULP energy per Si atom -5581.691167 kJ/mol
# Density = 2.297963 g / cm^3
# Si number density = 23.032056 Si / 1000 Ang^3
#
#
#
# Elastic Constant Matrix: (Units=GPa)
#
#
# Indices 1 2 3 4 5 6 
#
# 1 50.6612 1.7890 23.6978 0.0000 -5.1588 0.0000
# 2 1.7890 63.9063 15.5628 0.0000 1.2499 0.0000
# 3 23.6978 15.5628 94.8491 0.0000 -4.3481 0.0000
# 4 0.0000 0.0000 0.0000 30.8396 0.0000 0.8478
# 5 -5.1588 1.2499 -4.3481 0.0000 37.8541 0.0000
# 6 0.0000 0.0000 0.0000 0.8478 0.0000 29.5386
#
#
#
# Elastic Compliance Matrix: (Units=1/GPa)
#
#
# Indices 1 2 3 4 5 6 
#
# 1 0.022603 0.000696 -0.005651 0.000000 0.002408 0.000000
# 2 0.000696 0.016348 -0.002892 0.000000 -0.000777 0.000000
# 3 -0.005651 -0.002892 0.012464 0.000000 0.000757 0.000000
# 4 0.000000 0.000000 0.000000 0.032451 0.000000 -0.000931
# 5 0.002408 -0.000777 0.000757 0.000000 0.026858 0.000000
# 6 0.000000 0.000000 0.000000 -0.000931 0.000000 0.033881
#
#
# Mechanical properties :
#
#
# Convention : Reuss Voigt Hill
#
# Bulk Modulus (GPa) = 27.99428 32.39065 30.19246
# Shear Modulus (GPa) = 29.03497 30.87093 29.95295
#
# Velocity S-wave (km/s) = 3.55439 3.66505 3.61014
# Velocity P-wave (km/s) = 5.38756 5.65720 5.52402
#
# Compressibility (1/GPa) = 0.03572158
#
# Stress axis : x y z
#
# Youngs Moduli (GPa) = 44.24180 61.17003 80.22975
#
# Poissons Ratio (x) = -0.04260 0.45339
# Poissons Ratio (y) = -0.03081 0.23202
# Poissons Ratio (z) = 0.25002 0.17690
#
# Static dielectric constant tensor:
#      x y z
#    x 1.854620 0.000000 -0.010920 
#    y 0.000000 2.000210 0.000000 
#    z -0.010920 0.000000 1.856780 
# 
# From -- ./inp_files/3970.got.cif
#   From: 2010.05.17/outbox.cif.g08.bks.cpg/sg4_2_cif.got.tgz:3970.got - 2010.06.03 18:43:04.
