data_PCOD9118327
_publ_section_title
;
Structure prediction by ZEFSAII (Michael W. Deem and Ramdas Pophale) SiO2 
 PCOD9118327
Probable space group: P 21
;
_chemical_formula_sum "Si O2"
_cell_formula_units_Z 16
_cell_length_a 14.601192
_cell_length_b 4.888235
_cell_length_c 12.108112
_cell_angle_alpha 90.000000
_cell_angle_beta 133.712008
_cell_angle_gamma 90.000000
_cell_volume 624.666738
_symmetry_space_group_name_H-M "P 21"
_symmetry_group_IT_number 4
_symmetry_cell_setting 'monoclinic'
loop_
_space_group_symop_operation_xyz
x,y,z
-x,1/2+y,-z
loop_
_atom_site_type_symbol
_atom_site_label
_atom_site_fract_x
_atom_site_fract_y
_atom_site_fract_z
Si Si1 0.848682 0.144110 0.103868
Si Si2 0.983512 0.329679 0.911002
Si Si3 0.704163 0.287392 0.619402
Si Si4 0.656776 0.415800 0.821213
Si Si5 0.398879 0.352985 0.032044
Si Si6 0.618693 0.784844 0.422732
Si Si7 0.330324 0.591747 0.752283
Si Si8 0.068148 0.863545 0.601871
O O1 0.926889 0.296489 0.263340
O O2 0.924276 0.891145 0.115954
O O3 0.706327 0.087942 0.031040
O O4 0.799201 0.310193 0.958084
O O5 0.851049 0.218563 0.755619
O O6 0.036020 0.123805 0.046646
O O7 0.656789 0.447703 0.689023
O O8 0.630211 0.009322 0.530219
O O9 0.683914 0.503317 0.505725
O O10 0.529031 0.233664 0.728493
O O11 0.639147 0.648207 0.899107
O O12 0.365630 0.358452 0.872938
O O13 0.549199 0.297075 0.153525
O O14 0.681555 0.934020 0.372135
O O15 0.203475 0.758203 0.671773
O O16 0.962990 0.674679 0.453862
#
# Coordination Sequence:
#
# PCOD9118327 Si02
#       8
#     2   2   2   2   2   2   2   2
#     4  11  27  46  77 108 148 198 258 317 385 447
#     4  12  26  47  76 109 149 199 257 316 368 459
#     4  12  26  48  72 110 155 200 252 307 384 454
#     4  11  25  47  75 109 147 194 263 311 385 449
#     4  10  25  46  75 110 142 193 255 334 365 457
#     4  11  28  44  75 107 153 203 240 326 378 458
#     4  10  26  45  77 109 148 196 260 308 400 445
#     4  11  29  49  73 106 152 199 241 309 377 463
#
# _framework density 25.613658000000001
#
# number of rings (size 3 to 8) (size 9 to 14) (size 15 to 20)
#    0.000    1.000    1.250    2.250   19.250    0.000 
#    0.000    0.000    0.000    0.000    0.000    0.000 
#    0.000    0.000    0.000    0.000    0.000    0.000 
#
# Total GULP energy -89371.637266 kJ/mol
# GULP energy per Si atom -5585.727329 kJ/mol
# Density = 2.555536 g / cm^3
# Si number density = 25.613658 Si / 1000 Ang^3
#
#
#
# Elastic Constant Matrix: (Units=GPa)
#
#
# Indices 1 2 3 4 5 6 
#
# 1 88.7310 4.0015 25.8294 0.0000 5.4179 0.0000
# 2 4.0015 79.6030 14.7554 0.0000 -6.6940 0.0000
# 3 25.8294 14.7554 106.8390 0.0000 5.8928 0.0000
# 4 0.0000 0.0000 0.0000 38.7537 0.0000 8.1478
# 5 5.4179 -6.6940 5.8928 0.0000 43.9402 0.0000
# 6 0.0000 0.0000 0.0000 8.1478 0.0000 21.0178
#
#
#
# Elastic Compliance Matrix: (Units=1/GPa)
#
#
# Indices 1 2 3 4 5 6 
#
# 1 0.012180 -0.000179 -0.002857 0.000000 -0.001146 0.000000
# 2 -0.000179 0.013113 -0.001893 0.000000 0.002274 0.000000
# 3 -0.002857 -0.001893 0.010385 0.000000 -0.001329 0.000000
# 4 0.000000 0.000000 0.000000 0.028094 0.000000 -0.010891
# 5 -0.001146 0.002274 -0.001329 0.000000 0.023424 0.000000
# 6 0.000000 0.000000 0.000000 -0.010891 0.000000 0.051801
#
#
# Mechanical properties :
#
#
# Convention : Reuss Voigt Hill
#
# Bulk Modulus (GPa) = 38.72885 40.48284 39.60584
# Shear Modulus (GPa) = 31.75377 36.11479 33.93428
#
# Velocity S-wave (km/s) = 3.52479 3.75905 3.64380
# Velocity P-wave (km/s) = 5.63194 5.88898 5.76189
#
# Compressibility (1/GPa) = 0.02582055
#
# Stress axis : x y z
#
# Youngs Moduli (GPa) = 82.10439 76.25750 96.29040
#
# Poissons Ratio (x) = 0.01366 0.27506
# Poissons Ratio (y) = 0.01471 0.18230
# Poissons Ratio (z) = 0.23454 0.14437
#
# Static dielectric constant tensor:
#      x y z
#    x 2.109950 0.000000 -0.107770 
#    y 0.000000 2.060040 0.000000 
#    z -0.107770 0.000000 2.074410 
# 
# From -- ./inp_files/12518.got.cif
#   From: 2010.05.17/outbox.cif.g08.bks.cpg/sg4_7_cif.got.tgz:12518.got - 2010.06.03 18:43:04.
