data_PCOD9118127
_publ_section_title
;
Structure prediction by ZEFSAII (Michael W. Deem and Ramdas Pophale) SiO2 
 PCOD9118127
Probable space group: P 21
;
_chemical_formula_sum "Si O2"
_cell_formula_units_Z 14
_cell_length_a 15.261463
_cell_length_b 7.367964
_cell_length_c 14.413078
_cell_angle_alpha 90.000000
_cell_angle_beta 160.885722
_cell_angle_gamma 90.000000
_cell_volume 530.700947
_symmetry_space_group_name_H-M "P 21"
_symmetry_group_IT_number 4
_symmetry_cell_setting 'monoclinic'
loop_
_space_group_symop_operation_xyz
x,y,z
-x,1/2+y,-z
loop_
_atom_site_type_symbol
_atom_site_label
_atom_site_fract_x
_atom_site_fract_y
_atom_site_fract_z
Si Si1 0.166122 0.645570 0.259728
Si Si2 0.657462 0.866435 0.699875
Si Si3 0.562479 0.474195 0.161837
Si Si4 0.792971 0.850432 0.355447
Si Si5 0.074160 0.775320 0.359937
Si Si6 0.291414 0.953053 0.970696
Si Si7 0.747453 0.100574 0.967613
O O1 0.362141 0.787484 0.404897
O O2 0.240498 0.451193 0.293655
O O3 0.221730 0.672054 0.424031
O O4 0.863649 0.709073 0.937408
O O5 0.668693 0.025665 0.788583
O O6 0.732293 0.637494 0.289543
O O7 0.755371 0.305925 0.377265
O O8 0.314810 0.433183 0.847632
O O9 0.453888 0.540282 0.152485
O O10 0.090612 0.883487 0.688548
O O11 0.588580 0.925395 0.230026
O O12 0.808710 0.656011 0.110357
O O13 0.001703 0.975711 0.249012
O O14 0.230603 0.816050 0.995614
#
# Coordination Sequence:
#
# PCOD9118127 Si02
#       7
#     2   2   2   2   2   2   2
#     4  11  25  45  72 107 137 186 226 288 354 418
#     4  11  24  46  71 104 142 179 231 286 352 418
#     4  11  23  44  68  98 142 180 234 288 347 410
#     4  11  26  42  68 101 137 184 233 287 345 407
#     4  11  24  44  72  98 142 182 232 285 349 416
#     4  11  26  43  67 106 133 186 233 283 345 410
#     4  10  24  46  68  98 145 181 227 291 346 409
#
# _framework density 26.380205
#
# number of rings (size 3 to 8) (size 9 to 14) (size 15 to 20)
#    0.000    1.143    2.857    1.714    8.000    0.000 
#    5.143    0.000    0.000    0.000    0.000    0.000 
#    0.000    0.000    0.000    0.000    0.000    0.000 
#
# Total GULP energy -78526.570910 kJ/mol
# GULP energy per Si atom -5609.040779 kJ/mol
# Density = 2.632016 g / cm^3
# Si number density = 26.380205 Si / 1000 Ang^3
#
#
#
# Elastic Constant Matrix: (Units=GPa)
#
#
# Indices 1 2 3 4 5 6 
#
# 1 78.2575 9.9015 6.9503 0.0000 5.6058 0.0000
# 2 9.9015 87.9417 5.9922 0.0000 -1.2290 0.0000
# 3 6.9503 5.9922 37.8851 0.0000 -0.5954 0.0000
# 4 0.0000 0.0000 0.0000 37.1957 0.0000 0.8203
# 5 5.6058 -1.2290 -0.5954 0.0000 29.3137 0.0000
# 6 0.0000 0.0000 0.0000 0.8203 0.0000 55.1437
#
#
#
# Elastic Compliance Matrix: (Units=1/GPa)
#
#
# Indices 1 2 3 4 5 6 
#
# 1 0.013346 -0.001385 -0.002271 0.000000 -0.002656 0.000000
# 2 -0.001385 0.011645 -0.001576 0.000000 0.000721 0.000000
# 3 -0.002271 -0.001576 0.027076 0.000000 0.000918 0.000000
# 4 0.000000 0.000000 0.000000 0.026894 0.000000 -0.000400
# 5 -0.002656 0.000721 0.000918 0.000000 0.034671 0.000000
# 6 0.000000 0.000000 0.000000 -0.000400 0.000000 0.018140
#
#
# Mechanical properties :
#
#
# Convention : Reuss Voigt Hill
#
# Bulk Modulus (GPa) = 24.03769 27.75250 25.89509
# Shear Modulus (GPa) = 32.03021 36.41331 34.22176
#
# Velocity S-wave (km/s) = 3.48828 3.71931 3.60565
# Velocity P-wave (km/s) = 5.03547 5.38399 5.21264
#
# Compressibility (1/GPa) = 0.04160134
#
# Stress axis : x y z
#
# Youngs Moduli (GPa) = 74.93142 85.87678 36.93311
#
# Poissons Ratio (x) = 0.11894 0.08388
# Poissons Ratio (y) = 0.10378 0.05822
# Poissons Ratio (z) = 0.17017 0.13537
#
# Static dielectric constant tensor:
#      x y z
#    x 2.057020 0.000000 0.010160 
#    y 0.000000 2.081790 0.000000 
#    z 0.010160 0.000000 2.023140 
# 
# From -- ./inp_files/3619.got.cif
#   From: 2010.05.17/outbox.cif.g08.bks.cpg/sg4_2_cif.got.tgz:3619.got - 2010.06.03 18:43:04.
