data_PCOD9118718
_publ_section_title
;
Structure prediction by ZEFSAII (Michael W. Deem and Ramdas Pophale) SiO2 
 PCOD9118718
Probable space group: P 21
;
_chemical_formula_sum "Si O2"
_cell_formula_units_Z 12
_cell_length_a 14.256708
_cell_length_b 6.486484
_cell_length_c 14.010166
_cell_angle_alpha 90.000000
_cell_angle_beta 158.849420
_cell_angle_gamma 90.000000
_cell_volume 467.479759
_symmetry_space_group_name_H-M "P 21"
_symmetry_group_IT_number 4
_symmetry_cell_setting 'monoclinic'
loop_
_space_group_symop_operation_xyz
x,y,z
-x,1/2+y,-z
loop_
_atom_site_type_symbol
_atom_site_label
_atom_site_fract_x
_atom_site_fract_y
_atom_site_fract_z
Si Si1 0.157823 0.966560 0.602752
Si Si2 0.444438 0.802088 0.048219
Si Si3 0.053142 0.771357 0.827361
Si Si4 0.288546 0.103756 0.189001
Si Si5 0.193060 0.582221 0.549459
Si Si6 0.779823 0.394290 0.673959
O O1 0.109178 0.817352 0.468687
O O2 0.298843 0.168795 0.702289
O O3 0.367303 0.845435 0.867413
O O4 0.944079 0.016332 0.479374
O O5 0.506030 0.025047 0.151510
O O6 0.232695 0.690929 0.910861
O O7 0.895813 0.952244 0.624650
O O8 0.230770 0.897815 0.071168
O O9 0.883654 0.587974 0.709838
O O10 0.541353 0.250128 0.409381
O O11 0.317979 0.008805 0.322746
O O12 0.030123 0.248382 0.934878
#
# Coordination Sequence:
#
# PCOD9118718 Si02
#       6
#     2   2   2   2   2   2
#     4  11  22  44  70 100 142 208 248 328 396 459
#     4  11  24  43  72 104 152 197 270 323 397 478
#     4  11  30  50  72 124 154 208 272 338 402 495
#     4  12  28  53  88 119 164 216 266 337 418 498
#     4  11  24  43  72 104 152 197 270 323 397 478
#     4  12  28  53  88 119 164 216 266 337 418 498
#
# _framework density 25.669561000000002
#
# number of rings (size 3 to 8) (size 9 to 14) (size 15 to 20)
#    0.000    0.667    5.000    1.000    4.667    2.667 
#    0.000    0.000    0.000    0.000    0.000    0.000 
#    0.000    0.000    0.000    0.000    0.000    0.000 
#
# Total GULP energy -67092.562906 kJ/mol
# GULP energy per Si atom -5591.046909 kJ/mol
# Density = 2.561114 g / cm^3
# Si number density = 25.669561 Si / 1000 Ang^3
#
#
#
# Elastic Constant Matrix: (Units=GPa)
#
#
# Indices 1 2 3 4 5 6 
#
# 1 92.2950 41.6379 13.0550 0.0000 -2.3868 0.0000
# 2 41.6379 145.1223 57.4729 0.0000 2.2483 0.0000
# 3 13.0550 57.4729 110.3762 0.0000 7.6613 0.0000
# 4 0.0000 0.0000 0.0000 25.2638 0.0000 30.6388
# 5 -2.3868 2.2483 7.6613 0.0000 37.2819 0.0000
# 6 0.0000 0.0000 0.0000 30.6388 0.0000 30.3082
#
#
#
# Elastic Compliance Matrix: (Units=1/GPa)
#
#
# Indices 1 2 3 4 5 6 
#
# 1 0.012499 -0.003766 0.000417 0.000000 0.000942 0.000000
# 2 -0.003766 0.009822 -0.004678 0.000000 0.000128 0.000000
# 3 0.000417 -0.004678 0.011590 0.000000 -0.002073 0.000000
# 4 0.000000 0.000000 0.000000 -0.175156 0.000000 0.177067
# 5 0.000942 0.000128 -0.002073 0.000000 0.027301 0.000000
# 6 0.000000 0.000000 0.000000 0.177067 0.000000 -0.146004
#
#
# Mechanical properties :
#
#
# Convention : Reuss Voigt Hill
#
# Bulk Modulus (GPa) = 55.99672 63.56948 59.78310
# Shear Modulus (GPa) = -21.01352 34.27930 6.63289
#
# Velocity S-wave (km/s) = -2.86425 3.65829 1.60921
# Velocity P-wave (km/s) = 3.30503 6.53164 5.17618
#
# Compressibility (1/GPa) = 0.01785819
#
# Stress axis : x y z
#
# Youngs Moduli (GPa) = 80.00536 101.81444 86.28055
#
# Poissons Ratio (x) = 0.38344 -0.03600
# Poissons Ratio (y) = 0.30130 0.40359
# Poissons Ratio (z) = -0.03338 0.47625
#
# Static dielectric constant tensor:
#      x y z
#    x 2.012180 0.000000 -0.004300 
#    y 0.000000 2.087940 0.000000 
#    z -0.004300 0.000000 2.088660 
# 
# From -- ./inp_files/13172.got.cif
#   From: 2010.05.17/outbox.cif.g08.bks.cpg/sg4_7_cif.got.tgz:13172.got - 2010.06.03 18:43:04.
