data_PCOD9118927
_publ_section_title
;
Structure prediction by ZEFSAII (Michael W. Deem and Ramdas Pophale) SiO2 
 PCOD9118927
Probable space group: P 21
;
_chemical_formula_sum "Si O2"
_cell_formula_units_Z 16
_cell_length_a 11.884973
_cell_length_b 9.992205
_cell_length_c 6.230049
_cell_angle_alpha 90.000000
_cell_angle_beta 66.170087
_cell_angle_gamma 90.000000
_cell_volume 676.788350
_symmetry_space_group_name_H-M "P 21"
_symmetry_group_IT_number 4
_symmetry_cell_setting 'monoclinic'
loop_
_space_group_symop_operation_xyz
x,y,z
-x,1/2+y,-z
loop_
_atom_site_type_symbol
_atom_site_label
_atom_site_fract_x
_atom_site_fract_y
_atom_site_fract_z
Si Si1 0.050229 0.769480 0.207806
Si Si2 0.695309 0.519244 0.512038
Si Si3 0.447511 0.821765 0.636578
Si Si4 0.632306 0.720871 0.216306
Si Si5 0.867310 0.852060 0.986596
Si Si6 0.505262 0.006230 0.960772
Si Si7 0.965919 0.507675 0.480603
Si Si8 0.715333 0.098135 0.098043
O O1 0.044904 0.922580 0.293424
O O2 0.957588 0.772488 0.076074
O O3 0.006116 0.662832 0.425201
O O4 0.184464 0.711341 0.044036
O O5 0.663849 0.415155 0.348858
O O6 0.677242 0.659044 0.406992
O O7 0.831594 0.500056 0.484502
O O8 0.600533 0.501933 0.778332
O O9 0.547587 0.838854 0.372120
O O10 0.391651 0.673414 0.688742
O O11 0.500017 0.871479 0.822617
O O12 0.755496 0.757862 0.996093
O O13 0.542654 0.623864 0.157650
O O14 0.792361 0.978467 0.148582
O O15 0.941448 0.923776 0.741204
O O16 0.639192 0.039099 0.953708
#
# Coordination Sequence:
#
# PCOD9118927 Si02
#       8
#     2   2   2   2   2   2   2   2
#     4  11  26  47  70 106 143 192 248 299 360 433
#     4  11  23  45  69 102 140 184 234 293 362 424
#     4  11  25  43  69 110 140 186 232 295 368 437
#     4  11  25  42  73 100 143 182 232 295 361 433
#     4  11  26  47  71 103 145 189 240 296 359 431
#     4  11  26  44  72 106 145 183 237 298 368 435
#     4  11  26  45  73 105 139 196 243 295 363 428
#     4  11  25  47  73 106 143 192 238 301 369 435
#
# _framework density 23.641069000000002
#
# number of rings (size 3 to 8) (size 9 to 14) (size 15 to 20)
#    0.000    1.000    2.500    2.250    8.750    6.000 
#    0.000    0.000    0.000    0.000    0.000    0.000 
#    0.000    0.000    0.000    0.000    0.000    0.000 
#
# Total GULP energy -89404.025568 kJ/mol
# GULP energy per Si atom -5587.751598 kJ/mol
# Density = 2.358726 g / cm^3
# Si number density = 23.641069 Si / 1000 Ang^3
#
#
#
# Elastic Constant Matrix: (Units=GPa)
#
#
# Indices 1 2 3 4 5 6 
#
# 1 138.5914 22.1580 26.2478 0.0000 -15.7962 0.0000
# 2 22.1580 65.3916 16.3635 0.0000 -2.7596 0.0000
# 3 26.2478 16.3635 51.8901 0.0000 -14.3456 0.0000
# 4 0.0000 0.0000 0.0000 44.1179 0.0000 2.4786
# 5 -15.7962 -2.7596 -14.3456 0.0000 28.1627 0.0000
# 6 0.0000 0.0000 0.0000 2.4786 0.0000 47.4328
#
#
#
# Elastic Compliance Matrix: (Units=1/GPa)
#
#
# Indices 1 2 3 4 5 6 
#
# 1 0.008417 -0.002031 -0.002755 0.000000 0.003119 0.000000
# 2 -0.002031 0.017128 -0.004917 0.000000 -0.001966 0.000000
# 3 -0.002755 -0.004917 0.025205 0.000000 0.010812 0.000000
# 4 0.000000 0.000000 0.000000 0.022733 0.000000 -0.001188
# 5 0.003119 -0.001966 0.010812 0.000000 0.042572 0.000000
# 6 0.000000 0.000000 0.000000 -0.001188 0.000000 0.021145
#
#
# Mechanical properties :
#
#
# Convention : Reuss Voigt Hill
#
# Bulk Modulus (GPa) = 31.90475 42.82352 37.36414
# Shear Modulus (GPa) = 29.93014 36.68292 33.30653
#
# Velocity S-wave (km/s) = 3.56198 3.94339 3.75753
# Velocity P-wave (km/s) = 5.51740 6.23595 5.88765
#
# Compressibility (1/GPa) = 0.03134329
#
# Stress axis : x y z
#
# Youngs Moduli (GPa) = 118.80066 58.38276 39.67490
#
# Poissons Ratio (x) = 0.11859 0.10931
# Poissons Ratio (y) = 0.24131 0.19510
# Poissons Ratio (z) = 0.32730 0.28709
#
# Static dielectric constant tensor:
#      x y z
#    x 1.872280 0.000000 -0.006270 
#    y 0.000000 2.026690 0.000000 
#    z -0.006270 0.000000 1.855440 
# 
# From -- ./inp_files/2823.got.cif
#   From: 2010.05.17/outbox.cif.g08.bks.cpg/sg4_2_cif.got.tgz:2823.got - 2010.06.03 18:43:04.
