data_PCOD9118332
_publ_section_title
;
Structure prediction by ZEFSAII (Michael W. Deem and Ramdas Pophale) SiO2 
 PCOD9118332
Probable space group: P 21
;
_chemical_formula_sum "Si O2"
_cell_formula_units_Z 14
_cell_length_a 8.530484
_cell_length_b 8.433545
_cell_length_c 7.927004
_cell_angle_alpha 90.000000
_cell_angle_beta 102.520384
_cell_angle_gamma 90.000000
_cell_volume 556.724261
_symmetry_space_group_name_H-M "P 21"
_symmetry_group_IT_number 4
_symmetry_cell_setting 'monoclinic'
loop_
_space_group_symop_operation_xyz
x,y,z
-x,1/2+y,-z
loop_
_atom_site_type_symbol
_atom_site_label
_atom_site_fract_x
_atom_site_fract_y
_atom_site_fract_z
Si Si1 0.756793 0.405400 0.504537
Si Si2 0.370394 0.459682 0.652596
Si Si3 0.564393 0.785323 0.656554
Si Si4 0.200171 0.458193 0.079393
Si Si5 0.957990 0.047747 0.259561
Si Si6 0.092567 0.884492 0.822838
Si Si7 0.340553 0.796541 0.144518
O O1 0.582203 0.412010 0.379306
O O2 0.858767 0.366304 0.360636
O O3 0.717030 0.309864 0.671123
O O4 0.873464 0.535820 0.610196
O O5 0.483695 0.612932 0.640582
O O6 0.348103 0.337666 0.494163
O O7 0.198559 0.530941 0.659689
O O8 0.476574 0.359555 0.810750
O O9 0.683570 0.819277 0.835182
O O10 0.310950 0.614639 0.083355
O O11 0.061919 0.492957 0.185936
O O12 0.092448 0.417572 0.891437
O O13 0.965697 0.206339 0.153378
O O14 0.237544 0.904034 0.989718
#
# Coordination Sequence:
#
# PCOD9118332 Si02
#       7
#     2   2   2   2   2   2   2
#     4  11  23  43  68  98 141 182 236 284 356 420
#     4  11  24  45  72 101 149 185 242 294 361 424
#     4  11  24  43  70 107 137 191 236 298 356 428
#     4  11  25  44  72 102 144 182 240 298 359 420
#     4  11  25  46  69 103 143 190 239 296 354 430
#     4  11  24  44  73 100 145 186 240 293 357 423
#     4  10  25  47  68 105 141 186 233 303 355 429
#
# _framework density 25.147098
#
# number of rings (size 3 to 8) (size 9 to 14) (size 15 to 20)
#    0.000    1.143    2.857    2.571    8.000    0.000 
#    2.571    0.000    0.000    0.000    0.000    0.000 
#    0.000    0.000    0.000    0.000    0.000    0.000 
#
# Total GULP energy -78016.452319 kJ/mol
# GULP energy per Si atom -5572.603737 kJ/mol
# Density = 2.508986 g / cm^3
# Si number density = 25.147098 Si / 1000 Ang^3
#
#
#
# Elastic Constant Matrix: (Units=GPa)
#
#
# Indices 1 2 3 4 5 6 
#
# 1 53.4927 27.5930 5.4275 0.0000 9.7555 0.0000
# 2 27.5930 43.1410 20.6498 0.0000 9.0201 0.0000
# 3 5.4275 20.6498 97.6415 0.0000 11.7527 0.0000
# 4 0.0000 0.0000 0.0000 26.6628 0.0000 7.8460
# 5 9.7555 9.0201 11.7527 0.0000 47.9763 0.0000
# 6 0.0000 0.0000 0.0000 7.8460 0.0000 31.0359
#
#
#
# Elastic Compliance Matrix: (Units=1/GPa)
#
#
# Indices 1 2 3 4 5 6 
#
# 1 0.028835 -0.019170 0.002806 0.000000 -0.002947 0.000000
# 2 -0.019170 0.039160 -0.007006 0.000000 -0.001748 0.000000
# 3 0.002806 -0.007006 0.011826 0.000000 -0.002150 0.000000
# 4 0.000000 0.000000 0.000000 0.040520 0.000000 -0.010244
# 5 -0.002947 -0.001748 -0.002150 0.000000 0.022298 0.000000
# 6 0.000000 0.000000 0.000000 -0.010244 0.000000 0.034810
#
#
# Mechanical properties :
#
#
# Convention : Reuss Voigt Hill
#
# Bulk Modulus (GPa) = 30.22831 33.51286 31.87059
# Shear Modulus (GPa) = 21.25701 30.50866 25.88284
#
# Velocity S-wave (km/s) = 2.91057 3.48689 3.21168
# Velocity P-wave (km/s) = 4.83135 5.43754 5.14338
#
# Compressibility (1/GPa) = 0.03308157
#
# Stress axis : x y z
#
# Youngs Moduli (GPa) = 34.67976 25.53630 84.55920
#
# Poissons Ratio (x) = 0.48953 -0.23728
# Poissons Ratio (y) = 0.66482 0.59240
# Poissons Ratio (z) = -0.09731 0.17890
#
# Static dielectric constant tensor:
#      x y z
#    x 2.084110 0.000000 -0.096720 
#    y 0.000000 2.029700 0.000000 
#    z -0.096720 0.000000 2.066160 
# 
# From -- ./inp_files/5362.got.cif
#   From: 2010.05.17/outbox.cif.g08.bks.cpg/sg4_3_cif.got.tgz:5362.got - 2010.06.03 18:43:04.
