data_PCOD9118566
_publ_section_title
;
Structure prediction by ZEFSAII (Michael W. Deem and Ramdas Pophale) SiO2 
 PCOD9118566
Probable space group: P 21
;
_chemical_formula_sum "Si O2"
_cell_formula_units_Z 14
_cell_length_a 12.463019
_cell_length_b 5.196869
_cell_length_c 9.333200
_cell_angle_alpha 90.000000
_cell_angle_beta 95.151354
_cell_angle_gamma 90.000000
_cell_volume 602.057439
_symmetry_space_group_name_H-M "P 21"
_symmetry_group_IT_number 4
_symmetry_cell_setting 'monoclinic'
loop_
_space_group_symop_operation_xyz
x,y,z
-x,1/2+y,-z
loop_
_atom_site_type_symbol
_atom_site_label
_atom_site_fract_x
_atom_site_fract_y
_atom_site_fract_z
Si Si1 0.596212 0.150510 0.592206
Si Si2 0.041724 0.617148 0.086275
Si Si3 0.362997 0.294686 0.647222
Si Si4 0.252355 0.337337 0.178525
Si Si5 0.574948 0.719804 0.025752
Si Si6 0.769467 0.507129 0.580527
Si Si7 0.962687 0.151903 0.579050
O O1 0.471816 0.147161 0.611864
O O2 0.652699 0.421441 0.624223
O O3 0.620788 0.063817 0.433104
O O4 0.660978 0.968812 0.706832
O O5 0.168454 0.539655 0.102479
O O6 0.006748 0.633805 0.249618
O O7 0.981860 0.383688 0.997404
O O8 0.371397 0.296083 0.816826
O O9 0.258002 0.162772 0.565940
O O10 0.182648 0.163433 0.280316
O O11 0.324964 0.195455 0.070728
O O12 0.505189 0.457100 0.024237
O O13 0.840505 0.257558 0.561892
O O14 0.022531 0.382646 0.500834
#
# Coordination Sequence:
#
# PCOD9118566 Si02
#       7
#     2   2   2   2   2   2   2
#     4  11  21  41  72  99 141 191 241 290 351 440
#     4  12  27  50  80 112 147 198 253 313 386 465
#     4  11  24  39  69 108 143 191 241 294 354 432
#     4  11  25  47  74 101 144 202 243 295 374 445
#     4  12  28  45  68 106 154 195 241 298 361 433
#     4  11  24  45  75 103 143 193 246 300 368 438
#     4  12  27  51  80 111 148 194 255 324 380 439
#
# _framework density 23.253595000000001
#
# number of rings (size 3 to 8) (size 9 to 14) (size 15 to 20)
#    0.000    0.571    4.286    3.429    6.000    1.143 
#    2.571    1.429    0.000    0.000    0.000    0.000 
#    0.000    0.000    0.000    0.000    0.000    0.000 
#
# Total GULP energy -78289.784391 kJ/mol
# GULP energy per Si atom -5592.127456 kJ/mol
# Density = 2.320067 g / cm^3
# Si number density = 23.253595 Si / 1000 Ang^3
#
#
#
# Elastic Constant Matrix: (Units=GPa)
#
#
# Indices 1 2 3 4 5 6 
#
# 1 89.0152 29.1807 38.6730 0.0000 -2.3304 0.0000
# 2 29.1807 93.4238 38.7359 0.0000 11.5472 0.0000
# 3 38.6730 38.7359 164.0402 0.0000 -1.4665 0.0000
# 4 0.0000 0.0000 0.0000 38.3404 0.0000 2.6948
# 5 -2.3304 11.5472 -1.4665 0.0000 30.8544 0.0000
# 6 0.0000 0.0000 0.0000 2.6948 0.0000 47.5925
#
#
#
# Elastic Compliance Matrix: (Units=1/GPa)
#
#
# Indices 1 2 3 4 5 6 
#
# 1 0.013453 -0.003514 -0.002322 0.000000 0.002221 0.000000
# 2 -0.003514 0.013466 -0.002400 0.000000 -0.005419 0.000000
# 3 -0.002322 -0.002400 0.007220 0.000000 0.001066 0.000000
# 4 0.000000 0.000000 0.000000 0.026186 0.000000 -0.001483
# 5 0.002221 -0.005419 0.001066 0.000000 0.034657 0.000000
# 6 0.000000 0.000000 0.000000 -0.001483 0.000000 0.021096
#
#
# Mechanical properties :
#
#
# Convention : Reuss Voigt Hill
#
# Bulk Modulus (GPa) = 56.60085 62.18427 59.39256
# Shear Modulus (GPa) = 36.11725 39.35013 37.73369
#
# Velocity S-wave (km/s) = 3.94533 4.11812 4.03265
# Velocity P-wave (km/s) = 6.71920 7.02935 6.87602
#
# Compressibility (1/GPa) = 0.01766758
#
# Stress axis : x y z
#
# Youngs Moduli (GPa) = 74.33395 74.25950 138.50933
#
# Poissons Ratio (x) = 0.26092 0.32162
# Poissons Ratio (y) = 0.26118 0.33242
# Poissons Ratio (z) = 0.17260 0.17822
#
# Static dielectric constant tensor:
#      x y z
#    x 1.909530 0.000000 -0.006060 
#    y 0.000000 1.950930 0.000000 
#    z -0.006060 0.000000 1.890870 
# 
# From -- ./inp_files/7407.got.cif
#   From: 2010.05.17/outbox.cif.g08.bks.cpg/sg4_4_cif.got.tgz:7407.got - 2010.06.03 18:43:04.
