data_PCOD9118331
_publ_section_title
;
Structure prediction by ZEFSAII (Michael W. Deem and Ramdas Pophale) SiO2 
 PCOD9118331
Probable space group: P 21
;
_chemical_formula_sum "Si O2"
_cell_formula_units_Z 14
_cell_length_a 13.414046
_cell_length_b 8.282291
_cell_length_c 9.371053
_cell_angle_alpha 90.000000
_cell_angle_beta 35.682946
_cell_angle_gamma 90.000000
_cell_volume 607.281782
_symmetry_space_group_name_H-M "P 21"
_symmetry_group_IT_number 4
_symmetry_cell_setting 'monoclinic'
loop_
_space_group_symop_operation_xyz
x,y,z
-x,1/2+y,-z
loop_
_atom_site_type_symbol
_atom_site_label
_atom_site_fract_x
_atom_site_fract_y
_atom_site_fract_z
Si Si1 0.346719 0.731710 0.781102
Si Si2 0.168908 0.593642 0.469335
Si Si3 0.511393 0.511708 0.195467
Si Si4 0.900014 0.029589 0.760153
Si Si5 0.185144 0.191402 0.003001
Si Si6 0.345538 0.016479 0.574266
Si Si7 0.725546 0.465946 0.671696
O O1 0.453457 0.845742 0.763708
O O2 0.463297 0.577224 0.612389
O O3 0.310691 0.843858 0.687714
O O4 0.183001 0.676299 0.058609
O O5 0.310772 0.541282 0.417888
O O6 0.178541 0.504781 0.305699
O O7 0.218632 0.779500 0.378494
O O8 0.976356 0.588168 0.752832
O O9 0.638108 0.640520 0.123929
O O10 0.580636 0.503663 0.953531
O O11 0.865162 0.872738 0.898042
O O12 0.099579 0.061375 0.503095
O O13 0.221270 0.144748 0.796983
O O14 0.328203 0.001703 0.426581
#
# Coordination Sequence:
#
# PCOD9118331 Si02
#       7
#     2   2   2   2   2   2   2
#     4  11  25  46  71 102 140 192 235 300 362 433
#     4  11  24  43  71 107 136 188 241 303 348 421
#     4  11  24  44  74 100 137 182 242 292 361 421
#     4  11  23  44  74 100 145 182 244 298 354 417
#     4  10  25  47  68 101 143 187 232 297 363 429
#     4  11  26  46  67 105 145 184 242 289 372 428
#     4  11  25  44  69 107 140 183 242 297 356 429
#
# _framework density 23.053547999999999
#
# number of rings (size 3 to 8) (size 9 to 14) (size 15 to 20)
#    0.000    1.143    2.857    1.714    8.000    2.286 
#   10.286    0.000    0.000    0.000    0.000    0.000 
#    0.000    0.000    0.000    0.000    0.000    0.000 
#
# Total GULP energy -78344.736605 kJ/mol
# GULP energy per Si atom -5596.052615 kJ/mol
# Density = 2.300108 g / cm^3
# Si number density = 23.053548 Si / 1000 Ang^3
#
#
#
# Elastic Constant Matrix: (Units=GPa)
#
#
# Indices 1 2 3 4 5 6 
#
# 1 86.9991 -0.3732 25.3679 0.0000 8.0755 0.0000
# 2 -0.3732 33.9421 2.6066 0.0000 0.5040 0.0000
# 3 25.3679 2.6066 68.1323 0.0000 12.0411 0.0000
# 4 0.0000 0.0000 0.0000 40.5997 0.0000 3.0629
# 5 8.0755 0.5040 12.0411 0.0000 45.9610 0.0000
# 6 0.0000 0.0000 0.0000 3.0629 0.0000 29.8958
#
#
#
# Elastic Compliance Matrix: (Units=1/GPa)
#
#
# Indices 1 2 3 4 5 6 
#
# 1 0.012952 0.000516 -0.004655 0.000000 -0.001062 0.000000
# 2 0.000516 0.029569 -0.001311 0.000000 -0.000072 0.000000
# 3 -0.004655 -0.001311 0.017105 0.000000 -0.003649 0.000000
# 4 0.000000 0.000000 0.000000 0.024823 0.000000 -0.002543
# 5 -0.001062 -0.000072 -0.003649 0.000000 0.022901 0.000000
# 6 0.000000 0.000000 0.000000 -0.002543 0.000000 0.033710
#
#
# Mechanical properties :
#
#
# Convention : Reuss Voigt Hill
#
# Bulk Modulus (GPa) = 20.52214 27.14181 23.83197
# Shear Modulus (GPa) = 29.72602 34.05609 31.89105
#
# Velocity S-wave (km/s) = 3.59476 3.84768 3.72337
# Velocity P-wave (km/s) = 5.11381 5.61591 5.37073
#
# Compressibility (1/GPa) = 0.04872787
#
# Stress axis : x y z
#
# Youngs Moduli (GPa) = 77.20570 33.81888 58.46080
#
# Poissons Ratio (x) = -0.01744 0.27212
# Poissons Ratio (y) = -0.03981 0.07662
# Poissons Ratio (z) = 0.35937 0.04432
#
# Static dielectric constant tensor:
#      x y z
#    x 1.873270 0.000000 -0.000170 
#    y 0.000000 1.890610 0.000000 
#    z -0.000170 0.000000 1.857930 
# 
# From -- ./inp_files/5345.got.cif
#   From: 2010.05.17/outbox.cif.g08.bks.cpg/sg4_3_cif.got.tgz:5345.got - 2010.06.03 18:43:04.
