data_PCOD9118396
_publ_section_title
;
Structure prediction by ZEFSAII (Michael W. Deem and Ramdas Pophale) SiO2 
 PCOD9118396
Probable space group: P 21
;
_chemical_formula_sum "Si O2"
_cell_formula_units_Z 16
_cell_length_a 14.379761
_cell_length_b 5.122872
_cell_length_c 21.471402
_cell_angle_alpha 90.000000
_cell_angle_beta 22.656493
_cell_angle_gamma 90.000000
_cell_volume 609.281448
_symmetry_space_group_name_H-M "P 21"
_symmetry_group_IT_number 4
_symmetry_cell_setting 'monoclinic'
loop_
_space_group_symop_operation_xyz
x,y,z
-x,1/2+y,-z
loop_
_atom_site_type_symbol
_atom_site_label
_atom_site_fract_x
_atom_site_fract_y
_atom_site_fract_z
Si Si1 0.899877 0.113080 0.082854
Si Si2 0.595801 0.641600 0.406901
Si Si3 0.043517 0.965986 0.125153
Si Si4 0.431165 0.811943 0.371795
Si Si5 0.816665 0.799323 0.524909
Si Si6 0.249553 0.346684 0.083641
Si Si7 0.735896 0.102057 0.804658
Si Si8 0.554135 0.725340 0.813680
O O1 0.678151 0.942737 0.193750
O O2 0.916694 0.112592 0.146464
O O3 0.890360 0.409171 0.066610
O O4 0.480494 0.858108 0.523745
O O5 0.496951 0.706075 0.399336
O O6 0.882559 0.706420 0.231611
O O7 0.053323 0.146327 0.179669
O O8 0.324161 0.909326 0.937630
O O9 0.266059 0.068592 0.470617
O O10 0.308183 0.575366 0.411231
O O11 0.731183 0.701324 0.645652
O O12 0.100948 0.805518 0.334836
O O13 0.159909 0.543274 0.191428
O O14 0.462459 0.189886 0.986266
O O15 0.399571 0.482482 0.935302
O O16 0.700767 0.861668 0.778901
#
# Coordination Sequence:
#
# PCOD9118396 Si02
#       8
#     2   2   2   2   2   2   2   2
#     4  11  23  42  74 105 153 194 246 309 375 449
#     4  11  26  47  74 110 156 202 259 312 381 454
#     4  10  26  43  76 107 148 207 251 322 373 466
#     4  11  26  47  67 114 148 197 253 307 377 456
#     4  12  29  46  80 110 158 201 252 319 387 460
#     4  11  25  49  74 109 148 199 265 309 395 454
#     4  11  27  48  76 108 150 202 255 328 381 463
#     4  11  26  46  75 111 151 200 261 312 395 460
#
# _framework density 26.260444
#
# number of rings (size 3 to 8) (size 9 to 14) (size 15 to 20)
#    0.000    1.000    1.250    3.000   14.000    3.000 
#    0.000    0.000    0.000    0.000    0.000    0.000 
#    0.000    0.000    0.000    0.000    0.000    0.000 
#
# Total GULP energy -89606.456038 kJ/mol
# GULP energy per Si atom -5600.403502 kJ/mol
# Density = 2.620067 g / cm^3
# Si number density = 26.260444 Si / 1000 Ang^3
#
#
#
# Elastic Constant Matrix: (Units=GPa)
#
#
# Indices 1 2 3 4 5 6 
#
# 1 75.8990 22.3991 24.0021 0.0000 1.4828 0.0000
# 2 22.3991 101.7602 20.3464 0.0000 -6.8114 0.0000
# 3 24.0021 20.3464 106.7627 0.0000 8.3936 0.0000
# 4 0.0000 0.0000 0.0000 42.0877 0.0000 0.9441
# 5 1.4828 -6.8114 8.3936 0.0000 23.0927 0.0000
# 6 0.0000 0.0000 0.0000 0.9441 0.0000 41.1778
#
#
#
# Elastic Compliance Matrix: (Units=1/GPa)
#
#
# Indices 1 2 3 4 5 6 
#
# 1 0.014881 -0.002776 -0.002756 0.000000 -0.000773 0.000000
# 2 -0.002776 0.011074 -0.001809 0.000000 0.004102 0.000000
# 3 -0.002756 -0.001809 0.010664 0.000000 -0.004233 0.000000
# 4 0.000000 0.000000 0.000000 0.023772 0.000000 -0.000545
# 5 -0.000773 0.004102 -0.004233 0.000000 0.046102 0.000000
# 6 0.000000 0.000000 0.000000 -0.000545 0.000000 0.024297
#
#
# Mechanical properties :
#
#
# Convention : Reuss Voigt Hill
#
# Bulk Modulus (GPa) = 45.58417 46.43524 46.00970
# Shear Modulus (GPa) = 32.72573 35.78325 34.25449
#
# Velocity S-wave (km/s) = 3.53398 3.69539 3.61559
# Velocity P-wave (km/s) = 5.83509 5.99406 5.91511
#
# Compressibility (1/GPa) = 0.02193744
#
# Stress axis : x y z
#
# Youngs Moduli (GPa) = 67.19831 90.29829 93.77707
#
# Poissons Ratio (x) = 0.25070 0.25842
# Poissons Ratio (y) = 0.18657 0.16963
# Poissons Ratio (z) = 0.18518 0.16334
#
# Static dielectric constant tensor:
#      x y z
#    x 2.062540 0.000000 -0.110040 
#    y 0.000000 2.119530 0.000000 
#    z -0.110040 0.000000 2.309140 
# 
# From -- ./inp_files/15068.got.cif
#   From: 2010.05.17/outbox.cif.g08.bks.cpg/sg4_8_cif.got.tgz:15068.got - 2010.06.03 18:43:04.
