data_PCOD9118276
_publ_section_title
;
Structure prediction by ZEFSAII (Michael W. Deem and Ramdas Pophale) SiO2 
 PCOD9118276
Probable space group: P 21
;
_chemical_formula_sum "Si O2"
_cell_formula_units_Z 16
_cell_length_a 8.244228
_cell_length_b 13.122576
_cell_length_c 9.130990
_cell_angle_alpha 90.000000
_cell_angle_beta 44.009253
_cell_angle_gamma 90.000000
_cell_volume 686.326626
_symmetry_space_group_name_H-M "P 21"
_symmetry_group_IT_number 4
_symmetry_cell_setting 'monoclinic'
loop_
_space_group_symop_operation_xyz
x,y,z
-x,1/2+y,-z
loop_
_atom_site_type_symbol
_atom_site_label
_atom_site_fract_x
_atom_site_fract_y
_atom_site_fract_z
Si Si1 0.601156 0.625000 0.121364
Si Si2 0.414875 0.939653 0.067059
Si Si3 0.054896 0.182180 0.733214
Si Si4 0.523512 0.065856 0.492091
Si Si5 0.781084 0.994645 0.054045
Si Si6 0.838239 0.275818 0.600546
Si Si7 0.832385 0.359606 0.044546
Si Si8 0.914716 0.223244 0.236694
O O1 0.618786 0.556322 0.963938
O O2 0.548899 0.547830 0.291409
O O3 0.401821 0.710384 0.246179
O O4 0.840101 0.686545 0.985979
O O5 0.368029 0.879686 0.944996
O O6 0.221694 0.886936 0.296295
O O7 0.656583 0.936531 0.999711
O O8 0.310169 0.136370 0.580857
O O9 0.997119 0.208393 0.603693
O O10 0.870846 0.102310 0.927336
O O11 0.017763 0.289563 0.836839
O O12 0.586717 0.997181 0.310497
O O13 0.768779 0.121813 0.355367
O O14 0.008304 0.945598 0.982170
O O15 0.940347 0.280015 0.372816
O O16 0.759597 0.291109 0.228881
#
# Coordination Sequence:
#
# PCOD9118276 Si02
#       8
#     2   2   2   2   2   2   2   2
#     4  11  22  47  70 102 148 186 243 297 355 431
#     4  11  25  43  73 104 142 186 239 296 357 427
#     4  11  23  47  67 105 150 186 236 301 356 430
#     4  11  23  42  75 100 139 195 234 291 366 429
#     4  12  25  47  73 108 146 190 239 302 361 425
#     4  10  25  43  70 107 140 192 240 292 364 426
#     4  11  24  48  71 103 148 187 240 295 362 421
#     4  11  23  45  73 101 143 194 235 298 359 425
#
# _framework density 23.312518000000001
#
# number of rings (size 3 to 8) (size 9 to 14) (size 15 to 20)
#    0.000    1.000    3.750    2.250    3.500    2.000 
#    2.250    3.750    0.000    0.000    0.000    0.000 
#    0.000    0.000    0.000    0.000    0.000    0.000 
#
# Total GULP energy -89234.527114 kJ/mol
# GULP energy per Si atom -5577.157945 kJ/mol
# Density = 2.325946 g / cm^3
# Si number density = 23.312518 Si / 1000 Ang^3
#
#
#
# Elastic Constant Matrix: (Units=GPa)
#
#
# Indices 1 2 3 4 5 6 
#
# 1 114.5284 14.2209 29.9816 0.0000 23.5516 0.0000
# 2 14.2209 45.5726 10.8860 0.0000 9.8392 0.0000
# 3 29.9816 10.8860 66.4851 0.0000 17.9616 0.0000
# 4 0.0000 0.0000 0.0000 21.3305 0.0000 8.4935
# 5 23.5516 9.8392 17.9616 0.0000 41.5881 0.0000
# 6 0.0000 0.0000 0.0000 8.4935 0.0000 45.0024
#
#
#
# Elastic Compliance Matrix: (Units=1/GPa)
#
#
# Indices 1 2 3 4 5 6 
#
# 1 0.010690 -0.001613 -0.003424 0.000000 -0.004194 0.000000
# 2 -0.001613 0.023776 -0.002143 0.000000 -0.003786 0.000000
# 3 -0.003424 -0.002143 0.018425 0.000000 -0.005512 0.000000
# 4 0.000000 0.000000 0.000000 0.050691 0.000000 -0.009567
# 5 -0.004194 -0.003786 -0.005512 0.000000 0.029697 0.000000
# 6 0.000000 0.000000 0.000000 -0.009567 0.000000 0.024027
#
#
# Mechanical properties :
#
#
# Convention : Reuss Voigt Hill
#
# Bulk Modulus (GPa) = 25.95227 37.41813 31.68520
# Shear Modulus (GPa) = 27.09918 33.01735 30.05826
#
# Velocity S-wave (km/s) = 3.41314 3.76745 3.59466
# Velocity P-wave (km/s) = 5.16616 5.91696 5.55426
#
# Compressibility (1/GPa) = 0.03853228
#
# Stress axis : x y z
#
# Youngs Moduli (GPa) = 93.54170 42.06004 54.27463
#
# Poissons Ratio (x) = 0.06783 0.18583
# Poissons Ratio (y) = 0.15085 0.11630
# Poissons Ratio (z) = 0.32027 0.09013
#
# Static dielectric constant tensor:
#      x y z
#    x 1.887000 0.000000 0.069650 
#    y 0.000000 1.935430 0.000000 
#    z 0.069650 0.000000 1.892420 
# 
# From -- ./inp_files/6544.got.cif
#   From: 2010.05.17/outbox.cif.g08.bks.cpg/sg4_4_cif.got.tgz:6544.got - 2010.06.03 18:43:04.
