data_PCOD9118833
_publ_section_title
;
Structure prediction by ZEFSAII (Michael W. Deem and Ramdas Pophale) SiO2 
 PCOD9118833
Probable space group: P 21
;
_chemical_formula_sum "Si O2"
_cell_formula_units_Z 12
_cell_length_a 28.195895
_cell_length_b 4.993423
_cell_length_c 21.536122
_cell_angle_alpha 90.000000
_cell_angle_beta 169.105234
_cell_angle_gamma 90.000000
_cell_volume 573.095156
_symmetry_space_group_name_H-M "P 21"
_symmetry_group_IT_number 4
_symmetry_cell_setting 'monoclinic'
loop_
_space_group_symop_operation_xyz
x,y,z
-x,1/2+y,-z
loop_
_atom_site_type_symbol
_atom_site_label
_atom_site_fract_x
_atom_site_fract_y
_atom_site_fract_z
Si Si1 0.826895 0.211580 0.771164
Si Si2 0.549773 0.888973 0.605492
Si Si3 0.350914 0.548406 0.592400
Si Si4 0.830831 0.416100 0.279571
Si Si5 0.464083 0.183551 0.912820
Si Si6 0.885058 0.552228 0.643593
O O1 0.624230 0.300237 0.561343
O O2 0.701100 0.121312 0.545260
O O3 0.010116 0.462295 0.994769
O O4 0.571506 0.638272 0.586851
O O5 0.824414 0.979242 0.980230
O O6 0.275142 0.800365 0.537707
O O7 0.179900 0.300360 0.394877
O O8 0.638378 0.474048 0.976293
O O9 0.033160 0.187971 0.525746
O O10 0.660460 0.299879 0.115707
O O11 0.213055 0.126360 0.550934
O O12 0.437550 0.411306 0.930354
#
# Coordination Sequence:
#
# PCOD9118833 Si02
#       6
#     2   2   2   2   2   2
#     4  12  25  43  68  97 130 169 213 264 319 380
#     4  12  25  43  68  97 130 169 213 264 319 380
#     4  11  23  43  67  94 129 172 215 263 319 378
#     4  11  23  42  67  95 129 169 214 265 320 378
#     4  11  23  42  67  95 129 169 214 265 320 378
#     4  11  23  43  67  94 129 172 215 263 319 378
#
# _framework density 20.938931
#
# number of rings (size 3 to 8) (size 9 to 14) (size 15 to 20)
#    0.000    0.667    0.000   11.000    0.000    1.333 
#    0.000   10.000    0.000    2.000    0.000    0.000 
#    0.000    0.000    0.000    0.000    0.000    0.000 
#
# Total GULP energy -67234.674435 kJ/mol
# GULP energy per Si atom -5602.889536 kJ/mol
# Density = 2.089127 g / cm^3
# Si number density = 20.938931 Si / 1000 Ang^3
#
#
#
# Elastic Constant Matrix: (Units=GPa)
#
#
# Indices 1 2 3 4 5 6 
#
# 1 124.7832 64.5584 96.2301 0.0000 -30.0655 0.0000
# 2 64.5584 168.2979 78.9930 0.0000 -16.4969 0.0000
# 3 96.2301 78.9930 175.5451 0.0000 -28.3533 0.0000
# 4 0.0000 0.0000 0.0000 44.7728 0.0000 1.2497
# 5 -30.0655 -16.4969 -28.3533 0.0000 25.2834 0.0000
# 6 0.0000 0.0000 0.0000 1.2497 0.0000 45.8404
#
#
#
# Elastic Compliance Matrix: (Units=1/GPa)
#
#
# Indices 1 2 3 4 5 6 
#
# 1 0.016887 -0.002383 -0.006341 0.000000 0.011415 0.000000
# 2 -0.002383 0.007907 -0.002292 0.000000 -0.000243 0.000000
# 3 -0.006341 -0.002292 0.010679 0.000000 0.002939 0.000000
# 4 0.000000 0.000000 0.000000 0.022352 0.000000 -0.000609
# 5 0.011415 -0.000243 0.002939 0.000000 0.056263 0.000000
# 6 0.000000 0.000000 0.000000 -0.000609 0.000000 0.021831
#
#
# Mechanical properties :
#
#
# Convention : Reuss Voigt Hill
#
# Bulk Modulus (GPa) = 74.39059 105.35435 89.87247
# Shear Modulus (GPa) = 30.78209 38.43564 34.60886
#
# Velocity S-wave (km/s) = 3.83833 4.28905 4.06993
# Velocity P-wave (km/s) = 7.43292 8.65749 8.06847
#
# Compressibility (1/GPa) = 0.01344256
#
# Stress axis : x y z
#
# Youngs Moduli (GPa) = 59.21593 126.46269 93.64471
#
# Poissons Ratio (x) = 0.30130 0.59384
# Poissons Ratio (y) = 0.14108 0.21459
# Poissons Ratio (z) = 0.37551 0.28979
#
# Static dielectric constant tensor:
#      x y z
#    x 1.718290 0.000000 -0.013690 
#    y 0.000000 1.746600 0.000000 
#    z -0.013690 0.000000 1.730120 
# 
# From -- ./inp_files/15960.got.cif
#   From: 2010.05.17/outbox.cif.g08.bks.cpg/sg4_8_cif.got.tgz:15960.got - 2010.06.03 18:43:04.
