data_PCOD9118796
_publ_section_title
;
Structure prediction by ZEFSAII (Michael W. Deem and Ramdas Pophale) SiO2 
 PCOD9118796
Probable space group: P 21
;
_chemical_formula_sum "Si O2"
_cell_formula_units_Z 12
_cell_length_a 7.455925
_cell_length_b 15.889482
_cell_length_c 7.488155
_cell_angle_alpha 90.000000
_cell_angle_beta 141.820619
_cell_angle_gamma 90.000000
_cell_volume 548.356241
_symmetry_space_group_name_H-M "P 21"
_symmetry_group_IT_number 4
_symmetry_cell_setting 'monoclinic'
loop_
_space_group_symop_operation_xyz
x,y,z
-x,1/2+y,-z
loop_
_atom_site_type_symbol
_atom_site_label
_atom_site_fract_x
_atom_site_fract_y
_atom_site_fract_z
Si Si1 0.989604 0.254770 0.762087
Si Si2 0.987404 0.283682 0.170284
Si Si3 0.388280 0.688518 0.831997
Si Si4 0.517933 0.898236 0.324247
Si Si5 0.735620 0.442835 0.517108
Si Si6 0.327195 0.501990 0.887119
O O1 0.772286 0.194611 0.484439
O O2 0.875670 0.349332 0.634102
O O3 0.995781 0.243148 0.980289
O O4 0.313979 0.240497 0.944713
O O5 0.831781 0.227967 0.196520
O O6 0.301552 0.315781 0.476647
O O7 0.789207 0.367048 0.992638
O O8 0.449093 0.593363 0.936228
O O9 0.451770 0.950882 0.450163
O O10 0.684716 0.948722 0.303808
O O11 0.004227 0.506228 0.714042
O O12 0.530721 0.455271 0.187869
#
# Coordination Sequence:
#
# PCOD9118796 Si02
#       6
#     2   2   2   2   2   2
#     4  11  23  42  65  90 122 166 215 260 306 370
#     4  11  23  40  65  91 118 163 214 255 302 367
#     4  12  25  40  63  95 131 165 202 261 325 375
#     4  11  23  40  65  91 118 163 214 255 302 367
#     4  11  23  42  65  90 122 166 215 260 306 370
#     4  12  25  40  63  95 131 165 202 261 325 375
#
# _framework density 21.883583000000002
#
# number of rings (size 3 to 8) (size 9 to 14) (size 15 to 20)
#    0.000    0.667    0.000   11.000    0.000    2.667 
#    0.000    0.000    0.000    0.000    0.000    0.000 
#    0.000    0.000    0.000    0.000    0.000    0.000 
#
# Total GULP energy -67197.049497 kJ/mol
# GULP energy per Si atom -5599.754125 kJ/mol
# Density = 2.183377 g / cm^3
# Si number density = 21.883583 Si / 1000 Ang^3
#
#
#
# Elastic Constant Matrix: (Units=GPa)
#
#
# Indices 1 2 3 4 5 6 
#
# 1 106.7307 12.1388 34.4490 0.0000 -15.5385 0.0000
# 2 12.1388 21.2828 3.0654 0.0000 -16.5349 0.0000
# 3 34.4490 3.0654 107.7432 0.0000 -2.5608 0.0000
# 4 0.0000 0.0000 0.0000 24.5405 0.0000 3.0950
# 5 -15.5385 -16.5349 -2.5608 0.0000 34.9287 0.0000
# 6 0.0000 0.0000 0.0000 3.0950 0.0000 5.4218
#
#
#
# Elastic Compliance Matrix: (Units=1/GPa)
#
#
# Indices 1 2 3 4 5 6 
#
# 1 0.011340 -0.003556 -0.003451 0.000000 0.003108 0.000000
# 2 -0.003556 0.075612 -0.000201 0.000000 0.034197 0.000000
# 3 -0.003451 -0.000201 0.010370 0.000000 -0.000870 0.000000
# 4 0.000000 0.000000 0.000000 0.043910 0.000000 -0.025066
# 5 0.003108 0.034197 -0.000870 0.000000 0.046137 0.000000
# 6 0.000000 0.000000 0.000000 -0.025066 0.000000 0.198750
#
#
# Mechanical properties :
#
#
# Convention : Reuss Voigt Hill
#
# Bulk Modulus (GPa) = 12.06193 37.22923 24.64558
# Shear Modulus (GPa) = 11.67759 25.38512 18.53135
#
# Velocity S-wave (km/s) = 2.31253 3.40958 2.91317
# Velocity P-wave (km/s) = 3.55728 5.70523 4.75415
#
# Compressibility (1/GPa) = 0.08290544
#
# Stress axis : x y z
#
# Youngs Moduli (GPa) = 88.18242 13.22544 96.43482
#
# Poissons Ratio (x) = 0.04703 0.33277
# Poissons Ratio (y) = 0.31357 0.01943
# Poissons Ratio (z) = 0.30430 0.00266
#
# Static dielectric constant tensor:
#      x y z
#    x 1.792910 0.000000 -0.005160 
#    y 0.000000 1.782770 0.000000 
#    z -0.005160 0.000000 1.767860 
# 
# From -- ./inp_files/6926.got.cif
#   From: 2010.05.17/outbox.cif.g08.bks.cpg/sg4_4_cif.got.tgz:6926.got - 2010.06.03 18:43:04.
