data_PCOD9118867
_publ_section_title
;
Structure prediction by ZEFSAII (Michael W. Deem and Ramdas Pophale) SiO2 
 PCOD9118867
Probable space group: P 21
;
_chemical_formula_sum "Si O2"
_cell_formula_units_Z 14
_cell_length_a 7.679429
_cell_length_b 14.586685
_cell_length_c 4.889539
_cell_angle_alpha 90.000000
_cell_angle_beta 112.205536
_cell_angle_gamma 90.000000
_cell_volume 507.091824
_symmetry_space_group_name_H-M "P 21"
_symmetry_group_IT_number 4
_symmetry_cell_setting 'monoclinic'
loop_
_space_group_symop_operation_xyz
x,y,z
-x,1/2+y,-z
loop_
_atom_site_type_symbol
_atom_site_label
_atom_site_fract_x
_atom_site_fract_y
_atom_site_fract_z
Si Si1 0.905121 0.440490 0.454727
Si Si2 0.566040 0.796881 0.154910
Si Si3 0.592102 0.093306 0.439577
Si Si4 0.748921 0.624826 0.356331
Si Si5 0.889820 0.780529 0.741265
Si Si6 0.222646 0.781712 0.293197
Si Si7 0.277505 0.482410 0.983852
O O1 0.816007 0.530250 0.269276
O O2 0.760515 0.376459 0.534010
O O3 0.007204 0.369397 0.318186
O O4 0.062960 0.476602 0.758534
O O5 0.642888 0.698450 0.098673
O O6 0.675338 0.799741 0.515562
O O7 0.348454 0.792771 0.095313
O O8 0.636084 0.881999 0.022884
O O9 0.392834 0.100212 0.478230
O O10 0.693287 0.191755 0.517391
O O11 0.610068 0.049765 0.152778
O O12 0.704071 0.022308 0.704096
O O13 0.915490 0.684496 0.594868
O O14 0.002254 0.769084 0.089724
#
# Coordination Sequence:
#
# PCOD9118867 Si02
#       7
#     2   2   2   2   2   2   2
#     4  11  24  40  73  98 146 184 250 294 370 429
#     4   8  21  44  65 100 147 178 255 287 370 427
#     4  11  26  45  73 103 148 193 243 298 368 441
#     4   9  21  47  63 105 142 193 240 305 364 440
#     4   9  22  44  63 102 140 181 243 300 352 435
#     4  11  23  43  70 101 140 201 233 308 362 436
#     4  11  25  45  71 107 141 192 242 306 360 440
#
# _framework density 27.608414
#
# number of rings (size 3 to 8) (size 9 to 14) (size 15 to 20)
#    0.857    1.143    0.000    1.714   10.000    0.000 
#    2.571    1.429    0.000    0.000    0.000    0.000 
#    0.000    0.000    0.000    0.000    0.000    0.000 
#
# Total GULP energy -78420.990086 kJ/mol
# GULP energy per Si atom -5601.499292 kJ/mol
# Density = 2.754558 g / cm^3
# Si number density = 27.608414 Si / 1000 Ang^3
#
#
#
# Elastic Constant Matrix: (Units=GPa)
#
#
# Indices 1 2 3 4 5 6 
#
# 1 104.9155 39.4284 15.9479 0.0000 15.9614 0.0000
# 2 39.4284 233.2085 26.0080 0.0000 3.8711 0.0000
# 3 15.9479 26.0080 94.9666 0.0000 11.6770 0.0000
# 4 0.0000 0.0000 0.0000 21.9869 0.0000 5.7193
# 5 15.9614 3.8711 11.6770 0.0000 31.7079 0.0000
# 6 0.0000 0.0000 0.0000 5.7193 0.0000 56.0326
#
#
#
# Elastic Compliance Matrix: (Units=1/GPa)
#
#
# Indices 1 2 3 4 5 6 
#
# 1 0.011059 -0.001700 -0.000767 0.000000 -0.005077 0.000000
# 2 -0.001700 0.004685 -0.001081 0.000000 0.000682 0.000000
# 3 -0.000767 -0.001081 0.011408 0.000000 -0.003683 0.000000
# 4 0.000000 0.000000 0.000000 0.046722 0.000000 -0.004769
# 5 -0.005077 0.000682 -0.003683 0.000000 0.035367 0.000000
# 6 0.000000 0.000000 0.000000 -0.004769 0.000000 0.018334
#
#
# Mechanical properties :
#
#
# Convention : Reuss Voigt Hill
#
# Bulk Modulus (GPa) = 49.86401 66.20658 58.03530
# Shear Modulus (GPa) = 35.37153 45.39254 40.38203
#
# Velocity S-wave (km/s) = 3.58325 4.05922 3.82864
# Velocity P-wave (km/s) = 5.93464 6.78250 6.37269
#
# Compressibility (1/GPa) = 0.02005455
#
# Stress axis : x y z
#
# Youngs Moduli (GPa) = 90.42090 213.46118 87.65875
#
# Poissons Ratio (x) = 0.36287 0.06727
# Poissons Ratio (y) = 0.15371 0.09479
# Poissons Ratio (z) = 0.06939 0.23083
#
# Static dielectric constant tensor:
#      x y z
#    x 2.132420 0.000000 0.007630 
#    y 0.000000 2.124670 0.000000 
#    z 0.007630 0.000000 2.153490 
# 
# From -- ./inp_files/1671.got.cif
#   From: 2010.05.17/outbox.cif.g08.bks.cpg/sg4_1_cif.got.tgz:1671.got - 2010.06.03 18:43:04.
