data_PCOD9118680
_publ_section_title
;
Structure prediction by ZEFSAII (Michael W. Deem and Ramdas Pophale) SiO2 
 PCOD9118680
Probable space group: P 21
;
_chemical_formula_sum "Si O2"
_cell_formula_units_Z 16
_cell_length_a 14.694155
_cell_length_b 7.747840
_cell_length_c 9.170020
_cell_angle_alpha 90.000000
_cell_angle_beta 43.176019
_cell_angle_gamma 90.000000
_cell_volume 714.340432
_symmetry_space_group_name_H-M "P 21"
_symmetry_group_IT_number 4
_symmetry_cell_setting 'monoclinic'
loop_
_space_group_symop_operation_xyz
x,y,z
-x,1/2+y,-z
loop_
_atom_site_type_symbol
_atom_site_label
_atom_site_fract_x
_atom_site_fract_y
_atom_site_fract_z
Si Si1 0.559574 0.060280 0.600835
Si Si2 0.022637 0.469858 0.549678
Si Si3 0.595655 0.910285 0.250077
Si Si4 0.632527 0.257880 0.070088
Si Si5 0.935890 0.388042 0.194549
Si Si6 0.259163 0.716538 0.370421
Si Si7 0.912864 0.238694 0.912454
Si Si8 0.870551 0.752985 0.831266
O O1 0.507532 0.252655 0.623905
O O2 0.658803 0.092037 0.618246
O O3 0.622880 0.979701 0.381133
O O4 0.444335 0.925802 0.781771
O O5 0.138956 0.604002 0.445333
O O6 0.052424 0.389303 0.360267
O O7 0.015939 0.324662 0.679902
O O8 0.884743 0.573504 0.729477
O O9 0.556753 0.078203 0.199770
O O10 0.725922 0.822445 0.029606
O O11 0.656855 0.273266 0.868335
O O12 0.773407 0.229828 0.989218
O O13 0.809088 0.363202 0.449093
O O14 0.021160 0.560631 0.114120
O O15 0.043147 0.243037 0.122435
O O16 0.893646 0.351851 0.079526
#
# Coordination Sequence:
#
# PCOD9118680 Si02
#       8
#     2   2   2   2   2   2   2   2
#     4  12  29  49  76 104 146 201 257 301 367 437
#     4  11  23  41  71 105 144 188 231 302 379 444
#     4  12  25  48  74 105 144 201 246 308 364 436
#     4  12  26  51  75 102 152 195 247 310 362 448
#     4  11  23  41  70 103 146 177 241 305 365 460
#     4  11  26  48  69 109 142 187 248 305 370 443
#     4  12  24  44  70 109 143 195 235 302 386 434
#     4  11  22  42  71 103 143 184 239 299 371 444
#
# _framework density 22.398285999999999
#
# number of rings (size 3 to 8) (size 9 to 14) (size 15 to 20)
#    0.000    0.500    3.750    5.250    3.500    1.000 
#    2.250    0.000    0.000    0.000    0.000    0.000 
#    0.000    0.000    0.000    0.000    0.000    0.000 
#
# Total GULP energy -89478.775755 kJ/mol
# GULP energy per Si atom -5592.423485 kJ/mol
# Density = 2.234731 g / cm^3
# Si number density = 22.398286 Si / 1000 Ang^3
#
#
#
# Elastic Constant Matrix: (Units=GPa)
#
#
# Indices 1 2 3 4 5 6 
#
# 1 79.1917 28.1656 36.1278 0.0000 17.9251 0.0000
# 2 28.1656 112.9420 41.9696 0.0000 1.5282 0.0000
# 3 36.1278 41.9696 107.1332 0.0000 26.2504 0.0000
# 4 0.0000 0.0000 0.0000 45.8594 0.0000 1.6285
# 5 17.9251 1.5282 26.2504 0.0000 29.8102 0.0000
# 6 0.0000 0.0000 0.0000 1.6285 0.0000 33.0886
#
#
#
# Elastic Compliance Matrix: (Units=1/GPa)
#
#
# Indices 1 2 3 4 5 6 
#
# 1 0.016601 -0.003101 -0.002521 0.000000 -0.007604 0.000000
# 2 -0.003101 0.011306 -0.004716 0.000000 0.005438 0.000000
# 3 -0.002521 -0.004716 0.014793 0.000000 -0.011269 0.000000
# 4 0.000000 0.000000 0.000000 0.021844 0.000000 -0.001075
# 5 -0.007604 0.005438 -0.011269 0.000000 0.047763 0.000000
# 6 0.000000 0.000000 0.000000 -0.001075 0.000000 0.030275
#
#
# Mechanical properties :
#
#
# Convention : Reuss Voigt Hill
#
# Bulk Modulus (GPa) = 45.40033 56.86589 51.13311
# Shear Modulus (GPa) = 29.30864 34.61855 31.96360
#
# Velocity S-wave (km/s) = 3.62127 3.93566 3.78174
# Velocity P-wave (km/s) = 6.14804 6.78942 6.47667
#
# Compressibility (1/GPa) = 0.02202627
#
# Stress axis : x y z
#
# Youngs Moduli (GPa) = 60.23578 88.44679 67.60019
#
# Poissons Ratio (x) = 0.27423 0.17039
# Poissons Ratio (y) = 0.18676 0.31880
# Poissons Ratio (z) = 0.15183 0.41712
#
# Static dielectric constant tensor:
#      x y z
#    x 1.813840 0.000000 -0.001840 
#    y 0.000000 1.892070 0.000000 
#    z -0.001840 0.000000 1.845100 
# 
# From -- ./inp_files/9136.got.cif
#   From: 2010.05.17/outbox.cif.g08.bks.cpg/sg4_5_cif.got.tgz:9136.got - 2010.06.03 18:43:04.
