data_PCOD9118922
_publ_section_title
;
Structure prediction by ZEFSAII (Michael W. Deem and Ramdas Pophale) SiO2 
 PCOD9118922
Probable space group: P 21
;
_chemical_formula_sum "Si O2"
_cell_formula_units_Z 14
_cell_length_a 7.177004
_cell_length_b 12.250836
_cell_length_c 7.495054
_cell_angle_alpha 90.000000
_cell_angle_beta 55.500284
_cell_angle_gamma 90.000000
_cell_volume 543.098840
_symmetry_space_group_name_H-M "P 21"
_symmetry_group_IT_number 4
_symmetry_cell_setting 'monoclinic'
loop_
_space_group_symop_operation_xyz
x,y,z
-x,1/2+y,-z
loop_
_atom_site_type_symbol
_atom_site_label
_atom_site_fract_x
_atom_site_fract_y
_atom_site_fract_z
Si Si1 0.337941 0.324200 0.135975
Si Si2 0.864454 0.377143 0.225322
Si Si3 0.900456 0.840068 0.219552
Si Si4 0.272555 0.105587 0.798176
Si Si5 0.463349 0.897562 0.294040
Si Si6 0.781971 0.605171 0.736910
Si Si7 0.245351 0.512152 0.428519
O O1 0.341364 0.216944 0.252826
O O2 0.354500 0.445048 0.205999
O O3 0.081991 0.323889 0.197016
O O4 0.516823 0.312891 0.878829
O O5 0.871296 0.508033 0.210857
O O6 0.654556 0.352484 0.465213
O O7 0.866496 0.341545 0.017437
O O8 0.802318 0.719354 0.248605
O O9 0.723329 0.916592 0.204784
O O10 0.885286 0.907046 0.409089
O O11 0.532957 0.072227 0.615546
O O12 0.230425 0.102946 0.037351
O O13 0.342116 0.003805 0.286704
O O14 0.041623 0.597444 0.530659
#
# Coordination Sequence:
#
# PCOD9118922 Si02
#       7
#     2   2   2   2   2   2   2
#     4  11  26  44  66 101 134 174 219 271 334 386
#     4  11  23  45  66  96 140 166 220 280 316 394
#     4  11  26  44  66 101 134 174 219 271 334 386
#     4  12  25  43  68  99 133 177 221 264 335 392
#     4  11  23  45  66  96 140 166 220 280 316 394
#     4  12  25  43  68  99 133 177 221 264 335 392
#     4  12  26  42  70 100 132 176 220 270 326 402
#
# _framework density 25.777996999999999
#
# number of rings (size 3 to 8) (size 9 to 14) (size 15 to 20)
#    0.000    0.571    8.571    0.000    4.000    0.000 
#    0.000    5.714    0.000    0.000    0.000    0.000 
#    0.000    0.000    0.000    0.000    0.000    0.000 
#
# Total GULP energy -78184.777048 kJ/mol
# GULP energy per Si atom -5584.626932 kJ/mol
# Density = 2.571933 g / cm^3
# Si number density = 25.777997 Si / 1000 Ang^3
#
#
#
# Elastic Constant Matrix: (Units=GPa)
#
#
# Indices 1 2 3 4 5 6 
#
# 1 29.7789 15.1372 8.6181 0.0000 -2.8588 0.0000
# 2 15.1372 113.8683 35.9600 0.0000 -18.5734 0.0000
# 3 8.6181 35.9600 170.8006 0.0000 -5.7515 0.0000
# 4 0.0000 0.0000 0.0000 33.0280 0.0000 -5.2609
# 5 -2.8588 -18.5734 -5.7515 0.0000 35.3818 0.0000
# 6 0.0000 0.0000 0.0000 -5.2609 0.0000 36.4084
#
#
#
# Elastic Compliance Matrix: (Units=1/GPa)
#
#
# Indices 1 2 3 4 5 6 
#
# 1 0.036141 -0.004458 -0.000870 0.000000 0.000438 0.000000
# 2 -0.004458 0.010782 -0.001877 0.000000 0.004995 0.000000
# 3 -0.000870 -0.001877 0.006293 0.000000 -0.000033 0.000000
# 4 0.000000 0.000000 0.000000 0.030991 0.000000 0.004478
# 5 0.000438 0.004995 -0.000033 0.000000 0.030915 0.000000
# 6 0.000000 0.000000 0.000000 0.004478 0.000000 0.028113
#
#
# Mechanical properties :
#
#
# Convention : Reuss Voigt Hill
#
# Bulk Modulus (GPa) = 25.76959 48.20869 36.98914
# Shear Modulus (GPa) = 29.31169 37.94581 33.62875
#
# Velocity S-wave (km/s) = 3.37572 3.84086 3.61578
# Velocity P-wave (km/s) = 5.02120 6.19772 5.64022
#
# Compressibility (1/GPa) = 0.03880542
#
# Stress axis : x y z
#
# Youngs Moduli (GPa) = 27.66947 92.74590 158.91302
#
# Poissons Ratio (x) = 0.41347 0.13829
# Poissons Ratio (y) = 0.12335 0.29827
# Poissons Ratio (z) = 0.02408 0.17408
#
# Static dielectric constant tensor:
#      x y z
#    x 2.066070 0.000000 0.121880 
#    y 0.000000 2.073500 0.000000 
#    z 0.121880 0.000000 2.185340 
# 
# From -- ./inp_files/6337.got.cif
#   From: 2010.05.17/outbox.cif.g08.bks.cpg/sg4_4_cif.got.tgz:6337.got - 2010.06.03 18:43:04.
