data_PCOD9118918
_publ_section_title
;
Structure prediction by ZEFSAII (Michael W. Deem and Ramdas Pophale) SiO2 
 PCOD9118918
Probable space group: P 21
;
_chemical_formula_sum "Si O2"
_cell_formula_units_Z 14
_cell_length_a 8.854389
_cell_length_b 11.285638
_cell_length_c 5.923575
_cell_angle_alpha 90.000000
_cell_angle_beta 77.329902
_cell_angle_gamma 90.000000
_cell_volume 577.513677
_symmetry_space_group_name_H-M "P 21"
_symmetry_group_IT_number 4
_symmetry_cell_setting 'monoclinic'
loop_
_space_group_symop_operation_xyz
x,y,z
-x,1/2+y,-z
loop_
_atom_site_type_symbol
_atom_site_label
_atom_site_fract_x
_atom_site_fract_y
_atom_site_fract_z
Si Si1 0.427326 0.506710 0.403261
Si Si2 0.072941 0.915967 0.774171
Si Si3 0.353973 0.911366 0.025786
Si Si4 0.051979 0.288008 0.560280
Si Si5 0.712938 0.593498 0.564034
Si Si6 0.767662 0.169201 0.850623
Si Si7 0.196326 0.477767 0.816605
O O1 0.501950 0.423731 0.188773
O O2 0.568341 0.588727 0.441918
O O3 0.292288 0.579745 0.323169
O O4 0.360049 0.443340 0.649164
O O5 0.198260 0.909116 0.927878
O O6 0.053103 0.802224 0.625316
O O7 0.149343 0.014270 0.588040
O O8 0.902616 0.936122 0.933320
O O9 0.343725 0.783036 0.141379
O O10 0.339769 0.024587 0.193695
O O11 0.208850 0.221111 0.442726
O O12 0.088222 0.416103 0.658964
O O13 0.944058 0.212172 0.761117
O O14 0.762038 0.108803 0.100752
#
# Coordination Sequence:
#
# PCOD9118918 Si02
#       7
#     2   2   2   2   2   2   2
#     4  11  29  46  74 110 159 203 259 319 400 473
#     4  11  23  44  75 110 146 197 260 321 381 461
#     4  11  26  49  75 109 156 207 260 324 395 466
#     4  12  27  46  81 116 153 206 264 334 385 475
#     4  11  25  49  73 109 154 203 261 319 395 463
#     4  12  26  47  82 110 156 211 260 335 388 475
#     4  12  26  47  72 116 150 199 260 318 398 463
#
# _framework density 24.241852999999999
#
# number of rings (size 3 to 8) (size 9 to 14) (size 15 to 20)
#    0.000    0.571    4.286    1.714    4.000    6.857 
#    0.000    0.000    0.000    0.000    0.000    0.000 
#    0.000    0.000    0.000    0.000    0.000    0.000 
#
# Total GULP energy -78056.426856 kJ/mol
# GULP energy per Si atom -5575.459061 kJ/mol
# Density = 2.418668 g / cm^3
# Si number density = 24.241853 Si / 1000 Ang^3
#
#
#
# Elastic Constant Matrix: (Units=GPa)
#
#
# Indices 1 2 3 4 5 6 
#
# 1 99.2234 39.0638 38.0145 0.0000 -3.2226 0.0000
# 2 39.0638 49.5525 26.0283 0.0000 2.7754 0.0000
# 3 38.0145 26.0283 107.5438 0.0000 -28.6628 0.0000
# 4 0.0000 0.0000 0.0000 36.4646 0.0000 6.1697
# 5 -3.2226 2.7754 -28.6628 0.0000 67.5438 0.0000
# 6 0.0000 0.0000 0.0000 6.1697 0.0000 32.3277
#
#
#
# Elastic Compliance Matrix: (Units=1/GPa)
#
#
# Indices 1 2 3 4 5 6 
#
# 1 0.015345 -0.010583 -0.002877 0.000000 -0.000054 0.000000
# 2 -0.010583 0.031292 -0.004859 0.000000 -0.003853 0.000000
# 3 -0.002877 -0.004859 0.012976 0.000000 0.005569 0.000000
# 4 0.000000 0.000000 0.000000 0.028339 0.000000 -0.005408
# 5 -0.000054 -0.003853 0.005569 0.000000 0.017324 0.000000
# 6 0.000000 0.000000 0.000000 -0.005408 0.000000 0.031965
#
#
# Mechanical properties :
#
#
# Convention : Reuss Voigt Hill
#
# Bulk Modulus (GPa) = 43.52791 51.39254 47.46022
# Shear Modulus (GPa) = 27.54238 37.48142 32.51190
#
# Velocity S-wave (km/s) = 3.37434 3.93637 3.66614
# Velocity P-wave (km/s) = 5.75988 6.47348 6.12708
#
# Compressibility (1/GPa) = 0.02297377
#
# Stress axis : x y z
#
# Youngs Moduli (GPa) = 65.16668 31.95743 77.06564
#
# Poissons Ratio (x) = 0.33820 0.22174
# Poissons Ratio (y) = 0.68964 0.37450
# Poissons Ratio (z) = 0.18751 0.15529
#
# Static dielectric constant tensor:
#      x y z
#    x 1.907060 0.000000 -0.017330 
#    y 0.000000 2.002030 0.000000 
#    z -0.017330 0.000000 1.922110 
# 
# From -- ./inp_files/1378.got.cif
#   From: 2010.05.17/outbox.cif.g08.bks.cpg/sg4_1_cif.got.tgz:1378.got - 2010.06.03 18:43:04.
