data_PCOD9118186
_publ_section_title
;
Structure prediction by ZEFSAII (Michael W. Deem and Ramdas Pophale) SiO2 
 PCOD9118186
Probable space group: P 21
;
_chemical_formula_sum "Si O2"
_cell_formula_units_Z 14
_cell_length_a 8.818866
_cell_length_b 13.023020
_cell_length_c 7.812348
_cell_angle_alpha 90.000000
_cell_angle_beta 139.227084
_cell_angle_gamma 90.000000
_cell_volume 585.950472
_symmetry_space_group_name_H-M "P 21"
_symmetry_group_IT_number 4
_symmetry_cell_setting 'monoclinic'
loop_
_space_group_symop_operation_xyz
x,y,z
-x,1/2+y,-z
loop_
_atom_site_type_symbol
_atom_site_label
_atom_site_fract_x
_atom_site_fract_y
_atom_site_fract_z
Si Si1 0.125689 0.707560 0.035334
Si Si2 0.719759 0.825807 0.863365
Si Si3 0.515193 0.376779 0.802403
Si Si4 0.850649 0.741281 0.346605
Si Si5 0.271047 0.855476 0.652204
Si Si6 0.607962 0.030246 0.597735
Si Si7 0.849246 0.562710 0.564129
O O1 0.883544 0.757589 0.885854
O O2 0.053769 0.627056 0.825837
O O3 0.300482 0.797460 0.125130
O O4 0.241187 0.633688 0.277169
O O5 0.439834 0.826445 0.640792
O O6 0.751779 0.942609 0.825223
O O7 0.776237 0.780396 0.098078
O O8 0.276473 0.314018 0.624435
O O9 0.468154 0.475022 0.643380
O O10 0.600318 0.398114 0.068984
O O11 0.784422 0.626798 0.339312
O O12 0.124220 0.759016 0.584592
O O13 0.101937 0.945854 0.443883
O O14 0.375477 0.057499 0.505303
#
# Coordination Sequence:
#
# PCOD9118186 Si02
#       7
#     2   2   2   2   2   2   2
#     4  12  25  46  75 104 142 191 241 300 357 428
#     4  10  26  43  72 107 144 183 242 300 358 420
#     4  11  25  45  74 104 144 186 242 299 359 422
#     4  11  22  46  70 102 141 191 232 297 359 426
#     4  10  24  47  72 103 146 188 236 299 354 433
#     4  11  26  45  72 109 144 189 242 299 355 432
#     4  11  24  44  73 101 143 188 241 296 358 423
#
# _framework density 23.892802
#
# number of rings (size 3 to 8) (size 9 to 14) (size 15 to 20)
#    0.000    1.143    2.857    1.714    6.000    2.286 
#    0.000    0.000    0.000    0.000    0.000    0.000 
#    0.000    0.000    0.000    0.000    0.000    0.000 
#
# Total GULP energy -78193.256091 kJ/mol
# GULP energy per Si atom -5585.232578 kJ/mol
# Density = 2.383842 g / cm^3
# Si number density = 23.892802 Si / 1000 Ang^3
#
#
#
# Elastic Constant Matrix: (Units=GPa)
#
#
# Indices 1 2 3 4 5 6 
#
# 1 92.4106 36.4701 15.1086 0.0000 4.2738 0.0000
# 2 36.4701 96.4203 17.6813 0.0000 13.1582 0.0000
# 3 15.1086 17.6813 52.1846 0.0000 -14.1012 0.0000
# 4 0.0000 0.0000 0.0000 48.7362 0.0000 -0.9130
# 5 4.2738 13.1582 -14.1012 0.0000 29.9668 0.0000
# 6 0.0000 0.0000 0.0000 -0.9130 0.0000 45.4999
#
#
#
# Elastic Compliance Matrix: (Units=1/GPa)
#
#
# Indices 1 2 3 4 5 6 
#
# 1 0.012993 -0.004261 -0.002650 0.000000 -0.001229 0.000000
# 2 -0.004261 0.014196 -0.005839 0.000000 -0.008373 0.000000
# 3 -0.002650 -0.005839 0.026011 0.000000 0.015182 0.000000
# 4 0.000000 0.000000 0.000000 0.020526 0.000000 0.000412
# 5 -0.001229 -0.008373 0.015182 0.000000 0.044366 0.000000
# 6 0.000000 0.000000 0.000000 0.000412 0.000000 0.021986
#
#
# Mechanical properties :
#
#
# Convention : Reuss Voigt Hill
#
# Bulk Modulus (GPa) = 36.10135 42.17063 39.13599
# Shear Modulus (GPa) = 28.60208 36.29094 32.44651
#
# Velocity S-wave (km/s) = 3.46367 3.90154 3.68911
# Velocity P-wave (km/s) = 5.58019 6.16314 5.87890
#
# Compressibility (1/GPa) = 0.02769980
#
# Stress axis : x y z
#
# Youngs Moduli (GPa) = 76.96501 70.44093 38.44551
#
# Poissons Ratio (x) = 0.30013 0.10189
# Poissons Ratio (y) = 0.32792 0.22449
# Poissons Ratio (z) = 0.20398 0.41131
#
# Static dielectric constant tensor:
#      x y z
#    x 1.881390 0.000000 -0.004700 
#    y 0.000000 1.886590 0.000000 
#    z -0.004700 0.000000 2.071580 
# 
# From -- ./inp_files/4526.got.cif
#   From: 2010.05.17/outbox.cif.g08.bks.cpg/sg4_3_cif.got.tgz:4526.got - 2010.06.03 18:43:04.
