data_PCOD9118012
_publ_section_title
;
Structure prediction by ZEFSAII (Michael W. Deem and Ramdas Pophale) SiO2 
 PCOD9118012
Probable space group: P 21
;
_chemical_formula_sum "Si O2"
_cell_formula_units_Z 14
_cell_length_a 7.180914
_cell_length_b 7.601408
_cell_length_c 9.088379
_cell_angle_alpha 90.000000
_cell_angle_beta 91.424872
_cell_angle_gamma 90.000000
_cell_volume 495.936291
_symmetry_space_group_name_H-M "P 21"
_symmetry_group_IT_number 4
_symmetry_cell_setting 'monoclinic'
loop_
_space_group_symop_operation_xyz
x,y,z
-x,1/2+y,-z
loop_
_atom_site_type_symbol
_atom_site_label
_atom_site_fract_x
_atom_site_fract_y
_atom_site_fract_z
Si Si1 0.805219 0.051750 0.651413
Si Si2 0.248331 0.675328 0.979297
Si Si3 0.517667 0.390447 0.471336
Si Si4 0.423579 0.337899 0.810274
Si Si5 0.828768 0.567323 0.065570
Si Si6 0.743404 0.709404 0.758814
Si Si7 0.082046 0.918535 0.425473
O O1 0.961945 0.122203 0.976368
O O2 0.903218 0.236967 0.661742
O O3 0.812487 0.909003 0.780192
O O4 0.902987 0.947940 0.518925
O O5 0.396175 0.741867 0.108535
O O6 0.337773 0.510999 0.892070
O O7 0.212812 0.864195 0.898937
O O8 0.471790 0.385889 0.644120
O O9 0.407738 0.560160 0.403879
O O10 0.425662 0.247784 0.357695
O O11 0.738224 0.406402 0.465263
O O12 0.260648 0.193680 0.815685
O O13 0.713607 0.621079 0.914198
O O14 0.887709 0.583288 0.679458
#
# Coordination Sequence:
#
# PCOD9118012 Si02
#       7
#     2   2   2   2   2   2   2
#     4  10  24  43  70 114 144 199 245 318 401 454
#     4  12  27  51  83 115 158 221 267 331 399 487
#     4  10  26  49  76 113 156 200 255 329 394 463
#     4  12  27  52  79 118 161 211 276 329 402 487
#     4  12  27  53  79 114 163 211 272 329 404 487
#     4  10  26  48  73 113 149 201 254 326 392 464
#     4  12  21  46  70 107 157 191 251 316 386 476
#
# _framework density 28.229431000000002
#
# number of rings (size 3 to 8) (size 9 to 14) (size 15 to 20)
#    0.857    0.000    4.286    1.714    2.000    3.429 
#   10.286    0.000    0.000    0.000    0.000    0.000 
#    0.000    0.000    0.000    0.000    0.000    0.000 
#
# Total GULP energy -78413.940347 kJ/mol
# GULP energy per Si atom -5600.995739 kJ/mol
# Density = 2.816518 g / cm^3
# Si number density = 28.229431 Si / 1000 Ang^3
#
#
#
# Elastic Constant Matrix: (Units=GPa)
#
#
# Indices 1 2 3 4 5 6 
#
# 1 159.3423 47.8478 25.1489 0.0000 15.2963 0.0000
# 2 47.8478 224.0287 39.4436 0.0000 0.3848 0.0000
# 3 25.1489 39.4436 108.6551 0.0000 16.8109 0.0000
# 4 0.0000 0.0000 0.0000 43.3993 0.0000 -10.5702
# 5 15.2963 0.3848 16.8109 0.0000 43.5971 0.0000
# 6 0.0000 0.0000 0.0000 -10.5702 0.0000 50.4465
#
#
#
# Elastic Compliance Matrix: (Units=1/GPa)
#
#
# Indices 1 2 3 4 5 6 
#
# 1 0.007014 -0.001353 -0.000801 0.000000 -0.002140 0.000000
# 2 -0.001353 0.005048 -0.001686 0.000000 0.001081 0.000000
# 3 -0.000801 -0.001686 0.010587 0.000000 -0.003786 0.000000
# 4 0.000000 0.000000 0.000000 0.024281 0.000000 0.005088
# 5 -0.002140 0.001081 -0.003786 0.000000 0.025139 0.000000
# 6 0.000000 0.000000 0.000000 0.005088 0.000000 0.020889
#
#
# Mechanical properties :
#
#
# Convention : Reuss Voigt Hill
#
# Bulk Modulus (GPa) = 66.81294 79.65632 73.23463
# Shear Modulus (GPa) = 47.33596 52.79430 50.06513
#
# Velocity S-wave (km/s) = 4.09935 4.32926 4.21587
# Velocity P-wave (km/s) = 6.79157 7.29854 7.04962
#
# Compressibility (1/GPa) = 0.01496716
#
# Stress axis : x y z
#
# Youngs Moduli (GPa) = 142.57095 198.10555 94.45696
#
# Poissons Ratio (x) = 0.26810 0.07566
# Poissons Ratio (y) = 0.19295 0.15929
# Poissons Ratio (z) = 0.11421 0.33408
#
# Static dielectric constant tensor:
#      x y z
#    x 2.194060 0.000000 0.040510 
#    y 0.000000 2.287960 0.000000 
#    z 0.040510 0.000000 2.210970 
# 
# From -- ./inp_files/5646.got.cif
#   From: 2010.05.17/outbox.cif.g08.bks.cpg/sg4_3_cif.got.tgz:5646.got - 2010.06.03 18:43:04.
