data_PCOD9118828
_publ_section_title
;
Structure prediction by ZEFSAII (Michael W. Deem and Ramdas Pophale) SiO2 
 PCOD9118828
Probable space group: P 21
;
_chemical_formula_sum "Si O2"
_cell_formula_units_Z 16
_cell_length_a 19.903868
_cell_length_b 4.875726
_cell_length_c 4.965948
_cell_angle_alpha 90.000000
_cell_angle_beta 110.378719
_cell_angle_gamma 90.000000
_cell_volume 451.761451
_symmetry_space_group_name_H-M "P 21"
_symmetry_group_IT_number 4
_symmetry_cell_setting 'monoclinic'
loop_
_space_group_symop_operation_xyz
x,y,z
-x,1/2+y,-z
loop_
_atom_site_type_symbol
_atom_site_label
_atom_site_fract_x
_atom_site_fract_y
_atom_site_fract_z
Si Si1 0.919803 0.031030 0.720126
Si Si2 0.555787 0.498126 0.199405
Si Si3 0.928098 0.532286 0.114290
Si Si4 0.444805 0.755120 0.300297
Si Si5 0.332677 0.499137 0.400177
Si Si6 0.774662 0.526814 0.956693
Si Si7 0.228163 0.771327 0.521893
Si Si8 0.333172 0.254928 0.904501
O O1 0.843113 0.110164 0.487265
O O2 0.992332 0.080297 0.653824
O O3 0.919005 0.227833 0.983385
O O4 0.930987 0.737940 0.866401
O O5 0.491391 0.751109 0.049805
O O6 0.510131 0.504230 0.451275
O O7 0.603130 0.248617 0.449243
O O8 0.601111 0.505301 0.947336
O O9 0.855511 0.581137 0.183774
O O10 0.381745 0.504503 0.151859
O O11 0.264698 0.735963 0.242952
O O12 0.377737 0.241788 0.646651
O O13 0.287637 0.267946 0.147297
O O14 0.801811 0.541018 0.683793
O O15 0.731686 0.476514 0.201406
O O16 0.288321 0.502139 0.654409
#
# Coordination Sequence:
#
# PCOD9118828 Si02
#       8
#     2   2   2   2   2   2   2   2
#     4   9  19  39  66  97 134 177 226 281 342 409
#     4  12  24  42  64  91 125 165 212 268 328 398
#     4   9  19  39  66  97 134 177 226 281 342 409
#     4  12  24  42  64  91 125 165 212 268 328 398
#     4  12  24  41  64  94 127 168 214 267 328 398
#     4  11  23  42  64  94 129 172 218 272 331 397
#     4  11  23  42  64  94 129 172 218 272 331 397
#     4  12  24  41  64  94 127 168 214 267 328 398
#
# _framework density 35.416927000000001
#
# number of rings (size 3 to 8) (size 9 to 14) (size 15 to 20)
#    0.000    1.000    0.000    7.500    0.000    2.000 
#    0.000   11.250    0.000    0.000    0.000    0.000 
#    0.000    0.000    0.000    0.000    0.000    0.000 
#
# Total GULP energy -89698.025638 kJ/mol
# GULP energy per Si atom -5606.126602 kJ/mol
# Density = 3.533632 g / cm^3
# Si number density = 35.416927 Si / 1000 Ang^3
#
#
#
# Elastic Constant Matrix: (Units=GPa)
#
#
# Indices 1 2 3 4 5 6 
#
# 1 431.1398 111.8998 147.0775 0.0000 71.2377 0.0000
# 2 111.8998 303.6781 123.8135 0.0000 -12.7307 0.0000
# 3 147.0775 123.8135 273.8738 0.0000 -33.7592 0.0000
# 4 0.0000 0.0000 0.0000 112.6705 0.0000 -38.9325
# 5 71.2377 -12.7307 -33.7592 0.0000 90.0525 0.0000
# 6 0.0000 0.0000 0.0000 -38.9325 0.0000 77.0453
#
#
#
# Elastic Compliance Matrix: (Units=1/GPa)
#
#
# Indices 1 2 3 4 5 6 
#
# 1 0.003972 -0.000686 -0.002330 0.000000 -0.004112 0.000000
# 2 -0.000686 0.004157 -0.001438 0.000000 0.000591 0.000000
# 3 -0.002330 -0.001438 0.006033 0.000000 0.003901 0.000000
# 4 0.000000 0.000000 0.000000 0.010753 0.000000 0.005434
# 5 -0.004112 0.000591 0.003901 0.000000 0.015904 0.000000
# 6 0.000000 0.000000 0.000000 0.005434 0.000000 0.015725
#
#
# Mechanical properties :
#
#
# Convention : Reuss Voigt Hill
#
# Bulk Modulus (GPa) = 190.30751 197.14151 193.72451
# Shear Modulus (GPa) = 74.40195 97.68040 86.04118
#
# Velocity S-wave (km/s) = 4.58836 5.25738 4.93422
# Velocity P-wave (km/s) = 9.05102 9.62483 9.34233
#
# Compressibility (1/GPa) = 0.00525465
#
# Stress axis : x y z
#
# Youngs Moduli (GPa) = 251.78238 240.56981 165.74529
#
# Poissons Ratio (x) = 0.16505 0.38613
# Poissons Ratio (y) = 0.17274 0.23832
# Poissons Ratio (z) = 0.58656 0.34591
#
# Static dielectric constant tensor:
#      x y z
#    x 2.807570 0.000000 -0.056980 
#    y 0.000000 2.559670 0.000000 
#    z -0.056980 0.000000 2.699820 
# 
# From -- ./inp_files/4408.got.cif
#   From: 2010.05.17/outbox.cif.g08.bks.cpg/sg4_3_cif.got.tgz:4408.got - 2010.06.03 18:43:04.
