data_PCOD9118266
_publ_section_title
;
Structure prediction by ZEFSAII (Michael W. Deem and Ramdas Pophale) SiO2 
 PCOD9118266
Probable space group: P 21
;
_chemical_formula_sum "Si O2"
_cell_formula_units_Z 12
_cell_length_a 9.774637
_cell_length_b 8.401363
_cell_length_c 8.958986
_cell_angle_alpha 90.000000
_cell_angle_beta 40.286684
_cell_angle_gamma 90.000000
_cell_volume 475.722124
_symmetry_space_group_name_H-M "P 21"
_symmetry_group_IT_number 4
_symmetry_cell_setting 'monoclinic'
loop_
_space_group_symop_operation_xyz
x,y,z
-x,1/2+y,-z
loop_
_atom_site_type_symbol
_atom_site_label
_atom_site_fract_x
_atom_site_fract_y
_atom_site_fract_z
Si Si1 0.984242 0.322890 0.671648
Si Si2 0.783201 0.481204 0.350331
Si Si3 0.387636 0.841256 0.216031
Si Si4 0.169297 0.440490 0.825140
Si Si5 0.482106 0.727358 0.530469
Si Si6 0.253435 0.521802 0.223150
O O1 0.040195 0.374530 0.791031
O O2 0.159900 0.393274 0.414241
O O3 0.761709 0.394333 0.798404
O O4 0.935455 0.135310 0.683306
O O5 0.748960 0.370496 0.521598
O O6 0.645221 0.637567 0.504627
O O7 0.647182 0.388464 0.333198
O O8 0.010141 0.488952 0.087335
O O9 0.399508 0.651856 0.185298
O O10 0.603614 0.936297 0.018636
O O11 0.301030 0.595168 0.662158
O O12 0.337044 0.300832 0.730563
#
# Coordination Sequence:
#
# PCOD9118266 Si02
#       6
#     2   2   2   2   2   2
#     4  10  26  44  75 104 146 196 250 305 377 441
#     4  11  24  44  71 106 146 190 245 300 379 438
#     4  10  26  44  74 106 151 192 245 312 372 444
#     4  11  24  46  73 105 147 193 249 306 374 441
#     4  10  25  42  68 104 143 192 238 302 366 435
#     4  10  25  44  73 107 147 191 251 301 376 443
#
# _framework density 25.224812
#
# number of rings (size 3 to 8) (size 9 to 14) (size 15 to 20)
#    1.000    0.667    0.000    2.000    7.000    6.667 
#    0.000    0.000    0.000    0.000    0.000    0.000 
#    0.000    0.000    0.000    0.000    0.000    0.000 
#
# Total GULP energy -66888.703731 kJ/mol
# GULP energy per Si atom -5574.058644 kJ/mol
# Density = 2.516740 g / cm^3
# Si number density = 25.224812 Si / 1000 Ang^3
#
#
#
# Elastic Constant Matrix: (Units=GPa)
#
#
# Indices 1 2 3 4 5 6 
#
# 1 87.4421 40.2029 72.4594 0.0000 7.6383 0.0000
# 2 40.2029 120.6967 92.5197 0.0000 8.1010 0.0000
# 3 72.4594 92.5197 171.3915 0.0000 9.0265 0.0000
# 4 0.0000 0.0000 0.0000 45.8355 0.0000 -1.4824
# 5 7.6383 8.1010 9.0265 0.0000 37.6405 0.0000
# 6 0.0000 0.0000 0.0000 -1.4824 0.0000 40.9960
#
#
#
# Elastic Compliance Matrix: (Units=1/GPa)
#
#
# Indices 1 2 3 4 5 6 
#
# 1 0.017728 -0.000190 -0.007297 0.000000 -0.001807 0.000000
# 2 -0.000190 0.014192 -0.007517 0.000000 -0.001213 0.000000
# 3 -0.007297 -0.007517 0.012978 0.000000 -0.000014 0.000000
# 4 0.000000 0.000000 0.000000 0.021843 0.000000 0.000790
# 5 -0.001807 -0.001213 -0.000014 0.000000 0.027198 0.000000
# 6 0.000000 0.000000 0.000000 0.000790 0.000000 0.024421
#
#
# Mechanical properties :
#
#
# Convention : Reuss Voigt Hill
#
# Bulk Modulus (GPa) = 67.15926 87.76604 77.46265
# Shear Modulus (GPa) = 32.60905 36.51762 34.56334
#
# Velocity S-wave (km/s) = 3.59937 3.80898 3.70565
# Velocity P-wave (km/s) = 6.62993 7.36298 7.00605
#
# Compressibility (1/GPa) = 0.01488998
#
# Stress axis : x y z
#
# Youngs Moduli (GPa) = 56.40713 70.46263 77.05366
#
# Poissons Ratio (x) = 0.01340 0.56227
# Poissons Ratio (y) = 0.01073 0.57919
# Poissons Ratio (z) = 0.41161 0.52965
#
# Static dielectric constant tensor:
#      x y z
#    x 2.136110 0.000000 -0.093380 
#    y 0.000000 2.052090 0.000000 
#    z -0.093380 0.000000 1.914860 
# 
# From -- ./inp_files/11934.got.cif
#   From: 2010.05.17/outbox.cif.g08.bks.cpg/sg4_6_cif.got.tgz:11934.got - 2010.06.03 18:43:04.
