data_PCOD9118651
_publ_section_title
;
Structure prediction by ZEFSAII (Michael W. Deem and Ramdas Pophale) SiO2 
 PCOD9118651
Probable space group: P 21
;
_chemical_formula_sum "Si O2"
_cell_formula_units_Z 16
_cell_length_a 15.892573
_cell_length_b 5.087902
_cell_length_c 26.054831
_cell_angle_alpha 90.000000
_cell_angle_beta 19.017425
_cell_angle_gamma 90.000000
_cell_volume 686.509462
_symmetry_space_group_name_H-M "P 21"
_symmetry_group_IT_number 4
_symmetry_cell_setting 'monoclinic'
loop_
_space_group_symop_operation_xyz
x,y,z
-x,1/2+y,-z
loop_
_atom_site_type_symbol
_atom_site_label
_atom_site_fract_x
_atom_site_fract_y
_atom_site_fract_z
Si Si1 0.577513 0.980560 0.901032
Si Si2 0.603615 0.065693 0.560560
Si Si3 0.516288 0.655050 0.789815
Si Si4 0.775218 0.170152 0.686311
Si Si5 0.812970 0.114043 0.925087
Si Si6 0.351615 0.068467 0.395602
Si Si7 0.911498 0.728101 0.780724
Si Si8 0.359648 0.283913 0.604122
O O1 0.843831 0.950730 0.777432
O O2 0.619845 0.175801 0.829506
O O3 0.450166 0.728193 0.947413
O O4 0.352682 0.067573 0.068387
O O5 0.634602 0.280553 0.587615
O O6 0.388464 0.167194 0.644980
O O7 0.849400 0.077600 0.380476
O O8 0.585350 0.782789 0.597033
O O9 0.730638 0.441550 0.683412
O O10 0.466231 0.613735 0.758710
O O11 0.641314 0.938210 0.730615
O O12 0.266569 0.597672 0.969598
O O13 0.066300 0.117079 0.536266
O O14 0.051456 0.311773 0.776202
O O15 0.913772 0.863822 0.834931
O O16 0.515065 0.555491 0.504713
#
# Coordination Sequence:
#
# PCOD9118651 Si02
#       8
#     2   2   2   2   2   2   2   2
#     4  11  23  34  63  99 137 168 208 265 348 403
#     4  12  27  42  68  96 132 177 225 269 334 388
#     4  11  24  43  66  96 134 175 227 267 331 388
#     4  11  22  40  63  99 133 180 216 267 327 404
#     4  11  25  42  65  96 129 176 217 276 327 398
#     4  12  25  44  65  96 134 179 224 275 318 394
#     4  12  22  38  62  99 136 171 206 275 338 412
#     4  12  26  47  70  97 133 172 221 270 329 399
#
# _framework density 23.306307
#
# number of rings (size 3 to 8) (size 9 to 14) (size 15 to 20)
#    0.000    0.500    5.000    3.750    5.250    0.000 
#    0.000    1.250    0.000    0.000    0.000    0.000 
#    0.000    0.000    0.000    0.000    0.000    0.000 
#
# Total GULP energy -89443.382961 kJ/mol
# GULP energy per Si atom -5590.211435 kJ/mol
# Density = 2.325326 g / cm^3
# Si number density = 23.306307 Si / 1000 Ang^3
#
#
#
# Elastic Constant Matrix: (Units=GPa)
#
#
# Indices 1 2 3 4 5 6 
#
# 1 69.3307 0.9108 34.7603 0.0000 30.4622 0.0000
# 2 0.9108 75.7747 9.8534 0.0000 5.5407 0.0000
# 3 34.7603 9.8534 82.3321 0.0000 27.6452 0.0000
# 4 0.0000 0.0000 0.0000 22.1995 0.0000 7.5876
# 5 30.4622 5.5407 27.6452 0.0000 43.4650 0.0000
# 6 0.0000 0.0000 0.0000 7.5876 0.0000 33.8553
#
#
#
# Elastic Compliance Matrix: (Units=1/GPa)
#
#
# Indices 1 2 3 4 5 6 
#
# 1 0.022698 0.001365 -0.005527 0.000000 -0.012567 0.000000
# 2 0.001365 0.013514 -0.001645 0.000000 -0.001633 0.000000
# 3 -0.005527 -0.001645 0.016918 0.000000 -0.006677 0.000000
# 4 0.000000 0.000000 0.000000 0.048783 0.000000 -0.010933
# 5 -0.012567 -0.001633 -0.006677 0.000000 0.036269 0.000000
# 6 0.000000 0.000000 0.000000 -0.010933 0.000000 0.031988
#
#
# Mechanical properties :
#
#
# Convention : Reuss Voigt Hill
#
# Bulk Modulus (GPa) = 24.08727 35.38739 29.73733
# Shear Modulus (GPa) = 25.55924 32.03149 28.79537
#
# Velocity S-wave (km/s) = 3.31519 3.71127 3.51881
# Velocity P-wave (km/s) = 5.00115 5.79494 5.41261
#
# Compressibility (1/GPa) = 0.04151571
#
# Stress axis : x y z
#
# Youngs Moduli (GPa) = 44.05653 73.99760 59.10734
#
# Poissons Ratio (x) = -0.10099 0.32667
# Poissons Ratio (y) = -0.06013 0.09725
# Poissons Ratio (z) = 0.24349 0.12175
#
# Static dielectric constant tensor:
#      x y z
#    x 2.000130 0.000000 -0.004230 
#    y 0.000000 1.933930 0.000000 
#    z -0.004230 0.000000 1.910770 
# 
# From -- ./inp_files/11770.got.cif
#   From: 2010.05.17/outbox.cif.g08.bks.cpg/sg4_6_cif.got.tgz:11770.got - 2010.06.03 18:43:04.
