data_PCOD9118179
_publ_section_title
;
Structure prediction by ZEFSAII (Michael W. Deem and Ramdas Pophale) SiO2 
 PCOD9118179
Probable space group: P 21
;
_chemical_formula_sum "Si O2"
_cell_formula_units_Z 16
_cell_length_a 9.649206
_cell_length_b 12.180757
_cell_length_c 7.816151
_cell_angle_alpha 90.000000
_cell_angle_beta 135.209130
_cell_angle_gamma 90.000000
_cell_volume 647.221332
_symmetry_space_group_name_H-M "P 21"
_symmetry_group_IT_number 4
_symmetry_cell_setting 'monoclinic'
loop_
_space_group_symop_operation_xyz
x,y,z
-x,1/2+y,-z
loop_
_atom_site_type_symbol
_atom_site_label
_atom_site_fract_x
_atom_site_fract_y
_atom_site_fract_z
Si Si1 0.725998 0.876210 0.964934
Si Si2 0.820893 0.137194 0.532193
Si Si3 0.556796 0.960494 0.165042
Si Si4 0.938006 0.412057 0.014625
Si Si5 0.761733 0.773696 0.527501
Si Si6 0.844835 0.651015 0.950398
Si Si7 0.281707 0.867266 0.484863
Si Si8 0.186382 0.056379 0.636170
O O1 0.879776 0.923626 0.961427
O O2 0.778099 0.745634 0.025542
O O3 0.511762 0.886026 0.694573
O O4 0.700526 0.931058 0.128194
O O5 0.631195 0.064146 0.338915
O O6 0.771941 0.262270 0.446291
O O7 0.987741 0.079052 0.564953
O O8 0.920801 0.139696 0.806204
O O9 0.589157 0.855956 0.317170
O O10 0.355677 0.996982 0.896560
O O11 0.042297 0.350947 0.266325
O O12 0.809230 0.521732 0.928275
O O13 0.788803 0.343065 0.768032
O O14 0.763404 0.704794 0.706363
O O15 0.762522 0.676348 0.391082
O O16 0.170796 0.972631 0.464016
#
# Coordination Sequence:
#
# PCOD9118179 Si02
#       8
#     2   2   2   2   2   2   2   2
#     4  10  24  47  70 103 151 188 244 311 361 441
#     4  12  25  42  73 103 140 200 238 300 371 435
#     4  11  26  45  70 106 146 192 249 302 367 441
#     4  11  22  47  69 108 144 189 241 300 370 443
#     4  11  23  45  71 104 146 183 252 299 361 448
#     4  11  23  45  72 101 146 193 237 303 368 437
#     4  11  24  46  74 105 146 195 243 303 377 432
#     4  11  27  45  71 104 149 190 246 302 367 439
#
# _framework density 24.721062
#
# number of rings (size 3 to 8) (size 9 to 14) (size 15 to 20)
#    0.000    1.000    5.000    1.500    7.000    0.000 
#    6.750    2.500    0.000    0.000    0.000    0.000 
#    0.000    0.000    0.000    0.000    0.000    0.000 
#
# Total GULP energy -89208.816375 kJ/mol
# GULP energy per Si atom -5575.551023 kJ/mol
# Density = 2.466480 g / cm^3
# Si number density = 24.721062 Si / 1000 Ang^3
#
#
#
# Elastic Constant Matrix: (Units=GPa)
#
#
# Indices 1 2 3 4 5 6 
#
# 1 89.2089 37.3841 29.2961 0.0000 0.5163 0.0000
# 2 37.3841 182.9382 32.0016 0.0000 -7.0513 0.0000
# 3 29.2961 32.0016 150.9487 0.0000 0.9547 0.0000
# 4 0.0000 0.0000 0.0000 50.8678 0.0000 4.2865
# 5 0.5163 -7.0513 0.9547 0.0000 33.3379 0.0000
# 6 0.0000 0.0000 0.0000 4.2865 0.0000 23.4482
#
#
#
# Elastic Compliance Matrix: (Units=1/GPa)
#
#
# Indices 1 2 3 4 5 6 
#
# 1 0.012832 -0.002297 -0.002000 0.000000 -0.000627 0.000000
# 2 -0.002297 0.006139 -0.000864 0.000000 0.001359 0.000000
# 3 -0.002000 -0.000864 0.007198 0.000000 -0.000358 0.000000
# 4 0.000000 0.000000 0.000000 0.019966 0.000000 -0.003650
# 5 -0.000627 0.001359 -0.000358 0.000000 0.030303 0.000000
# 6 0.000000 0.000000 0.000000 -0.003650 0.000000 0.043314
#
#
# Mechanical properties :
#
#
# Convention : Reuss Voigt Hill
#
# Bulk Modulus (GPa) = 63.09726 68.93994 66.01860
# Shear Modulus (GPa) = 36.93896 43.15839 40.04868
#
# Velocity S-wave (km/s) = 3.86972 4.18283 4.02932
# Velocity P-wave (km/s) = 6.74873 7.16071 6.95777
#
# Compressibility (1/GPa) = 0.01584855
#
# Stress axis : x y z
#
# Youngs Moduli (GPa) = 77.92755 162.88619 138.92030
#
# Poissons Ratio (x) = 0.37411 0.27779
# Poissons Ratio (y) = 0.17898 0.12008
# Poissons Ratio (z) = 0.15583 0.14080
#
# Static dielectric constant tensor:
#      x y z
#    x 2.037270 0.000000 -0.042520 
#    y 0.000000 2.047830 0.000000 
#    z -0.042520 0.000000 1.996150 
# 
# From -- ./inp_files/8250.got.cif
#   From: 2010.05.17/outbox.cif.g08.bks.cpg/sg4_5_cif.got.tgz:8250.got - 2010.06.03 18:43:04.
