data_PCOD9118422
_publ_section_title
;
Structure prediction by ZEFSAII (Michael W. Deem and Ramdas Pophale) SiO2 
 PCOD9118422
Probable space group: P 21
;
_chemical_formula_sum "Si O2"
_cell_formula_units_Z 12
_cell_length_a 11.607478
_cell_length_b 8.137398
_cell_length_c 11.591341
_cell_angle_alpha 90.000000
_cell_angle_beta 156.247342
_cell_angle_gamma 90.000000
_cell_volume 440.996228
_symmetry_space_group_name_H-M "P 21"
_symmetry_group_IT_number 4
_symmetry_cell_setting 'monoclinic'
loop_
_space_group_symop_operation_xyz
x,y,z
-x,1/2+y,-z
loop_
_atom_site_type_symbol
_atom_site_label
_atom_site_fract_x
_atom_site_fract_y
_atom_site_fract_z
Si Si1 0.584639 0.006450 0.426169
Si Si2 0.399269 0.361421 0.178006
Si Si3 0.821872 0.678116 0.594192
Si Si4 0.852251 0.839224 0.307237
Si Si5 0.309930 0.680844 0.851443
Si Si6 0.000745 0.385392 0.031693
O O1 0.528806 0.180070 0.317694
O O2 0.652599 0.847764 0.409840
O O3 0.855978 0.027026 0.757688
O O4 0.330054 0.931267 0.271686
O O5 0.163394 0.381476 0.061572
O O6 0.624795 0.515475 0.396723
O O7 0.228804 0.348471 0.901069
O O8 0.922953 0.725023 0.818260
O O9 0.108263 0.682416 0.778922
O O10 0.252222 0.509632 0.738099
O O11 0.175588 0.812592 0.640558
O O12 0.645476 0.702210 0.171575
#
# Coordination Sequence:
#
# PCOD9118422 Si02
#       6
#     2   2   2   2   2   2
#     4  10  27  45  74 116 150 214 243 326 367 467
#     4  12  26  51  78 118 154 202 270 300 405 455
#     4  10  27  50  78 111 158 207 247 328 379 459
#     4  12  30  49  83 111 151 208 252 336 372 476
#     4  12  28  54  76 116 152 200 267 311 401 447
#     4  10  26  47  77 114 161 199 251 319 384 454
#
# _framework density 27.211120000000001
#
# number of rings (size 3 to 8) (size 9 to 14) (size 15 to 20)
#    1.000    0.000    0.000    4.000    9.333    6.667 
#    3.000    0.000    0.000    0.000    0.000    0.000 
#    0.000    0.000    0.000    0.000    0.000    0.000 
#
# Total GULP energy -67202.474778 kJ/mol
# GULP energy per Si atom -5600.206232 kJ/mol
# Density = 2.714919 g / cm^3
# Si number density = 27.211120 Si / 1000 Ang^3
#
#
#
# Elastic Constant Matrix: (Units=GPa)
#
#
# Indices 1 2 3 4 5 6 
#
# 1 160.4161 35.1504 26.2735 0.0000 2.3385 0.0000
# 2 35.1504 173.1523 14.2338 0.0000 5.6536 0.0000
# 3 26.2735 14.2338 88.9860 0.0000 6.3848 0.0000
# 4 0.0000 0.0000 0.0000 62.3390 0.0000 4.9296
# 5 2.3385 5.6536 6.3848 0.0000 35.6892 0.0000
# 6 0.0000 0.0000 0.0000 4.9296 0.0000 33.7044
#
#
#
# Elastic Compliance Matrix: (Units=1/GPa)
#
#
# Indices 1 2 3 4 5 6 
#
# 1 0.006800 -0.001234 -0.001816 0.000000 0.000075 0.000000
# 2 -0.001234 0.006097 -0.000555 0.000000 -0.000786 0.000000
# 3 -0.001816 -0.000555 0.012002 0.000000 -0.001940 0.000000
# 4 0.000000 0.000000 0.000000 0.016229 0.000000 -0.002374
# 5 0.000075 -0.000786 -0.001940 0.000000 0.028486 0.000000
# 6 0.000000 0.000000 0.000000 -0.002374 0.000000 0.030017
#
#
# Mechanical properties :
#
#
# Convention : Reuss Voigt Hill
#
# Bulk Modulus (GPa) = 56.52639 63.76329 60.14484
# Shear Modulus (GPa) = 44.35109 49.47295 46.91202
#
# Velocity S-wave (km/s) = 4.04157 4.26856 4.15661
# Velocity P-wave (km/s) = 6.52667 6.91215 6.72217
#
# Compressibility (1/GPa) = 0.01769085
#
# Stress axis : x y z
#
# Youngs Moduli (GPa) = 147.04942 164.01644 83.32081
#
# Poissons Ratio (x) = 0.20234 0.15130
# Poissons Ratio (y) = 0.18141 0.04621
# Poissons Ratio (z) = 0.26702 0.09097
#
# Static dielectric constant tensor:
#      x y z
#    x 2.146270 0.000000 -0.038490 
#    y 0.000000 2.171420 0.000000 
#    z -0.038490 0.000000 2.099020 
# 
# From -- ./inp_files/10205.got.cif
#   From: 2010.05.17/outbox.cif.g08.bks.cpg/sg4_6_cif.got.tgz:10205.got - 2010.06.03 18:43:04.
