data_PCOD9118366
_publ_section_title
;
Structure prediction by ZEFSAII (Michael W. Deem and Ramdas Pophale) SiO2 
 PCOD9118366
Probable space group: P 21
;
_chemical_formula_sum "Si O2"
_cell_formula_units_Z 14
_cell_length_a 9.124544
_cell_length_b 11.980433
_cell_length_c 5.375783
_cell_angle_alpha 90.000000
_cell_angle_beta 102.487812
_cell_angle_gamma 90.000000
_cell_volume 573.756208
_symmetry_space_group_name_H-M "P 21"
_symmetry_group_IT_number 4
_symmetry_cell_setting 'monoclinic'
loop_
_space_group_symop_operation_xyz
x,y,z
-x,1/2+y,-z
loop_
_atom_site_type_symbol
_atom_site_label
_atom_site_fract_x
_atom_site_fract_y
_atom_site_fract_z
Si Si1 0.183233 0.786380 0.754151
Si Si2 0.554268 0.281218 0.470850
Si Si3 0.986845 0.481169 0.123994
Si Si4 0.600373 0.091778 0.144851
Si Si5 0.350224 0.187689 0.754893
Si Si6 0.070988 0.117724 0.396674
Si Si7 0.714695 0.876339 0.955964
O O1 0.283008 0.823745 0.552443
O O2 0.281628 0.686154 0.909884
O O3 0.028049 0.729280 0.621722
O O4 0.143365 0.888117 0.914571
O O5 0.566428 0.148375 0.398476
O O6 0.476356 0.275280 0.706549
O O7 0.433069 0.344949 0.255833
O O8 0.977389 0.543269 0.384597
O O9 0.961556 0.559185 0.876799
O O10 0.148285 0.422615 0.153585
O O11 0.676127 0.973683 0.138783
O O12 0.445100 0.096605 0.937402
O O13 0.246106 0.143762 0.498887
O O14 0.244801 0.260350 0.895770
#
# Coordination Sequence:
#
# PCOD9118366 Si02
#       7
#     2   2   2   2   2   2   2
#     4  10  25  49  72 111 151 193 256 310 369 447
#     4   9  23  42  69 101 140 194 242 308 361 438
#     4  12  29  48  76 115 148 205 246 309 380 444
#     4   9  23  45  68 103 144 195 242 310 365 433
#     4  11  26  44  75 107 148 198 251 311 369 456
#     4  12  30  47  79 111 157 196 249 312 378 441
#     4  11  24  45  73 102 148 199 250 304 380 445
#
# _framework density 24.400604000000001
#
# number of rings (size 3 to 8) (size 9 to 14) (size 15 to 20)
#    0.857    0.571    1.429    0.857   14.000    2.286 
#    0.000    0.000    0.000    0.000    0.000    0.000 
#    0.000    0.000    0.000    0.000    0.000    0.000 
#
# Total GULP energy -78208.832144 kJ/mol
# GULP energy per Si atom -5586.345153 kJ/mol
# Density = 2.434507 g / cm^3
# Si number density = 24.400604 Si / 1000 Ang^3
#
#
#
# Elastic Constant Matrix: (Units=GPa)
#
#
# Indices 1 2 3 4 5 6 
#
# 1 108.7727 25.5749 16.4026 0.0000 -17.5467 0.0000
# 2 25.5749 56.6933 17.0491 0.0000 -18.7955 0.0000
# 3 16.4026 17.0491 68.6775 0.0000 -11.6600 0.0000
# 4 0.0000 0.0000 0.0000 19.1534 0.0000 -10.1357
# 5 -17.5467 -18.7955 -11.6600 0.0000 36.7829 0.0000
# 6 0.0000 0.0000 0.0000 -10.1357 0.0000 43.9501
#
#
#
# Elastic Compliance Matrix: (Units=1/GPa)
#
#
# Indices 1 2 3 4 5 6 
#
# 1 0.010664 -0.003482 -0.001185 0.000000 0.002932 0.000000
# 2 -0.003482 0.023263 -0.003390 0.000000 0.009151 0.000000
# 3 -0.001185 -0.003390 0.016165 0.000000 0.002827 0.000000
# 4 0.000000 0.000000 0.000000 0.059467 0.000000 0.013714
# 5 0.002932 0.009151 0.002827 0.000000 0.034158 0.000000
# 6 0.000000 0.000000 0.000000 0.013714 0.000000 0.025916
#
#
# Mechanical properties :
#
#
# Convention : Reuss Voigt Hill
#
# Bulk Modulus (GPa) = 29.42996 39.13299 34.28148
# Shear Modulus (GPa) = 25.37140 31.65173 28.51157
#
# Velocity S-wave (km/s) = 3.22807 3.60553 3.42201
# Velocity P-wave (km/s) = 5.09718 5.77976 5.44917
#
# Compressibility (1/GPa) = 0.03397898
#
# Stress axis : x y z
#
# Youngs Moduli (GPa) = 93.77453 42.98689 61.86127
#
# Poissons Ratio (x) = 0.14969 0.07328
# Poissons Ratio (y) = 0.32655 0.20969
# Poissons Ratio (z) = 0.11109 0.14571
#
# Static dielectric constant tensor:
#      x y z
#    x 1.943290 0.000000 -0.014770 
#    y 0.000000 1.942310 0.000000 
#    z -0.014770 0.000000 1.963120 
# 
# From -- ./inp_files/1743.got.cif
#   From: 2010.05.17/outbox.cif.g08.bks.cpg/sg4_1_cif.got.tgz:1743.got - 2010.06.03 18:43:04.
