data_PCOD9118465
_publ_section_title
;
Structure prediction by ZEFSAII (Michael W. Deem and Ramdas Pophale) SiO2 
 PCOD9118465
Probable space group: P 21
;
_chemical_formula_sum "Si O2"
_cell_formula_units_Z 12
_cell_length_a 4.965748
_cell_length_b 9.265354
_cell_length_c 12.751562
_cell_angle_alpha 90.000000
_cell_angle_beta 133.836705
_cell_angle_gamma 90.000000
_cell_volume 423.190640
_symmetry_space_group_name_H-M "P 21"
_symmetry_group_IT_number 4
_symmetry_cell_setting 'monoclinic'
loop_
_space_group_symop_operation_xyz
x,y,z
-x,1/2+y,-z
loop_
_atom_site_type_symbol
_atom_site_label
_atom_site_fract_x
_atom_site_fract_y
_atom_site_fract_z
Si Si1 0.889867 0.337780 0.931865
Si Si2 0.715532 0.086110 0.241077
Si Si3 0.284469 0.089450 0.758923
Si Si4 0.011073 0.337780 0.425971
Si Si5 0.805107 0.337780 0.687621
Si Si6 0.022792 0.837780 0.812496
O O1 0.638321 0.482959 0.860127
O O2 0.638321 0.192601 0.860127
O O3 0.058880 0.337780 0.861491
O O4 0.095062 0.337780 0.098594
O O5 0.760511 0.194512 0.351979
O O6 0.742820 0.192661 0.148618
O O7 0.073274 0.981819 0.337339
O O8 0.926726 0.193741 0.662661
O O9 0.239489 0.981048 0.648021
O O10 0.257180 0.982899 0.851382
O O11 0.205360 0.337780 0.360020
O O12 0.366991 0.337780 0.595508
#
# Coordination Sequence:
#
# PCOD9118465 Si02
#       6
#     2   2   2   2   2   2
#     4  11  19  32  56  78  97 129 172 208 242 293
#     4   8  20  36  52  70 106 134 162 202 254 294
#     4   8  20  36  52  70 106 134 162 202 254 294
#     4   8  19  36  53  69 104 140 159 199 258 295
#     4  11  19  32  56  78  97 129 172 208 242 293
#     4   8  19  36  53  69 104 140 159 199 258 295
#
# _framework density 28.356014999999999
#
# number of rings (size 3 to 8) (size 9 to 14) (size 15 to 20)
#    2.000    0.667    0.000    2.000    0.000    2.667 
#    0.000    6.667    0.000    0.000    0.000    0.000 
#    0.000    0.000    0.000    0.000    0.000    0.000 
#
# Total GULP energy -67053.626123 kJ/mol
# GULP energy per Si atom -5587.802177 kJ/mol
# Density = 2.829148 g / cm^3
# Si number density = 28.356015 Si / 1000 Ang^3
#
#
#
# Elastic Constant Matrix: (Units=GPa)
#
#
# Indices 1 2 3 4 5 6 
#
# 1 63.6989 17.1519 17.0274 0.0000 -21.6899 0.0000
# 2 17.1519 201.1073 36.8747 0.0000 17.5914 0.0000
# 3 17.0274 36.8747 138.0743 0.0000 -6.3705 0.0000
# 4 0.0000 0.0000 0.0000 28.2425 0.0000 4.7041
# 5 -21.6899 17.5914 -6.3705 0.0000 48.9016 0.0000
# 6 0.0000 0.0000 0.0000 4.7041 0.0000 21.7849
#
#
#
# Elastic Compliance Matrix: (Units=1/GPa)
#
#
# Indices 1 2 3 4 5 6 
#
# 1 0.019909 -0.002266 -0.001413 0.000000 0.009461 0.000000
# 2 -0.002266 0.005705 -0.001393 0.000000 -0.003239 0.000000
# 3 -0.001413 -0.001393 0.007830 0.000000 0.000894 0.000000
# 4 0.000000 0.000000 0.000000 0.036729 0.000000 -0.007931
# 5 0.009461 -0.003239 0.000894 0.000000 0.025927 0.000000
# 6 0.000000 0.000000 0.000000 -0.007931 0.000000 0.047616
#
#
# Mechanical properties :
#
#
# Convention : Reuss Voigt Hill
#
# Bulk Modulus (GPa) = 42.92398 60.55430 51.73914
# Shear Modulus (GPa) = 30.93535 41.90756 36.42146
#
# Velocity S-wave (km/s) = 3.30656 3.84853 3.58779
# Velocity P-wave (km/s) = 5.45418 6.41479 5.95389
#
# Compressibility (1/GPa) = 0.02329700
#
# Stress axis : x y z
#
# Youngs Moduli (GPa) = 50.22947 175.29772 127.71107
#
# Poissons Ratio (x) = 0.39730 0.18050
# Poissons Ratio (y) = 0.11384 0.17796
# Poissons Ratio (z) = 0.07099 0.24426
#
# Static dielectric constant tensor:
#      x y z
#    x 2.160540 0.000000 -0.024690 
#    y 0.000000 2.129700 0.000000 
#    z -0.024690 0.000000 2.158800 
# 
# From -- ./inp_files/13360.got.cif
#   From: 2010.05.17/outbox.cif.g08.bks.cpg/sg4_7_cif.got.tgz:13360.got - 2010.06.03 18:43:04.
