data_PCOD9118575
_publ_section_title
;
Structure prediction by ZEFSAII (Michael W. Deem and Ramdas Pophale) SiO2 
 PCOD9118575
Probable space group: P 21
;
_chemical_formula_sum "Si O2"
_cell_formula_units_Z 16
_cell_length_a 9.304142
_cell_length_b 8.267551
_cell_length_c 13.374725
_cell_angle_alpha 90.000000
_cell_angle_beta 139.819493
_cell_angle_gamma 90.000000
_cell_volume 663.790370
_symmetry_space_group_name_H-M "P 21"
_symmetry_group_IT_number 4
_symmetry_cell_setting 'monoclinic'
loop_
_space_group_symop_operation_xyz
x,y,z
-x,1/2+y,-z
loop_
_atom_site_type_symbol
_atom_site_label
_atom_site_fract_x
_atom_site_fract_y
_atom_site_fract_z
Si Si1 0.651137 0.207810 0.286741
Si Si2 0.067082 0.143710 0.622661
Si Si3 0.183655 0.684665 0.178259
Si Si4 0.759950 0.381009 0.155868
Si Si5 0.699159 0.944199 0.170270
Si Si6 0.405696 0.018809 0.645907
Si Si7 0.927592 0.805442 0.853149
Si Si8 0.164311 0.993535 0.310103
O O1 0.811282 0.280811 0.284008
O O2 0.506631 0.353249 0.254912
O O3 0.808068 0.151783 0.460566
O O4 0.562105 0.060930 0.173861
O O5 0.180346 0.316032 0.695321
O O6 0.133919 0.052575 0.759652
O O7 0.187788 0.059170 0.594192
O O8 0.425914 0.667042 0.256321
O O9 0.152576 0.493470 0.189988
O O10 0.187826 0.823889 0.263976
O O11 0.005335 0.743740 0.002404
O O12 0.860070 0.316789 0.107805
O O13 0.493712 0.382511 0.005435
O O14 0.908521 0.001282 0.214344
O O15 0.328856 0.993415 0.492026
O O16 0.790038 0.655837 0.730932
#
# Coordination Sequence:
#
# PCOD9118575 Si02
#       8
#     2   2   2   2   2   2   2   2
#     4  11  22  42  67 103 145 182 226 304 372 437
#     4  11  21  42  69 105 147 183 231 299 381 439
#     4  12  29  49  75 103 146 202 254 294 362 437
#     4  11  24  39  70 106 141 183 235 303 376 440
#     4  12  22  41  72 108 143 184 235 306 377 437
#     4  11  26  47  70 105 147 190 243 298 362 453
#     4  12  26  50  72 104 146 193 247 309 361 434
#     4  12  26  50  73 104 151 191 249 307 355 435
#
# _framework density 24.103995000000001
#
# number of rings (size 3 to 8) (size 9 to 14) (size 15 to 20)
#    0.000    0.500    5.000    3.000    5.250    1.000 
#    2.250    0.000    0.000    0.000    0.000    0.000 
#    0.000    0.000    0.000    0.000    0.000    0.000 
#
# Total GULP energy -89315.386546 kJ/mol
# GULP energy per Si atom -5582.211659 kJ/mol
# Density = 2.404913 g / cm^3
# Si number density = 24.103995 Si / 1000 Ang^3
#
#
#
# Elastic Constant Matrix: (Units=GPa)
#
#
# Indices 1 2 3 4 5 6 
#
# 1 36.2233 28.7261 15.0863 0.0000 -3.7920 0.0000
# 2 28.7261 145.6936 31.5508 0.0000 -21.7320 0.0000
# 3 15.0863 31.5508 79.0970 0.0000 -13.3090 0.0000
# 4 0.0000 0.0000 0.0000 42.6368 0.0000 -13.4537
# 5 -3.7920 -21.7320 -13.3090 0.0000 33.4915 0.0000
# 6 0.0000 0.0000 0.0000 -13.4537 0.0000 54.6264
#
#
#
# Elastic Compliance Matrix: (Units=1/GPa)
#
#
# Indices 1 2 3 4 5 6 
#
# 1 0.034025 -0.006027 -0.004389 0.000000 -0.001803 0.000000
# 2 -0.006027 0.009101 -0.001717 0.000000 0.004541 0.000000
# 3 -0.004389 -0.001717 0.014889 0.000000 0.004306 0.000000
# 4 0.000000 0.000000 0.000000 0.025430 0.000000 0.006263
# 5 -0.001803 0.004541 0.004306 0.000000 0.034312 0.000000
# 6 0.000000 0.000000 0.000000 0.006263 0.000000 0.019849
#
#
# Mechanical properties :
#
#
# Convention : Reuss Voigt Hill
#
# Bulk Modulus (GPa) = 29.62943 45.74893 37.68918
# Shear Modulus (GPa) = 28.88139 38.52766 33.70452
#
# Velocity S-wave (km/s) = 3.46526 4.00233 3.74344
# Velocity P-wave (km/s) = 5.32256 6.35446 5.86127
#
# Compressibility (1/GPa) = 0.03375023
#
# Stress axis : x y z
#
# Youngs Moduli (GPa) = 29.38980 109.87586 67.16330
#
# Poissons Ratio (x) = 0.66224 0.29477
# Poissons Ratio (y) = 0.17714 0.11530
# Poissons Ratio (z) = 0.12899 0.18862
#
# Static dielectric constant tensor:
#      x y z
#    x 1.969000 0.000000 0.009400 
#    y 0.000000 2.102760 0.000000 
#    z 0.009400 0.000000 1.843950 
# 
# From -- ./inp_files/9915.got.cif
#   From: 2010.05.17/outbox.cif.g08.bks.cpg/sg4_5_cif.got.tgz:9915.got - 2010.06.03 18:43:04.
