data_PCOD9118098
_publ_section_title
;
Structure prediction by ZEFSAII (Michael W. Deem and Ramdas Pophale) SiO2 
 PCOD9118098
Probable space group: P 21
;
_chemical_formula_sum "Si O2"
_cell_formula_units_Z 14
_cell_length_a 5.824812
_cell_length_b 8.597168
_cell_length_c 12.619596
_cell_angle_alpha 90.000000
_cell_angle_beta 90.334959
_cell_angle_gamma 90.000000
_cell_volume 631.939288
_symmetry_space_group_name_H-M "P 21"
_symmetry_group_IT_number 4
_symmetry_cell_setting 'monoclinic'
loop_
_space_group_symop_operation_xyz
x,y,z
-x,1/2+y,-z
loop_
_atom_site_type_symbol
_atom_site_label
_atom_site_fract_x
_atom_site_fract_y
_atom_site_fract_z
Si Si1 0.878353 0.971330 0.376081
Si Si2 0.829182 0.416697 0.823306
Si Si3 0.501352 0.661919 0.732884
Si Si4 0.180176 0.406795 0.014668
Si Si5 0.524260 0.657531 0.099563
Si Si6 0.157117 0.915221 0.789734
Si Si7 0.876757 0.803204 0.597561
O O1 0.858559 0.870953 0.481000
O O2 0.019371 0.889998 0.281795
O O3 0.634555 0.028081 0.330449
O O4 0.009862 0.132198 0.403318
O O5 0.687762 0.573529 0.802468
O O6 0.652690 0.277370 0.846338
O O7 0.998717 0.440880 0.921754
O O8 0.318843 0.763333 0.796107
O O9 0.631900 0.777791 0.653366
O O10 0.372678 0.536806 0.032707
O O11 0.039288 0.399219 0.122846
O O12 0.309463 0.253521 0.976277
O O13 0.683368 0.561989 0.182074
O O14 0.035513 0.908527 0.674990
#
# Coordination Sequence:
#
# PCOD9118098 Si02
#       7
#     2   2   2   2   2   2   2
#     4  10  24  45  69  99 136 177 224 277 331 394
#     4  11  26  46  69 101 136 176 223 277 334 397
#     4  10  24  45  71 100 136 178 223 275 334 396
#     4  12  28  46  68 100 136 178 224 276 332 398
#     4  12  28  45  69 100 136 178 223 275 334 400
#     4  11  26  46  69 101 136 176 223 277 334 397
#     4  10  24  45  69  99 136 177 224 277 331 394
#
# _framework density 22.154026000000002
#
# number of rings (size 3 to 8) (size 9 to 14) (size 15 to 20)
#    0.000    1.143    0.000    3.429    0.000   30.857 
#    0.000    2.857    0.000    0.000    0.000    0.000 
#    0.000    0.000    0.000    0.000    0.000    0.000 
#
# Total GULP energy -78471.378949 kJ/mol
# GULP energy per Si atom -5605.098496 kJ/mol
# Density = 2.210360 g / cm^3
# Si number density = 22.154026 Si / 1000 Ang^3
#
#
#
# Elastic Constant Matrix: (Units=GPa)
#
#
# Indices 1 2 3 4 5 6 
#
# 1 87.7273 6.1314 15.7628 0.0000 -0.3575 0.0000
# 2 6.1314 40.9507 21.1020 0.0000 -0.2728 0.0000
# 3 15.7628 21.1020 82.4892 0.0000 -3.7043 0.0000
# 4 0.0000 0.0000 0.0000 53.5528 0.0000 -0.7071
# 5 -0.3575 -0.2728 -3.7043 0.0000 17.1595 0.0000
# 6 0.0000 0.0000 0.0000 -0.7071 0.0000 44.6043
#
#
#
# Elastic Compliance Matrix: (Units=1/GPa)
#
#
# Indices 1 2 3 4 5 6 
#
# 1 0.011822 -0.000694 -0.002091 0.000000 -0.000216 0.000000
# 2 -0.000694 0.028189 -0.007128 0.000000 -0.001105 0.000000
# 3 -0.002091 -0.007128 0.014479 0.000000 0.002969 0.000000
# 4 0.000000 0.000000 0.000000 0.018677 0.000000 0.000296
# 5 -0.000216 -0.001105 0.002969 0.000000 0.058895 0.000000
# 6 0.000000 0.000000 0.000000 0.000296 0.000000 0.022424
#
#
# Mechanical properties :
#
#
# Convention : Reuss Voigt Hill
#
# Bulk Modulus (GPa) = 28.84843 33.01773 30.93308
# Shear Modulus (GPa) = 26.90064 34.27474 30.58769
#
# Velocity S-wave (km/s) = 3.48840 3.93760 3.71979
# Velocity P-wave (km/s) = 5.41066 5.96733 5.69580
#
# Compressibility (1/GPa) = 0.03466393
#
# Stress axis : x y z
#
# Youngs Moduli (GPa) = 84.58559 35.47441 69.06429
#
# Poissons Ratio (x) = 0.02462 0.14444
# Poissons Ratio (y) = 0.05869 0.49231
# Poissons Ratio (z) = 0.17690 0.25287
#
# Static dielectric constant tensor:
#      x y z
#    x 1.826940 0.000000 -0.003200 
#    y 0.000000 1.809540 0.000000 
#    z -0.003200 0.000000 1.772640 
# 
# From -- ./inp_files/10261.got.cif
#   From: 2010.05.17/outbox.cif.g08.bks.cpg/sg4_6_cif.got.tgz:10261.got - 2010.06.03 18:43:04.
