data_PCOD9118434
_publ_section_title
;
Structure prediction by ZEFSAII (Michael W. Deem and Ramdas Pophale) SiO2 
 PCOD9118434
Probable space group: P 21
;
_chemical_formula_sum "Si O2"
_cell_formula_units_Z 10
_cell_length_a 14.482753
_cell_length_b 5.253893
_cell_length_c 14.024859
_cell_angle_alpha 90.000000
_cell_angle_beta 20.807602
_cell_angle_gamma 90.000000
_cell_volume 379.089451
_symmetry_space_group_name_H-M "P 21"
_symmetry_group_IT_number 4
_symmetry_cell_setting 'monoclinic'
loop_
_space_group_symop_operation_xyz
x,y,z
-x,1/2+y,-z
loop_
_atom_site_type_symbol
_atom_site_label
_atom_site_fract_x
_atom_site_fract_y
_atom_site_fract_z
Si Si1 0.186780 0.057230 0.713547
Si Si2 0.197827 0.396361 0.184940
Si Si3 0.169381 0.060811 0.943565
Si Si4 0.273600 0.571751 0.322168
Si Si5 0.522570 0.238728 0.223390
O O1 0.401336 0.072462 0.424687
O O2 0.023665 0.318649 0.865271
O O3 0.296151 0.051960 0.715928
O O4 0.996744 0.816148 0.886701
O O5 0.177392 0.528877 0.307729
O O6 0.943235 0.231770 0.414433
O O7 0.453003 0.218475 0.946880
O O8 0.250481 0.595260 0.050949
O O9 0.377888 0.997572 0.823154
O O10 0.322587 0.314152 0.333247
#
# Coordination Sequence:
#
# PCOD9118434 Si02
#       5
#     2   2   2   2   2
#     4  10  26  51  79 117 167 222 282 349 420 499
#     4  12  29  53  82 120 169 218 282 348 427 504
#     4  10  26  51  79 117 167 222 282 349 420 499
#     4  12  29  53  82 120 169 218 282 348 427 504
#     4  12  30  48  82 118 164 220 282 354 412 510
#
# _framework density 26.378997999999999
#
# number of rings (size 3 to 8) (size 9 to 14) (size 15 to 20)
#    0.000    0.800    2.000    1.200   11.200    4.800 
#    0.000    0.000    0.000    0.000    0.000    0.000 
#    0.000    0.000    0.000    0.000    0.000    0.000 
#
# Total GULP energy -56221.744737 kJ/mol
# GULP energy per Si atom -5622.174474 kJ/mol
# Density = 2.631896 g / cm^3
# Si number density = 26.378998 Si / 1000 Ang^3
#
#
#
# Elastic Constant Matrix: (Units=GPa)
#
#
# Indices 1 2 3 4 5 6 
#
# 1 148.5977 25.5898 29.3321 0.0000 40.1553 0.0000
# 2 25.5898 136.5340 52.5531 0.0000 22.7065 0.0000
# 3 29.3321 52.5531 138.1915 0.0000 37.2182 0.0000
# 4 0.0000 0.0000 0.0000 58.8948 0.0000 -4.2904
# 5 40.1553 22.7065 37.2182 0.0000 40.1409 0.0000
# 6 0.0000 0.0000 0.0000 -4.2904 0.0000 39.4924
#
#
#
# Elastic Compliance Matrix: (Units=1/GPa)
#
#
# Indices 1 2 3 4 5 6 
#
# 1 0.009295 -0.000430 0.000839 0.000000 -0.009833 0.000000
# 2 -0.000430 0.008783 -0.002701 0.000000 -0.002034 0.000000
# 3 0.000839 -0.002701 0.010529 0.000000 -0.009074 0.000000
# 4 0.000000 0.000000 0.000000 0.017115 0.000000 0.001859
# 5 -0.009833 -0.002034 -0.009074 0.000000 0.044313 0.000000
# 6 0.000000 0.000000 0.000000 0.001859 0.000000 0.025523
#
#
# Mechanical properties :
#
#
# Convention : Reuss Voigt Hill
#
# Bulk Modulus (GPa) = 41.62636 70.91924 56.27280
# Shear Modulus (GPa) = 39.01696 48.76216 43.88956
#
# Velocity S-wave (km/s) = 3.85007 4.30411 4.08340
# Velocity P-wave (km/s) = 5.96476 7.18635 6.60386
#
# Compressibility (1/GPa) = 0.02402324
#
# Stress axis : x y z
#
# Youngs Moduli (GPa) = 107.58236 113.86159 94.97350
#
# Poissons Ratio (x) = 0.04892 -0.07966
# Poissons Ratio (y) = 0.04622 0.25652
# Poissons Ratio (z) = -0.09023 0.30754
#
# Static dielectric constant tensor:
#      x y z
#    x 2.043770 0.000000 -0.028090 
#    y 0.000000 2.072670 0.000000 
#    z -0.028090 0.000000 2.032200 
# 
# From -- ./inp_files/14012.got.cif
#   From: 2010.05.17/outbox.cif.g08.bks.cpg/sg4_8_cif.got.tgz:14012.got - 2010.06.03 18:43:04.
