data_PCOD9118393
_publ_section_title
;
Structure prediction by ZEFSAII (Michael W. Deem and Ramdas Pophale) SiO2 
 PCOD9118393
Probable space group: P 21
;
_chemical_formula_sum "Si O2"
_cell_formula_units_Z 16
_cell_length_a 8.717571
_cell_length_b 12.863145
_cell_length_c 6.568818
_cell_angle_alpha 90.000000
_cell_angle_beta 77.093749
_cell_angle_gamma 90.000000
_cell_volume 717.988130
_symmetry_space_group_name_H-M "P 21"
_symmetry_group_IT_number 4
_symmetry_cell_setting 'monoclinic'
loop_
_space_group_symop_operation_xyz
x,y,z
-x,1/2+y,-z
loop_
_atom_site_type_symbol
_atom_site_label
_atom_site_fract_x
_atom_site_fract_y
_atom_site_fract_z
Si Si1 0.284458 0.858260 0.758731
Si Si2 0.199342 0.462358 0.970613
Si Si3 0.671632 0.179934 0.919965
Si Si4 0.775515 0.853260 0.618104
Si Si5 0.134721 0.992907 0.132908
Si Si6 0.623997 0.645314 0.784593
Si Si7 0.885049 0.305075 0.568081
Si Si8 0.547442 0.962377 0.412064
O O1 0.147992 0.811679 0.659727
O O2 0.414582 0.893567 0.557788
O O3 0.322672 0.771374 0.913708
O O4 0.230753 0.957445 0.904985
O O5 0.354733 0.418768 0.809867
O O6 0.046208 0.478695 0.876552
O O7 0.243386 0.577872 0.025384
O O8 0.171866 0.393465 0.176687
O O9 0.771820 0.218438 0.698410
O O10 0.486780 0.152212 0.981119
O O11 0.656281 0.757674 0.680934
O O12 0.687944 0.951985 0.538427
O O13 0.926825 0.805344 0.457653
O O14 0.166131 0.910346 0.302317
O O15 0.208212 0.098375 0.196332
O O16 0.533147 0.568280 0.650891
#
# Coordination Sequence:
#
# PCOD9118393 Si02
#       8
#     2   2   2   2   2   2   2   2
#     4  11  23  45  69 100 140 186 232 292 360 419
#     4  11  26  46  68 105 143 188 233 304 353 428
#     4  10  26  43  68 103 141 183 240 295 354 429
#     4  12  26  48  72 102 146 192 243 293 368 425
#     4  11  24  45  69 103 144 178 240 291 356 429
#     4  11  26  46  71 109 143 190 240 297 366 431
#     4  11  24  45  72 100 140 193 231 297 359 427
#     4  11  25  46  71 102 145 184 245 295 354 430
#
# _framework density 22.284490999999999
#
# number of rings (size 3 to 8) (size 9 to 14) (size 15 to 20)
#    0.000    1.000    5.000    0.000    7.000    4.000 
#    2.250    0.000    0.000    0.000    0.000    0.000 
#    0.000    0.000    0.000    0.000    0.000    0.000 
#
# Total GULP energy -89200.741285 kJ/mol
# GULP energy per Si atom -5575.046330 kJ/mol
# Density = 2.223377 g / cm^3
# Si number density = 22.284491 Si / 1000 Ang^3
#
#
#
# Elastic Constant Matrix: (Units=GPa)
#
#
# Indices 1 2 3 4 5 6 
#
# 1 90.5363 24.1058 32.0603 0.0000 -12.6707 0.0000
# 2 24.1058 72.8517 24.5153 0.0000 -8.4148 0.0000
# 3 32.0603 24.5153 78.2507 0.0000 -13.8277 0.0000
# 4 0.0000 0.0000 0.0000 25.2552 0.0000 -3.1168
# 5 -12.6707 -8.4148 -13.8277 0.0000 36.3364 0.0000
# 6 0.0000 0.0000 0.0000 -3.1168 0.0000 29.1134
#
#
#
# Elastic Compliance Matrix: (Units=1/GPa)
#
#
# Indices 1 2 3 4 5 6 
#
# 1 0.013652 -0.002790 -0.004280 0.000000 0.002486 0.000000
# 2 -0.002790 0.016031 -0.003640 0.000000 0.001354 0.000000
# 3 -0.004280 -0.003640 0.016361 0.000000 0.003891 0.000000
# 4 0.000000 0.000000 0.000000 0.040126 0.000000 0.004296
# 5 0.002486 0.001354 0.003891 0.000000 0.030182 0.000000
# 6 0.000000 0.000000 0.000000 0.004296 0.000000 0.034808
#
#
# Mechanical properties :
#
#
# Convention : Reuss Voigt Hill
#
# Bulk Modulus (GPa) = 40.61097 44.77793 42.69445
# Shear Modulus (GPa) = 27.65688 28.87149 28.26418
#
# Velocity S-wave (km/s) = 3.52672 3.60333 3.56523
# Velocity P-wave (km/s) = 5.90314 6.11959 6.01234
#
# Compressibility (1/GPa) = 0.02462389
#
# Stress axis : x y z
#
# Youngs Moduli (GPa) = 73.25169 62.37930 61.12133
#
# Poissons Ratio (x) = 0.17402 0.26160
# Poissons Ratio (y) = 0.20436 0.22248
# Poissons Ratio (z) = 0.31352 0.22706
#
# Static dielectric constant tensor:
#      x y z
#    x 1.882050 0.000000 -0.011980 
#    y 0.000000 1.792330 0.000000 
#    z -0.011980 0.000000 1.834240 
# 
# From -- ./inp_files/1675.got.cif
#   From: 2010.05.17/outbox.cif.g08.bks.cpg/sg4_1_cif.got.tgz:1675.got - 2010.06.03 18:43:04.
