data_PCOD9118193
_publ_section_title
;
Structure prediction by ZEFSAII (Michael W. Deem and Ramdas Pophale) SiO2 
 PCOD9118193
Probable space group: P 21
;
_chemical_formula_sum "Si O2"
_cell_formula_units_Z 14
_cell_length_a 5.299675
_cell_length_b 9.002769
_cell_length_c 11.682447
_cell_angle_alpha 90.000000
_cell_angle_beta 71.837813
_cell_angle_gamma 90.000000
_cell_volume 529.619690
_symmetry_space_group_name_H-M "P 21"
_symmetry_group_IT_number 4
_symmetry_cell_setting 'monoclinic'
loop_
_space_group_symop_operation_xyz
x,y,z
-x,1/2+y,-z
loop_
_atom_site_type_symbol
_atom_site_label
_atom_site_fract_x
_atom_site_fract_y
_atom_site_fract_z
Si Si1 0.914188 0.724260 0.039489
Si Si2 0.137879 0.188676 0.378583
Si Si3 0.242768 0.516316 0.318156
Si Si4 0.850502 0.778082 0.294273
Si Si5 0.429567 0.527445 0.528568
Si Si6 0.741004 0.523645 0.855857
Si Si7 0.730382 0.981470 0.947072
O O1 0.757390 0.718633 0.182996
O O2 0.191158 0.649087 0.035659
O O3 0.796261 0.616226 0.961285
O O4 0.962402 0.872478 0.958350
O O5 0.102976 0.366039 0.387308
O O6 0.330505 0.109315 0.442604
O O7 0.286592 0.141383 0.241125
O O8 0.845438 0.118703 0.420000
O O9 0.466320 0.531360 0.385532
O O10 0.326752 0.473411 0.178033
O O11 0.047995 0.659344 0.328574
O O12 0.636000 0.867265 0.402670
O O13 0.037794 0.911189 0.219065
O O14 0.485507 0.433079 0.929602
#
# Coordination Sequence:
#
# PCOD9118193 Si02
#       7
#     2   2   2   2   2   2   2
#     4  11  22  42  67 102 144 182 236 301 372 451
#     4  11  26  48  78 104 150 199 256 313 387 447
#     4  11  25  46  73 113 144 202 265 317 371 467
#     4  10  24  47  73 108 148 197 252 309 386 452
#     4  11  26  53  74 108 152 204 252 321 381 452
#     4  11  24  43  69 103 145 191 234 306 384 451
#     4  11  25  43  68 108 143 195 241 309 381 456
#
# _framework density 26.434062000000001
#
# number of rings (size 3 to 8) (size 9 to 14) (size 15 to 20)
#    0.000    1.143    2.857    1.714    6.000    3.429 
#   12.857    0.000    0.000    0.000    0.000    0.000 
#    0.000    0.000    0.000    0.000    0.000    0.000 
#
# Total GULP energy -78255.698624 kJ/mol
# GULP energy per Si atom -5589.692759 kJ/mol
# Density = 2.637390 g / cm^3
# Si number density = 26.434062 Si / 1000 Ang^3
#
#
#
# Elastic Constant Matrix: (Units=GPa)
#
#
# Indices 1 2 3 4 5 6 
#
# 1 68.1653 23.4066 46.8144 0.0000 10.1904 0.0000
# 2 23.4066 141.7489 49.7917 0.0000 18.4961 0.0000
# 3 46.8144 49.7917 209.5761 0.0000 20.5005 0.0000
# 4 0.0000 0.0000 0.0000 58.7601 0.0000 18.5083
# 5 10.1904 18.4961 20.5005 0.0000 45.9245 0.0000
# 6 0.0000 0.0000 0.0000 18.5083 0.0000 26.7568
#
#
#
# Elastic Compliance Matrix: (Units=1/GPa)
#
#
# Indices 1 2 3 4 5 6 
#
# 1 0.017823 -0.001495 -0.003449 0.000000 -0.001813 0.000000
# 2 -0.001495 0.008081 -0.001359 0.000000 -0.002316 0.000000
# 3 -0.003449 -0.001359 0.005998 0.000000 -0.001365 0.000000
# 4 0.000000 0.000000 0.000000 0.021759 0.000000 -0.015051
# 5 -0.001813 -0.002316 -0.001365 0.000000 0.023719 0.000000
# 6 0.000000 0.000000 0.000000 -0.015051 0.000000 0.047785
#
#
# Mechanical properties :
#
#
# Convention : Reuss Voigt Hill
#
# Bulk Modulus (GPa) = 51.82307 73.27952 62.55130
# Shear Modulus (GPa) = 34.67282 46.25345 40.46313
#
# Velocity S-wave (km/s) = 3.62563 4.18756 3.91669
# Velocity P-wave (km/s) = 6.09706 7.15281 6.64593
#
# Compressibility (1/GPa) = 0.01929642
#
# Stress axis : x y z
#
# Youngs Moduli (GPa) = 56.10676 123.74149 166.71123
#
# Poissons Ratio (x) = 0.18500 0.57494
# Poissons Ratio (y) = 0.08388 0.22664
# Poissons Ratio (z) = 0.19350 0.16822
#
# Static dielectric constant tensor:
#      x y z
#    x 2.200610 0.000000 -0.065390 
#    y 0.000000 2.323820 0.000000 
#    z -0.065390 0.000000 2.123410 
# 
# From -- ./inp_files/10295.got.cif
#   From: 2010.05.17/outbox.cif.g08.bks.cpg/sg4_6_cif.got.tgz:10295.got - 2010.06.03 18:43:04.
