data_PCOD9118987
_publ_section_title
;
Structure prediction by ZEFSAII (Michael W. Deem and Ramdas Pophale) SiO2 
 PCOD9118987
Probable space group: P 21
;
_chemical_formula_sum "Si O2"
_cell_formula_units_Z 16
_cell_length_a 11.588498
_cell_length_b 8.745820
_cell_length_c 10.346172
_cell_angle_alpha 90.000000
_cell_angle_beta 139.718553
_cell_angle_gamma 90.000000
_cell_volume 677.960902
_symmetry_space_group_name_H-M "P 21"
_symmetry_group_IT_number 4
_symmetry_cell_setting 'monoclinic'
loop_
_space_group_symop_operation_xyz
x,y,z
-x,1/2+y,-z
loop_
_atom_site_type_symbol
_atom_site_label
_atom_site_fract_x
_atom_site_fract_y
_atom_site_fract_z
Si Si1 0.519695 0.058340 0.979642
Si Si2 0.391390 0.890403 0.371138
Si Si3 0.880356 0.901689 0.237118
Si Si4 0.042747 0.073501 0.130632
Si Si5 0.126823 0.122918 0.601007
Si Si6 0.366523 0.872558 0.049762
Si Si7 0.053663 0.360640 0.316138
Si Si8 0.735691 0.078630 0.655229
O O1 0.319160 0.042817 0.753881
O O2 0.582375 0.227607 0.995335
O O3 0.672669 0.948033 0.056382
O O4 0.484222 0.013418 0.098444
O O5 0.401293 0.837591 0.229462
O O6 0.343048 0.747728 0.419367
O O7 0.575251 0.970215 0.563696
O O8 0.229915 0.010273 0.241101
O O9 0.896077 0.724489 0.289191
O O10 0.972965 0.961560 0.185550
O O11 0.973774 0.005357 0.428900
O O12 0.063305 0.244510 0.202687
O O13 0.894954 0.079421 0.894304
O O14 0.122345 0.254807 0.489190
O O15 0.155331 0.899538 0.849298
O O16 0.178144 0.504169 0.397288
#
# Coordination Sequence:
#
# PCOD9118987 Si02
#       8
#     2   2   2   2   2   2   2   2
#     4  12  24  45  70 103 141 190 233 298 357 421
#     4  12  27  47  74 109 143 193 240 295 361 425
#     4  11  25  44  69 104 143 190 239 296 361 419
#     4  11  23  47  72 104 145 190 237 297 362 417
#     4  11  24  44  71 102 143 188 243 291 360 421
#     4  12  24  49  72 102 149 189 239 298 359 422
#     4  11  23  47  77  99 148 195 234 302 361 418
#     4  12  24  47  73 103 146 189 239 293 357 431
#
# _framework density 23.600179000000001
#
# number of rings (size 3 to 8) (size 9 to 14) (size 15 to 20)
#    0.000    0.500    6.250    2.250    0.000    5.000 
#    4.500    0.000    0.000    0.000    0.000    0.000 
#    0.000    0.000    0.000    0.000    0.000    0.000 
#
# Total GULP energy -89594.353844 kJ/mol
# GULP energy per Si atom -5599.647115 kJ/mol
# Density = 2.354646 g / cm^3
# Si number density = 23.600179 Si / 1000 Ang^3
#
#
#
# Elastic Constant Matrix: (Units=GPa)
#
#
# Indices 1 2 3 4 5 6 
#
# 1 78.4933 42.0926 8.1962 0.0000 30.1439 0.0000
# 2 42.0926 108.3010 16.6249 0.0000 19.7141 0.0000
# 3 8.1962 16.6249 59.8245 0.0000 17.0887 0.0000
# 4 0.0000 0.0000 0.0000 25.5674 0.0000 8.2632
# 5 30.1439 19.7141 17.0887 0.0000 28.9827 0.0000
# 6 0.0000 0.0000 0.0000 8.2632 0.0000 55.7087
#
#
#
# Elastic Compliance Matrix: (Units=1/GPa)
#
#
# Indices 1 2 3 4 5 6 
#
# 1 0.025056 -0.005986 0.005425 0.000000 -0.025187 0.000000
# 2 -0.005986 0.012025 -0.002361 0.000000 -0.000561 0.000000
# 3 0.005425 -0.002361 0.021383 0.000000 -0.016644 0.000000
# 4 0.000000 0.000000 0.000000 0.041082 0.000000 -0.006094
# 5 -0.025187 -0.000561 -0.016644 0.000000 0.070895 0.000000
# 6 0.000000 0.000000 0.000000 -0.006094 0.000000 0.018854
#
#
# Mechanical properties :
#
#
# Convention : Reuss Voigt Hill
#
# Bulk Modulus (GPa) = 19.00439 42.27179 30.63809
# Shear Modulus (GPa) = 23.50956 34.03211 28.77083
#
# Velocity S-wave (km/s) = 3.15962 3.80152 3.49534
# Velocity P-wave (km/s) = 4.62397 6.10076 5.41297
#
# Compressibility (1/GPa) = 0.05261942
#
# Stress axis : x y z
#
# Youngs Moduli (GPa) = 39.90999 83.16154 46.76641
#
# Poissons Ratio (x) = 0.49784 -0.25373
# Poissons Ratio (y) = 0.23892 0.11043
# Poissons Ratio (z) = -0.21653 0.19637
#
# Static dielectric constant tensor:
#      x y z
#    x 1.905730 0.000000 -0.040300 
#    y 0.000000 1.877630 0.000000 
#    z -0.040300 0.000000 1.866490 
# 
# From -- ./inp_files/12040.got.cif
#   From: 2010.05.17/outbox.cif.g08.bks.cpg/sg4_7_cif.got.tgz:12040.got - 2010.06.03 18:43:04.
