data_PCOD9118905
_publ_section_title
;
Structure prediction by ZEFSAII (Michael W. Deem and Ramdas Pophale) SiO2 
 PCOD9118905
Probable space group: P 21
;
_chemical_formula_sum "Si O2"
_cell_formula_units_Z 12
_cell_length_a 14.223462
_cell_length_b 7.455280
_cell_length_c 8.743904
_cell_angle_alpha 90.000000
_cell_angle_beta 31.428622
_cell_angle_gamma 90.000000
_cell_volume 483.476792
_symmetry_space_group_name_H-M "P 21"
_symmetry_group_IT_number 4
_symmetry_cell_setting 'monoclinic'
loop_
_space_group_symop_operation_xyz
x,y,z
-x,1/2+y,-z
loop_
_atom_site_type_symbol
_atom_site_label
_atom_site_fract_x
_atom_site_fract_y
_atom_site_fract_z
Si Si1 0.583502 0.129330 0.319792
Si Si2 0.385319 0.995812 0.874762
Si Si3 0.311501 0.480645 0.335095
Si Si4 0.189307 0.172868 0.721684
Si Si5 0.819583 0.850356 0.811888
Si Si6 0.897067 0.325341 0.355747
O O1 0.665199 0.319414 0.152557
O O2 0.386832 0.129644 0.514175
O O3 0.541327 0.094527 0.555461
O O4 0.706454 0.968835 0.089935
O O5 0.481052 0.951311 0.902702
O O6 0.234664 0.143332 0.103465
O O7 0.204610 0.351930 0.599462
O O8 0.268327 0.689824 0.410515
O O9 0.244856 0.423082 0.261027
O O10 0.134777 0.008096 0.690237
O O11 0.050243 0.214707 0.049618
O O12 0.024486 0.862922 0.584281
#
# Coordination Sequence:
#
# PCOD9118905 Si02
#       6
#     2   2   2   2   2   2
#     4  11  23  44  71 104 127 179 231 277 327 397
#     4  11  23  44  73  98 134 176 228 276 331 397
#     4  11  28  44  66 104 139 177 222 279 344 395
#     4  11  24  45  72 100 134 177 230 275 333 403
#     4  12  27  44  68 103 139 176 225 279 340 396
#     4  12  25  45  72  99 135 183 222 278 335 408
#
# _framework density 24.820219000000002
#
# number of rings (size 3 to 8) (size 9 to 14) (size 15 to 20)
#    0.000    0.667    5.000    2.000    7.000    2.667 
#    0.000    0.000    0.000    0.000    0.000    0.000 
#    0.000    0.000    0.000    0.000    0.000    0.000 
#
# Total GULP energy -67273.890313 kJ/mol
# GULP energy per Si atom -5606.157526 kJ/mol
# Density = 2.476373 g / cm^3
# Si number density = 24.820219 Si / 1000 Ang^3
#
#
#
# Elastic Constant Matrix: (Units=GPa)
#
#
# Indices 1 2 3 4 5 6 
#
# 1 147.9829 41.1244 3.9292 0.0000 7.1256 0.0000
# 2 41.1244 170.9841 26.6536 0.0000 -4.3850 0.0000
# 3 3.9292 26.6536 25.2326 0.0000 1.9589 0.0000
# 4 0.0000 0.0000 0.0000 39.9709 0.0000 -1.7845
# 5 7.1256 -4.3850 1.9589 0.0000 18.7503 0.0000
# 6 0.0000 0.0000 0.0000 -1.7845 0.0000 41.7390
#
#
#
# Elastic Compliance Matrix: (Units=1/GPa)
#
#
# Indices 1 2 3 4 5 6 
#
# 1 0.007470 -0.002090 0.001314 0.000000 -0.003465 0.000000
# 2 -0.002090 0.007698 -0.008073 0.000000 0.003438 0.000000
# 3 0.001314 -0.008073 0.048533 0.000000 -0.007458 0.000000
# 4 0.000000 0.000000 0.000000 0.025066 0.000000 0.001072
# 5 -0.003465 0.003438 -0.007458 0.000000 0.056232 0.000000
# 6 0.000000 0.000000 0.000000 0.001072 0.000000 0.024004
#
#
# Mechanical properties :
#
#
# Convention : Reuss Voigt Hill
#
# Bulk Modulus (GPa) = 21.73783 54.17933 37.95858
# Shear Modulus (GPa) = 24.74795 38.25821 31.50308
#
# Velocity S-wave (km/s) = 3.16110 3.93034 3.56652
# Velocity P-wave (km/s) = 4.70112 6.51712 5.68214
#
# Compressibility (1/GPa) = 0.04600275
#
# Stress axis : x y z
#
# Youngs Moduli (GPa) = 133.86102 129.90619 20.60449
#
# Poissons Ratio (x) = 0.27156 -0.02707
# Poissons Ratio (y) = 0.27983 0.16634
# Poissons Ratio (z) = -0.17588 1.04870
#
# Static dielectric constant tensor:
#      x y z
#    x 1.962060 0.000000 0.019980 
#    y 0.000000 1.914890 0.000000 
#    z 0.019980 0.000000 1.992270 
# 
# From -- ./inp_files/7452.got.cif
#   From: 2010.05.17/outbox.cif.g08.bks.cpg/sg4_4_cif.got.tgz:7452.got - 2010.06.03 18:43:04.
