data_PCOD9118942
_publ_section_title
;
Structure prediction by ZEFSAII (Michael W. Deem and Ramdas Pophale) SiO2 
 PCOD9118942
Probable space group: P 21
;
_chemical_formula_sum "Si O2"
_cell_formula_units_Z 16
_cell_length_a 15.149622
_cell_length_b 9.075090
_cell_length_c 14.554840
_cell_angle_alpha 90.000000
_cell_angle_beta 18.854972
_cell_angle_gamma 90.000000
_cell_volume 646.690262
_symmetry_space_group_name_H-M "P 21"
_symmetry_group_IT_number 4
_symmetry_cell_setting 'monoclinic'
loop_
_space_group_symop_operation_xyz
x,y,z
-x,1/2+y,-z
loop_
_atom_site_type_symbol
_atom_site_label
_atom_site_fract_x
_atom_site_fract_y
_atom_site_fract_z
Si Si1 0.727221 0.000000 0.301319
Si Si2 0.229914 0.115837 0.097677
Si Si3 0.742865 0.302519 0.186844
Si Si4 0.057133 0.856476 0.495693
Si Si5 0.541155 0.855583 0.889832
Si Si6 0.263936 0.674481 0.524033
Si Si7 0.507012 0.176084 0.245717
Si Si8 0.025728 0.987920 0.719936
O O1 0.774267 0.129397 0.181061
O O2 0.659358 0.097930 0.457504
O O3 0.481057 0.885910 0.529501
O O4 0.987528 0.897911 0.064317
O O5 0.089735 0.221901 0.309192
O O6 0.969568 0.071684 0.292344
O O7 0.387253 0.991161 0.995968
O O8 0.465465 0.190355 0.803721
O O9 0.627904 0.297770 0.195719
O O10 0.345836 0.814493 0.167645
O O11 0.083908 0.971268 0.552854
O O12 0.840678 0.897648 0.630154
O O13 0.538351 0.736414 0.811898
O O14 0.112794 0.832914 0.678955
O O15 0.220990 0.115970 0.564665
O O16 0.717191 0.039953 0.034274
#
# Coordination Sequence:
#
# PCOD9118942 Si02
#       8
#     2   2   2   2   2   2   2   2
#     4  12  27  49  82 113 156 196 251 309 375 459
#     4  11  24  44  65  96 131 181 240 293 355 447
#     4  12  29  50  79 118 157 196 257 305 387 448
#     4  11  25  42  63 100 133 182 239 292 361 434
#     4  12  25  40  68  91 137 183 228 300 360 428
#     4  11  23  45  73  97 139 187 241 290 372 430
#     4  12  26  44  72 103 149 186 245 301 379 426
#     4  11  25  44  68 104 140 189 239 306 361 446
#
# _framework density 24.741364000000001
#
# number of rings (size 3 to 8) (size 9 to 14) (size 15 to 20)
#    0.000    0.500    0.000    9.000    8.750    0.000 
#    0.000    0.000    0.000    0.000    0.000    0.000 
#    0.000    0.000    0.000    0.000    0.000    0.000 
#
# Total GULP energy -89660.243245 kJ/mol
# GULP energy per Si atom -5603.765203 kJ/mol
# Density = 2.468505 g / cm^3
# Si number density = 24.741364 Si / 1000 Ang^3
#
#
#
# Elastic Constant Matrix: (Units=GPa)
#
#
# Indices 1 2 3 4 5 6 
#
# 1 69.1092 29.8224 4.2001 0.0000 0.7001 0.0000
# 2 29.8224 94.7286 32.8618 0.0000 -0.2385 0.0000
# 3 4.2001 32.8618 104.3277 0.0000 -14.3436 0.0000
# 4 0.0000 0.0000 0.0000 44.3211 0.0000 -4.6035
# 5 0.7001 -0.2385 -14.3436 0.0000 27.7562 0.0000
# 6 0.0000 0.0000 0.0000 -4.6035 0.0000 26.3425
#
#
#
# Elastic Compliance Matrix: (Units=1/GPa)
#
#
# Indices 1 2 3 4 5 6 
#
# 1 0.016860 -0.005700 0.001132 0.000000 0.000111 0.000000
# 2 -0.005700 0.013879 -0.004420 0.000000 -0.002021 0.000000
# 3 0.001132 -0.004420 0.011758 0.000000 0.006010 0.000000
# 4 0.000000 0.000000 0.000000 0.022980 0.000000 0.004016
# 5 0.000111 -0.002021 0.006010 0.000000 0.039114 0.000000
# 6 0.000000 0.000000 0.000000 0.004016 0.000000 0.038663
#
#
# Mechanical properties :
#
#
# Convention : Reuss Voigt Hill
#
# Bulk Modulus (GPa) = 40.78245 44.65933 42.72089
# Shear Modulus (GPa) = 29.51526 33.10270 31.30898
#
# Velocity S-wave (km/s) = 3.45766 3.66177 3.56118
# Velocity P-wave (km/s) = 5.69735 5.99731 5.84925
#
# Compressibility (1/GPa) = 0.02452035
#
# Stress axis : x y z
#
# Youngs Moduli (GPa) = 59.31295 72.04976 85.04730
#
# Poissons Ratio (x) = 0.41070 -0.09627
# Poissons Ratio (y) = 0.33809 0.37592
# Poissons Ratio (z) = -0.06714 0.31847
#
# Static dielectric constant tensor:
#      x y z
#    x 2.044790 0.000000 0.038360 
#    y 0.000000 1.999170 0.000000 
#    z 0.038360 0.000000 1.918050 
# 
# From -- ./inp_files/14173.got.cif
#   From: 2010.05.17/outbox.cif.g08.bks.cpg/sg4_8_cif.got.tgz:14173.got - 2010.06.03 18:43:04.
