data_PCOD9118690
_publ_section_title
;
Structure prediction by ZEFSAII (Michael W. Deem and Ramdas Pophale) SiO2 
 PCOD9118690
Probable space group: P 21
;
_chemical_formula_sum "Si O2"
_cell_formula_units_Z 16
_cell_length_a 18.735994
_cell_length_b 8.515185
_cell_length_c 7.430550
_cell_angle_alpha 90.000000
_cell_angle_beta 40.249036
_cell_angle_gamma 90.000000
_cell_volume 765.947522
_symmetry_space_group_name_H-M "P 21"
_symmetry_group_IT_number 4
_symmetry_cell_setting 'monoclinic'
loop_
_space_group_symop_operation_xyz
x,y,z
-x,1/2+y,-z
loop_
_atom_site_type_symbol
_atom_site_label
_atom_site_fract_x
_atom_site_fract_y
_atom_site_fract_z
Si Si1 0.608417 0.875000 0.613658
Si Si2 0.188972 0.604374 0.810391
Si Si3 0.438996 0.155355 0.969168
Si Si4 0.831474 0.407526 0.346537
Si Si5 0.917636 0.593759 0.845593
Si Si6 0.020482 0.925440 0.622024
Si Si7 0.645804 0.358682 0.453277
Si Si8 0.326104 0.160539 0.821406
O O1 0.615564 0.801902 0.399876
O O2 0.721210 0.975490 0.424953
O O3 0.504940 0.990553 0.844440
O O4 0.599675 0.731573 0.769829
O O5 0.148421 0.722074 0.731282
O O6 0.262741 0.728600 0.786238
O O7 0.084913 0.524267 0.104038
O O8 0.534444 0.272612 0.713275
O O9 0.346284 0.161870 0.994019
O O10 0.871959 0.458145 0.462841
O O11 0.705042 0.422301 0.522690
O O12 0.898351 0.510680 0.072761
O O13 0.959452 0.467127 0.622273
O O14 0.994952 0.743476 0.698413
O O15 0.800892 0.658657 0.995470
O O16 0.629584 0.496572 0.344339
#
# Coordination Sequence:
#
# PCOD9118690 Si02
#       8
#     2   2   2   2   2   2   2   2
#     4  11  23  42  65  94 134 163 216 271 310 393
#     4   9  20  41  65  89 128 168 203 271 318 365
#     4  11  23  41  68  97 124 177 208 262 329 383
#     4   9  21  43  66  89 124 173 206 268 320 371
#     4  11  25  39  64  98 123 163 219 262 311 396
#     4  12  22  42  65  93 130 169 211 260 329 381
#     4   8  20  41  65  92 128 159 219 257 315 382
#     4  11  22  43  64  96 127 170 210 271 324 371
#
# _framework density 20.889157999999998
#
# number of rings (size 3 to 8) (size 9 to 14) (size 15 to 20)
#    0.750    1.000    1.250    3.000    0.000    3.000 
#    6.750    0.000    0.000    0.000    0.000    0.000 
#    0.000    0.000    0.000    0.000    0.000    0.000 
#
# Total GULP energy -89265.386367 kJ/mol
# GULP energy per Si atom -5579.086648 kJ/mol
# Density = 2.084161 g / cm^3
# Si number density = 20.889158 Si / 1000 Ang^3
#
#
#
# Elastic Constant Matrix: (Units=GPa)
#
#
# Indices 1 2 3 4 5 6 
#
# 1 55.1274 20.9488 14.5243 0.0000 9.0831 0.0000
# 2 20.9488 97.2753 19.2010 0.0000 -2.1658 0.0000
# 3 14.5243 19.2010 34.9848 0.0000 -3.2557 0.0000
# 4 0.0000 0.0000 0.0000 40.4316 0.0000 -10.2181
# 5 9.0831 -2.1658 -3.2557 0.0000 19.0577 0.0000
# 6 0.0000 0.0000 0.0000 -10.2181 0.0000 23.6367
#
#
#
# Elastic Compliance Matrix: (Units=1/GPa)
#
#
# Indices 1 2 3 4 5 6 
#
# 1 0.024221 -0.003683 -0.009295 0.000000 -0.013551 0.000000
# 2 -0.003683 0.012090 -0.004893 0.000000 0.002294 0.000000
# 3 -0.009295 -0.004893 0.036062 0.000000 0.010035 0.000000
# 4 0.000000 0.000000 0.000000 0.027767 0.000000 0.012004
# 5 -0.013551 0.002294 0.010035 0.000000 0.060906 0.000000
# 6 0.000000 0.000000 0.000000 0.012004 0.000000 0.047496
#
#
# Mechanical properties :
#
#
# Convention : Reuss Voigt Hill
#
# Bulk Modulus (GPa) = 27.29949 32.97062 30.13505
# Shear Modulus (GPa) = 19.49356 25.47275 22.48316
#
# Velocity S-wave (km/s) = 3.05813 3.49581 3.28427
# Velocity P-wave (km/s) = 5.05635 5.66676 5.37023
#
# Compressibility (1/GPa) = 0.03663072
#
# Stress axis : x y z
#
# Youngs Moduli (GPa) = 41.28639 82.71182 27.72990
#
# Poissons Ratio (x) = 0.30463 0.25775
# Poissons Ratio (y) = 0.15206 0.13568
# Poissons Ratio (z) = 0.38377 0.40471
#
# Static dielectric constant tensor:
#      x y z
#    x 1.739940 0.000000 -0.016260 
#    y 0.000000 1.776550 0.000000 
#    z -0.016260 0.000000 1.749710 
# 
# From -- ./inp_files/4097.got.cif
#   From: 2010.05.17/outbox.cif.g08.bks.cpg/sg4_3_cif.got.tgz:4097.got - 2010.06.03 18:43:04.
