data_PCOD9118819
_publ_section_title
;
Structure prediction by ZEFSAII (Michael W. Deem and Ramdas Pophale) SiO2 
 PCOD9118819
Probable space group: P 21
;
_chemical_formula_sum "Si O2"
_cell_formula_units_Z 16
_cell_length_a 10.080598
_cell_length_b 8.994952
_cell_length_c 10.285549
_cell_angle_alpha 90.000000
_cell_angle_beta 136.391973
_cell_angle_gamma 90.000000
_cell_volume 643.259291
_symmetry_space_group_name_H-M "P 21"
_symmetry_group_IT_number 4
_symmetry_cell_setting 'monoclinic'
loop_
_space_group_symop_operation_xyz
x,y,z
-x,1/2+y,-z
loop_
_atom_site_type_symbol
_atom_site_label
_atom_site_fract_x
_atom_site_fract_y
_atom_site_fract_z
Si Si1 0.242065 0.031460 0.744741
Si Si2 0.039525 0.338958 0.874748
Si Si3 0.749097 0.225710 0.344535
Si Si4 0.274228 0.281148 0.577691
Si Si5 0.930922 0.044587 0.708159
Si Si6 0.669439 0.963605 0.129674
Si Si7 0.341089 0.029062 0.423921
Si Si8 0.404495 0.276142 0.271961
O O1 0.174337 0.169145 0.610200
O O2 0.152384 0.026932 0.823620
O O3 0.163283 0.886050 0.616918
O O4 0.469866 0.010586 0.919915
O O5 0.181833 0.368766 0.851600
O O6 0.943232 0.173767 0.825248
O O7 0.872081 0.460453 0.743153
O O8 0.195003 0.346746 0.100494
O O9 0.835618 0.145347 0.528690
O O10 0.526162 0.251462 0.226592
O O11 0.763708 0.121658 0.231059
O O12 0.167757 0.386515 0.395972
O O13 0.371702 0.386628 0.757753
O O14 0.371234 0.154209 0.557187
O O15 0.392845 0.116378 0.330784
O O16 0.474929 0.891448 0.556164
#
# Coordination Sequence:
#
# PCOD9118819 Si02
#       8
#     2   2   2   2   2   2   2   2
#     4  12  20  40  64 110 151 189 235 298 370 458
#     4  12  25  51  75 110 152 192 249 320 374 447
#     4  11  23  41  70 104 150 197 236 304 372 442
#     4  11  24  42  67 109 146 196 240 300 382 441
#     4  11  24  38  69 106 150 192 237 296 384 446
#     4  11  24  39  73 112 150 190 244 304 387 444
#     4  12  30  50  79 102 153 200 259 309 367 441
#     4  12  28  53  77 105 148 204 256 311 362 443
#
# _framework density 24.873328000000001
#
# number of rings (size 3 to 8) (size 9 to 14) (size 15 to 20)
#    0.000    0.500    5.000    2.250   10.500    2.000 
#    0.000    0.000    0.000    0.000    0.000    0.000 
#    0.000    0.000    0.000    0.000    0.000    0.000 
#
# Total GULP energy -89256.641533 kJ/mol
# GULP energy per Si atom -5578.540096 kJ/mol
# Density = 2.481672 g / cm^3
# Si number density = 24.873328 Si / 1000 Ang^3
#
#
#
# Elastic Constant Matrix: (Units=GPa)
#
#
# Indices 1 2 3 4 5 6 
#
# 1 46.9173 19.8673 8.1681 0.0000 0.1799 0.0000
# 2 19.8673 142.1564 36.1085 0.0000 13.3545 0.0000
# 3 8.1681 36.1085 112.9034 0.0000 22.2763 0.0000
# 4 0.0000 0.0000 0.0000 27.3763 0.0000 -2.9505
# 5 0.1799 13.3545 22.2763 0.0000 24.8341 0.0000
# 6 0.0000 0.0000 0.0000 -2.9505 0.0000 46.0850
#
#
#
# Elastic Compliance Matrix: (Units=1/GPa)
#
#
# Indices 1 2 3 4 5 6 
#
# 1 0.022834 -0.003139 -0.001153 0.000000 0.002556 0.000000
# 2 -0.003139 0.008201 -0.001859 0.000000 -0.002720 0.000000
# 3 -0.001153 -0.001859 0.011344 0.000000 -0.009167 0.000000
# 4 0.000000 0.000000 0.000000 0.036782 0.000000 0.002355
# 5 0.002556 -0.002720 -0.009167 0.000000 0.049934 0.000000
# 6 0.000000 0.000000 0.000000 0.002355 0.000000 0.021850
#
#
# Mechanical properties :
#
#
# Convention : Reuss Voigt Hill
#
# Bulk Modulus (GPa) = 33.24660 47.80722 40.52691
# Shear Modulus (GPa) = 28.85650 35.51462 32.18556
#
# Velocity S-wave (km/s) = 3.40978 3.78275 3.60109
# Velocity P-wave (km/s) = 5.37564 6.19200 5.79821
#
# Compressibility (1/GPa) = 0.03007826
#
# Stress axis : x y z
#
# Youngs Moduli (GPa) = 43.79440 121.93841 88.15339
#
# Poissons Ratio (x) = 0.38271 0.10160
# Poissons Ratio (y) = 0.13745 0.16389
# Poissons Ratio (z) = 0.05047 0.22670
#
# Static dielectric constant tensor:
#      x y z
#    x 2.091660 0.000000 -0.005110 
#    y 0.000000 2.039840 0.000000 
#    z -0.005110 0.000000 1.980000 
# 
# From -- ./inp_files/12038.got.cif
#   From: 2010.05.17/outbox.cif.g08.bks.cpg/sg4_7_cif.got.tgz:12038.got - 2010.06.03 18:43:04.
