data_PCOD9118747
_publ_section_title
;
Structure prediction by ZEFSAII (Michael W. Deem and Ramdas Pophale) SiO2 
 PCOD9118747
Probable space group: P 21
;
_chemical_formula_sum "Si O2"
_cell_formula_units_Z 16
_cell_length_a 10.682384
_cell_length_b 12.730164
_cell_length_c 7.554121
_cell_angle_alpha 90.000000
_cell_angle_beta 134.036863
_cell_angle_gamma 90.000000
_cell_volume 738.499504
_symmetry_space_group_name_H-M "P 21"
_symmetry_group_IT_number 4
_symmetry_cell_setting 'monoclinic'
loop_
_space_group_symop_operation_xyz
x,y,z
-x,1/2+y,-z
loop_
_atom_site_type_symbol
_atom_site_label
_atom_site_fract_x
_atom_site_fract_y
_atom_site_fract_z
Si Si1 0.621659 0.898210 0.851730
Si Si2 0.422805 0.562505 0.506030
Si Si3 0.913991 0.617988 0.452536
Si Si4 0.221660 0.896374 0.573817
Si Si5 0.773263 0.994386 0.358630
Si Si6 0.869852 0.237702 0.809206
Si Si7 0.232805 0.166893 0.069211
Si Si8 0.039647 0.826532 0.738514
O O1 0.421041 0.889546 0.713492
O O2 0.696086 0.786158 0.865120
O O3 0.628099 0.980365 0.696275
O O4 0.721558 0.938756 0.124957
O O5 0.384028 0.519872 0.665550
O O6 0.298422 0.664085 0.365485
O O7 0.623790 0.595636 0.695275
O O8 0.848245 0.515795 0.493190
O O9 0.927341 0.724467 0.574417
O O10 0.111362 0.594726 0.581203
O O11 0.796148 0.632217 0.162746
O O12 0.119695 0.819515 0.341504
O O13 0.182290 0.852722 0.730323
O O14 0.906207 0.922717 0.600870
O O15 0.043596 0.167271 0.972219
O O16 0.872116 0.304654 0.989454
#
# Coordination Sequence:
#
# PCOD9118747 Si02
#       8
#     2   2   2   2   2   2   2   2
#     4  12  26  47  73 110 152 188 246 312 362 444
#     4  12  27  47  72 110 146 193 244 304 373 434
#     4  11  22  45  75 103 143 202 242 295 377 427
#     4  11  25  47  71 107 151 190 245 308 365 437
#     4  11  23  46  72 101 146 190 244 301 365 438
#     4  12  25  48  75 105 151 189 245 312 357 444
#     4  12  24  49  74 106 148 193 248 304 367 438
#     4  11  24  43  74 104 139 201 240 298 374 436
#
# _framework density 21.665552999999999
#
# number of rings (size 3 to 8) (size 9 to 14) (size 15 to 20)
#    0.000    0.500    5.000    3.000    1.750    4.000 
#    4.500    0.000    0.000    0.000    0.000    0.000 
#    0.000    0.000    0.000    0.000    0.000    0.000 
#
# Total GULP energy -89573.516033 kJ/mol
# GULP energy per Si atom -5598.344752 kJ/mol
# Density = 2.161624 g / cm^3
# Si number density = 21.665553 Si / 1000 Ang^3
#
#
#
# Elastic Constant Matrix: (Units=GPa)
#
#
# Indices 1 2 3 4 5 6 
#
# 1 54.7767 -9.8737 19.1035 0.0000 1.7877 0.0000
# 2 -9.8737 61.8381 2.9231 0.0000 -5.8084 0.0000
# 3 19.1035 2.9231 25.5942 0.0000 -6.8914 0.0000
# 4 0.0000 0.0000 0.0000 37.1834 0.0000 -2.9069
# 5 1.7877 -5.8084 -6.8914 0.0000 41.0014 0.0000
# 6 0.0000 0.0000 0.0000 -2.9069 0.0000 29.4447
#
#
#
# Elastic Compliance Matrix: (Units=1/GPa)
#
#
# Indices 1 2 3 4 5 6 
#
# 1 0.026851 0.004927 -0.021715 0.000000 -0.004123 0.000000
# 2 0.004927 0.017335 -0.005293 0.000000 0.001351 0.000000
# 3 -0.021715 -0.005293 0.058588 0.000000 0.010044 0.000000
# 4 0.000000 0.000000 0.000000 0.027103 0.000000 0.002676
# 5 -0.004123 0.001351 0.010044 0.000000 0.026449 0.000000
# 6 0.000000 0.000000 0.000000 0.002676 0.000000 0.034226
#
#
# Mechanical properties :
#
#
# Convention : Reuss Voigt Hill
#
# Bulk Modulus (GPa) = 17.06128 18.50164 17.78146
# Shear Modulus (GPa) = 19.66554 30.19634 24.93094
#
# Velocity S-wave (km/s) = 3.01605 3.73734 3.39590
# Velocity P-wave (km/s) = 4.47445 5.21362 4.85812
#
# Compressibility (1/GPa) = 0.05861224
#
# Stress axis : x y z
#
# Youngs Moduli (GPa) = 37.24188 57.68671 17.06835
#
# Poissons Ratio (x) = -0.28420 0.37063
# Poissons Ratio (y) = -0.18348 0.09035
# Poissons Ratio (z) = 0.80869 0.30534
#
# Static dielectric constant tensor:
#      x y z
#    x 1.789370 0.000000 -0.001300 
#    y 0.000000 1.783200 0.000000 
#    z -0.001300 0.000000 1.780430 
# 
# From -- ./inp_files/8153.got.cif
#   From: 2010.05.17/outbox.cif.g08.bks.cpg/sg4_5_cif.got.tgz:8153.got - 2010.06.03 18:43:04.
