data_PCOD9118445
_publ_section_title
;
Structure prediction by ZEFSAII (Michael W. Deem and Ramdas Pophale) SiO2 
 PCOD9118445
Probable space group: P 21
;
_chemical_formula_sum "Si O2"
_cell_formula_units_Z 16
_cell_length_a 11.494994
_cell_length_b 5.455609
_cell_length_c 13.487965
_cell_angle_alpha 90.000000
_cell_angle_beta 51.223727
_cell_angle_gamma 90.000000
_cell_volume 659.430134
_symmetry_space_group_name_H-M "P 21"
_symmetry_group_IT_number 4
_symmetry_cell_setting 'monoclinic'
loop_
_space_group_symop_operation_xyz
x,y,z
-x,1/2+y,-z
loop_
_atom_site_type_symbol
_atom_site_label
_atom_site_fract_x
_atom_site_fract_y
_atom_site_fract_z
Si Si1 0.720970 0.594880 0.010169
Si Si2 0.270436 0.575715 0.738833
Si Si3 0.767487 0.692759 0.628179
Si Si4 0.156857 0.597817 0.110608
Si Si5 0.715493 0.085007 0.489808
Si Si6 0.992177 0.417023 0.373973
Si Si7 0.487802 0.874851 0.251654
Si Si8 0.109506 0.078111 0.877648
O O1 0.566382 0.659568 0.148031
O O2 0.843864 0.581009 0.032769
O O3 0.740635 0.337821 0.944033
O O4 0.757844 0.839435 0.928840
O O5 0.340492 0.558965 0.591920
O O6 0.386411 0.547400 0.767228
O O7 0.185444 0.833802 0.792735
O O8 0.173097 0.329463 0.798617
O O9 0.847383 0.853287 0.667292
O O10 0.631368 0.536727 0.742899
O O11 0.899656 0.524918 0.514771
O O12 0.717788 0.846638 0.558140
O O13 0.030084 0.597808 0.263431
O O14 0.063712 0.580897 0.057534
O O15 0.607186 0.266705 0.606816
O O16 0.884180 0.197135 0.395284
#
# Coordination Sequence:
#
# PCOD9118445 Si02
#       8
#     2   2   2   2   2   2   2   2
#     4  11  25  43  68 100 145 194 236 286 352 438
#     4  11  24  40  69 106 145 180 229 292 361 442
#     4  11  24  45  74 102 146 181 240 310 370 444
#     4  12  24  42  73 103 143 182 245 301 345 423
#     4  11  24  42  71 102 146 182 237 305 366 445
#     4  11  24  44  73 112 132 187 245 309 379 412
#     4  10  27  42  68 104 145 199 234 287 370 448
#     4  11  22  42  66 103 144 185 230 292 361 420
#
# _framework density 24.263375
#
# number of rings (size 3 to 8) (size 9 to 14) (size 15 to 20)
#    0.000    1.000    2.500    3.750   10.500    0.000 
#    0.000    0.000    2.750    0.000    0.000    0.000 
#    0.000    0.000    0.000    0.000    0.000    0.000 
#
# Total GULP energy -89537.758970 kJ/mol
# GULP energy per Si atom -5596.109936 kJ/mol
# Density = 2.420815 g / cm^3
# Si number density = 24.263375 Si / 1000 Ang^3
#
#
#
# Elastic Constant Matrix: (Units=GPa)
#
#
# Indices 1 2 3 4 5 6 
#
# 1 45.6042 24.2916 21.1219 0.0000 -12.1760 0.0000
# 2 24.2916 159.4847 47.7146 0.0000 -21.4774 0.0000
# 3 21.1219 47.7146 88.6100 0.0000 -13.9581 0.0000
# 4 0.0000 0.0000 0.0000 44.8932 0.0000 -11.8307
# 5 -12.1760 -21.4774 -13.9581 0.0000 26.1923 0.0000
# 6 0.0000 0.0000 0.0000 -11.8307 0.0000 24.4363
#
#
#
# Elastic Compliance Matrix: (Units=1/GPa)
#
#
# Indices 1 2 3 4 5 6 
#
# 1 0.027155 -0.001679 -0.004145 0.000000 0.009038 0.000000
# 2 -0.001679 0.008061 -0.003299 0.000000 0.004072 0.000000
# 3 -0.004145 -0.003299 0.014541 0.000000 0.003117 0.000000
# 4 0.000000 0.000000 0.000000 0.025533 0.000000 0.012361
# 5 0.009038 0.004072 0.003117 0.000000 0.047380 0.000000
# 6 0.000000 0.000000 0.000000 0.012361 0.000000 0.046907
#
#
# Mechanical properties :
#
#
# Convention : Reuss Voigt Hill
#
# Bulk Modulus (GPa) = 31.73526 53.32833 42.53180
# Shear Modulus (GPa) = 25.21080 32.47575 28.84327
#
# Velocity S-wave (km/s) = 3.22692 3.66248 3.45158
# Velocity P-wave (km/s) = 5.19538 6.31757 5.78375
#
# Compressibility (1/GPa) = 0.03151069
#
# Stress axis : x y z
#
# Youngs Moduli (GPa) = 36.82565 124.04979 68.77077
#
# Poissons Ratio (x) = 0.20825 0.28507
# Poissons Ratio (y) = 0.06182 0.22690
# Poissons Ratio (z) = 0.15265 0.40928
#
# Static dielectric constant tensor:
#      x y z
#    x 1.923240 0.000000 -0.004750 
#    y 0.000000 1.971720 0.000000 
#    z -0.004750 0.000000 1.981260 
# 
# From -- ./inp_files/13834.got.cif
#   From: 2010.05.17/outbox.cif.g08.bks.cpg/sg4_7_cif.got.tgz:13834.got - 2010.06.03 18:43:04.
