data_PCOD9118076
_publ_section_title
;
Structure prediction by ZEFSAII (Michael W. Deem and Ramdas Pophale) SiO2 
 PCOD9118076
Probable space group: P 21
;
_chemical_formula_sum "Si O2"
_cell_formula_units_Z 14
_cell_length_a 5.552773
_cell_length_b 17.619151
_cell_length_c 5.820306
_cell_angle_alpha 90.000000
_cell_angle_beta 98.075461
_cell_angle_gamma 90.000000
_cell_volume 563.783965
_symmetry_space_group_name_H-M "P 21"
_symmetry_group_IT_number 4
_symmetry_cell_setting 'monoclinic'
loop_
_space_group_symop_operation_xyz
x,y,z
-x,1/2+y,-z
loop_
_atom_site_type_symbol
_atom_site_label
_atom_site_fract_x
_atom_site_fract_y
_atom_site_fract_z
Si Si1 0.276752 0.539040 0.660019
Si Si2 0.678129 0.871455 0.532218
Si Si3 0.210602 0.288061 0.870023
Si Si4 0.428997 0.179691 0.271640
Si Si5 0.951160 0.180535 0.526616
Si Si6 0.208318 0.905704 0.657875
Si Si7 0.062770 0.948006 0.121951
O O1 0.316561 0.459329 0.542516
O O2 0.509933 0.589967 0.754880
O O3 0.114522 0.591247 0.468527
O O4 0.124151 0.517095 0.865830
O O5 0.615559 0.817219 0.312617
O O6 0.471644 0.867067 0.693860
O O7 0.961342 0.855240 0.625462
O O8 0.000244 0.231695 0.751515
O O9 0.083535 0.367916 0.915934
O O10 0.353068 0.232211 0.053476
O O11 0.200155 0.184360 0.413236
O O12 0.697080 0.207187 0.383199
O O13 0.189080 0.941258 0.393701
O O14 0.197528 0.952936 0.895037
#
# Coordination Sequence:
#
# PCOD9118076 Si02
#       7
#     2   2   2   2   2   2   2
#     4   8  22  48  70 108 148 194 246 310 368 449
#     4  10  24  46  76 103 146 189 250 309 371 434
#     4  10  24  48  75 109 147 204 244 313 372 453
#     4  10  24  44  75  99 158 188 249 298 383 438
#     4  10  24  45  71 104 155 187 252 294 386 437
#     4  10  24  46  73 109 144 192 245 312 373 439
#     4  10  24  49  78 108 148 194 252 310 373 436
#
# _framework density 24.832208999999999
#
# number of rings (size 3 to 8) (size 9 to 14) (size 15 to 20)
#    0.857    1.714    0.000    0.000    8.000    9.143 
#   10.286    0.000    0.000    0.000    0.000    0.000 
#    0.000    0.000    0.000    0.000    0.000    0.000 
#
# Total GULP energy -77990.806104 kJ/mol
# GULP energy per Si atom -5570.771865 kJ/mol
# Density = 2.477569 g / cm^3
# Si number density = 24.832209 Si / 1000 Ang^3
#
#
#
# Elastic Constant Matrix: (Units=GPa)
#
#
# Indices 1 2 3 4 5 6 
#
# 1 147.3599 11.4670 13.1999 0.0000 11.8362 0.0000
# 2 11.4670 144.7474 13.4203 0.0000 14.4394 0.0000
# 3 13.1999 13.4203 75.7244 0.0000 10.8262 0.0000
# 4 0.0000 0.0000 0.0000 18.8205 0.0000 2.3276
# 5 11.8362 14.4394 10.8262 0.0000 40.4050 0.0000
# 6 0.0000 0.0000 0.0000 2.3276 0.0000 23.1376
#
#
#
# Elastic Compliance Matrix: (Units=1/GPa)
#
#
# Indices 1 2 3 4 5 6 
#
# 1 0.007029 -0.000301 -0.000929 0.000000 -0.001703 0.000000
# 2 -0.000301 0.007242 -0.000908 0.000000 -0.002256 0.000000
# 3 -0.000929 -0.000908 0.013979 0.000000 -0.003149 0.000000
# 4 0.000000 0.000000 0.000000 0.053803 0.000000 -0.005412
# 5 -0.001703 -0.002256 -0.003149 0.000000 0.026898 0.000000
# 6 0.000000 0.000000 0.000000 -0.005412 0.000000 0.043764
#
#
# Mechanical properties :
#
#
# Convention : Reuss Voigt Hill
#
# Bulk Modulus (GPa) = 41.71126 49.33404 45.52265
# Shear Modulus (GPa) = 30.30623 38.45557 34.38090
#
# Velocity S-wave (km/s) = 3.49727 3.93952 3.72496
# Velocity P-wave (km/s) = 5.75687 6.37206 6.07226
#
# Compressibility (1/GPa) = 0.02397434
#
# Stress axis : x y z
#
# Youngs Moduli (GPa) = 142.25814 138.08842 71.53671
#
# Poissons Ratio (x) = 0.04155 0.06643
# Poissons Ratio (y) = 0.04281 0.06498
# Poissons Ratio (z) = 0.13210 0.12544
#
# Static dielectric constant tensor:
#      x y z
#    x 2.045110 0.000000 -0.001880 
#    y 0.000000 1.992870 0.000000 
#    z -0.001880 0.000000 2.103170 
# 
# From -- ./inp_files/498.got.cif
#   From: 2010.05.17/outbox.cif.g08.bks.cpg/sg4_1_cif.got.tgz:498.got - 2010.06.03 18:43:04.
