data_PCOD9118386
_publ_section_title
;
Structure prediction by ZEFSAII (Michael W. Deem and Ramdas Pophale) SiO2 
 PCOD9118386
Probable space group: P 21
;
_chemical_formula_sum "Si O2"
_cell_formula_units_Z 16
_cell_length_a 17.186191
_cell_length_b 8.699888
_cell_length_c 4.929809
_cell_angle_alpha 90.000000
_cell_angle_beta 65.485761
_cell_angle_gamma 90.000000
_cell_volume 670.651801
_symmetry_space_group_name_H-M "P 21"
_symmetry_group_IT_number 4
_symmetry_cell_setting 'monoclinic'
loop_
_space_group_symop_operation_xyz
x,y,z
-x,1/2+y,-z
loop_
_atom_site_type_symbol
_atom_site_label
_atom_site_fract_x
_atom_site_fract_y
_atom_site_fract_z
Si Si1 0.900060 0.596410 0.364710
Si Si2 0.902310 0.356883 0.791605
Si Si3 0.049989 0.669191 0.775992
Si Si4 0.263257 0.986504 0.179505
Si Si5 0.467046 0.480202 0.731129
Si Si6 0.288540 0.329153 0.914455
Si Si7 0.820826 0.903654 0.451170
Si Si8 0.558860 0.341685 0.109460
O O1 0.939141 0.495362 0.550298
O O2 0.803553 0.528587 0.482451
O O3 0.882282 0.771076 0.481847
O O4 0.957492 0.617539 0.017970
O O5 0.930693 0.216475 0.558554
O O6 0.800946 0.389531 0.918904
O O7 0.928961 0.312149 0.054401
O O8 0.119571 0.539218 0.735370
O O9 0.288789 0.152656 0.018895
O O10 0.346028 0.887533 0.125043
O O11 0.539280 0.443482 0.404191
O O12 0.452669 0.661463 0.804856
O O13 0.382364 0.397432 0.739840
O O14 0.494183 0.396206 0.969181
O O15 0.244671 0.433720 0.211407
O O16 0.232691 0.341453 0.725291
#
# Coordination Sequence:
#
# PCOD9118386 Si02
#       8
#     2   2   2   2   2   2   2   2
#     4   9  24  45  65 100 135 193 230 290 352 419
#     4  10  26  42  68 100 137 187 235 290 356 407
#     4  12  24  43  68 101 143 179 246 293 353 416
#     4   9  24  46  69 102 140 190 229 297 342 432
#     4  12  27  47  77 111 141 193 228 302 349 437
#     4  11  24  46  70 101 143 181 244 276 365 417
#     4  11  25  41  70  97 139 188 227 300 347 420
#     4  12  26  48  77 106 150 181 243 286 366 420
#
# _framework density 23.857388
#
# number of rings (size 3 to 8) (size 9 to 14) (size 15 to 20)
#    0.750    0.500    0.000    4.500    5.250   10.000 
#    0.000    0.000    0.000    0.000    0.000    0.000 
#    0.000    0.000    0.000    0.000    0.000    0.000 
#
# Total GULP energy -89430.157068 kJ/mol
# GULP energy per Si atom -5589.384817 kJ/mol
# Density = 2.380309 g / cm^3
# Si number density = 23.857388 Si / 1000 Ang^3
#
#
#
# Elastic Constant Matrix: (Units=GPa)
#
#
# Indices 1 2 3 4 5 6 
#
# 1 67.1531 50.2893 32.6386 0.0000 -9.4067 0.0000
# 2 50.2893 120.1763 7.8329 0.0000 -18.9387 0.0000
# 3 32.6386 7.8329 87.7779 0.0000 -6.6551 0.0000
# 4 0.0000 0.0000 0.0000 38.1689 0.0000 -9.8298
# 5 -9.4067 -18.9387 -6.6551 0.0000 45.8491 0.0000
# 6 0.0000 0.0000 0.0000 -9.8298 0.0000 31.0566
#
#
#
# Elastic Compliance Matrix: (Units=1/GPa)
#
#
# Indices 1 2 3 4 5 6 
#
# 1 0.027603 -0.010980 -0.009301 0.000000 -0.000222 0.000000
# 2 -0.010980 0.013292 0.003177 0.000000 0.003699 0.000000
# 3 -0.009301 0.003177 0.014684 0.000000 0.001535 0.000000
# 4 0.000000 0.000000 0.000000 0.028524 0.000000 0.009028
# 5 -0.000222 0.003699 0.001535 0.000000 0.023516 0.000000
# 6 0.000000 0.000000 0.000000 0.009028 0.000000 0.035057
#
#
# Mechanical properties :
#
#
# Convention : Reuss Voigt Hill
#
# Bulk Modulus (GPa) = 46.79181 50.73652 48.76417
# Shear Modulus (GPa) = 27.17303 35.30469 31.23886
#
# Velocity S-wave (km/s) = 3.37854 3.85102 3.62249
# Velocity P-wave (km/s) = 5.90551 6.40988 6.16286
#
# Compressibility (1/GPa) = 0.02137126
#
# Stress axis : x y z
#
# Youngs Moduli (GPa) = 36.22783 75.23605 68.10307
#
# Poissons Ratio (x) = 0.82607 0.63341
# Poissons Ratio (y) = 0.39777 -0.21636
# Poissons Ratio (z) = 0.33695 -0.23902
#
# Static dielectric constant tensor:
#      x y z
#    x 1.916360 0.000000 0.001800 
#    y 0.000000 2.014530 0.000000 
#    z 0.001800 0.000000 1.874040 
# 
# From -- ./inp_files/4036.got.cif
#   From: 2010.05.17/outbox.cif.g08.bks.cpg/sg4_3_cif.got.tgz:4036.got - 2010.06.03 18:43:04.
