data_PCOD9118222
_publ_section_title
;
Structure prediction by ZEFSAII (Michael W. Deem and Ramdas Pophale) SiO2 
 PCOD9118222
Probable space group: P 21
;
_chemical_formula_sum "Si O2"
_cell_formula_units_Z 16
_cell_length_a 13.235569
_cell_length_b 6.307266
_cell_length_c 9.452488
_cell_angle_alpha 90.000000
_cell_angle_beta 61.270565
_cell_angle_gamma 90.000000
_cell_volume 691.957851
_symmetry_space_group_name_H-M "P 21"
_symmetry_group_IT_number 4
_symmetry_cell_setting 'monoclinic'
loop_
_space_group_symop_operation_xyz
x,y,z
-x,1/2+y,-z
loop_
_atom_site_type_symbol
_atom_site_label
_atom_site_fract_x
_atom_site_fract_y
_atom_site_fract_z
Si Si1 0.061503 0.097570 0.109150
Si Si2 0.149320 0.286381 0.767202
Si Si3 0.942937 0.425943 0.374824
Si Si4 0.330818 0.174708 0.312966
Si Si5 0.737419 0.349433 0.883724
Si Si6 0.155683 0.546659 0.398340
Si Si7 0.603523 0.697626 0.433896
Si Si8 0.555089 0.382727 0.243780
O O1 0.030630 0.311607 0.209725
O O2 0.143189 0.954812 0.149531
O O3 0.130953 0.152017 0.921861
O O4 0.940987 0.977808 0.164096
O O5 0.283530 0.348090 0.659032
O O6 0.108093 0.122908 0.674589
O O7 0.853749 0.244918 0.486829
O O8 0.022766 0.499746 0.450723
O O9 0.221724 0.331742 0.390960
O O10 0.353159 0.069361 0.453327
O O11 0.440928 0.333409 0.229748
O O12 0.320757 0.009613 0.191636
O O13 0.773063 0.136232 0.781805
O O14 0.659380 0.314541 0.074454
O O15 0.582873 0.610763 0.290976
O O16 0.482725 0.777202 0.580076
#
# Coordination Sequence:
#
# PCOD9118222 Si02
#       8
#     2   2   2   2   2   2   2   2
#     4  12  24  44  70 109 147 189 238 302 372 441
#     4  12  24  45  70 107 149 190 239 299 366 445
#     4  12  26  42  70 104 149 191 240 289 378 445
#     4  10  26  47  70 107 138 194 245 303 364 425
#     4  12  24  49  74 106 150 184 253 307 366 433
#     4  12  26  43  73 106 146 195 240 306 366 439
#     4  10  24  49  67 100 142 187 242 291 364 432
#     4  10  26  47  72 103 139 196 245 301 362 426
#
# _framework density 23.122793999999999
#
# number of rings (size 3 to 8) (size 9 to 14) (size 15 to 20)
#    0.750    0.000    5.000    2.250    3.500    2.000 
#    6.750    0.000    0.000    0.000    0.000    0.000 
#    0.000    0.000    0.000    0.000    0.000    0.000 
#
# Total GULP energy -89204.945641 kJ/mol
# GULP energy per Si atom -5575.309103 kJ/mol
# Density = 2.307017 g / cm^3
# Si number density = 23.122794 Si / 1000 Ang^3
#
#
#
# Elastic Constant Matrix: (Units=GPa)
#
#
# Indices 1 2 3 4 5 6 
#
# 1 66.3797 15.7865 20.2922 0.0000 -2.4777 0.0000
# 2 15.7865 43.7611 29.5869 0.0000 6.1419 0.0000
# 3 20.2922 29.5869 147.1841 0.0000 -17.1949 0.0000
# 4 0.0000 0.0000 0.0000 43.3227 0.0000 5.9585
# 5 -2.4777 6.1419 -17.1949 0.0000 27.8112 0.0000
# 6 0.0000 0.0000 0.0000 5.9585 0.0000 37.8869
#
#
#
# Elastic Compliance Matrix: (Units=1/GPa)
#
#
# Indices 1 2 3 4 5 6 
#
# 1 0.016792 -0.005761 -0.000899 0.000000 0.002213 0.000000
# 2 -0.005761 0.031179 -0.006831 0.000000 -0.011622 0.000000
# 3 -0.000899 -0.006831 0.009117 0.000000 0.007065 0.000000
# 4 0.000000 0.000000 0.000000 0.023593 0.000000 -0.003710
# 5 0.002213 -0.011622 0.007065 0.000000 0.043089 0.000000
# 6 0.000000 0.000000 0.000000 -0.003710 0.000000 0.026978
#
#
# Mechanical properties :
#
#
# Convention : Reuss Voigt Hill
#
# Bulk Modulus (GPa) = 33.21473 43.18404 38.19938
# Shear Modulus (GPa) = 26.62911 34.58144 30.60527
#
# Velocity S-wave (km/s) = 3.39726 3.87144 3.64207
# Velocity P-wave (km/s) = 5.45749 6.22098 5.85170
#
# Compressibility (1/GPa) = 0.03010713
#
# Stress axis : x y z
#
# Youngs Moduli (GPa) = 59.55167 32.07261 109.68862
#
# Poissons Ratio (x) = 0.18476 0.09857
# Poissons Ratio (y) = 0.34305 0.74931
# Poissons Ratio (z) = 0.05352 0.21910
#
# Static dielectric constant tensor:
#      x y z
#    x 1.957450 0.000000 0.014560 
#    y 0.000000 1.939290 0.000000 
#    z 0.014560 0.000000 1.894190 
# 
# From -- ./inp_files/12492.got.cif
#   From: 2010.05.17/outbox.cif.g08.bks.cpg/sg4_7_cif.got.tgz:12492.got - 2010.06.03 18:43:04.
