data_PCOD9118405
_publ_section_title
;
Structure prediction by ZEFSAII (Michael W. Deem and Ramdas Pophale) SiO2 
 PCOD9118405
Probable space group: P 21
;
_chemical_formula_sum "Si O2"
_cell_formula_units_Z 14
_cell_length_a 11.397969
_cell_length_b 6.501613
_cell_length_c 16.924825
_cell_angle_alpha 90.000000
_cell_angle_beta 155.281710
_cell_angle_gamma 90.000000
_cell_volume 524.459811
_symmetry_space_group_name_H-M "P 21"
_symmetry_group_IT_number 4
_symmetry_cell_setting 'monoclinic'
loop_
_space_group_symop_operation_xyz
x,y,z
-x,1/2+y,-z
loop_
_atom_site_type_symbol
_atom_site_label
_atom_site_fract_x
_atom_site_fract_y
_atom_site_fract_z
Si Si1 0.456047 0.130580 0.299524
Si Si2 0.312837 0.162991 0.941264
Si Si3 0.180343 0.972209 0.390479
Si Si4 0.547318 0.528152 0.149682
Si Si5 0.868680 0.978290 0.927981
Si Si6 0.994990 0.288513 0.161332
Si Si7 0.690005 0.721980 0.389752
O O1 0.607454 0.288112 0.452390
O O2 0.062727 0.408426 0.121057
O O3 0.665791 0.965033 0.390852
O O4 0.167101 0.020163 0.151998
O O5 0.406132 0.115979 0.909403
O O6 0.083263 0.341303 0.795903
O O7 0.546831 0.281923 0.136554
O O8 0.155566 0.964744 0.878724
O O9 0.225190 0.155669 0.352856
O O10 0.119487 0.103560 0.431510
O O11 0.747145 0.631440 0.338040
O O12 0.256509 0.626255 0.003892
O O13 0.623746 0.146427 0.773328
O O14 0.300916 0.281801 0.142411
#
# Coordination Sequence:
#
# PCOD9118405 Si02
#       7
#     2   2   2   2   2   2   2
#     4  11  21  43  68 103 140 183 237 304 346 437
#     4  11  24  46  70 103 140 192 236 311 360 444
#     4  10  26  45  63 104 147 185 239 292 381 414
#     4  11  23  43  75 103 136 184 255 295 368 427
#     4  11  23  40  75 105 140 186 246 287 368 425
#     4  11  23  46  70 103 143 188 233 304 355 449
#     4  11  24  45  69 109 140 190 242 307 354 448
#
# _framework density 26.694132
#
# number of rings (size 3 to 8) (size 9 to 14) (size 15 to 20)
#    0.000    1.143    4.286    0.857    4.000    2.286 
#   20.571    0.000    0.000    0.000    0.000    0.000 
#    0.000    0.000    0.000    0.000    0.000    0.000 
#
# Total GULP energy -78038.916081 kJ/mol
# GULP energy per Si atom -5574.208292 kJ/mol
# Density = 2.663338 g / cm^3
# Si number density = 26.694132 Si / 1000 Ang^3
#
#
#
# Elastic Constant Matrix: (Units=GPa)
#
#
# Indices 1 2 3 4 5 6 
#
# 1 130.4627 28.4785 3.4325 0.0000 -21.7988 0.0000
# 2 28.4785 172.1034 39.9116 0.0000 -13.5318 0.0000
# 3 3.4325 39.9116 49.9751 0.0000 -14.9242 0.0000
# 4 0.0000 0.0000 0.0000 33.9209 0.0000 -6.1929
# 5 -21.7988 -13.5318 -14.9242 0.0000 42.4866 0.0000
# 6 0.0000 0.0000 0.0000 -6.1929 0.0000 36.2134
#
#
#
# Elastic Compliance Matrix: (Units=1/GPa)
#
#
# Indices 1 2 3 4 5 6 
#
# 1 0.008736 -0.001549 0.002043 0.000000 0.004706 0.000000
# 2 -0.001549 0.007409 -0.005970 0.000000 -0.000532 0.000000
# 3 0.002043 -0.005970 0.027240 0.000000 0.008715 0.000000
# 4 0.000000 0.000000 0.000000 0.030430 0.000000 0.005204
# 5 0.004706 -0.000532 0.008715 0.000000 0.028843 0.000000
# 6 0.000000 0.000000 0.000000 0.005204 0.000000 0.028504
#
#
# Mechanical properties :
#
#
# Convention : Reuss Voigt Hill
#
# Bulk Modulus (GPa) = 30.83334 55.13183 42.98259
# Shear Modulus (GPa) = 32.69541 41.23876 36.96709
#
# Velocity S-wave (km/s) = 3.50353 3.93474 3.72538
# Velocity P-wave (km/s) = 5.28602 6.42969 5.88570
#
# Compressibility (1/GPa) = 0.03243243
#
# Stress axis : x y z
#
# Youngs Moduli (GPa) = 114.47125 134.96325 36.71073
#
# Poissons Ratio (x) = 0.20909 -0.07499
# Poissons Ratio (y) = 0.17734 0.21916
# Poissons Ratio (z) = -0.23383 0.80571
#
# Static dielectric constant tensor:
#      x y z
#    x 2.216170 0.000000 0.000430 
#    y 0.000000 2.360020 0.000000 
#    z 0.000430 0.000000 2.346400 
# 
# From -- ./inp_files/11472.got.cif
#   From: 2010.05.17/outbox.cif.g08.bks.cpg/sg4_6_cif.got.tgz:11472.got - 2010.06.03 18:43:04.
