data_PCOD9118228
_publ_section_title
;
Structure prediction by ZEFSAII (Michael W. Deem and Ramdas Pophale) SiO2 
 PCOD9118228
Probable space group: P 21
;
_chemical_formula_sum "Si O2"
_cell_formula_units_Z 16
_cell_length_a 6.991432
_cell_length_b 6.869502
_cell_length_c 12.902689
_cell_angle_alpha 90.000000
_cell_angle_beta 67.597997
_cell_angle_gamma 90.000000
_cell_volume 572.919895
_symmetry_space_group_name_H-M "P 21"
_symmetry_group_IT_number 4
_symmetry_cell_setting 'monoclinic'
loop_
_space_group_symop_operation_xyz
x,y,z
-x,1/2+y,-z
loop_
_atom_site_type_symbol
_atom_site_label
_atom_site_fract_x
_atom_site_fract_y
_atom_site_fract_z
Si Si1 0.175943 0.742000 0.413169
Si Si2 0.274384 0.381668 0.507054
Si Si3 0.255922 0.973385 0.066744
Si Si4 0.168699 0.436715 0.230092
Si Si5 0.572219 0.627031 0.695705
Si Si6 0.804853 0.879253 0.235231
Si Si7 0.697175 0.924140 0.002638
Si Si8 0.862200 0.478826 0.119065
O O1 0.281164 0.609317 0.478699
O O2 0.148677 0.598265 0.321565
O O3 0.947817 0.809376 0.491327
O O4 0.306003 0.931425 0.359320
O O5 0.437606 0.264711 0.404524
O O6 0.259166 0.347500 0.632347
O O7 0.289089 0.254676 0.254354
O O8 0.048969 0.917957 0.171346
O O9 0.255684 0.201157 0.037910
O O10 0.268986 0.881336 0.946430
O O11 0.953117 0.400082 0.211000
O O12 0.307758 0.527352 0.109681
O O13 0.341829 0.555463 0.771257
O O14 0.535394 0.438505 0.912270
O O15 0.764740 0.684274 0.175827
O O16 0.921511 0.000178 0.991473
#
# Coordination Sequence:
#
# PCOD9118228 Si02
#       8
#     2   2   2   2   2   2   2   2
#     4  11  22  45  79 106 152 207 266 331 410 488
#     4  11  24  47  74 114 153 203 268 338 403 490
#     4  12  26  48  77 115 161 213 268 331 408 486
#     4   9  24  48  72 115 154 205 261 327 400 484
#     4  11  27  47  78 117 155 210 269 337 419 482
#     4  12  28  47  77 115 161 207 270 340 412 481
#     4  10  25  45  75 110 161 209 259 333 396 479
#     4  10  24  49  76 116 155 210 269 329 392 494
#
# _framework density 27.927116000000002
#
# number of rings (size 3 to 8) (size 9 to 14) (size 15 to 20)
#    0.750    0.500    2.500    1.500    5.250    4.000 
#    4.500    0.000    0.000    0.000    0.000    0.000 
#    0.000    0.000    0.000    0.000    0.000    0.000 
#
# Total GULP energy -89504.168536 kJ/mol
# GULP energy per Si atom -5594.010534 kJ/mol
# Density = 2.786355 g / cm^3
# Si number density = 27.927116 Si / 1000 Ang^3
#
#
#
# Elastic Constant Matrix: (Units=GPa)
#
#
# Indices 1 2 3 4 5 6 
#
# 1 157.9740 34.6124 58.0999 0.0000 1.0014 0.0000
# 2 34.6124 111.6940 14.5283 0.0000 -4.8965 0.0000
# 3 58.0999 14.5283 121.4509 0.0000 21.5747 0.0000
# 4 0.0000 0.0000 0.0000 51.8506 0.0000 -9.3980
# 5 1.0014 -4.8965 21.5747 0.0000 52.7492 0.0000
# 6 0.0000 0.0000 0.0000 -9.3980 0.0000 53.0501
#
#
#
# Elastic Compliance Matrix: (Units=1/GPa)
#
#
# Indices 1 2 3 4 5 6 
#
# 1 0.008191 -0.001975 -0.003906 0.000000 0.001259 0.000000
# 2 -0.001975 0.009666 -0.000407 0.000000 0.001101 0.000000
# 3 -0.003906 -0.000407 0.010939 0.000000 -0.004438 0.000000
# 4 0.000000 0.000000 0.000000 0.019926 0.000000 0.003530
# 5 0.001259 0.001101 -0.004438 0.000000 0.020851 0.000000
# 6 0.000000 0.000000 0.000000 0.003530 0.000000 0.019475
#
#
# Mechanical properties :
#
#
# Convention : Reuss Voigt Hill
#
# Bulk Modulus (GPa) = 61.64936 67.28889 64.46912
# Shear Modulus (GPa) = 46.71452 50.45520 48.58486
#
# Velocity S-wave (km/s) = 4.09434 4.25511 4.17550
# Velocity P-wave (km/s) = 6.66892 6.94896 6.81038
#
# Compressibility (1/GPa) = 0.01622077
#
# Stress axis : x y z
#
# Youngs Moduli (GPa) = 122.07784 103.45182 91.41285
#
# Poissons Ratio (x) = 0.20434 0.35706
# Poissons Ratio (y) = 0.24113 0.03721
# Poissons Ratio (z) = 0.47683 0.04211
#
# Static dielectric constant tensor:
#      x y z
#    x 2.195550 0.000000 0.053310 
#    y 0.000000 2.240240 0.000000 
#    z 0.053310 0.000000 2.224300 
# 
# From -- ./inp_files/10857.got.cif
#   From: 2010.05.17/outbox.cif.g08.bks.cpg/sg4_6_cif.got.tgz:10857.got - 2010.06.03 18:43:04.
