data_PCOD9118233
_publ_section_title
;
Structure prediction by ZEFSAII (Michael W. Deem and Ramdas Pophale) SiO2 
 PCOD9118233
Probable space group: P 21
;
_chemical_formula_sum "Si O2"
_cell_formula_units_Z 10
_cell_length_a 9.691424
_cell_length_b 7.808807
_cell_length_c 5.401416
_cell_angle_alpha 90.000000
_cell_angle_beta 112.480724
_cell_angle_gamma 90.000000
_cell_volume 377.707621
_symmetry_space_group_name_H-M "P 21"
_symmetry_group_IT_number 4
_symmetry_cell_setting 'monoclinic'
loop_
_space_group_symop_operation_xyz
x,y,z
-x,1/2+y,-z
loop_
_atom_site_type_symbol
_atom_site_label
_atom_site_fract_x
_atom_site_fract_y
_atom_site_fract_z
Si Si1 0.688591 0.415300 0.904356
Si Si2 0.837445 0.184054 0.369805
Si Si3 0.725340 0.871235 0.616714
Si Si4 0.002169 0.929212 0.137389
Si Si5 0.496271 0.625955 0.464687
O O1 0.568265 0.565147 0.777915
O O2 0.628095 0.269196 0.674308
O O3 0.853206 0.467797 0.929500
O O4 0.715904 0.315604 0.176759
O O5 0.943957 0.291952 0.622700
O O6 0.764652 0.018693 0.448283
O O7 0.935870 0.098304 0.220928
O O8 0.647327 0.704273 0.446767
O O9 0.591377 0.957427 0.686676
O O10 0.868613 0.854748 0.882465
#
# Coordination Sequence:
#
# PCOD9118233 Si02
#       5
#     2   2   2   2   2
#     4  11  25  50  73 108 152 198 250 318 368 449
#     4  12  26  46  78 114 142 208 260 292 388 448
#     4  11  25  50  73 108 152 198 250 318 368 449
#     4  12  26  46  74 110 152 196 254 316 360 452
#     4  10  24  50  72 102 162 192 238 328 374 422
#
# _framework density 26.475504999999998
#
# number of rings (size 3 to 8) (size 9 to 14) (size 15 to 20)
#    0.000    0.800    4.000    1.200   11.200    0.000 
#   14.400    0.000    0.000    0.000    0.000    0.000 
#    0.000    0.000    0.000    0.000    0.000    0.000 
#
# Total GULP energy -55896.000339 kJ/mol
# GULP energy per Si atom -5589.600034 kJ/mol
# Density = 2.641525 g / cm^3
# Si number density = 26.475505 Si / 1000 Ang^3
#
#
#
# Elastic Constant Matrix: (Units=GPa)
#
#
# Indices 1 2 3 4 5 6 
#
# 1 84.6298 36.8917 78.5482 0.0000 42.6007 0.0000
# 2 36.8917 114.4440 68.3549 0.0000 16.0016 0.0000
# 3 78.5482 68.3549 167.0962 0.0000 45.9981 0.0000
# 4 0.0000 0.0000 0.0000 51.0542 0.0000 17.6323
# 5 42.6007 16.0016 45.9981 0.0000 52.5169 0.0000
# 6 0.0000 0.0000 0.0000 17.6323 0.0000 59.1220
#
#
#
# Elastic Compliance Matrix: (Units=1/GPa)
#
#
# Indices 1 2 3 4 5 6 
#
# 1 0.027615 -0.001998 -0.008124 0.000000 -0.014677 0.000000
# 2 -0.001998 0.011734 -0.004379 0.000000 0.001880 0.000000
# 3 -0.008124 -0.004379 0.012404 0.000000 -0.002940 0.000000
# 4 0.000000 0.000000 0.000000 0.021836 0.000000 -0.006512
# 5 -0.014677 0.001880 -0.002940 0.000000 0.032949 0.000000
# 6 0.000000 0.000000 0.000000 -0.006512 0.000000 0.018856
#
#
# Mechanical properties :
#
#
# Convention : Reuss Voigt Hill
#
# Bulk Modulus (GPa) = 43.95058 81.52886 62.73972
# Shear Modulus (GPa) = 30.86808 44.69694 37.78251
#
# Velocity S-wave (km/s) = 3.41825 4.11327 3.78176
# Velocity P-wave (km/s) = 5.67589 7.30887 6.54352
#
# Compressibility (1/GPa) = 0.02275283
#
# Stress axis : x y z
#
# Youngs Moduli (GPa) = 36.21244 85.22033 80.61872
#
# Poissons Ratio (x) = 0.17023 0.65493
# Poissons Ratio (y) = 0.07234 0.35301
# Poissons Ratio (z) = 0.29418 0.37316
#
# Static dielectric constant tensor:
#      x y z
#    x 2.140210 0.000000 -0.062260 
#    y 0.000000 2.172630 0.000000 
#    z -0.062260 0.000000 2.020250 
# 
# From -- ./inp_files/955.got.cif
#   From: 2010.05.17/outbox.cif.g08.bks.cpg/sg4_1_cif.got.tgz:955.got - 2010.06.03 18:43:04.
