data_PCOD9118415
_publ_section_title
;
Structure prediction by ZEFSAII (Michael W. Deem and Ramdas Pophale) SiO2 
 PCOD9118415
Probable space group: P 21
;
_chemical_formula_sum "Si O2"
_cell_formula_units_Z 16
_cell_length_a 14.568379
_cell_length_b 8.716299
_cell_length_c 11.837753
_cell_angle_alpha 90.000000
_cell_angle_beta 150.383442
_cell_angle_gamma 90.000000
_cell_volume 742.864017
_symmetry_space_group_name_H-M "P 21"
_symmetry_group_IT_number 4
_symmetry_cell_setting 'monoclinic'
loop_
_space_group_symop_operation_xyz
x,y,z
-x,1/2+y,-z
loop_
_atom_site_type_symbol
_atom_site_label
_atom_site_fract_x
_atom_site_fract_y
_atom_site_fract_z
Si Si1 0.655758 0.829070 0.766316
Si Si2 0.200362 0.557311 0.898968
Si Si3 0.011780 0.652965 0.218502
Si Si4 0.620989 0.036298 0.507851
Si Si5 0.844202 0.386031 0.448581
Si Si6 0.511958 0.076126 0.968280
Si Si7 0.934146 0.377359 0.276296
Si Si8 0.621135 0.892491 0.277566
O O1 0.508152 0.689311 0.622132
O O2 0.618268 0.933452 0.617054
O O3 0.862984 0.755087 0.991986
O O4 0.672600 0.954113 0.885069
O O5 0.175398 0.736007 0.896536
O O6 0.992540 0.498303 0.664604
O O7 0.290635 0.537123 0.873200
O O8 0.890431 0.529209 0.158549
O O9 0.169193 0.588917 0.302874
O O10 0.122462 0.737118 0.439367
O O11 0.570969 0.919525 0.352974
O O12 0.644278 0.461935 0.244482
O O13 0.889128 0.373779 0.362414
O O14 0.463855 0.245542 0.876137
O O15 0.536347 0.042086 0.125243
O O16 0.157607 0.369785 0.499902
#
# Coordination Sequence:
#
# PCOD9118415 Si02
#       8
#     2   2   2   2   2   2   2   2
#     4  11  28  48  77  97 137 190 235 301 351 418
#     4  11  24  42  67 103 139 189 235 278 358 413
#     4  10  26  46  71 105 142 185 236 294 348 420
#     4  11  28  52  69 107 138 179 250 291 354 420
#     4  11  22  41  68 104 148 186 228 284 346 432
#     4  12  25  40  68 105 143 188 229 289 353 423
#     4  11  22  42  66 104 151 183 232 283 353 427
#     4  11  27  41  70 105 146 190 229 292 353 425
#
# _framework density 21.538260000000001
#
# number of rings (size 3 to 8) (size 9 to 14) (size 15 to 20)
#    0.000    1.000    2.500    2.250   12.250    3.000 
#    0.000    0.000    0.000    0.000    0.000    0.000 
#    0.000    0.000    0.000    0.000    0.000    0.000 
#
# Total GULP energy -89309.224883 kJ/mol
# GULP energy per Si atom -5581.826555 kJ/mol
# Density = 2.148924 g / cm^3
# Si number density = 21.538260 Si / 1000 Ang^3
#
#
#
# Elastic Constant Matrix: (Units=GPa)
#
#
# Indices 1 2 3 4 5 6 
#
# 1 63.3270 36.6426 24.4627 0.0000 -3.1306 0.0000
# 2 36.6426 130.8538 51.8521 0.0000 -10.2149 0.0000
# 3 24.4627 51.8521 87.5704 0.0000 -0.3706 0.0000
# 4 0.0000 0.0000 0.0000 54.0109 0.0000 -6.5974
# 5 -3.1306 -10.2149 -0.3706 0.0000 35.2742 0.0000
# 6 0.0000 0.0000 0.0000 -6.5974 0.0000 29.7924
#
#
#
# Elastic Compliance Matrix: (Units=1/GPa)
#
#
# Indices 1 2 3 4 5 6 
#
# 1 0.019390 -0.004244 -0.002902 0.000000 0.000461 0.000000
# 2 -0.004244 0.011204 -0.005437 0.000000 0.002811 0.000000
# 3 -0.002902 -0.005437 0.015442 0.000000 -0.001670 0.000000
# 4 0.000000 0.000000 0.000000 0.019030 0.000000 0.004214
# 5 0.000461 0.002811 -0.001670 0.000000 0.029187 0.000000
# 6 0.000000 0.000000 0.000000 0.004214 0.000000 0.034499
#
#
# Mechanical properties :
#
#
# Convention : Reuss Voigt Hill
#
# Bulk Modulus (GPa) = 47.91169 56.40734 52.15952
# Shear Modulus (GPa) = 31.08008 35.06842 33.07425
#
# Velocity S-wave (km/s) = 3.80283 4.03946 3.92293
# Velocity P-wave (km/s) = 6.44788 6.92839 6.69245
#
# Compressibility (1/GPa) = 0.02087173
#
# Stress axis : x y z
#
# Youngs Moduli (GPa) = 51.57169 89.25070 64.75747
#
# Poissons Ratio (x) = 0.37878 0.18792
# Poissons Ratio (y) = 0.21887 0.35208
# Poissons Ratio (z) = 0.14965 0.48525
#
# Static dielectric constant tensor:
#      x y z
#    x 1.747060 0.000000 0.011980 
#    y 0.000000 1.869130 0.000000 
#    z 0.011980 0.000000 1.776800 
# 
# From -- ./inp_files/12691.got.cif
#   From: 2010.05.17/outbox.cif.g08.bks.cpg/sg4_7_cif.got.tgz:12691.got - 2010.06.03 18:43:04.
