data_PCOD9118602
_publ_section_title
;
Structure prediction by ZEFSAII (Michael W. Deem and Ramdas Pophale) SiO2 
 PCOD9118602
Probable space group: P 21
;
_chemical_formula_sum "Si O2"
_cell_formula_units_Z 16
_cell_length_a 10.925913
_cell_length_b 8.151385
_cell_length_c 14.275655
_cell_angle_alpha 90.000000
_cell_angle_beta 148.649713
_cell_angle_gamma 90.000000
_cell_volume 661.474353
_symmetry_space_group_name_H-M "P 21"
_symmetry_group_IT_number 4
_symmetry_cell_setting 'monoclinic'
loop_
_space_group_symop_operation_xyz
x,y,z
-x,1/2+y,-z
loop_
_atom_site_type_symbol
_atom_site_label
_atom_site_fract_x
_atom_site_fract_y
_atom_site_fract_z
Si Si1 0.598977 0.700620 0.702576
Si Si2 0.295609 0.792799 0.990409
Si Si3 0.388222 0.534738 0.401536
Si Si4 0.201411 0.854808 0.569480
Si Si5 0.014500 0.868343 0.641910
Si Si6 0.144004 0.145004 0.947230
Si Si7 0.770963 0.735190 0.188288
Si Si8 0.560266 0.688526 0.325851
O O1 0.540559 0.550720 0.595448
O O2 0.376188 0.743332 0.623048
O O3 0.807972 0.685810 0.913741
O O4 0.633210 0.854317 0.655711
O O5 0.074291 0.773353 0.777224
O O6 0.290943 0.982096 0.018767
O O7 0.519959 0.749398 0.073018
O O8 0.328396 0.704240 0.110584
O O9 0.502213 0.640328 0.392992
O O10 0.129213 0.607192 0.249514
O O11 0.159537 0.800169 0.648267
O O12 0.949263 0.856259 0.355364
O O13 0.302180 0.036948 0.630589
O O14 0.740521 0.841048 0.440491
O O15 0.110923 0.054093 0.718678
O O16 0.229653 0.270587 0.923311
#
# Coordination Sequence:
#
# PCOD9118602 Si02
#       8
#     2   2   2   2   2   2   2   2
#     4  11  27  47  75 102 144 194 244 307 360 427
#     4  11  25  41  71 107 141 184 242 297 360 438
#     4  11  28  48  73 106 142 196 251 298 360 437
#     4  11  21  45  68 102 146 183 237 299 360 432
#     4  11  23  42  72 102 145 187 233 297 367 431
#     4  11  27  46  76 105 148 192 242 306 363 432
#     4  11  23  45  71 108 143 186 245 290 365 436
#     4  11  26  44  68 102 143 190 238 298 361 427
#
# _framework density 24.188390999999999
#
# number of rings (size 3 to 8) (size 9 to 14) (size 15 to 20)
#    0.000    1.000    3.750    0.750    8.750    3.000 
#    4.500    0.000    0.000    0.000    0.000    0.000 
#    0.000    0.000    0.000    0.000    0.000    0.000 
#
# Total GULP energy -89523.951556 kJ/mol
# GULP energy per Si atom -5595.246972 kJ/mol
# Density = 2.413334 g / cm^3
# Si number density = 24.188391 Si / 1000 Ang^3
#
#
#
# Elastic Constant Matrix: (Units=GPa)
#
#
# Indices 1 2 3 4 5 6 
#
# 1 90.9847 -2.9856 13.3458 0.0000 -13.7163 0.0000
# 2 -2.9856 45.0269 -4.3463 0.0000 -9.3659 0.0000
# 3 13.3458 -4.3463 89.1361 0.0000 -34.8109 0.0000
# 4 0.0000 0.0000 0.0000 30.2253 0.0000 -1.8754
# 5 -13.7163 -9.3659 -34.8109 0.0000 54.2923 0.0000
# 6 0.0000 0.0000 0.0000 -1.8754 0.0000 29.5219
#
#
#
# Elastic Compliance Matrix: (Units=1/GPa)
#
#
# Indices 1 2 3 4 5 6 
#
# 1 0.011535 0.001282 -0.000587 0.000000 0.002759 0.000000
# 2 0.001282 0.024062 0.003640 0.000000 0.006809 0.000000
# 3 -0.000587 0.003640 0.015570 0.000000 0.010463 0.000000
# 4 0.000000 0.000000 0.000000 0.033216 0.000000 0.002110
# 5 0.002759 0.006809 0.010463 0.000000 0.026999 0.000000
# 6 0.000000 0.000000 0.000000 0.002110 0.000000 0.034007
#
#
# Mechanical properties :
#
#
# Convention : Reuss Voigt Hill
#
# Bulk Modulus (GPa) = 16.71184 26.35283 21.53233
# Shear Modulus (GPa) = 31.91537 37.41681 34.66609
#
# Velocity S-wave (km/s) = 3.63636 3.93732 3.78983
# Velocity P-wave (km/s) = 4.95529 5.62036 5.29827
#
# Compressibility (1/GPa) = 0.05983780
#
# Stress axis : x y z
#
# Youngs Moduli (GPa) = 86.69296 41.55986 64.22444
#
# Poissons Ratio (x) = -0.05328 0.03771
# Poissons Ratio (y) = -0.11115 -0.23380
# Poissons Ratio (z) = 0.05090 -0.15130
#
# Static dielectric constant tensor:
#      x y z
#    x 1.918340 0.000000 -0.055980 
#    y 0.000000 1.969460 0.000000 
#    z -0.055980 0.000000 1.958360 
# 
# From -- ./inp_files/13913.got.cif
#   From: 2010.05.17/outbox.cif.g08.bks.cpg/sg4_7_cif.got.tgz:13913.got - 2010.06.03 18:43:04.
