data_PCOD9118299
_publ_section_title
;
Structure prediction by ZEFSAII (Michael W. Deem and Ramdas Pophale) SiO2 
 PCOD9118299
Probable space group: P 21
;
_chemical_formula_sum "Si O2"
_cell_formula_units_Z 12
_cell_length_a 11.284002
_cell_length_b 7.365893
_cell_length_c 9.363870
_cell_angle_alpha 90.000000
_cell_angle_beta 141.332284
_cell_angle_gamma 90.000000
_cell_volume 486.280565
_symmetry_space_group_name_H-M "P 21"
_symmetry_group_IT_number 4
_symmetry_cell_setting 'monoclinic'
loop_
_space_group_symop_operation_xyz
x,y,z
-x,1/2+y,-z
loop_
_atom_site_type_symbol
_atom_site_label
_atom_site_fract_x
_atom_site_fract_y
_atom_site_fract_z
Si Si1 0.125958 0.091970 0.320084
Si Si2 0.467880 0.474330 0.184453
Si Si3 0.161882 0.325919 0.086541
Si Si4 0.336946 0.074492 0.033345
Si Si5 0.697666 0.032547 0.263212
Si Si6 0.937342 0.306904 0.387597
O O1 0.151788 0.264050 0.239296
O O2 0.981921 0.159923 0.306435
O O3 0.326838 0.032200 0.571786
O O4 0.027211 0.924010 0.145546
O O5 0.327766 0.464844 0.190374
O O6 0.436576 0.269195 0.095541
O O7 0.403095 0.579996 0.982501
O O8 0.213623 0.137285 0.052506
O O9 0.198522 0.966286 0.798468
O O10 0.538204 0.968613 0.225450
O O11 0.854347 0.878918 0.383628
O O12 0.833614 0.205715 0.419934
#
# Coordination Sequence:
#
# PCOD9118299 Si02
#       6
#     2   2   2   2   2   2
#     4  12  26  48  77 103 147 193 252 302 367 428
#     4  10  26  46  70 107 141 187 243 302 361 437
#     4  10  26  48  71 103 145 188 254 298 366 429
#     4  10  25  45  71 101 147 188 243 294 371 422
#     4  12  26  43  72 108 150 186 250 293 376 434
#     4  12  27  42  75 106 150 198 236 305 367 438
#
# _framework density 24.677109999999999
#
# number of rings (size 3 to 8) (size 9 to 14) (size 15 to 20)
#    1.000    0.000    1.667    3.000   11.667    2.667 
#    0.000    0.000    0.000    0.000    0.000    0.000 
#    0.000    0.000    0.000    0.000    0.000    0.000 
#
# Total GULP energy -66940.013999 kJ/mol
# GULP energy per Si atom -5578.334500 kJ/mol
# Density = 2.462094 g / cm^3
# Si number density = 24.677110 Si / 1000 Ang^3
#
#
#
# Elastic Constant Matrix: (Units=GPa)
#
#
# Indices 1 2 3 4 5 6 
#
# 1 74.0739 4.1440 22.3313 0.0000 6.9408 0.0000
# 2 4.1440 58.2904 38.9621 0.0000 -3.3474 0.0000
# 3 22.3313 38.9621 165.7669 0.0000 22.8355 0.0000
# 4 0.0000 0.0000 0.0000 44.7699 0.0000 -4.3554
# 5 6.9408 -3.3474 22.8355 0.0000 30.2524 0.0000
# 6 0.0000 0.0000 0.0000 -4.3554 0.0000 38.2195
#
#
#
# Elastic Compliance Matrix: (Units=1/GPa)
#
#
# Indices 1 2 3 4 5 6 
#
# 1 0.014182 -0.000042 -0.001620 0.000000 -0.002035 0.000000
# 2 -0.000042 0.021584 -0.006024 0.000000 0.006945 0.000000
# 3 -0.001620 -0.006024 0.008602 0.000000 -0.006788 0.000000
# 4 0.000000 0.000000 0.000000 0.022587 0.000000 0.002574
# 5 -0.002035 0.006945 -0.006788 0.000000 0.039414 0.000000
# 6 0.000000 0.000000 0.000000 0.002574 0.000000 0.026458
#
#
# Mechanical properties :
#
#
# Convention : Reuss Voigt Hill
#
# Bulk Modulus (GPa) = 34.48950 47.66733 41.07842
# Shear Modulus (GPa) = 31.67277 38.16127 34.91702
#
# Velocity S-wave (km/s) = 3.58647 3.93673 3.76567
# Velocity P-wave (km/s) = 5.58184 6.32630 5.96570
#
# Compressibility (1/GPa) = 0.02899433
#
# Stress axis : x y z
#
# Youngs Moduli (GPa) = 70.51418 46.33066 116.25438
#
# Poissons Ratio (x) = 0.00195 0.18835
# Poissons Ratio (y) = 0.00297 0.70034
# Poissons Ratio (z) = 0.11425 0.27910
#
# Static dielectric constant tensor:
#      x y z
#    x 1.979270 0.000000 0.087110 
#    y 0.000000 2.138200 0.000000 
#    z 0.087110 0.000000 1.974380 
# 
# From -- ./inp_files/11919.got.cif
#   From: 2010.05.17/outbox.cif.g08.bks.cpg/sg4_6_cif.got.tgz:11919.got - 2010.06.03 18:43:04.
