data_PCOD9118626
_publ_section_title
;
Structure prediction by ZEFSAII (Michael W. Deem and Ramdas Pophale) SiO2 
 PCOD9118626
Probable space group: P 21
;
_chemical_formula_sum "Si O2"
_cell_formula_units_Z 14
_cell_length_a 7.163306
_cell_length_b 5.639230
_cell_length_c 17.082154
_cell_angle_alpha 90.000000
_cell_angle_beta 49.377492
_cell_angle_gamma 90.000000
_cell_volume 523.753148
_symmetry_space_group_name_H-M "P 21"
_symmetry_group_IT_number 4
_symmetry_cell_setting 'monoclinic'
loop_
_space_group_symop_operation_xyz
x,y,z
-x,1/2+y,-z
loop_
_atom_site_type_symbol
_atom_site_label
_atom_site_fract_x
_atom_site_fract_y
_atom_site_fract_z
Si Si1 0.344287 0.021190 0.857149
Si Si2 0.760438 0.501125 0.666857
Si Si3 0.766302 0.985865 0.618645
Si Si4 0.140643 0.739231 0.047144
Si Si5 0.370470 0.491372 0.636085
Si Si6 0.412362 0.912264 0.113209
Si Si7 0.638403 0.492591 0.400037
O O1 0.498054 0.156532 0.881483
O O2 0.538874 0.946167 0.740731
O O3 0.179722 0.837516 0.949074
O O4 0.142298 0.178455 0.869446
O O5 0.902851 0.734900 0.596641
O O6 0.519132 0.488366 0.676441
O O7 0.688389 0.519544 0.777676
O O8 0.873937 0.239281 0.617256
O O9 0.623745 0.994561 0.575150
O O10 0.346183 0.534221 0.989247
O O11 0.213415 0.905121 0.099341
O O12 0.569955 0.493083 0.510045
O O13 0.238531 0.745246 0.660402
O O14 0.236226 0.240327 0.658903
#
# Coordination Sequence:
#
# PCOD9118626 Si02
#       7
#     2   2   2   2   2   2   2
#     4  11  22  35  53  75 104 136 182 225 271 317
#     4   9  17  29  47  69  99 135 169 214 264 310
#     4   9  17  29  47  69  99 135 169 214 264 310
#     4  12  22  36  54  76 102 140 184 228 270 326
#     4   8  13  22  38  63  94 126 161 204 253 305
#     4  11  22  35  53  75 104 136 182 225 271 317
#     4   8  13  22  38  63  94 126 161 204 253 305
#
# _framework density 26.730146000000001
#
# number of rings (size 3 to 8) (size 9 to 14) (size 15 to 20)
#    0.000    2.286    4.286    0.000    0.000    0.000 
#    0.000    0.000    0.000    0.000    0.000    0.000 
#    0.000   48.000    0.000    0.000    0.000   44.857 
#
# Total GULP energy -78263.486203 kJ/mol
# GULP energy per Si atom -5590.249015 kJ/mol
# Density = 2.666931 g / cm^3
# Si number density = 26.730146 Si / 1000 Ang^3
#
#
#
# Elastic Constant Matrix: (Units=GPa)
#
#
# Indices 1 2 3 4 5 6 
#
# 1 107.4514 7.0260 43.8991 0.0000 25.4614 0.0000
# 2 7.0260 166.6369 9.0360 0.0000 -4.8597 0.0000
# 3 43.8991 9.0360 149.9860 0.0000 20.4551 0.0000
# 4 0.0000 0.0000 0.0000 27.7740 0.0000 16.9246
# 5 25.4614 -4.8597 20.4551 0.0000 37.9243 0.0000
# 6 0.0000 0.0000 0.0000 16.9246 0.0000 5.2187
#
#
#
# Elastic Compliance Matrix: (Units=1/GPa)
#
#
# Indices 1 2 3 4 5 6 
#
# 1 0.011984 -0.000563 -0.002554 0.000000 -0.006740 0.000000
# 2 -0.000563 0.006086 -0.000388 0.000000 0.001367 0.000000
# 3 -0.002554 -0.000388 0.007784 0.000000 -0.002533 0.000000
# 4 0.000000 0.000000 0.000000 -0.036882 0.000000 0.119610
# 5 -0.006740 0.001367 -0.002533 0.000000 0.032435 0.000000
# 6 0.000000 0.000000 0.000000 0.119610 0.000000 -0.196286
#
#
# Mechanical properties :
#
#
# Convention : Reuss Voigt Hill
#
# Bulk Modulus (GPa) = 53.07403 60.44408 56.75905
# Shear Modulus (GPa) = -30.94330 38.45762 3.75716
#
# Velocity S-wave (km/s) = -3.40607 3.79718 1.18686
# Velocity P-wave (km/s) = 2.10480 6.47198 4.81232
#
# Compressibility (1/GPa) = 0.01884161
#
# Stress axis : x y z
#
# Youngs Moduli (GPa) = 83.44363 164.31808 128.47208
#
# Poissons Ratio (x) = 0.09257 0.32817
# Poissons Ratio (y) = 0.04701 0.04988
# Poissons Ratio (z) = 0.21315 0.06380
#
# Static dielectric constant tensor:
#      x y z
#    x 1.983790 0.000000 0.030190 
#    y 0.000000 2.302310 0.000000 
#    z 0.030190 0.000000 2.024990 
# 
# From -- ./inp_files/3844.got.cif
#   From: 2010.05.17/outbox.cif.g08.bks.cpg/sg4_2_cif.got.tgz:3844.got - 2010.06.03 18:43:04.
