data_PCOD9118948
_publ_section_title
;
Structure prediction by ZEFSAII (Michael W. Deem and Ramdas Pophale) SiO2 
 PCOD9118948
Probable space group: P 21
;
_chemical_formula_sum "Si O2"
_cell_formula_units_Z 16
_cell_length_a 12.486272
_cell_length_b 5.002537
_cell_length_c 13.895598
_cell_angle_alpha 90.000000
_cell_angle_beta 133.152467
_cell_angle_gamma 90.000000
_cell_volume 633.209231
_symmetry_space_group_name_H-M "P 21"
_symmetry_group_IT_number 4
_symmetry_cell_setting 'monoclinic'
loop_
_space_group_symop_operation_xyz
x,y,z
-x,1/2+y,-z
loop_
_atom_site_type_symbol
_atom_site_label
_atom_site_fract_x
_atom_site_fract_y
_atom_site_fract_z
Si Si1 0.518429 0.011720 0.764265
Si Si2 0.083669 0.782969 0.586364
Si Si3 0.154035 0.606499 0.338124
Si Si4 0.982431 0.718091 0.893916
Si Si5 0.235307 0.835358 0.197621
Si Si6 0.338518 0.514643 0.624205
Si Si7 0.416309 0.293813 0.984877
Si Si8 0.906931 0.967856 0.224514
O O1 0.637457 0.193178 0.782255
O O2 0.394384 0.238343 0.702515
O O3 0.459899 0.744068 0.675346
O O4 0.572793 0.898759 0.899288
O O5 0.232769 0.670188 0.632545
O O6 0.093567 0.725476 0.706522
O O7 0.042120 0.081478 0.531344
O O8 0.045681 0.448747 0.200925
O O9 0.251240 0.758901 0.318994
O O10 0.251362 0.446049 0.472889
O O11 0.054667 0.806136 0.339005
O O12 0.816454 0.644279 0.826083
O O13 0.067485 0.518284 0.873387
O O14 0.086572 0.747719 0.049065
O O15 0.516937 0.499623 0.985916
O O16 0.245914 0.317764 0.852516
#
# Coordination Sequence:
#
# PCOD9118948 Si02
#       8
#     2   2   2   2   2   2   2   2
#     4  12  28  49  74 107 157 200 246 303 380 453
#     4  12  24  44  73 107 148 193 247 299 362 431
#     4  11  26  46  74 106 144 190 256 310 379 436
#     4  11  23  45  76 110 142 182 255 319 381 433
#     4  11  25  44  76 108 141 191 244 319 381 442
#     4  12  28  49  73 107 157 201 248 300 367 463
#     4  12  27  48  74 112 155 199 255 305 378 452
#     4  11  25  43  74 107 144 194 243 319 366 436
#
# _framework density 25.268108000000002
#
# number of rings (size 3 to 8) (size 9 to 14) (size 15 to 20)
#    0.000    0.500    3.750    3.750    7.000    2.000 
#    0.000    0.000    0.000    0.000    0.000    0.000 
#    0.000    0.000    0.000    0.000    0.000    0.000 
#
# Total GULP energy -89460.023339 kJ/mol
# GULP energy per Si atom -5591.251459 kJ/mol
# Density = 2.521060 g / cm^3
# Si number density = 25.268108 Si / 1000 Ang^3
#
#
#
# Elastic Constant Matrix: (Units=GPa)
#
#
# Indices 1 2 3 4 5 6 
#
# 1 87.5988 0.9065 28.2644 0.0000 -12.8108 0.0000
# 2 0.9065 75.8510 10.0233 0.0000 -1.4781 0.0000
# 3 28.2644 10.0233 76.9611 0.0000 -15.7459 0.0000
# 4 0.0000 0.0000 0.0000 29.0968 0.0000 -3.7646
# 5 -12.8108 -1.4781 -15.7459 0.0000 41.8292 0.0000
# 6 0.0000 0.0000 0.0000 -3.7646 0.0000 35.3297
#
#
#
# Elastic Compliance Matrix: (Units=1/GPa)
#
#
# Indices 1 2 3 4 5 6 
#
# 1 0.013185 0.000472 -0.004414 0.000000 0.002393 0.000000
# 2 0.000472 0.013433 -0.001946 0.000000 -0.000113 0.000000
# 3 -0.004414 -0.001946 0.015794 0.000000 0.004525 0.000000
# 4 0.000000 0.000000 0.000000 0.034848 0.000000 0.003713
# 5 0.002393 -0.000113 0.004525 0.000000 0.026339 0.000000
# 6 0.000000 0.000000 0.000000 0.003713 0.000000 0.028701
#
#
# Mechanical properties :
#
#
# Convention : Reuss Voigt Hill
#
# Bulk Modulus (GPa) = 32.64122 35.42213 34.03167
# Shear Modulus (GPa) = 32.40697 34.66559 33.53628
#
# Velocity S-wave (km/s) = 3.58512 3.70795 3.64705
# Velocity P-wave (km/s) = 5.48484 5.69041 5.58857
#
# Compressibility (1/GPa) = 0.03063611
#
# Stress axis : x y z
#
# Youngs Moduli (GPa) = 75.84352 74.44317 63.31558
#
# Poissons Ratio (x) = -0.03516 0.27949
# Poissons Ratio (y) = -0.03583 0.12322
# Poissons Ratio (z) = 0.33479 0.14488
#
# Static dielectric constant tensor:
#      x y z
#    x 2.017790 0.000000 0.043290 
#    y 0.000000 2.110320 0.000000 
#    z 0.043290 0.000000 1.990540 
# 
# From -- ./inp_files/12516.got.cif
#   From: 2010.05.17/outbox.cif.g08.bks.cpg/sg4_7_cif.got.tgz:12516.got - 2010.06.03 18:43:04.
