data_PCOD9118837
_publ_section_title
;
Structure prediction by ZEFSAII (Michael W. Deem and Ramdas Pophale) SiO2 
 PCOD9118837
Probable space group: P 21
;
_chemical_formula_sum "Si O2"
_cell_formula_units_Z 14
_cell_length_a 9.546338
_cell_length_b 12.584279
_cell_length_c 4.895325
_cell_angle_alpha 90.000000
_cell_angle_beta 77.413894
_cell_angle_gamma 90.000000
_cell_volume 573.961788
_symmetry_space_group_name_H-M "P 21"
_symmetry_group_IT_number 4
_symmetry_cell_setting 'monoclinic'
loop_
_space_group_symop_operation_xyz
x,y,z
-x,1/2+y,-z
loop_
_atom_site_type_symbol
_atom_site_label
_atom_site_fract_x
_atom_site_fract_y
_atom_site_fract_z
Si Si1 0.895078 0.117220 0.706176
Si Si2 0.045022 0.305543 0.873835
Si Si3 0.769750 0.438528 0.123284
Si Si4 0.208018 0.382545 0.274300
Si Si5 0.376197 0.751595 0.150754
Si Si6 0.434605 0.245371 0.397595
Si Si7 0.207234 0.071196 0.379156
O O1 0.765204 0.193785 0.669510
O O2 0.968032 0.191439 0.906178
O O3 0.036769 0.091847 0.470658
O O4 0.820746 0.004460 0.791133
O O5 0.095345 0.345295 0.555361
O O6 0.928821 0.390083 0.029385
O O7 0.177331 0.312067 0.021865
O O8 0.673032 0.352601 0.009059
O O9 0.757177 0.543267 0.945127
O O10 0.752115 0.470609 0.444503
O O11 0.365322 0.355320 0.317542
O O12 0.483205 0.764826 0.356999
O O13 0.461340 0.691274 0.872557
O O14 0.297475 0.167891 0.462672
#
# Coordination Sequence:
#
# PCOD9118837 Si02
#       7
#     2   2   2   2   2   2   2
#     4  11  26  46  78 109 142 189 245 308 361 428
#     4  11  23  42  69 108 139 176 232 305 357 413
#     4  11  23  44  72 105 141 187 239 300 363 423
#     4  12  25  43  73 104 144 182 243 295 361 427
#     4  11  28  49  70 103 155 194 238 294 371 437
#     4  12  27  47  70 104 148 199 237 298 362 447
#     4  12  24  43  78 107 141 185 252 298 367 419
#
# _framework density 24.391866
#
# number of rings (size 3 to 8) (size 9 to 14) (size 15 to 20)
#    0.000    0.571    4.286    2.571    2.000   10.286 
#    0.000    0.000    0.000    0.000    0.000    0.000 
#    0.000    0.000    0.000    0.000    0.000    0.000 
#
# Total GULP energy -78281.901728 kJ/mol
# GULP energy per Si atom -5591.564409 kJ/mol
# Density = 2.433635 g / cm^3
# Si number density = 24.391866 Si / 1000 Ang^3
#
#
#
# Elastic Constant Matrix: (Units=GPa)
#
#
# Indices 1 2 3 4 5 6 
#
# 1 141.7166 44.1007 21.1426 0.0000 14.5607 0.0000
# 2 44.1007 92.1807 14.0916 0.0000 11.8127 0.0000
# 3 21.1426 14.0916 96.2187 0.0000 20.3842 0.0000
# 4 0.0000 0.0000 0.0000 20.8524 0.0000 -7.3473
# 5 14.5607 11.8127 20.3842 0.0000 36.8800 0.0000
# 6 0.0000 0.0000 0.0000 -7.3473 0.0000 22.2126
#
#
#
# Elastic Compliance Matrix: (Units=1/GPa)
#
#
# Indices 1 2 3 4 5 6 
#
# 1 0.008529 -0.003721 -0.000983 0.000000 -0.001632 0.000000
# 2 -0.003721 0.013023 -0.000586 0.000000 -0.002378 0.000000
# 3 -0.000983 -0.000586 0.011975 0.000000 -0.006043 0.000000
# 4 0.000000 0.000000 0.000000 0.054283 0.000000 0.017955
# 5 -0.001632 -0.002378 -0.006043 0.000000 0.031861 0.000000
# 6 0.000000 0.000000 0.000000 0.017955 0.000000 0.050959
#
#
# Mechanical properties :
#
#
# Convention : Reuss Voigt Hill
#
# Bulk Modulus (GPa) = 43.57961 54.30954 48.94458
# Shear Modulus (GPa) = 26.47502 32.70773 29.59138
#
# Velocity S-wave (km/s) = 3.29812 3.66584 3.48683
# Velocity P-wave (km/s) = 5.69286 6.34284 6.02662
#
# Compressibility (1/GPa) = 0.02294651
#
# Stress axis : x y z
#
# Youngs Moduli (GPa) = 117.25286 76.78931 83.50667
#
# Poissons Ratio (x) = 0.28571 0.08212
# Poissons Ratio (y) = 0.43627 0.04892
# Poissons Ratio (z) = 0.11530 0.04498
#
# Static dielectric constant tensor:
#      x y z
#    x 1.948310 0.000000 -0.040170 
#    y 0.000000 1.998030 0.000000 
#    z -0.040170 0.000000 1.948210 
# 
# From -- ./inp_files/1192.got.cif
#   From: 2010.05.17/outbox.cif.g08.bks.cpg/sg4_1_cif.got.tgz:1192.got - 2010.06.03 18:43:04.
