data_PCOD9118433
_publ_section_title
;
Structure prediction by ZEFSAII (Michael W. Deem and Ramdas Pophale) SiO2 
 PCOD9118433
Probable space group: P 21
;
_chemical_formula_sum "Si O2"
_cell_formula_units_Z 16
_cell_length_a 14.470759
_cell_length_b 5.568295
_cell_length_c 22.716549
_cell_angle_alpha 90.000000
_cell_angle_beta 20.491622
_cell_angle_gamma 90.000000
_cell_volume 640.783485
_symmetry_space_group_name_H-M "P 21"
_symmetry_group_IT_number 4
_symmetry_cell_setting 'monoclinic'
loop_
_space_group_symop_operation_xyz
x,y,z
-x,1/2+y,-z
loop_
_atom_site_type_symbol
_atom_site_label
_atom_site_fract_x
_atom_site_fract_y
_atom_site_fract_z
Si Si1 0.382256 0.716130 0.381116
Si Si2 0.463613 0.978778 0.591903
Si Si3 0.337356 0.475828 0.042254
Si Si4 0.231687 0.302275 0.235184
Si Si5 0.960932 0.732030 0.884729
Si Si6 0.935034 0.827165 0.236953
Si Si7 0.137269 0.480058 0.938273
Si Si8 0.166633 0.512489 0.395040
O O1 0.507643 0.566306 0.359060
O O2 0.564887 0.948002 0.262523
O O3 0.363697 0.568103 0.331231
O O4 0.083982 0.780250 0.576545
O O5 0.274838 0.145654 0.665587
O O6 0.748865 0.973220 0.392568
O O7 0.281764 0.742767 0.698530
O O8 0.330174 0.398774 0.113841
O O9 0.175540 0.303989 0.095194
O O10 0.160942 0.713616 0.141195
O O11 0.623998 0.544501 0.846405
O O12 0.292001 0.464104 0.256264
O O13 0.926034 0.448998 0.902333
O O14 0.858305 0.907990 0.995610
O O15 0.017739 0.741187 0.995017
O O16 0.010584 0.259314 0.500951
#
# Coordination Sequence:
#
# PCOD9118433 Si02
#       8
#     2   2   2   2   2   2   2   2
#     4  11  26  47  79 110 152 202 259 321 394 472
#     4  11  22  43  71 111 142 189 246 303 381 470
#     4  11  29  46  74 111 149 205 255 333 393 457
#     4  11  28  50  77 112 149 205 274 324 399 474
#     4  11  25  47  73 105 156 192 250 317 390 471
#     4  11  24  42  72 108 151 193 243 315 395 455
#     4  12  28  48  76 116 159 207 255 319 397 477
#     4  10  26  51  76 111 150 205 264 324 387 466
#
# _framework density 24.969434
#
# number of rings (size 3 to 8) (size 9 to 14) (size 15 to 20)
#    0.000    1.000    2.500    1.500   10.500    8.000 
#    2.250    0.000    0.000    0.000    0.000    0.000 
#    0.000    0.000    0.000    0.000    0.000    0.000 
#
# Total GULP energy -89412.985571 kJ/mol
# GULP energy per Si atom -5588.311598 kJ/mol
# Density = 2.491260 g / cm^3
# Si number density = 24.969434 Si / 1000 Ang^3
#
#
#
# Elastic Constant Matrix: (Units=GPa)
#
#
# Indices 1 2 3 4 5 6 
#
# 1 143.6502 16.0031 7.2898 0.0000 9.5645 0.0000
# 2 16.0031 58.5557 18.4773 0.0000 1.7233 0.0000
# 3 7.2898 18.4773 126.0701 0.0000 -15.5299 0.0000
# 4 0.0000 0.0000 0.0000 35.3565 0.0000 2.5979
# 5 9.5645 1.7233 -15.5299 0.0000 32.4053 0.0000
# 6 0.0000 0.0000 0.0000 2.5979 0.0000 38.6035
#
#
#
# Elastic Compliance Matrix: (Units=1/GPa)
#
#
# Indices 1 2 3 4 5 6 
#
# 1 0.007336 -0.001798 -0.000442 0.000000 -0.002281 0.000000
# 2 -0.001798 0.018517 -0.002833 0.000000 -0.001812 0.000000
# 3 -0.000442 -0.002833 0.008935 0.000000 0.004563 0.000000
# 4 0.000000 0.000000 0.000000 0.028424 0.000000 -0.001913
# 5 -0.002281 -0.001812 0.004563 0.000000 0.033816 0.000000
# 6 0.000000 0.000000 0.000000 -0.001913 0.000000 0.026033
#
#
# Mechanical properties :
#
#
# Convention : Reuss Voigt Hill
#
# Bulk Modulus (GPa) = 40.58220 45.75740 43.16980
# Shear Modulus (GPa) = 35.35569 40.37344 37.86456
#
# Velocity S-wave (km/s) = 3.76700 4.02545 3.89837
# Velocity P-wave (km/s) = 5.93367 6.32225 6.13104
#
# Compressibility (1/GPa) = 0.02464134
#
# Stress axis : x y z
#
# Youngs Moduli (GPa) = 136.31397 54.00576 111.92022
#
# Poissons Ratio (x) = 0.09713 0.04943
# Poissons Ratio (y) = 0.24515 0.31707
# Poissons Ratio (z) = 0.06020 0.15300
#
# Static dielectric constant tensor:
#      x y z
#    x 1.939920 0.000000 0.064830 
#    y 0.000000 2.104770 0.000000 
#    z 0.064830 0.000000 2.101930 
# 
# From -- ./inp_files/16135.got.cif
#   From: 2010.05.17/outbox.cif.g08.bks.cpg/sg4_9_cif.got.tgz:16135.got - 2010.06.03 18:43:04.
