data_PCOD9118842
_publ_section_title
;
Structure prediction by ZEFSAII (Michael W. Deem and Ramdas Pophale) SiO2 
 PCOD9118842
Probable space group: P 21
;
_chemical_formula_sum "Si O2"
_cell_formula_units_Z 12
_cell_length_a 12.497448
_cell_length_b 5.316152
_cell_length_c 21.850116
_cell_angle_alpha 90.000000
_cell_angle_beta 160.542690
_cell_angle_gamma 90.000000
_cell_volume 483.562789
_symmetry_space_group_name_H-M "P 21"
_symmetry_group_IT_number 4
_symmetry_cell_setting 'monoclinic'
loop_
_space_group_symop_operation_xyz
x,y,z
-x,1/2+y,-z
loop_
_atom_site_type_symbol
_atom_site_label
_atom_site_fract_x
_atom_site_fract_y
_atom_site_fract_z
Si Si1 0.041109 0.226500 0.060397
Si Si2 0.296138 0.974025 0.577323
Si Si3 0.707577 0.460394 0.988711
Si Si4 0.721392 0.092138 0.623211
Si Si5 0.843542 0.334679 0.359296
Si Si6 0.830095 0.728843 0.244604
O O1 0.383309 0.332096 0.265653
O O2 0.805318 0.255063 0.990544
O O3 0.953748 0.445381 0.963476
O O4 0.192921 0.866681 0.588005
O O5 0.068546 0.945451 0.396229
O O6 0.220925 0.262163 0.552294
O O7 0.038613 0.589996 0.188722
O O8 0.443295 0.641365 0.814612
O O9 0.527026 0.341644 0.950755
O O10 0.507338 0.838507 0.502981
O O11 0.979654 0.104306 0.707354
O O12 0.803176 0.557337 0.290046
#
# Coordination Sequence:
#
# PCOD9118842 Si02
#       6
#     2   2   2   2   2   2
#     4  12  27  43  71 109 154 196 245 311 382 447
#     4  11  23  42  70 109 148 196 242 310 377 455
#     4  11  28  48  75 113 149 201 264 310 383 456
#     4  12  32  55  80 113 153 202 260 325 387 454
#     4  11  23  43  73 108 149 196 253 309 375 459
#     4  11  27  47  79 104 151 203 256 313 382 455
#
# _framework density 24.815802999999999
#
# number of rings (size 3 to 8) (size 9 to 14) (size 15 to 20)
#    0.000    0.667    3.333    2.000   16.333    0.000 
#    0.000    0.000    0.000    0.000    0.000    0.000 
#    0.000    0.000    0.000    0.000    0.000    0.000 
#
# Total GULP energy -66939.416989 kJ/mol
# GULP energy per Si atom -5578.284749 kJ/mol
# Density = 2.475932 g / cm^3
# Si number density = 24.815803 Si / 1000 Ang^3
#
#
#
# Elastic Constant Matrix: (Units=GPa)
#
#
# Indices 1 2 3 4 5 6 
#
# 1 122.7186 18.0035 14.1416 0.0000 14.3256 0.0000
# 2 18.0035 71.7079 32.8431 0.0000 6.0784 0.0000
# 3 14.1416 32.8431 86.7844 0.0000 -3.5697 0.0000
# 4 0.0000 0.0000 0.0000 34.3466 0.0000 1.7929
# 5 14.3256 6.0784 -3.5697 0.0000 34.5849 0.0000
# 6 0.0000 0.0000 0.0000 1.7929 0.0000 19.5488
#
#
#
# Elastic Compliance Matrix: (Units=1/GPa)
#
#
# Indices 1 2 3 4 5 6 
#
# 1 0.008895 -0.001455 -0.001044 0.000000 -0.003537 0.000000
# 2 -0.001455 0.017576 -0.006545 0.000000 -0.003162 0.000000
# 3 -0.001044 -0.006545 0.014296 0.000000 0.003058 0.000000
# 4 0.000000 0.000000 0.000000 0.029255 0.000000 -0.002683
# 5 -0.003537 -0.003162 0.003058 0.000000 0.031251 0.000000
# 6 0.000000 0.000000 0.000000 -0.002683 0.000000 0.051400
#
#
# Mechanical properties :
#
#
# Convention : Reuss Voigt Hill
#
# Bulk Modulus (GPa) = 44.09353 45.68747 44.89050
# Shear Modulus (GPa) = 28.03931 32.11090 30.07511
#
# Velocity S-wave (km/s) = 3.36504 3.60108 3.48506
# Velocity P-wave (km/s) = 5.73628 5.97838 5.85858
#
# Compressibility (1/GPa) = 0.02267907
#
# Stress axis : x y z
#
# Youngs Moduli (GPa) = 112.41758 56.89464 69.95198
#
# Poissons Ratio (x) = 0.08280 0.07305
# Poissons Ratio (y) = 0.16360 0.45781
# Poissons Ratio (z) = 0.11739 0.37235
#
# Static dielectric constant tensor:
#      x y z
#    x 2.000040 0.000000 0.019560 
#    y 0.000000 2.043930 0.000000 
#    z 0.019560 0.000000 2.035340 
# 
# From -- ./inp_files/8778.got.cif
#   From: 2010.05.17/outbox.cif.g08.bks.cpg/sg4_5_cif.got.tgz:8778.got - 2010.06.03 18:43:04.
