data_PCOD9118440
_publ_section_title
;
Structure prediction by ZEFSAII (Michael W. Deem and Ramdas Pophale) SiO2 
 PCOD9118440
Probable space group: P 21
;
_chemical_formula_sum "Si O2"
_cell_formula_units_Z 16
_cell_length_a 5.234234
_cell_length_b 14.140816
_cell_length_c 8.546404
_cell_angle_alpha 90.000000
_cell_angle_beta 114.717385
_cell_angle_gamma 90.000000
_cell_volume 574.618006
_symmetry_space_group_name_H-M "P 21"
_symmetry_group_IT_number 4
_symmetry_cell_setting 'monoclinic'
loop_
_space_group_symop_operation_xyz
x,y,z
-x,1/2+y,-z
loop_
_atom_site_type_symbol
_atom_site_label
_atom_site_fract_x
_atom_site_fract_y
_atom_site_fract_z
Si Si1 0.814504 0.947680 0.718757
Si Si2 0.502254 0.132114 0.671708
Si Si3 0.411330 0.359303 0.940542
Si Si4 0.559733 0.280516 0.436309
Si Si5 0.660918 0.545735 0.065696
Si Si6 0.054876 0.738798 0.008918
Si Si7 0.991886 0.931596 0.414814
Si Si8 0.819348 0.134515 0.259427
O O1 0.977337 0.928727 0.597706
O O2 0.044935 0.994530 0.892643
O O3 0.802966 0.788493 0.033503
O O4 0.590224 0.030731 0.625624
O O5 0.416850 0.209901 0.524104
O O6 0.309205 0.109549 0.771862
O O7 0.780274 0.176106 0.822066
O O8 0.336721 0.347951 0.292642
O O9 0.710725 0.311936 0.991974
O O10 0.456609 0.456291 0.047721
O O11 0.741747 0.213632 0.368037
O O12 0.760589 0.359298 0.569005
O O13 0.282052 0.389206 0.740884
O O14 0.484694 0.600806 0.889682
O O15 0.009825 0.674256 0.845149
O O16 0.980378 0.042127 0.364795
#
# Coordination Sequence:
#
# PCOD9118440 Si02
#       8
#     2   2   2   2   2   2   2   2
#     4  12  27  49  82 118 167 222 286 356 425 513
#     4  11  25  49  80 116 165 220 279 358 425 505
#     4  11  26  50  83 123 166 223 285 350 431 504
#     4  12  26  52  87 120 164 231 288 350 431 518
#     4  10  27  51  78 119 171 218 280 361 425 512
#     4  11  26  49  83 120 167 223 280 350 426 514
#     4  11  25  52  80 124 167 217 286 359 422 508
#     4  10  26  54  79 124 169 222 278 360 427 514
#
# _framework density 27.844581999999999
#
# number of rings (size 3 to 8) (size 9 to 14) (size 15 to 20)
#    0.000    1.000    2.500    1.500    8.750    1.000 
#    6.750    0.000    0.000    0.000    0.000    0.000 
#    0.000    0.000    0.000    0.000    0.000    0.000 
#
# Total GULP energy -89790.140027 kJ/mol
# GULP energy per Si atom -5611.883752 kJ/mol
# Density = 2.778121 g / cm^3
# Si number density = 27.844582 Si / 1000 Ang^3
#
#
#
# Elastic Constant Matrix: (Units=GPa)
#
#
# Indices 1 2 3 4 5 6 
#
# 1 139.1091 77.3206 15.9522 0.0000 -6.7045 0.0000
# 2 77.3206 223.5538 54.3825 0.0000 -8.2932 0.0000
# 3 15.9522 54.3825 88.1401 0.0000 17.7764 0.0000
# 4 0.0000 0.0000 0.0000 63.2938 0.0000 7.4693
# 5 -6.7045 -8.2932 17.7764 0.0000 34.3055 0.0000
# 6 0.0000 0.0000 0.0000 7.4693 0.0000 56.8846
#
#
#
# Elastic Compliance Matrix: (Units=1/GPa)
#
#
# Indices 1 2 3 4 5 6 
#
# 1 0.008934 -0.003076 0.000088 0.000000 0.000957 0.000000
# 2 -0.003076 0.006679 -0.004209 0.000000 0.003194 0.000000
# 3 0.000088 -0.004209 0.015777 0.000000 -0.009176 0.000000
# 4 0.000000 0.000000 0.000000 0.016048 0.000000 -0.002107
# 5 0.000957 0.003194 -0.009176 0.000000 0.034864 0.000000
# 6 0.000000 0.000000 0.000000 -0.002107 0.000000 0.017856
#
#
# Mechanical properties :
#
#
# Convention : Reuss Voigt Hill
#
# Bulk Modulus (GPa) = 58.83359 82.90151 70.86755
# Shear Modulus (GPa) = 41.59106 51.10665 46.34885
#
# Velocity S-wave (km/s) = 3.86902 4.28883 4.08432
# Velocity P-wave (km/s) = 6.41359 7.37313 6.91004
#
# Compressibility (1/GPa) = 0.01699709
#
# Stress axis : x y z
#
# Youngs Moduli (GPa) = 111.92726 149.71310 63.38323
#
# Poissons Ratio (x) = 0.46052 -0.00557
# Poissons Ratio (y) = 0.34429 0.26677
# Poissons Ratio (z) = -0.00984 0.63011
#
# Static dielectric constant tensor:
#      x y z
#    x 2.154200 0.000000 0.049690 
#    y 0.000000 2.161240 0.000000 
#    z 0.049690 0.000000 2.165120 
# 
# From -- ./inp_files/6629.got.cif
#   From: 2010.05.17/outbox.cif.g08.bks.cpg/sg4_4_cif.got.tgz:6629.got - 2010.06.03 18:43:04.
