data_PCOD9118274
_publ_section_title
;
Structure prediction by ZEFSAII (Michael W. Deem and Ramdas Pophale) SiO2 
 PCOD9118274
Probable space group: P 21
;
_chemical_formula_sum "Si O2"
_cell_formula_units_Z 14
_cell_length_a 10.753774
_cell_length_b 8.752445
_cell_length_c 5.425619
_cell_angle_alpha 90.000000
_cell_angle_beta 87.298387
_cell_angle_gamma 90.000000
_cell_volume 510.101526
_symmetry_space_group_name_H-M "P 21"
_symmetry_group_IT_number 4
_symmetry_cell_setting 'monoclinic'
loop_
_space_group_symop_operation_xyz
x,y,z
-x,1/2+y,-z
loop_
_atom_site_type_symbol
_atom_site_label
_atom_site_fract_x
_atom_site_fract_y
_atom_site_fract_z
Si Si1 0.486808 0.816800 0.534399
Si Si2 0.018055 0.532034 0.248212
Si Si3 0.692883 0.501510 0.741207
Si Si4 0.230504 0.323783 0.461952
Si Si5 0.139082 0.785711 0.504655
Si Si6 0.207187 0.532163 0.858098
Si Si7 0.467076 0.623052 0.033156
O O1 0.626414 0.879840 0.535893
O O2 0.471129 0.732750 0.793361
O O3 0.390623 0.950124 0.484186
O O4 0.476528 0.712282 0.289023
O O5 0.134942 0.426479 0.320418
O O6 0.025507 0.684666 0.410376
O O7 0.901935 0.425497 0.316830
O O8 0.069444 0.572764 0.975920
O O9 0.758893 0.658588 0.661575
O O10 0.791411 0.363134 0.735446
O O11 0.593308 0.525898 0.967740
O O12 0.194986 0.361642 0.748419
O O13 0.220624 0.662303 0.643955
O O14 0.332473 0.543458 0.008182
#
# Coordination Sequence:
#
# PCOD9118274 Si02
#       7
#     2   2   2   2   2   2   2
#     4  11  24  44  71 114 155 197 248 309 381 464
#     4  11  26  48  75 103 150 199 259 323 383 463
#     4  11  23  44  75 109 154 195 252 311 391 457
#     4  10  25  43  69 108 148 195 248 314 381 455
#     4  11  25  49  73 107 146 202 256 325 384 460
#     4  11  24  45  74 106 151 195 257 319 389 460
#     4  11  25  43  73 113 156 199 246 311 387 459
#
# _framework density 27.445518
#
# number of rings (size 3 to 8) (size 9 to 14) (size 15 to 20)
#    0.000    1.143    2.857    1.714    6.000    5.714 
#    5.143    1.429    0.000    0.000    0.000    0.000 
#    0.000    0.000    0.000    0.000    0.000    0.000 
#
# Total GULP energy -78316.995446 kJ/mol
# GULP energy per Si atom -5594.071103 kJ/mol
# Density = 2.738305 g / cm^3
# Si number density = 27.445518 Si / 1000 Ang^3
#
#
#
# Elastic Constant Matrix: (Units=GPa)
#
#
# Indices 1 2 3 4 5 6 
#
# 1 103.7443 34.3170 18.6316 0.0000 -8.2859 0.0000
# 2 34.3170 120.7757 49.8017 0.0000 -4.7160 0.0000
# 3 18.6316 49.8017 138.2400 0.0000 -5.7966 0.0000
# 4 0.0000 0.0000 0.0000 57.5301 0.0000 -7.9855
# 5 -8.2859 -4.7160 -5.7966 0.0000 44.3743 0.0000
# 6 0.0000 0.0000 0.0000 -7.9855 0.0000 67.8563
#
#
#
# Elastic Compliance Matrix: (Units=1/GPa)
#
#
# Indices 1 2 3 4 5 6 
#
# 1 0.010779 -0.002851 -0.000356 0.000000 0.001663 0.000000
# 2 -0.002851 0.010493 -0.003390 0.000000 0.000140 0.000000
# 3 -0.000356 -0.003390 0.008532 0.000000 0.000688 0.000000
# 4 0.000000 0.000000 0.000000 0.017671 0.000000 0.002080
# 5 0.001663 0.000140 0.000688 0.000000 0.022951 0.000000
# 6 0.000000 0.000000 0.000000 0.002080 0.000000 0.014982
#
#
# Mechanical properties :
#
#
# Convention : Reuss Voigt Hill
#
# Bulk Modulus (GPa) = 60.20471 63.14005 61.67238
# Shear Modulus (GPa) = 48.01308 51.28614 49.64961
#
# Velocity S-wave (km/s) = 4.18712 4.32748 4.25788
# Velocity P-wave (km/s) = 6.73496 6.93001 6.83318
#
# Compressibility (1/GPa) = 0.01660999
#
# Stress axis : x y z
#
# Youngs Moduli (GPa) = 92.77384 95.29922 117.20687
#
# Poissons Ratio (x) = 0.27170 0.04172
# Poissons Ratio (y) = 0.26450 0.39735
# Poissons Ratio (z) = 0.03302 0.32308
#
# Static dielectric constant tensor:
#      x y z
#    x 2.184540 0.000000 -0.128730 
#    y 0.000000 2.181440 0.000000 
#    z -0.128730 0.000000 2.338370 
# 
# From -- ./inp_files/2609.got.cif
#   From: 2010.05.17/outbox.cif.g08.bks.cpg/sg4_2_cif.got.tgz:2609.got - 2010.06.03 18:43:04.
