data_PCOD9118697
_publ_section_title
;
Structure prediction by ZEFSAII (Michael W. Deem and Ramdas Pophale) SiO2 
 PCOD9118697
Probable space group: P 21
;
_chemical_formula_sum "Si O2"
_cell_formula_units_Z 12
_cell_length_a 15.307452
_cell_length_b 5.332275
_cell_length_c 9.010568
_cell_angle_alpha 90.000000
_cell_angle_beta 41.022228
_cell_angle_gamma 90.000000
_cell_volume 482.729984
_symmetry_space_group_name_H-M "P 21"
_symmetry_group_IT_number 4
_symmetry_cell_setting 'monoclinic'
loop_
_space_group_symop_operation_xyz
x,y,z
-x,1/2+y,-z
loop_
_atom_site_type_symbol
_atom_site_label
_atom_site_fract_x
_atom_site_fract_y
_atom_site_fract_z
Si Si1 0.197420 0.651280 0.332140
Si Si2 0.894069 0.956570 0.272828
Si Si3 0.154262 0.233197 0.961415
Si Si4 0.457683 0.341497 0.967644
Si Si5 0.042132 0.038017 0.569962
Si Si6 0.546690 0.669598 0.356547
O O1 0.184107 0.658379 0.527813
O O2 0.053175 0.588225 0.447882
O O3 0.182008 0.943331 0.316815
O O4 0.313958 0.476256 0.134191
O O5 0.819800 0.895593 0.218598
O O6 0.906290 0.739161 0.378420
O O7 0.046798 0.028178 0.043473
O O8 0.292863 0.139224 0.845905
O O9 0.067364 0.391061 0.188436
O O10 0.498823 0.247330 0.751139
O O11 0.465910 0.088733 0.060007
O O12 0.489091 0.407775 0.492455
#
# Coordination Sequence:
#
# PCOD9118697 Si02
#       6
#     2   2   2   2   2   2
#     4  11  25  42  73 103 145 187 247 306 380 446
#     4  11  24  41  72 109 139 188 238 314 377 451
#     4  11  25  44  71 103 149 186 243 303 380 448
#     4  12  30  52  78 111 156 209 263 322 379 457
#     4  11  22  43  69 107 138 188 236 307 382 443
#     4  12  30  52  81 111 155 214 263 316 378 463
#
# _framework density 24.858616000000001
#
# number of rings (size 3 to 8) (size 9 to 14) (size 15 to 20)
#    0.000    0.667    5.000    1.000    9.333    1.333 
#    0.000    0.000    0.000    0.000    0.000    0.000 
#    0.000    0.000    0.000    0.000    0.000    0.000 
#
# Total GULP energy -66863.006468 kJ/mol
# GULP energy per Si atom -5571.917206 kJ/mol
# Density = 2.480204 g / cm^3
# Si number density = 24.858616 Si / 1000 Ang^3
#
#
#
# Elastic Constant Matrix: (Units=GPa)
#
#
# Indices 1 2 3 4 5 6 
#
# 1 100.5403 2.3629 17.1028 0.0000 0.5134 0.0000
# 2 2.3629 28.5056 -5.8720 0.0000 -11.7037 0.0000
# 3 17.1028 -5.8720 46.6722 0.0000 9.3399 0.0000
# 4 0.0000 0.0000 0.0000 44.6043 0.0000 -1.3894
# 5 0.5134 -11.7037 9.3399 0.0000 50.8926 0.0000
# 6 0.0000 0.0000 0.0000 -1.3894 0.0000 25.6989
#
#
#
# Elastic Compliance Matrix: (Units=1/GPa)
#
#
# Indices 1 2 3 4 5 6 
#
# 1 0.010694 -0.001631 -0.004181 0.000000 0.000284 0.000000
# 2 -0.001631 0.039456 0.003885 0.000000 0.008377 0.000000
# 3 -0.004181 0.003885 0.024147 0.000000 -0.003496 0.000000
# 4 0.000000 0.000000 0.000000 0.022457 0.000000 0.001214
# 5 0.000284 0.008377 -0.003496 0.000000 0.022214 0.000000
# 6 0.000000 0.000000 0.000000 0.001214 0.000000 0.038978
#
#
# Mechanical properties :
#
#
# Convention : Reuss Voigt Hill
#
# Bulk Modulus (GPa) = 14.19581 22.54505 18.37043
# Shear Modulus (GPa) = 26.98614 35.04746 31.01680
#
# Velocity S-wave (km/s) = 3.29840 3.75890 3.53615
# Velocity P-wave (km/s) = 4.49766 5.28470 4.90698
#
# Compressibility (1/GPa) = 0.07044333
#
# Stress axis : x y z
#
# Youngs Moduli (GPa) = 93.50727 25.34486 41.41385
#
# Poissons Ratio (x) = 0.04134 0.17315
# Poissons Ratio (y) = 0.15251 -0.16091
# Poissons Ratio (z) = 0.39095 -0.09847
#
# Static dielectric constant tensor:
#      x y z
#    x 1.961570 0.000000 -0.002550 
#    y 0.000000 2.564630 0.000000 
#    z -0.002550 0.000000 2.003460 
# 
# From -- ./inp_files/8782.got.cif
#   From: 2010.05.17/outbox.cif.g08.bks.cpg/sg4_5_cif.got.tgz:8782.got - 2010.06.03 18:43:04.
