data_PCOD9118240
_publ_section_title
;
Structure prediction by ZEFSAII (Michael W. Deem and Ramdas Pophale) SiO2 
 PCOD9118240
Probable space group: P 21
;
_chemical_formula_sum "Si O2"
_cell_formula_units_Z 12
_cell_length_a 20.445136
_cell_length_b 5.090534
_cell_length_c 15.616793
_cell_angle_alpha 90.000000
_cell_angle_beta 160.911087
_cell_angle_gamma 90.000000
_cell_volume 531.544328
_symmetry_space_group_name_H-M "P 21"
_symmetry_group_IT_number 4
_symmetry_cell_setting 'monoclinic'
loop_
_space_group_symop_operation_xyz
x,y,z
-x,1/2+y,-z
loop_
_atom_site_type_symbol
_atom_site_label
_atom_site_fract_x
_atom_site_fract_y
_atom_site_fract_z
Si Si1 0.144892 0.233280 0.942714
Si Si2 0.504247 0.757423 0.117656
Si Si3 0.517767 0.538601 0.320525
Si Si4 0.735397 0.257914 0.343145
Si Si5 0.949168 0.337818 0.879480
Si Si6 0.453826 0.885059 0.388996
O O1 0.960100 0.210768 0.650337
O O2 0.071810 0.355834 0.942260
O O3 0.327219 0.384341 0.122496
O O4 0.234575 0.953656 0.083064
O O5 0.465569 0.672495 0.166327
O O6 0.668546 0.550291 0.286333
O O7 0.594118 0.048067 0.217601
O O8 0.316604 0.727109 0.821441
O O9 0.716800 0.363308 0.564018
O O10 0.569911 0.766586 0.452916
O O11 0.003987 0.569535 0.012982
O O12 0.537190 0.156661 0.529597
#
# Coordination Sequence:
#
# PCOD9118240 Si02
#       6
#     2   2   2   2   2   2
#     4  12  29  49  78 112 148 196 248 314 362 447
#     4  10  24  50  79 108 149 194 243 307 376 445
#     4  12  29  49  78 112 148 196 248 314 362 447
#     4  10  24  50  79 108 149 194 243 307 376 445
#     4  12  32  46  76 108 148 200 250 294 368 444
#     4  12  28  46  72 106 154 194 238 304 368 424
#
# _framework density 22.575728000000002
#
# number of rings (size 3 to 8) (size 9 to 14) (size 15 to 20)
#    0.000    0.667    3.333    1.000   16.333    0.000 
#    3.000    0.000    0.000    0.000    0.000    0.000 
#    0.000    0.000    0.000    0.000    0.000    0.000 
#
# Total GULP energy -67201.207986 kJ/mol
# GULP energy per Si atom -5600.100665 kJ/mol
# Density = 2.252435 g / cm^3
# Si number density = 22.575728 Si / 1000 Ang^3
#
#
#
# Elastic Constant Matrix: (Units=GPa)
#
#
# Indices 1 2 3 4 5 6 
#
# 1 112.1931 -5.0964 19.0856 0.0000 -3.5144 0.0000
# 2 -5.0964 79.9660 10.7755 0.0000 1.7706 0.0000
# 3 19.0856 10.7755 134.2801 0.0000 1.8388 0.0000
# 4 0.0000 0.0000 0.0000 30.7779 0.0000 1.8027
# 5 -3.5144 1.7706 1.8388 0.0000 38.9109 0.0000
# 6 0.0000 0.0000 0.0000 1.8027 0.0000 25.7068
#
#
#
# Elastic Compliance Matrix: (Units=1/GPa)
#
#
# Indices 1 2 3 4 5 6 
#
# 1 0.009209 0.000754 -0.001381 0.000000 0.000863 0.000000
# 2 0.000754 0.012715 -0.001121 0.000000 -0.000457 0.000000
# 3 -0.001381 -0.001121 0.007739 0.000000 -0.000439 0.000000
# 4 0.000000 0.000000 0.000000 0.032625 0.000000 -0.002288
# 5 0.000863 -0.000457 -0.000439 0.000000 0.025819 0.000000
# 6 0.000000 0.000000 0.000000 -0.002288 0.000000 0.039061
#
#
# Mechanical properties :
#
#
# Convention : Reuss Voigt Hill
#
# Bulk Modulus (GPa) = 38.21691 41.77431 39.99561
# Shear Modulus (GPa) = 35.87123 39.19074 37.53099
#
# Velocity S-wave (km/s) = 3.99046 4.17102 4.08174
# Velocity P-wave (km/s) = 6.18035 6.46071 6.32208
#
# Compressibility (1/GPa) = 0.02616643
#
# Stress axis : x y z
#
# Youngs Moduli (GPa) = 108.58405 78.64984 129.20840
#
# Poissons Ratio (x) = -0.05930 0.17847
# Poissons Ratio (y) = -0.08187 0.14487
# Poissons Ratio (z) = 0.14999 0.08818
#
# Static dielectric constant tensor:
#      x y z
#    x 1.834190 0.000000 0.009520 
#    y 0.000000 1.847050 0.000000 
#    z 0.009520 0.000000 1.851910 
# 
# From -- ./inp_files/14402.got.cif
#   From: 2010.05.17/outbox.cif.g08.bks.cpg/sg4_8_cif.got.tgz:14402.got - 2010.06.03 18:43:04.
