data_PCOD9118657
_publ_section_title
;
Structure prediction by ZEFSAII (Michael W. Deem and Ramdas Pophale) SiO2 
 PCOD9118657
Probable space group: P 21
;
_chemical_formula_sum "Si O2"
_cell_formula_units_Z 16
_cell_length_a 8.555076
_cell_length_b 10.524791
_cell_length_c 9.512462
_cell_angle_alpha 90.000000
_cell_angle_beta 135.341430
_cell_angle_gamma 90.000000
_cell_volume 602.021236
_symmetry_space_group_name_H-M "P 21"
_symmetry_group_IT_number 4
_symmetry_cell_setting 'monoclinic'
loop_
_space_group_symop_operation_xyz
x,y,z
-x,1/2+y,-z
loop_
_atom_site_type_symbol
_atom_site_label
_atom_site_fract_x
_atom_site_fract_y
_atom_site_fract_z
Si Si1 0.500922 0.023040 0.536500
Si Si2 0.629012 0.503950 0.968789
Si Si3 0.781046 0.744043 0.396536
Si Si4 0.870073 0.768258 0.119843
Si Si5 0.573992 0.393926 0.235860
Si Si6 0.184246 0.619499 0.596567
Si Si7 0.359127 0.784879 0.289619
Si Si8 0.065298 0.442956 0.272185
O O1 0.514417 0.175117 0.530535
O O2 0.750609 0.973023 0.723331
O O3 0.376381 0.969410 0.591309
O O4 0.420017 0.933067 0.358093
O O5 0.748778 0.635123 0.006224
O O6 0.641355 0.475549 0.143209
O O7 0.829255 0.409086 0.051911
O O8 0.373680 0.522342 0.768588
O O9 0.848492 0.779647 0.278461
O O10 0.511402 0.744037 0.247455
O O11 0.956283 0.629389 0.535517
O O12 0.864835 0.837311 0.572422
O O13 0.104044 0.774765 0.184160
O O14 0.687156 0.868925 0.951916
O O15 0.700755 0.258403 0.322487
O O16 0.104311 0.568855 0.394310
#
# Coordination Sequence:
#
# PCOD9118657 Si02
#       8
#     2   2   2   2   2   2   2   2
#     4  11  23  44  65 102 144 184 238 297 353 422
#     4  11  22  40  70  97 133 181 233 285 357 421
#     4  11  22  41  71  99 134 188 239 285 349 430
#     4  11  23  46  68 101 144 187 232 299 365 418
#     4  11  24  42  69 102 140 183 236 299 353 432
#     4  11  23  41  71  98 133 185 234 289 362 417
#     4  11  25  42  72 106 139 193 242 292 358 429
#     4  11  22  42  66  97 137 183 232 290 351 417
#
# _framework density 26.577135999999999
#
# number of rings (size 3 to 8) (size 9 to 14) (size 15 to 20)
#    0.000    1.000    3.750    3.000    0.000    1.000 
#    6.750    3.750    2.750    0.000    0.000    0.000 
#    0.000    0.000    0.000    0.000    0.000    0.000 
#
# Total GULP energy -89091.750983 kJ/mol
# GULP energy per Si atom -5568.234436 kJ/mol
# Density = 2.651665 g / cm^3
# Si number density = 26.577136 Si / 1000 Ang^3
#
#
#
# Elastic Constant Matrix: (Units=GPa)
#
#
# Indices 1 2 3 4 5 6 
#
# 1 198.9784 54.9912 56.5657 0.0000 40.6514 0.0000
# 2 54.9912 82.5231 16.4045 0.0000 23.0700 0.0000
# 3 56.5657 16.4045 137.6981 0.0000 44.9908 0.0000
# 4 0.0000 0.0000 0.0000 36.2220 0.0000 17.2644
# 5 40.6514 23.0700 44.9908 0.0000 45.3081 0.0000
# 6 0.0000 0.0000 0.0000 17.2644 0.0000 45.8799
#
#
#
# Elastic Compliance Matrix: (Units=1/GPa)
#
#
# Indices 1 2 3 4 5 6 
#
# 1 0.007050 -0.003552 -0.001476 0.000000 -0.003051 0.000000
# 2 -0.003552 0.016010 0.001738 0.000000 -0.006691 0.000000
# 3 -0.001476 0.001738 0.011129 0.000000 -0.010611 0.000000
# 4 0.000000 0.000000 0.000000 0.033641 0.000000 -0.012659
# 5 -0.003051 -0.006691 -0.010611 0.000000 0.038753 0.000000
# 6 0.000000 0.000000 0.000000 -0.012659 0.000000 0.026560
#
#
# Mechanical properties :
#
#
# Convention : Reuss Voigt Hill
#
# Bulk Modulus (GPa) = 36.22033 75.01361 55.61697
# Shear Modulus (GPa) = 33.57405 44.89789 39.23597
#
# Velocity S-wave (km/s) = 3.55810 4.11462 3.84644
# Velocity P-wave (km/s) = 5.52613 7.13159 6.37957
#
# Compressibility (1/GPa) = 0.02760880
#
# Stress axis : x y z
#
# Youngs Moduli (GPa) = 141.83882 62.46278 89.85809
#
# Poissons Ratio (x) = 0.22184 0.13264
# Poissons Ratio (y) = 0.50376 -0.15616
# Poissons Ratio (z) = 0.20936 -0.10855
#
# Static dielectric constant tensor:
#      x y z
#    x 2.192920 0.000000 0.048720 
#    y 0.000000 2.267700 0.000000 
#    z 0.048720 0.000000 2.154970 
# 
# From -- ./inp_files/11198.got.cif
#   From: 2010.05.17/outbox.cif.g08.bks.cpg/sg4_6_cif.got.tgz:11198.got - 2010.06.03 18:43:04.
