data_PCOD9118322
_publ_section_title
;
Structure prediction by ZEFSAII (Michael W. Deem and Ramdas Pophale) SiO2 
 PCOD9118322
Probable space group: P 21
;
_chemical_formula_sum "Si O2"
_cell_formula_units_Z 14
_cell_length_a 11.608594
_cell_length_b 4.951937
_cell_length_c 11.372355
_cell_angle_alpha 90.000000
_cell_angle_beta 52.639249
_cell_angle_gamma 90.000000
_cell_volume 519.612591
_symmetry_space_group_name_H-M "P 21"
_symmetry_group_IT_number 4
_symmetry_cell_setting 'monoclinic'
loop_
_space_group_symop_operation_xyz
x,y,z
-x,1/2+y,-z
loop_
_atom_site_type_symbol
_atom_site_label
_atom_site_fract_x
_atom_site_fract_y
_atom_site_fract_z
Si Si1 0.070714 0.847920 0.895877
Si Si2 0.611039 0.814126 0.654636
Si Si3 0.156408 0.474211 0.650117
Si Si4 0.394987 0.195170 0.929185
Si Si5 0.309155 0.925954 0.193094
Si Si6 0.033418 0.622098 0.401464
Si Si7 0.342918 0.558699 0.746577
O O1 0.065554 0.714031 0.768298
O O2 0.241659 0.823349 0.816121
O O3 0.995842 0.634026 0.031719
O O4 0.721241 0.021071 0.525432
O O5 0.490379 0.971668 0.803055
O O6 0.696581 0.611853 0.687491
O O7 0.511127 0.636111 0.628249
O O8 0.264142 0.396543 0.691022
O O9 0.057746 0.248181 0.650238
O O10 0.521888 0.351654 0.919878
O O11 0.329971 0.396907 0.874925
O O12 0.279426 0.081472 0.091118
O O13 0.201472 0.676093 0.268726
O O14 0.001020 0.822958 0.532998
#
# Coordination Sequence:
#
# PCOD9118322 Si02
#       7
#     2   2   2   2   2   2   2
#     4  10  25  48  69 106 149 192 240 287 364 438
#     4  11  22  47  67 105 145 180 250 291 371 430
#     4  10  25  46  71 108 141 194 233 310 358 438
#     4  11  23  43  71 103 143 184 248 301 363 430
#     4  11  24  43  72 103 140 193 242 300 364 429
#     4  12  27  49  73 106 147 195 244 298 362 439
#     4   9  26  40  71 107 135 194 229 305 364 424
#
# _framework density 26.943152000000001
#
# number of rings (size 3 to 8) (size 9 to 14) (size 15 to 20)
#    0.857    0.571    2.857    0.857    6.000    1.143 
#    7.714    0.000    0.000    0.000    0.000    0.000 
#    0.000    0.000    0.000    0.000    0.000    0.000 
#
# Total GULP energy -78352.697863 kJ/mol
# GULP energy per Si atom -5596.621276 kJ/mol
# Density = 2.688183 g / cm^3
# Si number density = 26.943152 Si / 1000 Ang^3
#
#
#
# Elastic Constant Matrix: (Units=GPa)
#
#
# Indices 1 2 3 4 5 6 
#
# 1 126.4793 12.3308 22.2269 0.0000 2.9646 0.0000
# 2 12.3308 84.1243 17.4525 0.0000 4.2006 0.0000
# 3 22.2269 17.4525 108.0189 0.0000 5.8728 0.0000
# 4 0.0000 0.0000 0.0000 48.6571 0.0000 -3.6740
# 5 2.9646 4.2006 5.8728 0.0000 28.7103 0.0000
# 6 0.0000 0.0000 0.0000 -3.6740 0.0000 28.1636
#
#
#
# Elastic Compliance Matrix: (Units=1/GPa)
#
#
# Indices 1 2 3 4 5 6 
#
# 1 0.008272 -0.000873 -0.001539 0.000000 -0.000412 0.000000
# 2 -0.000873 0.012448 -0.001757 0.000000 -0.001372 0.000000
# 3 -0.001539 -0.001757 0.009946 0.000000 -0.001619 0.000000
# 4 0.000000 0.000000 0.000000 0.020756 0.000000 0.002708
# 5 -0.000412 -0.001372 -0.001619 0.000000 0.035405 0.000000
# 6 0.000000 0.000000 0.000000 0.002708 0.000000 0.035860
#
#
# Mechanical properties :
#
#
# Convention : Reuss Voigt Hill
#
# Bulk Modulus (GPa) = 44.78480 46.96033 45.87257
# Shear Modulus (GPa) = 36.10966 38.88035 37.49501
#
# Velocity S-wave (km/s) = 3.66487 3.80287 3.73451
# Velocity P-wave (km/s) = 5.87932 6.06215 5.97144
#
# Compressibility (1/GPa) = 0.02232900
#
# Stress axis : x y z
#
# Youngs Moduli (GPa) = 120.89631 80.33353 100.54159
#
# Poissons Ratio (x) = 0.07010 0.15470
# Poissons Ratio (y) = 0.10550 0.17666
# Poissons Ratio (z) = 0.18602 0.14115
#
# Static dielectric constant tensor:
#      x y z
#    x 2.142000 0.000000 0.046340 
#    y 0.000000 2.147990 0.000000 
#    z 0.046340 0.000000 2.090460 
# 
# From -- ./inp_files/11464.got.cif
#   From: 2010.05.17/outbox.cif.g08.bks.cpg/sg4_6_cif.got.tgz:11464.got - 2010.06.03 18:43:04.
