data_PCOD9118953
_publ_section_title
;
Structure prediction by ZEFSAII (Michael W. Deem and Ramdas Pophale) SiO2 
 PCOD9118953
Probable space group: P 21
;
_chemical_formula_sum "Si O2"
_cell_formula_units_Z 14
_cell_length_a 11.995877
_cell_length_b 8.639145
_cell_length_c 11.337714
_cell_angle_alpha 90.000000
_cell_angle_beta 23.235867
_cell_angle_gamma 90.000000
_cell_volume 463.547471
_symmetry_space_group_name_H-M "P 21"
_symmetry_group_IT_number 4
_symmetry_cell_setting 'monoclinic'
loop_
_space_group_symop_operation_xyz
x,y,z
-x,1/2+y,-z
loop_
_atom_site_type_symbol
_atom_site_label
_atom_site_fract_x
_atom_site_fract_y
_atom_site_fract_z
Si Si1 0.619567 0.224590 0.114561
Si Si2 0.947242 0.417325 0.634772
Si Si3 0.257631 0.136002 0.799571
Si Si4 0.231660 0.498208 0.571672
Si Si5 0.881701 0.829817 0.735950
Si Si6 0.056390 0.454411 0.080566
Si Si7 0.384550 0.626105 0.149058
O O1 0.425074 0.344124 0.374809
O O2 0.908992 0.310120 0.790241
O O3 0.849905 0.980342 0.680414
O O4 0.503552 0.677113 0.893306
O O5 0.646449 0.497295 0.918195
O O6 0.909157 0.263987 0.571031
O O7 0.173958 0.541887 0.488454
O O8 0.567593 0.114079 0.548514
O O9 0.183925 0.051256 0.749879
O O10 0.172539 0.316338 0.885801
O O11 0.712469 0.078358 0.100595
O O12 0.940515 0.539734 0.918202
O O13 0.022351 0.871517 0.720170
O O14 0.581417 0.754715 0.039182
#
# Coordination Sequence:
#
# PCOD9118953 Si02
#       7
#     2   2   2   2   2   2   2
#     4  11  25  49  82 119 169 208 270 337 421 492
#     4  11  23  45  79 118 159 203 260 327 421 488
#     4  12  30  51  86 109 165 217 290 340 406 485
#     4  12  25  53  79 120 156 217 270 347 408 493
#     4  11  25  44  75 116 160 200 260 326 407 488
#     4  12  28  58  78 125 159 229 278 353 408 498
#     4  11  24  44  73 121 158 208 248 328 407 512
#
# _framework density 30.201868999999999
#
# number of rings (size 3 to 8) (size 9 to 14) (size 15 to 20)
#    0.000    0.571    4.286    2.571    2.000    3.429 
#    5.143    0.000    0.000    0.000    0.000    0.000 
#    0.000    0.000    0.000    0.000    0.000    0.000 
#
# Total GULP energy -78377.531930 kJ/mol
# GULP energy per Si atom -5598.395138 kJ/mol
# Density = 3.013313 g / cm^3
# Si number density = 30.201869 Si / 1000 Ang^3
#
#
#
# Elastic Constant Matrix: (Units=GPa)
#
#
# Indices 1 2 3 4 5 6 
#
# 1 198.3275 63.9575 49.9895 0.0000 -20.3533 0.0000
# 2 63.9575 226.5940 45.8278 0.0000 -5.4812 0.0000
# 3 49.9895 45.8278 187.3454 0.0000 -18.3717 0.0000
# 4 0.0000 0.0000 0.0000 42.3163 0.0000 -3.4896
# 5 -20.3533 -5.4812 -18.3717 0.0000 49.7307 0.0000
# 6 0.0000 0.0000 0.0000 -3.4896 0.0000 73.7103
#
#
#
# Elastic Compliance Matrix: (Units=1/GPa)
#
#
# Indices 1 2 3 4 5 6 
#
# 1 0.005962 -0.001423 -0.001057 0.000000 0.001893 0.000000
# 2 -0.001423 0.004983 -0.000874 0.000000 -0.000356 0.000000
# 3 -0.001057 -0.000874 0.005999 0.000000 0.001687 0.000000
# 4 0.000000 0.000000 0.000000 0.023724 0.000000 0.001123
# 5 0.001893 -0.000356 0.001687 0.000000 0.021467 0.000000
# 6 0.000000 0.000000 0.000000 0.001123 0.000000 0.013620
#
#
# Mechanical properties :
#
#
# Convention : Reuss Voigt Hill
#
# Bulk Modulus (GPa) = 97.70209 103.53518 100.61863
# Shear Modulus (GPa) = 58.22397 63.31759 60.77078
#
# Velocity S-wave (km/s) = 4.39547 4.58370 4.49057
# Velocity P-wave (km/s) = 7.62759 7.89742 7.76367
#
# Compressibility (1/GPa) = 0.01023520
#
# Stress axis : x y z
#
# Youngs Moduli (GPa) = 167.73503 200.68021 166.69255
#
# Poissons Ratio (x) = 0.28560 0.17620
# Poissons Ratio (y) = 0.23872 0.14571
# Poissons Ratio (z) = 0.17731 0.17542
#
# Static dielectric constant tensor:
#      x y z
#    x 2.357200 0.000000 0.041810 
#    y 0.000000 2.833170 0.000000 
#    z 0.041810 0.000000 2.311900 
# 
# From -- ./inp_files/11943.got.cif
#   From: 2010.05.17/outbox.cif.g08.bks.cpg/sg4_6_cif.got.tgz:11943.got - 2010.06.03 18:43:04.
