data_PCOD9118681
_publ_section_title
;
Structure prediction by ZEFSAII (Michael W. Deem and Ramdas Pophale) SiO2 
 PCOD9118681
Probable space group: P 21
;
_chemical_formula_sum "Si O2"
_cell_formula_units_Z 16
_cell_length_a 10.178714
_cell_length_b 8.496655
_cell_length_c 13.310221
_cell_angle_alpha 90.000000
_cell_angle_beta 146.876168
_cell_angle_gamma 90.000000
_cell_volume 629.037996
_symmetry_space_group_name_H-M "P 21"
_symmetry_group_IT_number 4
_symmetry_cell_setting 'monoclinic'
loop_
_space_group_symop_operation_xyz
x,y,z
-x,1/2+y,-z
loop_
_atom_site_type_symbol
_atom_site_label
_atom_site_fract_x
_atom_site_fract_y
_atom_site_fract_z
Si Si1 0.395829 0.587100 0.867232
Si Si2 0.286222 0.394215 0.351445
Si Si3 0.084275 0.736124 0.419651
Si Si4 0.232865 0.908486 0.020571
Si Si5 0.739954 0.878295 0.045494
Si Si6 0.879310 0.556527 0.450264
Si Si7 0.354836 0.583315 0.194575
Si Si8 0.412146 0.086561 0.315506
O O1 0.529361 0.445343 0.892244
O O2 0.359250 0.528664 0.956851
O O3 0.126631 0.615242 0.657477
O O4 0.555562 0.737720 0.947207
O O5 0.332955 0.522487 0.293536
O O6 0.309883 0.218368 0.324024
O O7 0.485331 0.432785 0.562044
O O8 0.006751 0.420157 0.199923
O O9 0.343509 0.662607 0.570983
O O10 0.983681 0.817676 0.254245
O O11 0.900695 0.609833 0.348802
O O12 0.104188 0.873211 0.514489
O O13 0.233243 0.742437 0.078116
O O14 0.239906 0.037834 0.114379
O O15 0.747511 0.937215 0.937208
O O16 0.635403 0.608871 0.346722
#
# Coordination Sequence:
#
# PCOD9118681 Si02
#       8
#     2   2   2   2   2   2   2   2
#     4  11  22  43  67 107 145 188 236 304 369 449
#     4  12  28  49  76 105 146 201 247 311 361 435
#     4  11  23  43  72 107 148 193 235 307 367 446
#     4  12  26  48  74 104 145 196 247 305 370 437
#     4  11  24  41  69 106 147 186 243 296 376 442
#     4  11  22  42  72 102 148 186 236 299 381 436
#     4  12  25  47  70 105 145 190 245 307 368 438
#     4  12  26  51  72 110 148 194 257 301 368 439
#
# _framework density 25.435665
#
# number of rings (size 3 to 8) (size 9 to 14) (size 15 to 20)
#    0.000    0.500    2.500    6.750    0.000    3.000 
#    9.000    0.000    0.000    0.000    0.000    0.000 
#    0.000    0.000    0.000    0.000    0.000    0.000 
#
# Total GULP energy -89677.611323 kJ/mol
# GULP energy per Si atom -5604.850708 kJ/mol
# Density = 2.537777 g / cm^3
# Si number density = 25.435665 Si / 1000 Ang^3
#
#
#
# Elastic Constant Matrix: (Units=GPa)
#
#
# Indices 1 2 3 4 5 6 
#
# 1 38.4655 -3.1515 15.0005 0.0000 5.4513 0.0000
# 2 -3.1515 77.0735 5.2516 0.0000 5.4254 0.0000
# 3 15.0005 5.2516 63.0076 0.0000 23.2340 0.0000
# 4 0.0000 0.0000 0.0000 31.5451 0.0000 -8.4695
# 5 5.4513 5.4254 23.2340 0.0000 35.7038 0.0000
# 6 0.0000 0.0000 0.0000 -8.4695 0.0000 43.5410
#
#
#
# Elastic Compliance Matrix: (Units=1/GPa)
#
#
# Indices 1 2 3 4 5 6 
#
# 1 0.028868 0.001664 -0.006964 0.000000 -0.000129 0.000000
# 2 0.001664 0.013221 -0.000873 0.000000 -0.001695 0.000000
# 3 -0.006964 -0.000873 0.022579 0.000000 -0.013497 0.000000
# 4 0.000000 0.000000 0.000000 0.033448 0.000000 0.006506
# 5 -0.000129 -0.001695 -0.013497 0.000000 0.037069 0.000000
# 6 0.000000 0.000000 0.000000 0.006506 0.000000 0.024232
#
#
# Mechanical properties :
#
#
# Convention : Reuss Voigt Hill
#
# Bulk Modulus (GPa) = 19.11252 23.63866 21.37559
# Shear Modulus (GPa) = 26.42662 32.92104 29.67383
#
# Velocity S-wave (km/s) = 3.22679 3.60152 3.41929
# Velocity P-wave (km/s) = 4.62744 5.15832 4.90008
#
# Compressibility (1/GPa) = 0.05232174
#
# Stress axis : x y z
#
# Youngs Moduli (GPa) = 34.64088 75.63454 44.28931
#
# Poissons Ratio (x) = -0.12585 0.30843
# Poissons Ratio (y) = -0.05764 0.03867
# Poissons Ratio (z) = 0.24124 0.06604
#
# Static dielectric constant tensor:
#      x y z
#    x 1.995470 0.000000 -0.018110 
#    y 0.000000 2.028110 0.000000 
#    z -0.018110 0.000000 2.033490 
# 
# From -- ./inp_files/13971.got.cif
#   From: 2010.05.17/outbox.cif.g08.bks.cpg/sg4_7_cif.got.tgz:13971.got - 2010.06.03 18:43:04.
