data_PCOD9118701
_publ_section_title
;
Structure prediction by ZEFSAII (Michael W. Deem and Ramdas Pophale) SiO2 
 PCOD9118701
Probable space group: P 21
;
_chemical_formula_sum "Si O2"
_cell_formula_units_Z 14
_cell_length_a 9.037976
_cell_length_b 5.120797
_cell_length_c 20.505239
_cell_angle_alpha 90.000000
_cell_angle_beta 141.917090
_cell_angle_gamma 90.000000
_cell_volume 585.354195
_symmetry_space_group_name_H-M "P 21"
_symmetry_group_IT_number 4
_symmetry_cell_setting 'monoclinic'
loop_
_space_group_symop_operation_xyz
x,y,z
-x,1/2+y,-z
loop_
_atom_site_type_symbol
_atom_site_label
_atom_site_fract_x
_atom_site_fract_y
_atom_site_fract_z
Si Si1 0.637430 0.387100 0.746724
Si Si2 0.116402 0.522475 0.570115
Si Si3 0.415766 0.540093 0.397297
Si Si4 0.356109 0.997664 0.971804
Si Si5 0.907693 0.412712 0.631374
Si Si6 0.955978 0.682953 0.770818
Si Si7 0.160724 0.905841 0.048225
O O1 0.399902 0.564101 0.661620
O O2 0.889790 0.507392 0.809420
O O3 0.675927 0.310016 0.834764
O O4 0.585678 0.170627 0.674161
O O5 0.986094 0.800044 0.514270
O O6 0.070682 0.391269 0.624728
O O7 0.674013 0.554561 0.518916
O O8 0.219761 0.669176 0.377431
O O9 0.310253 0.255763 0.347117
O O10 0.114080 0.922724 0.848763
O O11 0.547395 0.783172 0.012297
O O12 0.296952 0.950483 0.027225
O O13 0.056541 0.547507 0.741274
O O14 0.957339 0.683023 0.972908
#
# Coordination Sequence:
#
# PCOD9118701 Si02
#       7
#     2   2   2   2   2   2   2
#     4  11  26  45  73 104 140 196 243 301 360 437
#     4  12  28  45  66 104 152 186 238 298 354 425
#     4  11  22  43  71 102 143 187 242 285 361 440
#     4  12  29  51  74 112 152 189 248 319 375 438
#     4  11  24  40  68 104 140 191 229 293 353 436
#     4  11  25  46  74 100 142 190 244 291 371 440
#     4  12  26  50  80 108 145 197 256 311 372 444
#
# _framework density 23.917142999999999
#
# number of rings (size 3 to 8) (size 9 to 14) (size 15 to 20)
#    0.000    0.571    4.286    2.571   10.000    0.000 
#    0.000    0.000    0.000    0.000    0.000    0.000 
#    0.000    0.000    0.000    0.000    0.000    0.000 
#
# Total GULP energy -78228.467164 kJ/mol
# GULP energy per Si atom -5587.747655 kJ/mol
# Density = 2.386271 g / cm^3
# Si number density = 23.917143 Si / 1000 Ang^3
#
#
#
# Elastic Constant Matrix: (Units=GPa)
#
#
# Indices 1 2 3 4 5 6 
#
# 1 140.5084 6.4389 32.4546 0.0000 -27.0585 0.0000
# 2 6.4389 41.4851 -7.4087 0.0000 -2.1540 0.0000
# 3 32.4546 -7.4087 98.0896 0.0000 -16.4819 0.0000
# 4 0.0000 0.0000 0.0000 33.1106 0.0000 5.5703
# 5 -27.0585 -2.1540 -16.4819 0.0000 47.3708 0.0000
# 6 0.0000 0.0000 0.0000 5.5703 0.0000 24.5850
#
#
#
# Elastic Compliance Matrix: (Units=1/GPa)
#
#
# Indices 1 2 3 4 5 6 
#
# 1 0.008474 -0.001509 -0.002247 0.000000 0.003990 0.000000
# 2 -0.001509 0.024859 0.002572 0.000000 0.001163 0.000000
# 3 -0.002247 0.002572 0.011616 0.000000 0.002875 0.000000
# 4 0.000000 0.000000 0.000000 0.031399 0.000000 -0.007114
# 5 0.003990 0.001163 0.002875 0.000000 0.024442 0.000000
# 6 0.000000 0.000000 0.000000 -0.007114 0.000000 0.042287
#
#
# Mechanical properties :
#
#
# Convention : Reuss Voigt Hill
#
# Bulk Modulus (GPa) = 23.48519 38.11697 30.80108
# Shear Modulus (GPa) = 31.32089 37.58648 34.45369
#
# Velocity S-wave (km/s) = 3.62271 3.96855 3.79957
# Velocity P-wave (km/s) = 5.22871 6.08037 5.67055
#
# Compressibility (1/GPa) = 0.04258003
#
# Stress axis : x y z
#
# Youngs Moduli (GPa) = 118.01428 40.22669 86.09072
#
# Poissons Ratio (x) = 0.06072 0.19347
# Poissons Ratio (y) = 0.17813 -0.22147
# Poissons Ratio (z) = 0.26521 -0.10348
#
# Static dielectric constant tensor:
#      x y z
#    x 1.962720 0.000000 0.016430 
#    y 0.000000 1.945940 0.000000 
#    z 0.016430 0.000000 1.942190 
# 
# From -- ./inp_files/7078.got.cif
#   From: 2010.05.17/outbox.cif.g08.bks.cpg/sg4_4_cif.got.tgz:7078.got - 2010.06.03 18:43:04.
