data_PCOD9118941
_publ_section_title
;
Structure prediction by ZEFSAII (Michael W. Deem and Ramdas Pophale) SiO2 
 PCOD9118941
Probable space group: P 21
;
_chemical_formula_sum "Si O2"
_cell_formula_units_Z 16
_cell_length_a 6.759969
_cell_length_b 19.876711
_cell_length_c 5.227023
_cell_angle_alpha 90.000000
_cell_angle_beta 75.336611
_cell_angle_gamma 90.000000
_cell_volume 679.458687
_symmetry_space_group_name_H-M "P 21"
_symmetry_group_IT_number 4
_symmetry_cell_setting 'monoclinic'
loop_
_space_group_symop_operation_xyz
x,y,z
-x,1/2+y,-z
loop_
_atom_site_type_symbol
_atom_site_label
_atom_site_fract_x
_atom_site_fract_y
_atom_site_fract_z
Si Si1 0.294499 0.172000 0.075026
Si Si2 0.117174 0.643364 0.490318
Si Si3 0.548449 0.063665 0.300534
Si Si4 0.768330 0.287449 0.624719
Si Si5 0.918278 0.972415 0.110825
Si Si6 0.483428 0.806910 0.815347
Si Si7 0.817720 0.570998 0.248444
Si Si8 0.882507 0.887596 0.627430
O O1 0.437367 0.112666 0.138373
O O2 0.394198 0.242434 0.110840
O O3 0.068779 0.168066 0.269997
O O4 0.261381 0.146302 0.797086
O O5 0.298919 0.610655 0.588035
O O6 0.195483 0.709259 0.318716
O O7 0.018129 0.586161 0.347949
O O8 0.366060 0.036583 0.539976
O O9 0.696604 0.006996 0.141908
O O10 0.627622 0.290378 0.416158
O O11 0.978619 0.323571 0.484765
O O12 0.671244 0.323261 0.903359
O O13 0.918195 0.940723 0.390162
O O14 0.945607 0.917883 0.879214
O O15 0.097811 0.027183 0.012881
O O16 0.648011 0.864806 0.713947
#
# Coordination Sequence:
#
# PCOD9118941 Si02
#       8
#     2   2   2   2   2   2   2   2
#     4  11  24  43  75 111 147 182 246 305 380 439
#     4  11  23  45  73 112 151 185 236 310 384 435
#     4  11  25  46  72 109 147 191 235 312 372 434
#     4  12  27  47  78 106 148 191 245 306 375 439
#     4  12  28  50  75 102 152 200 250 296 365 441
#     4  12  27  48  76 113 142 193 247 308 374 440
#     4  11  27  43  74 112 148 192 245 302 372 451
#     4  12  29  52  71 105 149 200 250 305 354 443
#
# _framework density 23.548158999999998
#
# number of rings (size 3 to 8) (size 9 to 14) (size 15 to 20)
#    0.000    0.500    3.750    3.000   10.500    4.000 
#    0.000    0.000    0.000    0.000    0.000    0.000 
#    0.000    0.000    0.000    0.000    0.000    0.000 
#
# Total GULP energy -89620.847741 kJ/mol
# GULP energy per Si atom -5601.302984 kJ/mol
# Density = 2.349456 g / cm^3
# Si number density = 23.548159 Si / 1000 Ang^3
#
#
#
# Elastic Constant Matrix: (Units=GPa)
#
#
# Indices 1 2 3 4 5 6 
#
# 1 100.1516 15.9799 25.6117 0.0000 -2.1303 0.0000
# 2 15.9799 60.5698 20.9715 0.0000 -11.6210 0.0000
# 3 25.6117 20.9715 101.0759 0.0000 -16.8902 0.0000
# 4 0.0000 0.0000 0.0000 38.9710 0.0000 -8.3726
# 5 -2.1303 -11.6210 -16.8902 0.0000 31.9072 0.0000
# 6 0.0000 0.0000 0.0000 -8.3726 0.0000 31.4785
#
#
#
# Elastic Compliance Matrix: (Units=1/GPa)
#
#
# Indices 1 2 3 4 5 6 
#
# 1 0.010971 -0.002291 -0.002547 0.000000 -0.001450 0.000000
# 2 -0.002291 0.019013 -0.002449 0.000000 0.005475 0.000000
# 3 -0.002547 -0.002449 0.011924 0.000000 0.005250 0.000000
# 4 0.000000 0.000000 0.000000 0.027215 0.000000 0.007239
# 5 -0.001450 0.005475 0.005250 0.000000 0.036017 0.000000
# 6 0.000000 0.000000 0.000000 0.007239 0.000000 0.033693
#
#
# Mechanical properties :
#
#
# Convention : Reuss Voigt Hill
#
# Bulk Modulus (GPa) = 36.58472 42.99148 39.78810
# Shear Modulus (GPa) = 30.76559 33.75364 32.25961
#
# Velocity S-wave (km/s) = 3.61847 3.79012 3.70529
# Velocity P-wave (km/s) = 5.74697 6.11962 5.93622
#
# Compressibility (1/GPa) = 0.02733381
#
# Stress axis : x y z
#
# Youngs Moduli (GPa) = 91.15062 52.59620 83.86128
#
# Poissons Ratio (x) = 0.12049 0.21359
# Poissons Ratio (y) = 0.20880 0.20541
# Poissons Ratio (z) = 0.23215 0.12883
#
# Static dielectric constant tensor:
#      x y z
#    x 1.844900 0.000000 -0.012340 
#    y 0.000000 1.894690 0.000000 
#    z -0.012340 0.000000 1.922380 
# 
# From -- ./inp_files/606.got.cif
#   From: 2010.05.17/outbox.cif.g08.bks.cpg/sg4_1_cif.got.tgz:606.got - 2010.06.03 18:43:04.
