data_PCOD9118788
_publ_section_title
;
Structure prediction by ZEFSAII (Michael W. Deem and Ramdas Pophale) SiO2 
 PCOD9118788
Probable space group: P 21
;
_chemical_formula_sum "Si O2"
_cell_formula_units_Z 16
_cell_length_a 25.144462
_cell_length_b 4.726847
_cell_length_c 8.925993
_cell_angle_alpha 90.000000
_cell_angle_beta 32.897391
_cell_angle_gamma 90.000000
_cell_volume 576.207886
_symmetry_space_group_name_H-M "P 21"
_symmetry_group_IT_number 4
_symmetry_cell_setting 'monoclinic'
loop_
_space_group_symop_operation_xyz
x,y,z
-x,1/2+y,-z
loop_
_atom_site_type_symbol
_atom_site_label
_atom_site_fract_x
_atom_site_fract_y
_atom_site_fract_z
Si Si1 0.099235 0.561130 0.454268
Si Si2 0.959930 0.251199 0.006020
Si Si3 0.766497 0.476143 0.372549
Si Si4 0.355890 0.036703 0.807517
Si Si5 0.158230 0.041385 0.129040
Si Si6 0.732052 0.927588 0.719275
Si Si7 0.537396 0.132577 0.226479
Si Si8 0.452746 0.878820 0.187543
O O1 0.143590 0.349018 0.228956
O O2 0.177812 0.571161 0.405109
O O3 0.010018 0.400143 0.745297
O O4 0.080416 0.841586 0.400881
O O5 0.843847 0.250233 0.255588
O O6 0.009110 0.952826 0.927464
O O7 0.753780 0.716681 0.529878
O O8 0.662198 0.364075 0.559612
O O9 0.823259 0.575306 0.089635
O O10 0.422073 0.207261 0.531803
O O11 0.422479 0.790097 0.718933
O O12 0.260098 0.920489 0.954291
O O13 0.318713 0.236028 0.029665
O O14 0.645025 0.147994 0.889144
O O15 0.504444 0.827311 0.224388
O O16 0.487540 0.202466 0.076875
#
# Coordination Sequence:
#
# PCOD9118788 Si02
#       8
#     2   2   2   2   2   2   2   2
#     4  11  25  49  75 109 148 199 253 312 381 465
#     4  12  28  50  83 116 149 198 263 321 389 472
#     4  12  27  50  77 115 156 200 261 330 397 452
#     4  11  23  39  67 102 141 203 248 303 373 462
#     4  11  26  47  74 109 152 194 253 315 387 454
#     4  11  23  45  71 105 148 199 257 314 374 469
#     4  12  22  40  70 100 148 196 256 298 379 462
#     4  12  28  46  69 108 156 199 245 311 388 456
#
# _framework density 27.767755000000001
#
# number of rings (size 3 to 8) (size 9 to 14) (size 15 to 20)
#    0.000    0.500    6.250    1.500    1.750    5.000 
#    2.250    0.000    0.000    0.000    0.000    0.000 
#    0.000    0.000    0.000    0.000    0.000    0.000 
#
# Total GULP energy -89286.413117 kJ/mol
# GULP energy per Si atom -5580.400820 kJ/mol
# Density = 2.770455 g / cm^3
# Si number density = 27.767755 Si / 1000 Ang^3
#
#
#
# Elastic Constant Matrix: (Units=GPa)
#
#
# Indices 1 2 3 4 5 6 
#
# 1 132.4737 19.2780 66.6998 0.0000 -10.2232 0.0000
# 2 19.2780 89.9431 19.4822 0.0000 12.2590 0.0000
# 3 66.6998 19.4822 125.3600 0.0000 5.5897 0.0000
# 4 0.0000 0.0000 0.0000 42.9193 0.0000 11.4913
# 5 -10.2232 12.2590 5.5897 0.0000 82.9765 0.0000
# 6 0.0000 0.0000 0.0000 11.4913 0.0000 31.0480
#
#
#
# Elastic Compliance Matrix: (Units=1/GPa)
#
#
# Indices 1 2 3 4 5 6 
#
# 1 0.010692 -0.001344 -0.005564 0.000000 0.001891 0.000000
# 2 -0.001344 0.011886 -0.001050 0.000000 -0.001851 0.000000
# 3 -0.005564 -0.001050 0.011158 0.000000 -0.001282 0.000000
# 4 0.000000 0.000000 0.000000 0.025862 0.000000 -0.009572
# 5 0.001891 -0.001851 -0.001282 0.000000 0.012644 0.000000
# 6 0.000000 0.000000 0.000000 -0.009572 0.000000 0.035751
#
#
# Mechanical properties :
#
#
# Convention : Reuss Voigt Hill
#
# Bulk Modulus (GPa) = 56.11703 62.07742 59.09722
# Shear Modulus (GPa) = 38.50649 47.54322 43.02485
#
# Velocity S-wave (km/s) = 3.72793 4.14233 3.94058
# Velocity P-wave (km/s) = 6.22762 6.72927 6.48330
#
# Compressibility (1/GPa) = 0.01781990
#
# Stress axis : x y z
#
# Youngs Moduli (GPa) = 93.53086 84.13378 89.62375
#
# Poissons Ratio (x) = 0.11308 0.49867
# Poissons Ratio (y) = 0.12571 0.09406
# Poissons Ratio (z) = 0.52041 0.08830
#
# Static dielectric constant tensor:
#      x y z
#    x 2.804960 0.000000 0.212740 
#    y 0.000000 2.230370 0.000000 
#    z 0.212740 0.000000 2.256180 
# 
# From -- ./inp_files/10155.got.cif
#   From: 2010.05.17/outbox.cif.g08.bks.cpg/sg4_6_cif.got.tgz:10155.got - 2010.06.03 18:43:04.
