data_PCOD9118706
_publ_section_title
;
Structure prediction by ZEFSAII (Michael W. Deem and Ramdas Pophale) SiO2 
 PCOD9118706
Probable space group: P 21
;
_chemical_formula_sum "Si O2"
_cell_formula_units_Z 12
_cell_length_a 5.125611
_cell_length_b 17.013245
_cell_length_c 5.091248
_cell_angle_alpha 90.000000
_cell_angle_beta 85.400254
_cell_angle_gamma 90.000000
_cell_volume 442.543568
_symmetry_space_group_name_H-M "P 21"
_symmetry_group_IT_number 4
_symmetry_cell_setting 'monoclinic'
loop_
_space_group_symop_operation_xyz
x,y,z
-x,1/2+y,-z
loop_
_atom_site_type_symbol
_atom_site_label
_atom_site_fract_x
_atom_site_fract_y
_atom_site_fract_z
Si Si1 0.683859 0.483510 0.591075
Si Si2 0.842927 0.326621 0.438018
Si Si3 0.832508 0.916908 0.212906
Si Si4 0.386160 0.262512 0.859677
Si Si5 0.029790 0.130742 0.662754
Si Si6 0.740264 0.174436 0.183701
O O1 0.702413 0.409413 0.389766
O O2 0.394545 0.479459 0.726999
O O3 0.782455 0.560881 0.441739
O O4 0.889447 0.460608 0.807274
O O5 0.650402 0.287504 0.676448
O O6 0.863091 0.261960 0.214041
O O7 0.108630 0.360799 0.538968
O O8 0.727439 0.846924 0.038362
O O9 0.200755 0.209590 0.688589
O O10 0.462460 0.201144 0.086619
O O11 0.806671 0.137637 0.458060
O O12 0.882595 0.123951 0.950389
#
# Coordination Sequence:
#
# PCOD9118706 Si02
#       6
#     2   2   2   2   2   2
#     4   9  22  43  71 105 152 197 244 313 375 445
#     4   9  21  46  73 104 141 193 252 299 361 441
#     4   9  19  44  75  99 149 192 254 299 370 443
#     4  11  22  43  76 107 142 198 247 313 359 453
#     4  12  27  45  71 110 154 193 248 311 387 437
#     4  12  25  45  72 107 146 193 249 309 370 447
#
# _framework density 27.115969
#
# number of rings (size 3 to 8) (size 9 to 14) (size 15 to 20)
#    1.000    0.667    3.333    0.000    4.667    0.000 
#    6.000    0.000    0.000    0.000    0.000    0.000 
#    0.000    0.000    0.000    0.000    0.000    0.000 
#
# Total GULP energy -66975.622083 kJ/mol
# GULP energy per Si atom -5581.301840 kJ/mol
# Density = 2.705425 g / cm^3
# Si number density = 27.115969 Si / 1000 Ang^3
#
#
#
# Elastic Constant Matrix: (Units=GPa)
#
#
# Indices 1 2 3 4 5 6 
#
# 1 117.7153 30.3220 31.3644 0.0000 32.6701 0.0000
# 2 30.3220 119.3109 22.9327 0.0000 1.4219 0.0000
# 3 31.3644 22.9327 134.1036 0.0000 6.6694 0.0000
# 4 0.0000 0.0000 0.0000 25.3422 0.0000 1.0880
# 5 32.6701 1.4219 6.6694 0.0000 26.7068 0.0000
# 6 0.0000 0.0000 0.0000 1.0880 0.0000 51.9568
#
#
#
# Elastic Compliance Matrix: (Units=1/GPa)
#
#
# Indices 1 2 3 4 5 6 
#
# 1 0.014614 -0.003119 -0.002029 0.000000 -0.017204 0.000000
# 2 -0.003119 0.009332 -0.001044 0.000000 0.003579 0.000000
# 3 -0.002029 -0.001044 0.008084 0.000000 0.000519 0.000000
# 4 0.000000 0.000000 0.000000 0.039495 0.000000 -0.000827
# 5 -0.017204 0.003579 0.000519 0.000000 0.058169 0.000000
# 6 0.000000 0.000000 0.000000 -0.000827 0.000000 0.019264
#
#
# Mechanical properties :
#
#
# Convention : Reuss Voigt Hill
#
# Bulk Modulus (GPa) = 50.90187 60.04089 55.47138
# Shear Modulus (GPa) = 29.78103 39.90188 34.84145
#
# Velocity S-wave (km/s) = 3.31763 3.84021 3.58845
# Velocity P-wave (km/s) = 5.78690 6.46941 6.13765
#
# Compressibility (1/GPa) = 0.01964564
#
# Stress axis : x y z
#
# Youngs Moduli (GPa) = 68.42835 107.15560 123.69726
#
# Poissons Ratio (x) = 0.33422 0.25097
# Poissons Ratio (y) = 0.21343 0.12919
# Poissons Ratio (z) = 0.13884 0.11192
#
# Static dielectric constant tensor:
#      x y z
#    x 2.267690 0.000000 0.018520 
#    y 0.000000 2.158790 0.000000 
#    z 0.018520 0.000000 2.141710 
# 
# From -- ./inp_files/422.got.cif
#   From: 2010.05.17/outbox.cif.g08.bks.cpg/sg4_1_cif.got.tgz:422.got - 2010.06.03 18:43:04.
