data_PCOD9118734
_publ_section_title
;
Structure prediction by ZEFSAII (Michael W. Deem and Ramdas Pophale) SiO2 
 PCOD9118734
Probable space group: P 21
;
_chemical_formula_sum "Si O2"
_cell_formula_units_Z 14
_cell_length_a 17.849010
_cell_length_b 5.929204
_cell_length_c 8.061031
_cell_angle_alpha 90.000000
_cell_angle_beta 139.655707
_cell_angle_gamma 90.000000
_cell_volume 552.280667
_symmetry_space_group_name_H-M "P 21"
_symmetry_group_IT_number 4
_symmetry_cell_setting 'monoclinic'
loop_
_space_group_symop_operation_xyz
x,y,z
-x,1/2+y,-z
loop_
_atom_site_type_symbol
_atom_site_label
_atom_site_fract_x
_atom_site_fract_y
_atom_site_fract_z
Si Si1 0.725135 0.419790 0.129546
Si Si2 0.545892 0.811346 0.854673
Si Si3 0.071608 0.085803 0.296634
Si Si4 0.955291 0.904395 0.486802
Si Si5 0.833373 0.855835 0.807613
Si Si6 0.713913 0.014235 0.922103
Si Si7 0.653667 0.104968 0.306687
O O1 0.632704 0.613438 0.952172
O O2 0.843182 0.491503 0.418970
O O3 0.739671 0.281764 0.983250
O O4 0.670497 0.265746 0.180282
O O5 0.584632 0.984757 0.776821
O O6 0.583690 0.899593 0.102076
O O7 0.417886 0.721660 0.666658
O O8 0.029696 0.328889 0.297333
O O9 0.144526 0.125183 0.253026
O O10 0.957215 0.941081 0.079528
O O11 0.999226 0.663367 0.472541
O O12 0.818149 0.925251 0.217412
O O13 0.776418 0.021558 0.577114
O O14 0.742443 0.880763 0.803534
#
# Coordination Sequence:
#
# PCOD9118734 Si02
#       7
#     2   2   2   2   2   2   2
#     4  11  22  47  73 100 136 198 246 297 364 470
#     4  11  22  44  77  95 133 196 249 301 363 457
#     4  12  25  44  74 106 154 196 243 307 392 459
#     4  12  25  45  77 103 146 204 253 303 374 479
#     4  12  27  44  66 112 149 186 243 322 386 442
#     4  11  26  44  69 105 148 188 257 304 382 450
#     4  11  23  46  72 103 136 184 253 308 369 445
#
# _framework density 25.349429000000001
#
# number of rings (size 3 to 8) (size 9 to 14) (size 15 to 20)
#    0.000    0.571    5.714    2.571    2.000    0.000 
#    5.143    0.000    0.000    0.000    0.000    0.000 
#    0.000    0.000    0.000    0.000    0.000    0.000 
#
# Total GULP energy -78121.988870 kJ/mol
# GULP energy per Si atom -5580.142062 kJ/mol
# Density = 2.529173 g / cm^3
# Si number density = 25.349429 Si / 1000 Ang^3
#
#
#
# Elastic Constant Matrix: (Units=GPa)
#
#
# Indices 1 2 3 4 5 6 
#
# 1 141.0208 27.1931 -0.2523 0.0000 8.3730 0.0000
# 2 27.1931 76.7856 15.3923 0.0000 8.9051 0.0000
# 3 -0.2523 15.3923 28.5092 0.0000 11.0585 0.0000
# 4 0.0000 0.0000 0.0000 26.0487 0.0000 4.5012
# 5 8.3730 8.9051 11.0585 0.0000 35.1410 0.0000
# 6 0.0000 0.0000 0.0000 4.5012 0.0000 47.9925
#
#
#
# Elastic Compliance Matrix: (Units=1/GPa)
#
#
# Indices 1 2 3 4 5 6 
#
# 1 0.007790 -0.003030 0.002422 0.000000 -0.001851 0.000000
# 2 -0.003030 0.015842 -0.008318 0.000000 -0.000675 0.000000
# 3 0.002422 -0.008318 0.044417 0.000000 -0.012447 0.000000
# 4 0.000000 0.000000 0.000000 0.039022 0.000000 -0.003660
# 5 -0.001851 -0.000675 -0.012447 0.000000 0.032986 0.000000
# 6 0.000000 0.000000 0.000000 -0.003660 0.000000 0.021180
#
#
# Mechanical properties :
#
#
# Convention : Reuss Voigt Hill
#
# Bulk Modulus (GPa) = 19.92119 36.77576 28.34847
# Shear Modulus (GPa) = 25.53378 35.43526 30.48452
#
# Velocity S-wave (km/s) = 3.17720 3.74287 3.47157
# Velocity P-wave (km/s) = 4.61900 5.76349 5.22269
#
# Compressibility (1/GPa) = 0.05019781
#
# Stress axis : x y z
#
# Youngs Moduli (GPa) = 128.37690 63.12367 22.51397
#
# Poissons Ratio (x) = 0.19124 -0.05454
# Poissons Ratio (y) = 0.38893 0.18727
# Poissons Ratio (z) = -0.31099 0.52507
#
# Static dielectric constant tensor:
#      x y z
#    x 2.115860 0.000000 -0.020050 
#    y 0.000000 2.183750 0.000000 
#    z -0.020050 0.000000 1.987700 
# 
# From -- ./inp_files/9542.got.cif
#   From: 2010.05.17/outbox.cif.g08.bks.cpg/sg4_5_cif.got.tgz:9542.got - 2010.06.03 18:43:04.
