data_PCOD9118284
_publ_section_title
;
Structure prediction by ZEFSAII (Michael W. Deem and Ramdas Pophale) SiO2 
 PCOD9118284
Probable space group: P 21
;
_chemical_formula_sum "Si O2"
_cell_formula_units_Z 16
_cell_length_a 4.787419
_cell_length_b 8.195898
_cell_length_c 15.945801
_cell_angle_alpha 90.000000
_cell_angle_beta 117.201323
_cell_angle_gamma 90.000000
_cell_volume 556.473247
_symmetry_space_group_name_H-M "P 21"
_symmetry_group_IT_number 4
_symmetry_cell_setting 'monoclinic'
loop_
_space_group_symop_operation_xyz
x,y,z
-x,1/2+y,-z
loop_
_atom_site_type_symbol
_atom_site_label
_atom_site_fract_x
_atom_site_fract_y
_atom_site_fract_z
Si Si1 0.955429 0.860220 0.872399
Si Si2 0.786373 0.320828 0.864772
Si Si3 0.779551 0.284661 0.664766
Si Si4 0.417521 0.606037 0.593007
Si Si5 0.839920 0.062390 0.993950
Si Si6 0.184689 0.096728 0.603068
Si Si7 0.900934 0.847063 0.684861
Si Si8 0.396538 0.632621 0.789594
O O1 0.908927 0.939941 0.774581
O O2 0.600816 0.791819 0.843534
O O3 0.135251 0.697346 0.929400
O O4 0.080094 0.001575 0.950978
O O5 0.823048 0.302319 0.770111
O O6 0.551938 0.473416 0.846127
O O7 0.115562 0.390835 0.949903
O O8 0.647174 0.167858 0.897836
O O9 0.617465 0.443976 0.603083
O O10 0.089776 0.240218 0.655531
O O11 0.529922 0.135403 0.616981
O O12 0.079118 0.599721 0.504210
O O13 0.601384 0.773557 0.597342
O O14 0.394345 0.611467 0.689568
O O15 0.125650 0.935165 0.649890
O O16 0.038373 0.682639 0.750184
#
# Coordination Sequence:
#
# PCOD9118284 Si02
#       8
#     2   2   2   2   2   2   2   2
#     4   9  19  38  62  95 130 179 226 290 357 424
#     4   9  19  39  67  98 136 183 230 294 361 427
#     4  11  27  47  69 109 147 191 239 310 364 431
#     4  10  25  44  69  97 143 192 243 296 364 432
#     4   9  17  36  69  90 132 177 230 292 346 439
#     4  12  28  43  74 106 145 191 252 300 358 436
#     4  11  24  42  69  98 139 190 238 301 367 440
#     4   9  21  39  63  95 136 181 228 291 361 421
#
# _framework density 28.752510000000001
#
# number of rings (size 3 to 8) (size 9 to 14) (size 15 to 20)
#    0.000    2.000    0.000    2.250   12.250    0.000 
#    0.000    3.750   11.000    0.000    0.000    0.000 
#    0.000    0.000    0.000    0.000    0.000    0.000 
#
# Total GULP energy -89233.975078 kJ/mol
# GULP energy per Si atom -5577.123442 kJ/mol
# Density = 2.868707 g / cm^3
# Si number density = 28.752510 Si / 1000 Ang^3
#
#
#
# Elastic Constant Matrix: (Units=GPa)
#
#
# Indices 1 2 3 4 5 6 
#
# 1 42.5065 2.2696 24.6419 0.0000 -4.6866 0.0000
# 2 2.2696 133.3375 32.6041 0.0000 -2.6879 0.0000
# 3 24.6419 32.6041 167.3903 0.0000 -8.1044 0.0000
# 4 0.0000 0.0000 0.0000 57.1087 0.0000 8.6669
# 5 -4.6866 -2.6879 -8.1044 0.0000 26.1709 0.0000
# 6 0.0000 0.0000 0.0000 8.6669 0.0000 43.2631
#
#
#
# Elastic Compliance Matrix: (Units=1/GPa)
#
#
# Indices 1 2 3 4 5 6 
#
# 1 0.026076 0.000551 -0.003774 0.000000 0.003558 0.000000
# 2 0.000551 0.007889 -0.001598 0.000000 0.000414 0.000000
# 3 -0.003774 -0.001598 0.006904 0.000000 0.001298 0.000000
# 4 0.000000 0.000000 0.000000 0.018060 0.000000 -0.003618
# 5 0.003558 0.000414 0.001298 0.000000 0.039292 0.000000
# 6 0.000000 0.000000 0.000000 -0.003618 0.000000 0.023839
#
#
# Mechanical properties :
#
#
# Convention : Reuss Voigt Hill
#
# Bulk Modulus (GPa) = 32.02279 51.36283 41.69281
# Shear Modulus (GPa) = 35.18379 44.22313 39.70346
#
# Velocity S-wave (km/s) = 3.50190 3.92607 3.72004
# Velocity P-wave (km/s) = 5.24525 6.20117 5.74314
#
# Compressibility (1/GPa) = 0.03122776
#
# Stress axis : x y z
#
# Youngs Moduli (GPa) = 38.34891 126.75205 144.85106
#
# Poissons Ratio (x) = -0.06979 0.54663
# Poissons Ratio (y) = -0.02112 0.23143
# Poissons Ratio (z) = 0.14472 0.20251
#
# Static dielectric constant tensor:
#      x y z
#    x 2.391560 0.000000 -0.035520 
#    y 0.000000 2.530100 0.000000 
#    z -0.035520 0.000000 2.347380 
# 
# From -- ./inp_files/4034.got.cif
#   From: 2010.05.17/outbox.cif.g08.bks.cpg/sg4_3_cif.got.tgz:4034.got - 2010.06.03 18:43:04.
