data_PCOD9118208
_publ_section_title
;
Structure prediction by ZEFSAII (Michael W. Deem and Ramdas Pophale) SiO2 
 PCOD9118208
Probable space group: P 21
;
_chemical_formula_sum "Si O2"
_cell_formula_units_Z 14
_cell_length_a 14.501872
_cell_length_b 4.947570
_cell_length_c 15.993199
_cell_angle_alpha 90.000000
_cell_angle_beta 27.219745
_cell_angle_gamma 90.000000
_cell_volume 524.869939
_symmetry_space_group_name_H-M "P 21"
_symmetry_group_IT_number 4
_symmetry_cell_setting 'monoclinic'
loop_
_space_group_symop_operation_xyz
x,y,z
-x,1/2+y,-z
loop_
_atom_site_type_symbol
_atom_site_label
_atom_site_fract_x
_atom_site_fract_y
_atom_site_fract_z
Si Si1 0.337361 0.937900 0.404192
Si Si2 0.114466 0.068631 0.424913
Si Si3 0.434325 0.664569 0.092097
Si Si4 0.378159 0.033662 0.892610
Si Si5 0.093191 0.967847 0.878537
Si Si6 0.076667 0.635032 0.732182
Si Si7 0.475406 0.326367 0.406630
O O1 0.217438 0.110558 0.432274
O O2 0.536180 0.833376 0.197061
O O3 0.159770 0.730380 0.575354
O O4 0.417854 0.019719 0.431752
O O5 0.249636 0.866128 0.259627
O O6 0.928916 0.858151 0.579149
O O7 0.513694 0.488930 0.107007
O O8 0.409551 0.417951 0.047214
O O9 0.464002 0.896401 0.739207
O O10 0.140894 0.995510 0.094555
O O11 0.039944 0.874484 0.828475
O O12 0.331185 0.916388 0.698889
O O13 0.978256 0.760443 0.034079
O O14 0.267461 0.453294 0.606782
#
# Coordination Sequence:
#
# PCOD9118208 Si02
#       7
#     2   2   2   2   2   2   2
#     4  10  26  44  72 103 145 191 243 298 359 428
#     4  11  26  45  71 103 147 188 239 300 358 421
#     4  11  26  44  71 106 141 189 241 298 357 427
#     4  10  24  48  68 102 147 187 242 294 362 425
#     4  12  28  50  77 110 150 190 237 296 368 426
#     4  11  26  45  75 106 141 192 238 296 358 431
#     4  11  26  46  76 104 145 191 242 296 358 434
#
# _framework density 26.673276999999999
#
# number of rings (size 3 to 8) (size 9 to 14) (size 15 to 20)
#    0.000    1.143    1.429    1.714   20.000    1.143 
#    0.000    0.000    0.000    0.000    0.000    0.000 
#    0.000    0.000    0.000    0.000    0.000    0.000 
#
# Total GULP energy -78097.934426 kJ/mol
# GULP energy per Si atom -5578.423888 kJ/mol
# Density = 2.661257 g / cm^3
# Si number density = 26.673277 Si / 1000 Ang^3
#
#
#
# Elastic Constant Matrix: (Units=GPa)
#
#
# Indices 1 2 3 4 5 6 
#
# 1 73.4669 10.1319 2.5670 0.0000 -12.7514 0.0000
# 2 10.1319 76.0174 14.2415 0.0000 2.4563 0.0000
# 3 2.5670 14.2415 165.5350 0.0000 -21.5132 0.0000
# 4 0.0000 0.0000 0.0000 34.9582 0.0000 -2.6291
# 5 -12.7514 2.4563 -21.5132 0.0000 41.7093 0.0000
# 6 0.0000 0.0000 0.0000 -2.6291 0.0000 27.9503
#
#
#
# Elastic Compliance Matrix: (Units=1/GPa)
#
#
# Indices 1 2 3 4 5 6 
#
# 1 0.014760 -0.002241 0.000608 0.000000 0.004958 0.000000
# 2 -0.002241 0.013797 -0.001444 0.000000 -0.002242 0.000000
# 3 0.000608 -0.001444 0.006636 0.000000 0.003694 0.000000
# 4 0.000000 0.000000 0.000000 0.028809 0.000000 0.002710
# 5 0.004958 -0.002242 0.003694 0.000000 0.027529 0.000000
# 6 0.000000 0.000000 0.000000 0.002710 0.000000 0.036033
#
#
# Mechanical properties :
#
#
# Convention : Reuss Voigt Hill
#
# Bulk Modulus (GPa) = 34.43657 40.98889 37.71273
# Shear Modulus (GPa) = 34.86841 40.12879 37.49860
#
# Velocity S-wave (km/s) = 3.61950 3.88294 3.75353
# Velocity P-wave (km/s) = 5.51419 5.95847 5.74063
#
# Compressibility (1/GPa) = 0.02903890
#
# Stress axis : x y z
#
# Youngs Moduli (GPa) = 67.75055 72.48186 150.69722
#
# Poissons Ratio (x) = 0.16247 -0.09167
# Poissons Ratio (y) = 0.15186 0.21755
# Poissons Ratio (z) = -0.04122 0.10464
#
# Static dielectric constant tensor:
#      x y z
#    x 2.108170 0.000000 -0.015370 
#    y 0.000000 2.395120 0.000000 
#    z -0.015370 0.000000 2.349460 
# 
# From -- ./inp_files/14055.got.cif
#   From: 2010.05.17/outbox.cif.g08.bks.cpg/sg4_8_cif.got.tgz:14055.got - 2010.06.03 18:43:04.
