data_PCOD9118048
_publ_section_title
;
Structure prediction by ZEFSAII (Michael W. Deem and Ramdas Pophale) SiO2 
 PCOD9118048
Probable space group: P 21
;
_chemical_formula_sum "Si O2"
_cell_formula_units_Z 16
_cell_length_a 15.728787
_cell_length_b 5.847262
_cell_length_c 9.841783
_cell_angle_alpha 90.000000
_cell_angle_beta 128.548185
_cell_angle_gamma 90.000000
_cell_volume 707.905306
_symmetry_space_group_name_H-M "P 21"
_symmetry_group_IT_number 4
_symmetry_cell_setting 'monoclinic'
loop_
_space_group_symop_operation_xyz
x,y,z
-x,1/2+y,-z
loop_
_atom_site_type_symbol
_atom_site_label
_atom_site_fract_x
_atom_site_fract_y
_atom_site_fract_z
Si Si1 0.153083 0.804090 0.038095
Si Si2 0.259328 0.076377 0.371346
Si Si3 0.337261 0.339500 0.834104
Si Si4 0.784622 0.209763 0.464594
Si Si5 0.477077 0.320229 0.543016
Si Si6 0.218638 0.934994 0.802034
Si Si7 0.908523 0.949397 0.817496
Si Si8 0.440939 0.715559 0.085630
O O1 0.138138 0.550861 0.087114
O O2 0.244763 0.926260 0.221143
O O3 0.176789 0.843898 0.903653
O O4 0.036888 0.922193 0.951273
O O5 0.350833 0.266642 0.445811
O O6 0.147088 0.211040 0.277265
O O7 0.280302 0.907851 0.518573
O O8 0.291820 0.511940 0.672800
O O9 0.443334 0.227119 0.871940
O O10 0.232993 0.201224 0.784351
O O11 0.389229 0.466210 0.016278
O O12 0.837639 0.319045 0.383097
O O13 0.869960 0.119650 0.659894
O O14 0.489447 0.581004 0.501411
O O15 0.542562 0.301218 0.747355
O O16 0.346411 0.865714 0.924000
#
# Coordination Sequence:
#
# PCOD9118048 Si02
#       8
#     2   2   2   2   2   2   2   2
#     4  11  25  45  73 102 137 181 248 295 376 430
#     4  11  25  45  74  96 145 189 243 292 369 441
#     4  11  23  43  71  97 141 188 238 291 364 433
#     4  10  24  44  68 103 133 187 232 298 359 433
#     4  12  30  44  68 110 150 195 245 304 364 440
#     4  11  24  43  66 105 139 182 237 305 350 433
#     4  11  23  48  72  99 135 191 235 303 370 444
#     4  11  24  40  68  98 142 191 236 284 362 430
#
# _framework density 22.601894000000001
#
# number of rings (size 3 to 8) (size 9 to 14) (size 15 to 20)
#    0.000    1.000    2.500    3.000   12.250    1.000 
#    4.500    0.000    0.000    0.000    0.000    0.000 
#    0.000    0.000    0.000    0.000    0.000    0.000 
#
# Total GULP energy -89305.618532 kJ/mol
# GULP energy per Si atom -5581.601158 kJ/mol
# Density = 2.255045 g / cm^3
# Si number density = 22.601894 Si / 1000 Ang^3
#
#
#
# Elastic Constant Matrix: (Units=GPa)
#
#
# Indices 1 2 3 4 5 6 
#
# 1 64.5483 22.1762 19.8635 0.0000 -17.2035 0.0000
# 2 22.1762 55.3382 4.1406 0.0000 -7.2880 0.0000
# 3 19.8635 4.1406 69.4552 0.0000 -10.4631 0.0000
# 4 0.0000 0.0000 0.0000 37.4667 0.0000 -3.2627
# 5 -17.2035 -7.2880 -10.4631 0.0000 39.9923 0.0000
# 6 0.0000 0.0000 0.0000 -3.2627 0.0000 31.1861
#
#
#
# Elastic Compliance Matrix: (Units=1/GPa)
#
#
# Indices 1 2 3 4 5 6 
#
# 1 0.021166 -0.007270 -0.004630 0.000000 0.006569 0.000000
# 2 -0.007270 0.021038 0.000970 0.000000 0.000960 0.000000
# 3 -0.004630 0.000970 0.016022 0.000000 0.002377 0.000000
# 4 0.000000 0.000000 0.000000 0.026936 0.000000 0.002818
# 5 0.006569 0.000960 0.002377 0.000000 0.028627 0.000000
# 6 0.000000 0.000000 0.000000 0.002818 0.000000 0.032360
#
#
# Mechanical properties :
#
#
# Convention : Reuss Voigt Hill
#
# Bulk Modulus (GPa) = 27.49960 31.30026 29.39993
# Shear Modulus (GPa) = 27.75734 31.27310 29.51522
#
# Velocity S-wave (km/s) = 3.50822 3.72378 3.61761
# Velocity P-wave (km/s) = 5.34823 5.68923 5.52136
#
# Compressibility (1/GPa) = 0.03636416
#
# Stress axis : x y z
#
# Youngs Moduli (GPa) = 47.24645 47.53273 62.41328
#
# Poissons Ratio (x) = 0.34558 0.28899
# Poissons Ratio (y) = 0.34350 -0.06052
# Poissons Ratio (z) = 0.21876 -0.04609
#
# Static dielectric constant tensor:
#      x y z
#    x 1.834690 0.000000 -0.018470 
#    y 0.000000 2.022700 0.000000 
#    z -0.018470 0.000000 1.801950 
# 
# From -- ./inp_files/7293.got.cif
#   From: 2010.05.17/outbox.cif.g08.bks.cpg/sg4_4_cif.got.tgz:7293.got - 2010.06.03 18:43:04.
