data_PCOD9118598
_publ_section_title
;
Structure prediction by ZEFSAII (Michael W. Deem and Ramdas Pophale) SiO2 
 PCOD9118598
Probable space group: P 21
;
_chemical_formula_sum "Si O2"
_cell_formula_units_Z 16
_cell_length_a 8.534382
_cell_length_b 14.296829
_cell_length_c 6.473899
_cell_angle_alpha 90.000000
_cell_angle_beta 123.523863
_cell_angle_gamma 90.000000
_cell_volume 658.513277
_symmetry_space_group_name_H-M "P 21"
_symmetry_group_IT_number 4
_symmetry_cell_setting 'monoclinic'
loop_
_space_group_symop_operation_xyz
x,y,z
-x,1/2+y,-z
loop_
_atom_site_type_symbol
_atom_site_label
_atom_site_fract_x
_atom_site_fract_y
_atom_site_fract_z
Si Si1 0.145255 0.480760 0.011983
Si Si2 0.357811 0.489633 0.769163
Si Si3 0.210997 0.957051 0.540172
Si Si4 0.319551 0.118185 0.896241
Si Si5 0.329222 0.278120 0.616932
Si Si6 0.109967 0.620857 0.324955
Si Si7 0.043238 0.841085 0.805567
Si Si8 0.670958 0.290296 0.626041
O O1 0.173333 0.576737 0.154094
O O2 0.092713 0.403171 0.144619
O O3 0.314836 0.468491 0.977322
O O4 0.962075 0.478159 0.735555
O O5 0.373107 0.387822 0.682075
O O6 0.185778 0.549273 0.551173
O O7 0.535358 0.557196 0.866856
O O8 0.137086 0.902920 0.692640
O O9 0.341098 0.887399 0.504399
O O10 0.296301 0.054168 0.675152
O O11 0.378640 0.219336 0.857297
O O12 0.113862 0.125918 0.843014
O O13 0.468674 0.249303 0.535515
O O14 0.107063 0.269735 0.405385
O O15 0.206342 0.720251 0.422583
O O16 0.206310 0.803152 0.074032
#
# Coordination Sequence:
#
# PCOD9118598 Si02
#       8
#     2   2   2   2   2   2   2   2
#     4  11  21  44  75 100 141 196 227 299 361 416
#     4  12  27  48  73 104 157 185 240 310 357 435
#     4  11  23  48  72 105 145 191 241 303 359 425
#     4  12  27  45  76 104 146 197 238 302 368 428
#     4  12  26  47  71 111 143 189 245 299 363 434
#     4  12  26  49  70 112 146 193 249 292 361 442
#     4  11  23  48  72 103 145 190 240 295 364 430
#     4  11  29  43  75 105 149 193 242 302 361 436
#
# _framework density 24.297155
#
# number of rings (size 3 to 8) (size 9 to 14) (size 15 to 20)
#    0.000    0.500    5.000    2.250    7.000    6.000 
#    0.000    0.000    0.000    0.000    0.000    0.000 
#    0.000    0.000    0.000    0.000    0.000    0.000 
#
# Total GULP energy -89555.936358 kJ/mol
# GULP energy per Si atom -5597.246022 kJ/mol
# Density = 2.424185 g / cm^3
# Si number density = 24.297155 Si / 1000 Ang^3
#
#
#
# Elastic Constant Matrix: (Units=GPa)
#
#
# Indices 1 2 3 4 5 6 
#
# 1 92.4261 -0.7357 6.0187 0.0000 2.2733 0.0000
# 2 -0.7357 67.7359 14.3432 0.0000 -0.4451 0.0000
# 3 6.0187 14.3432 67.1331 0.0000 -4.3016 0.0000
# 4 0.0000 0.0000 0.0000 28.4655 0.0000 -0.0543
# 5 2.2733 -0.4451 -4.3016 0.0000 31.4685 0.0000
# 6 0.0000 0.0000 0.0000 -0.0543 0.0000 34.2430
#
#
#
# Elastic Compliance Matrix: (Units=1/GPa)
#
#
# Indices 1 2 3 4 5 6 
#
# 1 0.010918 0.000348 -0.001113 0.000000 -0.000936 0.000000
# 2 0.000348 0.015476 -0.003355 0.000000 -0.000265 0.000000
# 3 -0.001113 -0.003355 0.015853 0.000000 0.002200 0.000000
# 4 0.000000 0.000000 0.000000 0.035130 0.000000 0.000056
# 5 -0.000936 -0.000265 0.002200 0.000000 0.032142 0.000000
# 6 0.000000 0.000000 0.000000 0.000056 0.000000 0.029203
#
#
# Mechanical properties :
#
#
# Convention : Reuss Voigt Hill
#
# Bulk Modulus (GPa) = 29.40538 29.61639 29.51089
# Shear Modulus (GPa) = 31.58607 32.67997 32.13302
#
# Velocity S-wave (km/s) = 3.60945 3.67142 3.64057
# Velocity P-wave (km/s) = 5.43134 5.49437 5.46295
#
# Compressibility (1/GPa) = 0.03400738
#
# Stress axis : x y z
#
# Youngs Moduli (GPa) = 91.59406 64.61783 63.07846
#
# Poissons Ratio (x) = -0.02250 0.07022
# Poissons Ratio (y) = -0.03189 0.21160
# Poissons Ratio (z) = 0.10196 0.21677
#
# Static dielectric constant tensor:
#      x y z
#    x 1.922630 0.000000 0.014110 
#    y 0.000000 1.935730 0.000000 
#    z 0.014110 0.000000 1.940160 
# 
# From -- ./inp_files/1836.got.cif
#   From: 2010.05.17/outbox.cif.g08.bks.cpg/sg4_1_cif.got.tgz:1836.got - 2010.06.03 18:43:04.
