data_PCOD9118237
_publ_section_title
;
Structure prediction by ZEFSAII (Michael W. Deem and Ramdas Pophale) SiO2 
 PCOD9118237
Probable space group: P 21
;
_chemical_formula_sum "Si O2"
_cell_formula_units_Z 12
_cell_length_a 18.402891
_cell_length_b 5.359513
_cell_length_c 13.243585
_cell_angle_alpha 90.000000
_cell_angle_beta 156.568264
_cell_angle_gamma 90.000000
_cell_volume 519.427182
_symmetry_space_group_name_H-M "P 21"
_symmetry_group_IT_number 4
_symmetry_cell_setting 'monoclinic'
loop_
_space_group_symop_operation_xyz
x,y,z
-x,1/2+y,-z
loop_
_atom_site_type_symbol
_atom_site_label
_atom_site_fract_x
_atom_site_fract_y
_atom_site_fract_z
Si Si1 0.940787 0.327220 0.514775
Si Si2 0.951402 0.963914 0.704291
Si Si3 0.374087 0.178464 0.595905
Si Si4 0.087558 0.202592 0.072149
Si Si5 0.403793 0.996762 0.839251
Si Si6 0.207130 0.690314 0.890826
O O1 0.798955 0.532920 0.375332
O O2 0.890228 0.296233 0.334372
O O3 0.150227 0.400828 0.802283
O O4 0.893070 0.102779 0.528292
O O5 0.107991 0.775057 0.866390
O O6 0.776018 0.851346 0.538232
O O7 0.049877 0.152154 0.907345
O O8 0.282703 0.136766 0.370645
O O9 0.393238 0.960359 0.704654
O O10 0.581936 0.260159 0.844545
O O11 0.038061 0.489504 0.033573
O O12 0.511286 0.252386 0.000035
#
# Coordination Sequence:
#
# PCOD9118237 Si02
#       6
#     2   2   2   2   2   2
#     4  12  25  43  69 103 154 188 239 310 363 439
#     4  11  25  50  71 102 146 194 237 306 372 427
#     4  11  25  47  73 107 140 190 248 301 357 447
#     4  10  24  50  78 104 141 191 242 300 361 425
#     4  12  25  41  72 104 140 190 240 293 369 432
#     4  12  26  43  69 108 145 191 244 296 370 434
#
# _framework density 23.102371999999999
#
# number of rings (size 3 to 8) (size 9 to 14) (size 15 to 20)
#    0.000    0.667    5.000    2.000    4.667    1.333 
#    9.000    0.000    0.000    0.000    0.000    0.000 
#    0.000    0.000    0.000    0.000    0.000    0.000 
#
# Total GULP energy -66961.529240 kJ/mol
# GULP energy per Si atom -5580.127437 kJ/mol
# Density = 2.304979 g / cm^3
# Si number density = 23.102372 Si / 1000 Ang^3
#
#
#
# Elastic Constant Matrix: (Units=GPa)
#
#
# Indices 1 2 3 4 5 6 
#
# 1 84.8734 19.3474 50.3090 0.0000 20.1774 0.0000
# 2 19.3474 51.3557 15.8937 0.0000 9.3783 0.0000
# 3 50.3090 15.8937 140.4654 0.0000 11.2566 0.0000
# 4 0.0000 0.0000 0.0000 23.0950 0.0000 -2.9245
# 5 20.1774 9.3783 11.2566 0.0000 38.3481 0.0000
# 6 0.0000 0.0000 0.0000 -2.9245 0.0000 32.2377
#
#
#
# Elastic Compliance Matrix: (Units=1/GPa)
#
#
# Indices 1 2 3 4 5 6 
#
# 1 0.017321 -0.003682 -0.005252 0.000000 -0.006672 0.000000
# 2 -0.003682 0.021702 -0.000888 0.000000 -0.003110 0.000000
# 3 -0.005252 -0.000888 0.009075 0.000000 0.000317 0.000000
# 4 0.000000 0.000000 0.000000 0.043803 0.000000 0.003974
# 5 -0.006672 -0.003110 0.000317 0.000000 0.030255 0.000000
# 6 0.000000 0.000000 0.000000 0.003974 0.000000 0.031380
#
#
# Mechanical properties :
#
#
# Convention : Reuss Voigt Hill
#
# Bulk Modulus (GPa) = 35.14383 49.75497 42.44940
# Shear Modulus (GPa) = 27.37273 31.47914 29.42593
#
# Velocity S-wave (km/s) = 3.44589 3.69534 3.57279
# Velocity P-wave (km/s) = 5.57472 6.30800 5.95266
#
# Compressibility (1/GPa) = 0.02845450
#
# Stress axis : x y z
#
# Youngs Moduli (GPa) = 57.73362 46.07958 110.18713
#
# Poissons Ratio (x) = 0.16964 0.57875
# Poissons Ratio (y) = 0.21255 0.09782
# Poissons Ratio (z) = 0.30324 0.04091
#
# Static dielectric constant tensor:
#      x y z
#    x 1.889000 0.000000 0.014550 
#    y 0.000000 2.038710 0.000000 
#    z 0.014550 0.000000 1.911100 
# 
# From -- ./inp_files/7055.got.cif
#   From: 2010.05.17/outbox.cif.g08.bks.cpg/sg4_4_cif.got.tgz:7055.got - 2010.06.03 18:43:04.
