data_PCOD9118820
_publ_section_title
;
Structure prediction by ZEFSAII (Michael W. Deem and Ramdas Pophale) SiO2 
 PCOD9118820
Probable space group: P 21
;
_chemical_formula_sum "Si O2"
_cell_formula_units_Z 14
_cell_length_a 10.791593
_cell_length_b 9.825615
_cell_length_c 8.353870
_cell_angle_alpha 90.000000
_cell_angle_beta 139.603512
_cell_angle_gamma 90.000000
_cell_volume 574.059739
_symmetry_space_group_name_H-M "P 21"
_symmetry_group_IT_number 4
_symmetry_cell_setting 'monoclinic'
loop_
_space_group_symop_operation_xyz
x,y,z
-x,1/2+y,-z
loop_
_atom_site_type_symbol
_atom_site_label
_atom_site_fract_x
_atom_site_fract_y
_atom_site_fract_z
Si Si1 0.247761 0.302790 0.472373
Si Si2 0.888651 0.394702 0.315831
Si Si3 0.370946 0.665339 0.104081
Si Si4 0.924112 0.576940 0.922741
Si Si5 0.317939 0.586929 0.420806
Si Si6 0.670571 0.622467 0.940631
Si Si7 0.882604 0.905432 0.150968
O O1 0.415185 0.217705 0.724047
O O2 0.131077 0.195434 0.252426
O O3 0.336837 0.422524 0.450998
O O4 0.096654 0.380239 0.436016
O O5 0.946627 0.385279 0.556216
O O6 0.763995 0.278358 0.108593
O O7 0.767474 0.532408 0.171588
O O8 0.373668 0.649058 0.302060
O O9 0.270876 0.523880 0.953277
O O10 0.741674 0.543439 0.849138
O O11 0.016055 0.456384 0.911380
O O12 0.093787 0.620547 0.209015
O O13 0.445250 0.635958 0.694529
O O14 0.762826 0.769192 0.021384
#
# Coordination Sequence:
#
# PCOD9118820 Si02
#       7
#     2   2   2   2   2   2   2
#     4  12  23  45  69 106 137 191 232 290 360 419
#     4  12  25  48  72  99 153 191 233 293 359 434
#     4  11  24  45  73 100 147 186 237 295 351 422
#     4  11  23  44  73  98 139 180 239 289 349 416
#     4  11  23  41  70 109 133 177 240 293 354 399
#     4  12  25  44  75 105 143 182 244 300 350 426
#     4  11  27  49  68 109 146 191 233 294 363 422
#
# _framework density 24.387706999999999
#
# number of rings (size 3 to 8) (size 9 to 14) (size 15 to 20)
#    0.000    0.571    7.143    2.571    0.000    0.000 
#   10.286    0.000    0.000    0.000    0.000    0.000 
#    0.000    0.000    0.000    0.000    0.000    0.000 
#
# Total GULP energy -78280.433263 kJ/mol
# GULP energy per Si atom -5591.459519 kJ/mol
# Density = 2.433220 g / cm^3
# Si number density = 24.387707 Si / 1000 Ang^3
#
#
#
# Elastic Constant Matrix: (Units=GPa)
#
#
# Indices 1 2 3 4 5 6 
#
# 1 39.2230 13.5251 35.1453 0.0000 10.8809 0.0000
# 2 13.5251 149.4610 48.5438 0.0000 12.2724 0.0000
# 3 35.1453 48.5438 132.4315 0.0000 22.2692 0.0000
# 4 0.0000 0.0000 0.0000 47.5329 0.0000 4.6076
# 5 10.8809 12.2724 22.2692 0.0000 32.5064 0.0000
# 6 0.0000 0.0000 0.0000 4.6076 0.0000 11.7306
#
#
#
# Elastic Compliance Matrix: (Units=1/GPa)
#
#
# Indices 1 2 3 4 5 6 
#
# 1 0.034439 0.000018 -0.008145 0.000000 -0.005955 0.000000
# 2 0.000018 0.007629 -0.002617 0.000000 -0.001093 0.000000
# 3 -0.008145 -0.002617 0.011356 0.000000 -0.004065 0.000000
# 4 0.000000 0.000000 0.000000 0.021871 0.000000 -0.008590
# 5 -0.005955 -0.001093 -0.004065 0.000000 0.035954 0.000000
# 6 0.000000 0.000000 0.000000 -0.008590 0.000000 0.088622
#
#
# Mechanical properties :
#
#
# Convention : Reuss Voigt Hill
#
# Bulk Modulus (GPa) = 31.31371 57.28267 44.29819
# Shear Modulus (GPa) = 21.55140 33.28072 27.41606
#
# Velocity S-wave (km/s) = 2.97593 3.69813 3.35651
# Velocity P-wave (km/s) = 4.96750 6.46330 5.76412
#
# Compressibility (1/GPa) = 0.03193489
#
# Stress axis : x y z
#
# Youngs Moduli (GPa) = 29.03674 131.07955 88.06269
#
# Poissons Ratio (x) = -0.00234 0.71726
# Poissons Ratio (y) = -0.00052 0.23049
# Poissons Ratio (z) = 0.23650 0.34308
#
# Static dielectric constant tensor:
#      x y z
#    x 2.020230 0.000000 -0.028680 
#    y 0.000000 1.922240 0.000000 
#    z -0.028680 0.000000 1.935670 
# 
# From -- ./inp_files/8088.got.cif
#   From: 2010.05.17/outbox.cif.g08.bks.cpg/sg4_5_cif.got.tgz:8088.got - 2010.06.03 18:43:04.
