data_PCOD9118212
_publ_section_title
;
Structure prediction by ZEFSAII (Michael W. Deem and Ramdas Pophale) SiO2 
 PCOD9118212
Probable space group: P 21
;
_chemical_formula_sum "Si O2"
_cell_formula_units_Z 16
_cell_length_a 8.496734
_cell_length_b 5.523615
_cell_length_c 19.509953
_cell_angle_alpha 90.000000
_cell_angle_beta 44.477222
_cell_angle_gamma 90.000000
_cell_volume 641.531052
_symmetry_space_group_name_H-M "P 21"
_symmetry_group_IT_number 4
_symmetry_cell_setting 'monoclinic'
loop_
_space_group_symop_operation_xyz
x,y,z
-x,1/2+y,-z
loop_
_atom_site_type_symbol
_atom_site_label
_atom_site_fract_x
_atom_site_fract_y
_atom_site_fract_z
Si Si1 0.401447 0.736300 0.694278
Si Si2 0.231258 0.969780 0.501467
Si Si3 0.095227 0.355347 0.814328
Si Si4 0.379491 0.731829 0.195313
Si Si5 0.268570 0.622795 0.373544
Si Si6 0.921026 0.516523 0.298472
Si Si7 0.611608 0.523063 0.940253
Si Si8 0.113092 0.079326 0.940544
O O1 0.587984 0.660590 0.580849
O O2 0.305769 0.517971 0.768878
O O3 0.537409 0.926573 0.696795
O O4 0.184184 0.821826 0.719674
O O5 0.306796 0.732640 0.436695
O O6 0.200379 0.975915 0.591803
O O7 0.982063 0.020866 0.550089
O O8 0.134244 0.264669 0.724703
O O9 0.083355 0.128363 0.868692
O O10 0.862735 0.495712 0.890861
O O11 0.290426 0.792309 0.299659
O O12 0.383030 0.958289 0.142323
O O13 0.627807 0.619189 0.118814
O O14 0.188299 0.543122 0.227222
O O15 0.515473 0.785851 0.988692
O O16 0.978805 0.313612 0.012730
#
# Coordination Sequence:
#
# PCOD9118212 Si02
#       8
#     2   2   2   2   2   2   2   2
#     4  12  25  43  77  98 152 189 245 316 366 454
#     4  11  24  46  69 107 139 200 247 307 369 448
#     4  11  27  47  72 111 148 196 251 307 393 437
#     4  10  24  48  71 107 149 193 250 308 381 444
#     4  11  24  48  71 106 149 191 255 305 376 452
#     4  10  26  45  72 103 150 193 249 301 374 450
#     4  11  25  49  78 110 152 196 252 315 381 462
#     4  12  27  48  80 114 153 198 257 317 386 457
#
# _framework density 24.940335999999999
#
# number of rings (size 3 to 8) (size 9 to 14) (size 15 to 20)
#    0.000    1.000    1.250    3.750   10.500    0.000 
#    6.750    0.000    0.000    0.000    0.000    0.000 
#    0.000    0.000    0.000    0.000    0.000    0.000 
#
# Total GULP energy -89528.548070 kJ/mol
# GULP energy per Si atom -5595.534254 kJ/mol
# Density = 2.488357 g / cm^3
# Si number density = 24.940336 Si / 1000 Ang^3
#
#
#
# Elastic Constant Matrix: (Units=GPa)
#
#
# Indices 1 2 3 4 5 6 
#
# 1 96.3874 21.5061 34.8761 0.0000 -22.2758 0.0000
# 2 21.5061 89.2267 46.6896 0.0000 4.9483 0.0000
# 3 34.8761 46.6896 117.4664 0.0000 1.8964 0.0000
# 4 0.0000 0.0000 0.0000 38.6928 0.0000 -10.3888
# 5 -22.2758 4.9483 1.8964 0.0000 60.1007 0.0000
# 6 0.0000 0.0000 0.0000 -10.3888 0.0000 31.2119
#
#
#
# Elastic Compliance Matrix: (Units=1/GPa)
#
#
# Indices 1 2 3 4 5 6 
#
# 1 0.013134 -0.001724 -0.003297 0.000000 0.005114 0.000000
# 2 -0.001724 0.014436 -0.005199 0.000000 -0.001664 0.000000
# 3 -0.003297 -0.005199 0.011577 0.000000 -0.001159 0.000000
# 4 0.000000 0.000000 0.000000 0.028381 0.000000 0.009447
# 5 0.005114 -0.001664 -0.001159 0.000000 0.018708 0.000000
# 6 0.000000 0.000000 0.000000 0.009447 0.000000 0.035183
#
#
# Mechanical properties :
#
#
# Convention : Reuss Voigt Hill
#
# Bulk Modulus (GPa) = 53.45598 56.58046 55.01822
# Shear Modulus (GPa) = 33.76211 39.33500 36.54856
#
# Velocity S-wave (km/s) = 3.68328 3.97566 3.83226
# Velocity P-wave (km/s) = 6.29037 6.61892 6.45674
#
# Compressibility (1/GPa) = 0.01870698
#
# Stress axis : x y z
#
# Youngs Moduli (GPa) = 76.13643 69.27257 86.37743
#
# Poissons Ratio (x) = 0.11944 0.28477
# Poissons Ratio (y) = 0.13128 0.44908
# Poissons Ratio (z) = 0.25101 0.36015
#
# Static dielectric constant tensor:
#      x y z
#    x 1.953720 0.000000 0.022670 
#    y 0.000000 2.050000 0.000000 
#    z 0.022670 0.000000 1.955940 
# 
# From -- ./inp_files/13595.got.cif
#   From: 2010.05.17/outbox.cif.g08.bks.cpg/sg4_7_cif.got.tgz:13595.got - 2010.06.03 18:43:04.
