data_PCOD9118956
_publ_section_title
;
Structure prediction by ZEFSAII (Michael W. Deem and Ramdas Pophale) SiO2 
 PCOD9118956
Probable space group: P 21
;
_chemical_formula_sum "Si O2"
_cell_formula_units_Z 16
_cell_length_a 11.297998
_cell_length_b 6.607464
_cell_length_c 11.298343
_cell_angle_alpha 90.000000
_cell_angle_beta 113.254925
_cell_angle_gamma 90.000000
_cell_volume 774.911035
_symmetry_space_group_name_H-M "P 21"
_symmetry_group_IT_number 4
_symmetry_cell_setting 'monoclinic'
loop_
_space_group_symop_operation_xyz
x,y,z
-x,1/2+y,-z
loop_
_atom_site_type_symbol
_atom_site_label
_atom_site_fract_x
_atom_site_fract_y
_atom_site_fract_z
Si Si1 0.818254 0.360500 0.413257
Si Si2 0.379133 0.523598 0.229333
Si Si3 0.043456 0.921842 0.182134
Si Si4 0.414170 0.912520 0.082468
Si Si5 0.770631 0.104236 0.620810
Si Si6 0.586718 0.267347 0.181687
Si Si7 0.817904 0.705993 0.956586
Si Si8 0.917561 0.715323 0.585805
O O1 0.759518 0.223802 0.494145
O O2 0.734421 0.313946 0.265544
O O3 0.823466 0.588599 0.463111
O O4 0.964713 0.299078 0.444528
O O5 0.379258 0.730374 0.155598
O O6 0.360324 0.563817 0.360328
O O7 0.505792 0.404087 0.240353
O O8 0.259423 0.381225 0.143399
O O9 0.101231 0.063914 0.101230
O O10 0.030073 0.061494 0.293225
O O11 0.143468 0.746662 0.259493
O O12 0.914076 0.813884 0.085979
O O13 0.536875 0.039248 0.176539
O O14 0.293213 0.066376 0.030052
O O15 0.444511 0.828649 0.964776
O O16 0.844462 0.897558 0.620679
#
# Coordination Sequence:
#
# PCOD9118956 Si02
#       8
#     2   2   2   2   2   2   2   2
#     4  11  26  44  69  99 132 183 230 283 344 407
#     4  11  23  46  66  94 138 178 226 287 335 409
#     4  11  24  37  65 103 136 179 227 280 352 416
#     4  11  24  44  67  98 137 176 229 287 342 408
#     4  11  23  46  66  94 138 178 226 287 335 409
#     4  11  26  44  69  99 132 183 230 283 344 407
#     4  11  24  37  65 103 136 179 227 280 352 416
#     4  11  24  44  67  98 137 176 229 287 342 408
#
# _framework density 20.647534
#
# number of rings (size 3 to 8) (size 9 to 14) (size 15 to 20)
#    0.000    1.000    5.000    0.750    3.500    1.000 
#    4.500    0.000    0.000    0.000    0.000    0.000 
#    0.000    0.000    0.000    0.000    0.000    0.000 
#
# Total GULP energy -89444.669216 kJ/mol
# GULP energy per Si atom -5590.291826 kJ/mol
# Density = 2.060054 g / cm^3
# Si number density = 20.647534 Si / 1000 Ang^3
#
#
#
# Elastic Constant Matrix: (Units=GPa)
#
#
# Indices 1 2 3 4 5 6 
#
# 1 66.6277 26.7152 6.6255 0.0000 -28.8166 0.0000
# 2 26.7152 125.6442 20.4194 0.0000 -5.5017 0.0000
# 3 6.6255 20.4194 33.1147 0.0000 -0.2261 0.0000
# 4 0.0000 0.0000 0.0000 18.5368 0.0000 -14.3347
# 5 -28.8166 -5.5017 -0.2261 0.0000 38.1429 0.0000
# 6 0.0000 0.0000 0.0000 -14.3347 0.0000 35.0769
#
#
#
# Elastic Compliance Matrix: (Units=1/GPa)
#
#
# Indices 1 2 3 4 5 6 
#
# 1 0.024677 -0.004084 -0.002296 0.000000 0.018041 0.000000
# 2 -0.004084 0.009581 -0.005102 0.000000 -0.001734 0.000000
# 3 -0.002296 -0.005102 0.033788 0.000000 -0.002270 0.000000
# 4 0.000000 0.000000 0.000000 0.078873 0.000000 0.032233
# 5 0.018041 -0.001734 -0.002270 0.000000 0.039583 0.000000
# 6 0.000000 0.000000 0.000000 0.032233 0.000000 0.041681
#
#
# Mechanical properties :
#
#
# Convention : Reuss Voigt Hill
#
# Bulk Modulus (GPa) = 22.18197 36.98962 29.58580
# Shear Modulus (GPa) = 18.78462 29.79308 24.28885
#
# Velocity S-wave (km/s) = 3.01952 3.80272 3.43353
# Velocity P-wave (km/s) = 4.78781 6.10202 5.48442
#
# Compressibility (1/GPa) = 0.04508165
#
# Stress axis : x y z
#
# Youngs Moduli (GPa) = 40.52317 104.37702 29.59608
#
# Poissons Ratio (x) = 0.42627 0.06795
# Poissons Ratio (y) = 0.16549 0.15101
# Poissons Ratio (z) = 0.09304 0.53258
#
# Static dielectric constant tensor:
#      x y z
#    x 1.725710 0.000000 -0.003210 
#    y 0.000000 1.736930 0.000000 
#    z -0.003210 0.000000 1.721960 
# 
# From -- ./inp_files/11674.got.cif
#   From: 2010.05.17/outbox.cif.g08.bks.cpg/sg4_6_cif.got.tgz:11674.got - 2010.06.03 18:43:04.
