data_PCOD9118295
_publ_section_title
;
Structure prediction by ZEFSAII (Michael W. Deem and Ramdas Pophale) SiO2 
 PCOD9118295
Probable space group: P 21
;
_chemical_formula_sum "Si O2"
_cell_formula_units_Z 14
_cell_length_a 21.518271
_cell_length_b 5.800069
_cell_length_c 16.202062
_cell_angle_alpha 90.000000
_cell_angle_beta 17.287418
_cell_angle_gamma 90.000000
_cell_volume 600.909096
_symmetry_space_group_name_H-M "P 21"
_symmetry_group_IT_number 4
_symmetry_cell_setting 'monoclinic'
loop_
_space_group_symop_operation_xyz
x,y,z
-x,1/2+y,-z
loop_
_atom_site_type_symbol
_atom_site_label
_atom_site_fract_x
_atom_site_fract_y
_atom_site_fract_z
Si Si1 0.549339 0.288120 0.061635
Si Si2 0.732237 0.425470 0.530414
Si Si3 0.213661 0.437585 0.354424
Si Si4 0.993280 0.272342 0.051237
Si Si5 0.606353 0.707901 0.345474
Si Si6 0.102543 0.268561 0.174176
Si Si7 0.281693 0.221760 0.115931
O O1 0.411055 0.386458 0.161499
O O2 0.367530 0.177426 0.348569
O O3 0.686018 0.455008 0.943742
O O4 0.714585 0.128449 0.803736
O O5 0.925716 0.416996 0.349304
O O6 0.523632 0.295342 0.824776
O O7 0.803365 0.317901 0.354782
O O8 0.168674 0.233643 0.347462
O O9 0.026065 0.532759 0.646463
O O10 0.191239 0.206211 0.854260
O O11 0.040872 0.532475 0.955661
O O12 0.504895 0.453722 0.490002
O O13 0.696617 0.733634 0.138292
O O14 0.180896 0.344064 0.165332
#
# Coordination Sequence:
#
# PCOD9118295 Si02
#       7
#     2   2   2   2   2   2   2
#     4  11  21  42  71  94 148 186 230 304 356 439
#     4  10  25  45  66 101 139 186 241 299 372 432
#     4  11  22  41  65 102 136 188 234 287 359 438
#     4  11  26  45  80 108 143 196 252 314 379 460
#     4  11  27  52  75 110 152 192 251 324 381 440
#     4  11  26  45  70 104 140 191 243 301 363 453
#     4  11  25  42  69  99 142 185 237 291 368 438
#
# _framework density 23.298033
#
# number of rings (size 3 to 8) (size 9 to 14) (size 15 to 20)
#    0.000    1.143    2.857    1.714    8.000    2.286 
#    5.143    0.000    0.000    0.000    0.000    0.000 
#    0.000    0.000    0.000    0.000    0.000    0.000 
#
# Total GULP energy -77999.709226 kJ/mol
# GULP energy per Si atom -5571.407802 kJ/mol
# Density = 2.324501 g / cm^3
# Si number density = 23.298033 Si / 1000 Ang^3
#
#
#
# Elastic Constant Matrix: (Units=GPa)
#
#
# Indices 1 2 3 4 5 6 
#
# 1 50.2062 0.0712 -0.2214 0.0000 2.1262 0.0000
# 2 0.0712 64.8329 31.4511 0.0000 9.5787 0.0000
# 3 -0.2214 31.4511 83.6694 0.0000 6.4732 0.0000
# 4 0.0000 0.0000 0.0000 26.1990 0.0000 -3.2033
# 5 2.1262 9.5787 6.4732 0.0000 20.1306 0.0000
# 6 0.0000 0.0000 0.0000 -3.2033 0.0000 31.0228
#
#
#
# Elastic Compliance Matrix: (Units=1/GPa)
#
#
# Indices 1 2 3 4 5 6 
#
# 1 0.020014 0.000248 0.000136 0.000000 -0.002276 0.000000
# 2 0.000248 0.019841 -0.006897 0.000000 -0.007249 0.000000
# 3 0.000136 -0.006897 0.014656 0.000000 -0.001446 0.000000
# 4 0.000000 0.000000 0.000000 0.038657 0.000000 0.003992
# 5 -0.002276 -0.007249 -0.001446 0.000000 0.053830 0.000000
# 6 0.000000 0.000000 0.000000 0.003992 0.000000 0.032647
#
#
# Mechanical properties :
#
#
# Convention : Reuss Voigt Hill
#
# Bulk Modulus (GPa) = 24.10413 29.03447 26.56930
# Shear Modulus (GPa) = 24.21315 26.63100 25.42207
#
# Velocity S-wave (km/s) = 3.22728 3.38458 3.30687
# Velocity P-wave (km/s) = 4.92500 5.26907 5.09994
#
# Compressibility (1/GPa) = 0.04148667
#
# Stress axis : x y z
#
# Youngs Moduli (GPa) = 49.96380 50.40170 68.22962
#
# Poissons Ratio (x) = -0.01252 -0.00925
# Poissons Ratio (y) = -0.01241 0.47055
# Poissons Ratio (z) = -0.00678 0.34760
#
# Static dielectric constant tensor:
#      x y z
#    x 1.938070 0.000000 0.068840 
#    y 0.000000 2.290300 0.000000 
#    z 0.068840 0.000000 1.903110 
# 
# From -- ./inp_files/9867.got.cif
#   From: 2010.05.17/outbox.cif.g08.bks.cpg/sg4_5_cif.got.tgz:9867.got - 2010.06.03 18:43:04.
