data_PCOD9118683
_publ_section_title
;
Structure prediction by ZEFSAII (Michael W. Deem and Ramdas Pophale) SiO2 
 PCOD9118683
Probable space group: P 21
;
_chemical_formula_sum "Si O2"
_cell_formula_units_Z 14
_cell_length_a 9.343858
_cell_length_b 8.667954
_cell_length_c 8.713170
_cell_angle_alpha 90.000000
_cell_angle_beta 118.104765
_cell_angle_gamma 90.000000
_cell_volume 622.487704
_symmetry_space_group_name_H-M "P 21"
_symmetry_group_IT_number 4
_symmetry_cell_setting 'monoclinic'
loop_
_space_group_symop_operation_xyz
x,y,z
-x,1/2+y,-z
loop_
_atom_site_type_symbol
_atom_site_label
_atom_site_fract_x
_atom_site_fract_y
_atom_site_fract_z
Si Si1 0.422349 0.340220 0.660908
Si Si2 0.593925 0.649705 0.646595
Si Si3 0.941145 0.356455 0.793096
Si Si4 0.777754 0.035655 0.238292
Si Si5 0.563633 0.587754 0.095464
Si Si6 0.713288 0.327705 0.382387
Si Si7 0.847415 0.593304 0.988021
O O1 0.539551 0.473132 0.652282
O O2 0.405899 0.209548 0.525085
O O3 0.258505 0.426690 0.632164
O O4 0.476623 0.247837 0.839311
O O5 0.454594 0.744054 0.661420
O O6 0.770335 0.683582 0.804275
O O7 0.810949 0.354918 0.589137
O O8 0.889123 0.431044 0.929558
O O9 0.085824 0.461985 0.798547
O O10 0.006450 0.185026 0.860866
O O11 0.807755 0.206982 0.319437
O O12 0.608203 0.036141 0.059606
O O13 0.655546 0.476456 0.260820
O O14 0.695921 0.597511 0.027461
#
# Coordination Sequence:
#
# PCOD9118683 Si02
#       7
#     2   2   2   2   2   2   2
#     4  11  22  42  72 106 137 180 246 296 348 419
#     4  11  24  45  73 107 137 192 242 291 351 436
#     4  12  29  46  68 112 146 191 232 311 368 417
#     4  11  25  45  75 104 142 188 247 292 362 428
#     4  12  23  47  76 101 140 193 245 294 348 445
#     4  11  26  44  74 105 147 190 237 295 359 430
#     4  12  27  47  70 103 147 192 241 295 364 427
#
# _framework density 22.490400999999999
#
# number of rings (size 3 to 8) (size 9 to 14) (size 15 to 20)
#    0.000    0.571    4.286    4.286    4.000    4.571 
#    0.000    0.000    0.000    0.000    0.000    0.000 
#    0.000    0.000    0.000    0.000    0.000    0.000 
#
# Total GULP energy -78217.571055 kJ/mol
# GULP energy per Si atom -5586.969361 kJ/mol
# Density = 2.243921 g / cm^3
# Si number density = 22.490401 Si / 1000 Ang^3
#
#
#
# Elastic Constant Matrix: (Units=GPa)
#
#
# Indices 1 2 3 4 5 6 
#
# 1 35.5301 11.9999 11.5109 0.0000 2.0494 0.0000
# 2 11.9999 98.3665 49.9388 0.0000 -7.2749 0.0000
# 3 11.5109 49.9388 112.8512 0.0000 2.6529 0.0000
# 4 0.0000 0.0000 0.0000 44.7519 0.0000 -11.5872
# 5 2.0494 -7.2749 2.6529 0.0000 30.4241 0.0000
# 6 0.0000 0.0000 0.0000 -11.5872 0.0000 32.7972
#
#
#
# Elastic Compliance Matrix: (Units=1/GPa)
#
#
# Indices 1 2 3 4 5 6 
#
# 1 0.029841 -0.002988 -0.001661 0.000000 -0.002580 0.000000
# 2 -0.002988 0.013828 -0.005909 0.000000 0.004023 0.000000
# 3 -0.001661 -0.005909 0.011700 0.000000 -0.002321 0.000000
# 4 0.000000 0.000000 0.000000 0.024595 0.000000 0.008690
# 5 -0.002580 0.004023 -0.002321 0.000000 0.034207 0.000000
# 6 0.000000 0.000000 0.000000 0.008690 0.000000 0.033560
#
#
# Mechanical properties :
#
#
# Convention : Reuss Voigt Hill
#
# Bulk Modulus (GPa) = 29.19409 43.73856 36.46633
# Shear Modulus (GPa) = 27.73691 33.14785 30.44238
#
# Velocity S-wave (km/s) = 3.51562 3.84326 3.68308
# Velocity P-wave (km/s) = 5.43031 6.25972 5.85971
#
# Compressibility (1/GPa) = 0.03425351
#
# Stress axis : x y z
#
# Youngs Moduli (GPa) = 33.51073 72.31727 85.46989
#
# Poissons Ratio (x) = 0.21608 0.14196
# Poissons Ratio (y) = 0.10013 0.50504
# Poissons Ratio (z) = 0.05566 0.42732
#
# Static dielectric constant tensor:
#      x y z
#    x 1.843760 0.000000 -0.032440 
#    y 0.000000 1.901910 0.000000 
#    z -0.032440 0.000000 1.828720 
# 
# From -- ./inp_files/5250.got.cif
#   From: 2010.05.17/outbox.cif.g08.bks.cpg/sg4_3_cif.got.tgz:5250.got - 2010.06.03 18:43:04.
