data_PCOD9118967
_publ_section_title
;
Structure prediction by ZEFSAII (Michael W. Deem and Ramdas Pophale) SiO2 
 PCOD9118967
Probable space group: P 21
;
_chemical_formula_sum "Si O2"
_cell_formula_units_Z 10
_cell_length_a 9.206126
_cell_length_b 9.160400
_cell_length_c 8.235958
_cell_angle_alpha 90.000000
_cell_angle_beta 32.316904
_cell_angle_gamma 90.000000
_cell_volume 371.309290
_symmetry_space_group_name_H-M "P 21"
_symmetry_group_IT_number 4
_symmetry_cell_setting 'monoclinic'
loop_
_space_group_symop_operation_xyz
x,y,z
-x,1/2+y,-z
loop_
_atom_site_type_symbol
_atom_site_label
_atom_site_fract_x
_atom_site_fract_y
_atom_site_fract_z
Si Si1 0.517549 0.611930 0.923382
Si Si2 0.626850 0.942286 0.421055
Si Si3 0.017248 0.439118 0.408250
Si Si4 0.151112 0.830401 0.081060
Si Si5 0.637681 0.241487 0.581689
O O1 0.334966 0.467202 0.114021
O O2 0.340662 0.695924 0.955546
O O3 0.820323 0.581255 0.573806
O O4 0.066911 0.897575 0.331568
O O5 0.358541 0.927254 0.783378
O O6 0.531703 0.872063 0.341780
O O7 0.699420 0.112025 0.392245
O O8 0.871625 0.836669 0.246071
O O9 0.507746 0.178696 0.871607
O O10 0.914553 0.317904 0.381494
#
# Coordination Sequence:
#
# PCOD9118967 Si02
#       5
#     2   2   2   2   2
#     4  11  24  45  76 104 137 191 244 292 348 416
#     4  12  27  48  69 109 149 184 235 294 368 426
#     4  11  23  46  73 103 141 186 247 291 343 425
#     4  11  24  44  72  99 143 189 236 294 344 425
#     4  11  28  47  74 109 146 190 234 297 363 424
#
# _framework density 26.931726999999999
#
# number of rings (size 3 to 8) (size 9 to 14) (size 15 to 20)
#    0.000    0.800    4.000    1.200    5.600   11.200 
#    0.000    0.000    0.000    0.000    0.000    0.000 
#    0.000    0.000    0.000    0.000    0.000    0.000 
#
# Total GULP energy -55973.081778 kJ/mol
# GULP energy per Si atom -5597.308178 kJ/mol
# Density = 2.687043 g / cm^3
# Si number density = 26.931727 Si / 1000 Ang^3
#
#
#
# Elastic Constant Matrix: (Units=GPa)
#
#
# Indices 1 2 3 4 5 6 
#
# 1 175.4997 65.8114 44.3849 0.0000 -11.5973 0.0000
# 2 65.8114 109.0736 25.4837 0.0000 10.4582 0.0000
# 3 44.3849 25.4837 107.3793 0.0000 -16.8133 0.0000
# 4 0.0000 0.0000 0.0000 47.5973 0.0000 -11.2242
# 5 -11.5973 10.4582 -16.8133 0.0000 38.8367 0.0000
# 6 0.0000 0.0000 0.0000 -11.2242 0.0000 52.0865
#
#
#
# Elastic Compliance Matrix: (Units=1/GPa)
#
#
# Indices 1 2 3 4 5 6 
#
# 1 0.008130 -0.004776 -0.001765 0.000000 0.002950 0.000000
# 2 -0.004776 0.013087 -0.002046 0.000000 -0.005836 0.000000
# 3 -0.001765 -0.002046 0.011297 0.000000 0.004915 0.000000
# 4 0.000000 0.000000 0.000000 0.022134 0.000000 0.004770
# 5 0.002950 -0.005836 0.004915 0.000000 0.030329 0.000000
# 6 0.000000 0.000000 0.000000 0.004770 0.000000 0.020227
#
#
# Mechanical properties :
#
#
# Convention : Reuss Voigt Hill
#
# Bulk Modulus (GPa) = 65.18350 73.70142 69.44246
# Shear Modulus (GPa) = 39.21798 44.78895 42.00347
#
# Velocity S-wave (km/s) = 3.82016 4.08248 3.95350
# Velocity P-wave (km/s) = 6.61165 7.04611 6.83233
#
# Compressibility (1/GPa) = 0.01534131
#
# Stress axis : x y z
#
# Youngs Moduli (GPa) = 122.99576 76.41017 88.51536
#
# Poissons Ratio (x) = 0.36493 0.15626
# Poissons Ratio (y) = 0.58742 0.18107
# Poissons Ratio (z) = 0.21713 0.15630
#
# Static dielectric constant tensor:
#      x y z
#    x 2.078970 0.000000 0.000420 
#    y 0.000000 2.305040 0.000000 
#    z 0.000420 0.000000 2.027520 
# 
# From -- ./inp_files/11800.got.cif
#   From: 2010.05.17/outbox.cif.g08.bks.cpg/sg4_6_cif.got.tgz:11800.got - 2010.06.03 18:43:04.
