data_PCOD9118211
_publ_section_title
;
Structure prediction by ZEFSAII (Michael W. Deem and Ramdas Pophale) SiO2 
 PCOD9118211
Probable space group: P 21
;
_chemical_formula_sum "Si O2"
_cell_formula_units_Z 14
_cell_length_a 4.957881
_cell_length_b 19.926086
_cell_length_c 5.560478
_cell_angle_alpha 90.000000
_cell_angle_beta 87.431851
_cell_angle_gamma 90.000000
_cell_volume 548.774364
_symmetry_space_group_name_H-M "P 21"
_symmetry_group_IT_number 4
_symmetry_cell_setting 'monoclinic'
loop_
_space_group_symop_operation_xyz
x,y,z
-x,1/2+y,-z
loop_
_atom_site_type_symbol
_atom_site_label
_atom_site_fract_x
_atom_site_fract_y
_atom_site_fract_z
Si Si1 0.247759 0.501150 0.471187
Si Si2 0.957595 0.734891 0.309408
Si Si3 0.379556 0.371979 0.207339
Si Si4 0.104053 0.373654 0.708360
Si Si5 0.072770 0.592993 0.090754
Si Si6 0.410249 0.095698 0.202869
Si Si7 0.566665 0.237834 0.390207
O O1 0.427358 0.447368 0.305390
O O2 0.077854 0.452668 0.659615
O O3 0.451140 0.550720 0.598372
O O4 0.042011 0.542625 0.313598
O O5 0.065519 0.807477 0.214789
O O6 0.638919 0.743464 0.373427
O O7 0.135426 0.719620 0.537098
O O8 0.004187 0.669908 0.149596
O O9 0.154473 0.354590 0.422225
O O10 0.568895 0.308502 0.252252
O O11 0.305111 0.375165 0.931088
O O12 0.886588 0.577368 0.870853
O O13 0.388791 0.586235 0.028363
O O14 0.441730 0.174152 0.261906
#
# Coordination Sequence:
#
# PCOD9118211 Si02
#       7
#     2   2   2   2   2   2   2
#     4  10  24  48  70 110 158 192 252 306 384 452
#     4  11  23  46  73 111 145 193 251 312 372 445
#     4   9  21  45  70 105 148 194 246 302 375 442
#     4   9  21  45  70 105 148 194 246 302 375 442
#     4  12  26  46  78 109 148 198 254 312 378 447
#     4  12  26  46  78 109 148 198 254 312 378 447
#     4  11  23  46  73 111 145 193 251 312 372 445
#
# _framework density 25.511396999999999
#
# number of rings (size 3 to 8) (size 9 to 14) (size 15 to 20)
#    0.857    0.571    1.429    3.429    0.000    2.286 
#   10.286    0.000    0.000    0.000    0.000    0.000 
#    0.000    0.000    0.000    0.000    0.000    0.000 
#
# Total GULP energy -77955.442434 kJ/mol
# GULP energy per Si atom -5568.245888 kJ/mol
# Density = 2.545333 g / cm^3
# Si number density = 25.511397 Si / 1000 Ang^3
#
#
#
# Elastic Constant Matrix: (Units=GPa)
#
#
# Indices 1 2 3 4 5 6 
#
# 1 62.5308 31.3693 17.6201 0.0000 0.9222 0.0000
# 2 31.3693 197.0937 63.6407 0.0000 24.5808 0.0000
# 3 17.6201 63.6407 96.7633 0.0000 16.7475 0.0000
# 4 0.0000 0.0000 0.0000 263.9352 0.0000 -0.1544
# 5 0.9222 24.5808 16.7475 0.0000 40.6705 0.0000
# 6 0.0000 0.0000 0.0000 -0.1544 0.0000 26.7799
#
#
#
# Elastic Compliance Matrix: (Units=1/GPa)
#
#
# Indices 1 2 3 4 5 6 
#
# 1 0.017732 -0.002423 -0.001959 0.000000 0.001869 0.000000
# 2 -0.002423 0.006982 -0.003693 0.000000 -0.002644 0.000000
# 3 -0.001959 -0.003693 0.013703 0.000000 -0.003366 0.000000
# 4 0.000000 0.000000 0.000000 0.003789 0.000000 0.000022
# 5 0.001869 -0.002644 -0.003366 0.000000 0.027530 0.000000
# 6 0.000000 0.000000 0.000000 0.000022 0.000000 0.037342
#
#
# Mechanical properties :
#
#
# Convention : Reuss Voigt Hill
#
# Bulk Modulus (GPa) = 44.90974 64.62755 54.76865
# Shear Modulus (GPa) = 38.27091 82.52762 60.39926
#
# Velocity S-wave (km/s) = 3.87738 5.69382 4.87102
# Velocity P-wave (km/s) = 6.13901 8.28335 7.29045
#
# Compressibility (1/GPa) = 0.02226688
#
# Stress axis : x y z
#
# Youngs Moduli (GPa) = 56.39538 143.23569 72.97866
#
# Poissons Ratio (x) = 0.34702 0.14296
# Poissons Ratio (y) = 0.13663 0.26950
# Poissons Ratio (z) = 0.11047 0.52896
#
# Static dielectric constant tensor:
#      x y z
#    x 2.037130 0.000000 -0.105880 
#    y 0.000000 2.086310 0.000000 
#    z -0.105880 0.000000 1.894060 
# 
# From -- ./inp_files/697.got.cif
#   From: 2010.05.17/outbox.cif.g08.bks.cpg/sg4_1_cif.got.tgz:697.got - 2010.06.03 18:43:04.
