data_PCOD9118063
_publ_section_title
;
Structure prediction by ZEFSAII (Michael W. Deem and Ramdas Pophale) SiO2 
 PCOD9118063
Probable space group: P 21
;
_chemical_formula_sum "Si O2"
_cell_formula_units_Z 16
_cell_length_a 6.931161
_cell_length_b 8.461994
_cell_length_c 12.312120
_cell_angle_alpha 90.000000
_cell_angle_beta 68.861121
_cell_angle_gamma 90.000000
_cell_volume 673.531210
_symmetry_space_group_name_H-M "P 21"
_symmetry_group_IT_number 4
_symmetry_cell_setting 'monoclinic'
loop_
_space_group_symop_operation_xyz
x,y,z
-x,1/2+y,-z
loop_
_atom_site_type_symbol
_atom_site_label
_atom_site_fract_x
_atom_site_fract_y
_atom_site_fract_z
Si Si1 0.257513 0.495070 0.536783
Si Si2 0.275427 0.010249 0.631126
Si Si3 0.205142 0.315909 0.008856
Si Si4 0.908673 0.670228 0.530535
Si Si5 0.252382 0.778428 0.829346
Si Si6 0.388738 0.016731 0.235991
Si Si7 0.727795 0.834075 0.245563
Si Si8 0.433345 0.998116 0.982969
O O1 0.499299 0.514180 0.469048
O O2 0.177495 0.339306 0.488365
O O3 0.207870 0.451683 0.671325
O O4 0.144268 0.651414 0.518225
O O5 0.122591 0.050431 0.564143
O O6 0.243749 0.156973 0.719449
O O7 0.264627 0.856577 0.707995
O O8 0.165533 0.360060 0.891853
O O9 0.378330 0.179089 0.971111
O O10 0.323268 0.454025 0.051297
O O11 0.990973 0.254123 0.100235
O O12 0.781810 0.602397 0.658506
O O13 0.413059 0.635021 0.806505
O O14 0.333742 0.897653 0.906727
O O15 0.483246 0.864605 0.275865
O O16 0.336962 0.973669 0.123022
#
# Coordination Sequence:
#
# PCOD9118063 Si02
#       8
#     2   2   2   2   2   2   2   2
#     4  11  25  44  72 104 142 185 233 286 358 415
#     4  11  24  48  68 102 145 180 234 293 350 417
#     4  11  26  46  73 103 144 189 237 290 361 417
#     4  11  26  43  69 107 136 188 232 290 350 413
#     4  12  26  45  74 103 145 190 233 291 363 424
#     4  11  24  44  69 103 143 182 237 293 348 419
#     4  10  24  44  70  99 139 187 226 292 339 426
#     4  11  25  46  65 107 142 181 238 293 345 427
#
# _framework density 23.755395
#
# number of rings (size 3 to 8) (size 9 to 14) (size 15 to 20)
#    0.000    1.000    5.000    0.000    7.000    3.000 
#    0.000    1.250    0.000    0.000    0.000    0.000 
#    0.000    0.000    0.000    0.000    0.000    0.000 
#
# Total GULP energy -89502.582798 kJ/mol
# GULP energy per Si atom -5593.911425 kJ/mol
# Density = 2.370133 g / cm^3
# Si number density = 23.755395 Si / 1000 Ang^3
#
#
#
# Elastic Constant Matrix: (Units=GPa)
#
#
# Indices 1 2 3 4 5 6 
#
# 1 85.2735 21.5233 44.7650 0.0000 7.5202 0.0000
# 2 21.5233 24.7954 10.4279 0.0000 5.6906 0.0000
# 3 44.7650 10.4279 93.9106 0.0000 9.4416 0.0000
# 4 0.0000 0.0000 0.0000 30.7297 0.0000 10.5812
# 5 7.5202 5.6906 9.4416 0.0000 36.5961 0.0000
# 6 0.0000 0.0000 0.0000 10.5812 0.0000 35.3193
#
#
#
# Elastic Compliance Matrix: (Units=1/GPa)
#
#
# Indices 1 2 3 4 5 6 
#
# 1 0.019105 -0.013404 -0.007631 0.000000 0.000127 0.000000
# 2 -0.013404 0.052820 0.001101 0.000000 -0.005743 0.000000
# 3 -0.007631 0.001101 0.014397 0.000000 -0.002317 0.000000
# 4 0.000000 0.000000 0.000000 0.036285 0.000000 -0.010870
# 5 0.000127 -0.005743 -0.002317 0.000000 0.028790 0.000000
# 6 0.000000 0.000000 0.000000 -0.010870 0.000000 0.031570
#
#
# Mechanical properties :
#
#
# Convention : Reuss Voigt Hill
#
# Bulk Modulus (GPa) = 21.52643 39.71243 30.61943
# Shear Modulus (GPa) = 20.98037 29.01325 24.99681
#
# Velocity S-wave (km/s) = 2.97506 3.49855 3.24737
# Velocity P-wave (km/s) = 4.56976 5.75094 5.19404
#
# Compressibility (1/GPa) = 0.04645451
#
# Stress axis : x y z
#
# Youngs Moduli (GPa) = 52.34228 18.93233 69.45998
#
# Poissons Ratio (x) = 0.25376 0.53007
# Poissons Ratio (y) = 0.70158 -0.07651
# Poissons Ratio (z) = 0.39944 -0.02085
#
# Static dielectric constant tensor:
#      x y z
#    x 1.903360 0.000000 0.019210 
#    y 0.000000 1.949300 0.000000 
#    z 0.019210 0.000000 1.888780 
# 
# From -- ./inp_files/10320.got.cif
#   From: 2010.05.17/outbox.cif.g08.bks.cpg/sg4_6_cif.got.tgz:10320.got - 2010.06.03 18:43:04.
