data_PCOD9118304
_publ_section_title
;
Structure prediction by ZEFSAII (Michael W. Deem and Ramdas Pophale) SiO2 
 PCOD9118304
Probable space group: P 21
;
_chemical_formula_sum "Si O2"
_cell_formula_units_Z 16
_cell_length_a 9.612567
_cell_length_b 11.596100
_cell_length_c 5.647736
_cell_angle_alpha 90.000000
_cell_angle_beta 106.597394
_cell_angle_gamma 90.000000
_cell_volume 603.313893
_symmetry_space_group_name_H-M "P 21"
_symmetry_group_IT_number 4
_symmetry_cell_setting 'monoclinic'
loop_
_space_group_symop_operation_xyz
x,y,z
-x,1/2+y,-z
loop_
_atom_site_type_symbol
_atom_site_label
_atom_site_fract_x
_atom_site_fract_y
_atom_site_fract_z
Si Si1 0.708456 0.476460 0.316284
Si Si2 0.555090 0.064123 0.060950
Si Si3 0.815460 0.781952 0.966126
Si Si4 0.176935 0.472586 0.632950
Si Si5 0.099284 0.060899 0.225300
Si Si6 0.106671 0.839332 0.937223
Si Si7 0.263049 0.625546 0.258333
Si Si8 0.516198 0.273851 0.337704
O O1 0.607689 0.527867 0.061392
O O2 0.784959 0.574726 0.505955
O O3 0.594061 0.395762 0.395783
O O4 0.826744 0.386875 0.272084
O O5 0.660675 0.043108 0.891802
O O6 0.559530 0.199572 0.123609
O O7 0.645888 0.988136 0.287381
O O8 0.869643 0.649803 0.970461
O O9 0.655460 0.785527 0.776572
O O10 0.833719 0.848276 0.227718
O O11 0.932824 0.833240 0.836063
O O12 0.161514 0.550909 0.382747
O O13 0.059842 0.545619 0.736685
O O14 0.137390 0.936014 0.144798
O O15 0.173048 0.724044 0.077802
O O16 0.403976 0.691789 0.435604
#
# Coordination Sequence:
#
# PCOD9118304 Si02
#       8
#     2   2   2   2   2   2   2   2
#     4  12  24  45  71 110 145 190 258 303 378 453
#     4  11  23  44  73 102 148 192 245 317 376 446
#     4  11  24  48  74 108 153 198 250 317 379 454
#     4  10  25  45  72 113 146 194 256 312 374 458
#     4  11  25  45  72 108 149 200 250 312 384 451
#     4  11  25  46  76 104 152 200 247 316 382 447
#     4  11  23  45  75 106 144 199 249 310 383 444
#     4  11  23  44  69 105 141 191 249 307 370 449
#
# _framework density 26.520191000000001
#
# number of rings (size 3 to 8) (size 9 to 14) (size 15 to 20)
#    0.000    1.000    3.750    2.250    1.750    5.000 
#    2.250    6.250    0.000    0.000    0.000    0.000 
#    0.000    0.000    0.000    0.000    0.000    0.000 
#
# Total GULP energy -89212.497810 kJ/mol
# GULP energy per Si atom -5575.781113 kJ/mol
# Density = 2.645983 g / cm^3
# Si number density = 26.520191 Si / 1000 Ang^3
#
#
#
# Elastic Constant Matrix: (Units=GPa)
#
#
# Indices 1 2 3 4 5 6 
#
# 1 159.7571 30.4621 32.6105 0.0000 3.2061 0.0000
# 2 30.4621 112.8922 27.9990 0.0000 -0.6451 0.0000
# 3 32.6105 27.9990 54.3594 0.0000 -0.3554 0.0000
# 4 0.0000 0.0000 0.0000 38.4332 0.0000 8.0977
# 5 3.2061 -0.6451 -0.3554 0.0000 39.4359 0.0000
# 6 0.0000 0.0000 0.0000 8.0977 0.0000 39.3196
#
#
#
# Elastic Compliance Matrix: (Units=1/GPa)
#
#
# Indices 1 2 3 4 5 6 
#
# 1 0.007247 -0.001009 -0.003832 0.000000 -0.000640 0.000000
# 2 -0.001009 0.010296 -0.004697 0.000000 0.000208 0.000000
# 3 -0.003832 -0.004697 0.023117 0.000000 0.000443 0.000000
# 4 0.000000 0.000000 0.000000 0.027199 0.000000 -0.005602
# 5 -0.000640 0.000208 0.000443 0.000000 0.025417 0.000000
# 6 0.000000 0.000000 0.000000 -0.005602 0.000000 0.026586
#
#
# Mechanical properties :
#
#
# Convention : Reuss Voigt Hill
#
# Bulk Modulus (GPa) = 46.32845 56.57241 51.45043
# Shear Modulus (GPa) = 34.21537 39.16689 36.69113
#
# Velocity S-wave (km/s) = 3.59578 3.84718 3.72360
# Velocity P-wave (km/s) = 5.89462 6.41190 6.15870
#
# Compressibility (1/GPa) = 0.02158501
#
# Stress axis : x y z
#
# Youngs Moduli (GPa) = 137.98974 97.12261 43.25809
#
# Poissons Ratio (x) = 0.09797 0.16577
# Poissons Ratio (y) = 0.13919 0.20318
# Poissons Ratio (z) = 0.52879 0.45617
#
# Static dielectric constant tensor:
#      x y z
#    x 2.097470 0.000000 0.141380 
#    y 0.000000 2.111420 0.000000 
#    z 0.141380 0.000000 2.424100 
# 
# From -- ./inp_files/1446.got.cif
#   From: 2010.05.17/outbox.cif.g08.bks.cpg/sg4_1_cif.got.tgz:1446.got - 2010.06.03 18:43:04.
