data_PCOD9118389
_publ_section_title
;
Structure prediction by ZEFSAII (Michael W. Deem and Ramdas Pophale) SiO2 
 PCOD9118389
Probable space group: P 21
;
_chemical_formula_sum "Si O2"
_cell_formula_units_Z 14
_cell_length_a 9.126015
_cell_length_b 8.673870
_cell_length_c 13.111001
_cell_angle_alpha 90.000000
_cell_angle_beta 30.967945
_cell_angle_gamma 90.000000
_cell_volume 534.028756
_symmetry_space_group_name_H-M "P 21"
_symmetry_group_IT_number 4
_symmetry_cell_setting 'monoclinic'
loop_
_space_group_symop_operation_xyz
x,y,z
-x,1/2+y,-z
loop_
_atom_site_type_symbol
_atom_site_label
_atom_site_fract_x
_atom_site_fract_y
_atom_site_fract_z
Si Si1 0.253308 0.313470 0.856075
Si Si2 0.884621 0.838526 0.835381
Si Si3 0.795532 0.298432 0.979642
Si Si4 0.382031 0.556684 0.282630
Si Si5 0.570451 0.545979 0.532337
Si Si6 0.535905 0.585450 0.963760
Si Si7 0.227959 0.395084 0.558782
O O1 0.528901 0.212053 0.715448
O O2 0.359305 0.470464 0.741263
O O3 0.049013 0.232411 0.895769
O O4 0.083757 0.324728 0.062446
O O5 0.137146 0.945840 0.643561
O O6 0.575960 0.917864 0.002652
O O7 0.830449 0.671858 0.817505
O O8 0.569122 0.179887 0.072783
O O9 0.942316 0.367034 0.791896
O O10 0.652048 0.439809 0.123250
O O11 0.353948 0.593652 0.179955
O O12 0.169877 0.460049 0.480211
O O13 0.421932 0.510062 0.511676
O O14 0.626654 0.724602 0.523666
#
# Coordination Sequence:
#
# PCOD9118389 Si02
#       7
#     2   2   2   2   2   2   2
#     4  10  26  42  72 104 134 178 241 281 354 405
#     4  11  24  48  67 100 143 183 230 289 343 420
#     4  11  23  43  70  98 135 181 226 290 337 408
#     4  11  25  45  66 104 135 188 232 282 348 423
#     4  11  24  43  71 106 140 180 230 302 337 410
#     4  11  24  45  68  96 140 183 227 280 351 410
#     4  11  24  42  72 102 141 177 238 286 354 404
#
# _framework density 26.215816
#
# number of rings (size 3 to 8) (size 9 to 14) (size 15 to 20)
#    0.000    1.143    2.857    2.571    4.000    8.000 
#    5.143    2.857    0.000    0.000    0.000    0.000 
#    0.000    0.000    0.000    0.000    0.000    0.000 
#
# Total GULP energy -78286.365483 kJ/mol
# GULP energy per Si atom -5591.883249 kJ/mol
# Density = 2.615615 g / cm^3
# Si number density = 26.215816 Si / 1000 Ang^3
#
#
#
# Elastic Constant Matrix: (Units=GPa)
#
#
# Indices 1 2 3 4 5 6 
#
# 1 96.6536 8.0860 -10.0973 0.0000 2.8679 0.0000
# 2 8.0860 98.8033 -4.4285 0.0000 10.1351 0.0000
# 3 -10.0973 -4.4285 66.7417 0.0000 3.6540 0.0000
# 4 0.0000 0.0000 0.0000 43.0080 0.0000 3.8177
# 5 2.8679 10.1351 3.6540 0.0000 36.4662 0.0000
# 6 0.0000 0.0000 0.0000 3.8177 0.0000 35.0858
#
#
#
# Elastic Compliance Matrix: (Units=1/GPa)
#
#
# Indices 1 2 3 4 5 6 
#
# 1 0.010597 -0.000714 0.001599 0.000000 -0.000795 0.000000
# 2 -0.000714 0.010515 0.000751 0.000000 -0.002942 0.000000
# 3 0.001599 0.000751 0.015378 0.000000 -0.001875 0.000000
# 4 0.000000 0.000000 0.000000 0.023478 0.000000 -0.002555
# 5 -0.000795 -0.002942 -0.001875 0.000000 0.028491 0.000000
# 6 0.000000 0.000000 0.000000 -0.002555 0.000000 0.028780
#
#
# Mechanical properties :
#
#
# Convention : Reuss Voigt Hill
#
# Bulk Modulus (GPa) = 25.15007 27.70210 26.42609
# Shear Modulus (GPa) = 39.30224 40.82123 40.06174
#
# Velocity S-wave (km/s) = 3.87613 3.95032 3.91340
# Velocity P-wave (km/s) = 5.44488 5.60327 5.52464
#
# Compressibility (1/GPa) = 0.03976132
#
# Stress axis : x y z
#
# Youngs Moduli (GPa) = 94.36960 95.10281 65.02973
#
# Poissons Ratio (x) = 0.06790 -0.10400
# Poissons Ratio (y) = 0.06738 -0.04882
# Poissons Ratio (z) = -0.15093 -0.07140
#
# Static dielectric constant tensor:
#      x y z
#    x 2.056660 0.000000 -0.030320 
#    y 0.000000 2.152370 0.000000 
#    z -0.030320 0.000000 2.069950 
# 
# From -- ./inp_files/11003.got.cif
#   From: 2010.05.17/outbox.cif.g08.bks.cpg/sg4_6_cif.got.tgz:11003.got - 2010.06.03 18:43:04.
