data_PCOD9118654
_publ_section_title
;
Structure prediction by ZEFSAII (Michael W. Deem and Ramdas Pophale) SiO2 
 PCOD9118654
Probable space group: P 21
;
_chemical_formula_sum "Si O2"
_cell_formula_units_Z 14
_cell_length_a 9.792215
_cell_length_b 5.284214
_cell_length_c 10.412407
_cell_angle_alpha 90.000000
_cell_angle_beta 86.522582
_cell_angle_gamma 90.000000
_cell_volume 537.789236
_symmetry_space_group_name_H-M "P 21"
_symmetry_group_IT_number 4
_symmetry_cell_setting 'monoclinic'
loop_
_space_group_symop_operation_xyz
x,y,z
-x,1/2+y,-z
loop_
_atom_site_type_symbol
_atom_site_label
_atom_site_fract_x
_atom_site_fract_y
_atom_site_fract_z
Si Si1 0.395349 0.796200 0.109905
Si Si2 0.804460 0.743409 0.282246
Si Si3 0.743315 0.789826 0.805922
Si Si4 0.930225 0.608168 0.029025
Si Si5 0.350158 0.595400 0.854104
Si Si6 0.585956 0.376349 0.399497
Si Si7 0.265801 0.483281 0.464256
O O1 0.363823 0.516994 0.160607
O O2 0.552754 0.873700 0.098312
O O3 0.322582 0.011401 0.197869
O O4 0.345667 0.800504 0.965160
O O5 0.887473 0.563196 0.182088
O O6 0.789555 0.974958 0.183650
O O7 0.659547 0.610972 0.325328
O O8 0.831134 0.867884 0.418748
O O9 0.797791 0.891979 0.666425
O O10 0.836726 0.753169 0.926146
O O11 0.954259 0.328118 0.969477
O O12 0.413826 0.678984 0.716497
O O13 0.428385 0.393302 0.452385
O O14 0.695949 0.273458 0.498706
#
# Coordination Sequence:
#
# PCOD9118654 Si02
#       7
#     2   2   2   2   2   2   2
#     4  12  24  39  65 108 149 192 234 288 361 448
#     4  11  25  45  69 102 146 199 239 296 367 435
#     4  12  26  46  72 104 144 186 250 307 369 433
#     4  12  29  55  78 101 131 189 263 333 377 409
#     4  11  24  36  63 104 153 197 235 282 355 461
#     4  11  22  40  66 106 162 198 231 267 362 463
#     4  11  24  39  67 111 151 199 224 281 355 471
#
# _framework density 26.032502000000001
#
# number of rings (size 3 to 8) (size 9 to 14) (size 15 to 20)
#    0.000    0.571    4.286    3.429   10.000    0.000 
#    0.000    1.429    0.000    0.000    0.000    0.000 
#    0.000    0.000    0.000    0.000    0.000    0.000 
#
# Total GULP energy -78052.386192 kJ/mol
# GULP energy per Si atom -5575.170442 kJ/mol
# Density = 2.597325 g / cm^3
# Si number density = 26.032502 Si / 1000 Ang^3
#
#
#
# Elastic Constant Matrix: (Units=GPa)
#
#
# Indices 1 2 3 4 5 6 
#
# 1 27.1793 6.5637 14.3219 0.0000 -1.7494 0.0000
# 2 6.5637 117.9391 30.3996 0.0000 -3.7442 0.0000
# 3 14.3219 30.3996 191.5179 0.0000 -3.9212 0.0000
# 4 0.0000 0.0000 0.0000 44.6161 0.0000 3.1120
# 5 -1.7494 -3.7442 -3.9212 0.0000 36.7769 0.0000
# 6 0.0000 0.0000 0.0000 3.1120 0.0000 25.4618
#
#
#
# Elastic Compliance Matrix: (Units=1/GPa)
#
#
# Indices 1 2 3 4 5 6 
#
# 1 0.038615 -0.001426 -0.002632 0.000000 0.001411 0.000000
# 2 -0.001426 0.008914 -0.001294 0.000000 0.000702 0.000000
# 3 -0.002632 -0.001294 0.005631 0.000000 0.000343 0.000000
# 4 0.000000 0.000000 0.000000 0.022606 0.000000 -0.002763
# 5 0.001411 0.000702 0.000343 0.000000 0.027366 0.000000
# 6 0.000000 0.000000 0.000000 -0.002763 0.000000 0.039612
#
#
# Mechanical properties :
#
#
# Convention : Reuss Voigt Hill
#
# Bulk Modulus (GPa) = 23.55405 48.80074 36.17739
# Shear Modulus (GPa) = 29.83285 40.39436 35.11360
#
# Velocity S-wave (km/s) = 3.38891 3.94342 3.67664
# Velocity P-wave (km/s) = 4.93767 6.28656 5.65250
#
# Compressibility (1/GPa) = 0.04245555
#
# Stress axis : x y z
#
# Youngs Moduli (GPa) = 25.89666 112.18180 177.59714
#
# Poissons Ratio (x) = 0.15994 0.46752
# Poissons Ratio (y) = 0.03692 0.22980
# Poissons Ratio (z) = 0.06817 0.14516
#
# Static dielectric constant tensor:
#      x y z
#    x 2.236890 0.000000 -0.030880 
#    y 0.000000 2.164740 0.000000 
#    z -0.030880 0.000000 2.091730 
# 
# From -- ./inp_files/7345.got.cif
#   From: 2010.05.17/outbox.cif.g08.bks.cpg/sg4_4_cif.got.tgz:7345.got - 2010.06.03 18:43:04.
