data_PCOD9118461
_publ_section_title
;
Structure prediction by ZEFSAII (Michael W. Deem and Ramdas Pophale) SiO2 
 PCOD9118461
Probable space group: P 21
;
_chemical_formula_sum "Si O2"
_cell_formula_units_Z 14
_cell_length_a 12.166288
_cell_length_b 5.905884
_cell_length_c 11.359642
_cell_angle_alpha 90.000000
_cell_angle_beta 135.017475
_cell_angle_gamma 90.000000
_cell_volume 576.979195
_symmetry_space_group_name_H-M "P 21"
_symmetry_group_IT_number 4
_symmetry_cell_setting 'monoclinic'
loop_
_space_group_symop_operation_xyz
x,y,z
-x,1/2+y,-z
loop_
_atom_site_type_symbol
_atom_site_label
_atom_site_fract_x
_atom_site_fract_y
_atom_site_fract_z
Si Si1 0.885163 0.239780 0.083657
Si Si2 0.549140 0.650055 0.491021
Si Si3 0.889985 0.457628 0.479551
Si Si4 0.140503 0.591630 0.351009
Si Si5 0.360027 0.330323 0.666426
Si Si6 0.152450 0.955268 0.178827
Si Si7 0.764276 0.100009 0.232823
O O1 0.778031 0.123851 0.102662
O O2 0.011034 0.398866 0.245739
O O3 0.816553 0.413949 0.935229
O O4 0.983076 0.052950 0.084289
O O5 0.498120 0.391138 0.484674
O O6 0.523991 0.692085 0.330863
O O7 0.729000 0.625090 0.668281
O O8 0.915277 0.296191 0.609741
O O9 0.788739 0.668884 0.439817
O O10 0.777369 0.351027 0.295482
O O11 0.067596 0.518211 0.586458
O O12 0.301944 0.526911 0.534923
O O13 0.171103 0.707713 0.250091
O O14 0.367246 0.448879 0.801074
#
# Coordination Sequence:
#
# PCOD9118461 Si02
#       7
#     2   2   2   2   2   2   2
#     4  12  23  37  61  96 148 178 210 278 364 457
#     4  12  27  47  72  99 135 187 250 301 338 396
#     4  11  18  30  55  86 134 169 207 262 343 422
#     4  11  18  34  56  90 138 173 213 265 345 419
#     4  11  22  36  61  92 135 170 228 290 335 414
#     4  12  24  39  63  99 140 185 223 280 353 430
#     4  11  20  31  54  96 132 176 213 270 352 422
#
# _framework density 24.264305
#
# number of rings (size 3 to 8) (size 9 to 14) (size 15 to 20)
#    0.000    0.571    8.571    1.714    2.000    0.000 
#    0.000    0.000    0.000    0.000    3.714    0.000 
#    0.000    0.000    0.000    0.000    0.000    0.000 
#
# Total GULP energy -77973.288222 kJ/mol
# GULP energy per Si atom -5569.520587 kJ/mol
# Density = 2.420908 g / cm^3
# Si number density = 24.264305 Si / 1000 Ang^3
#
#
#
# Elastic Constant Matrix: (Units=GPa)
#
#
# Indices 1 2 3 4 5 6 
#
# 1 94.5257 44.8565 32.5087 0.0000 -40.9635 0.0000
# 2 44.8565 92.9377 9.2635 0.0000 -16.7016 0.0000
# 3 32.5087 9.2635 62.5478 0.0000 -37.8791 0.0000
# 4 0.0000 0.0000 0.0000 2.3523 0.0000 67.5355
# 5 -40.9635 -16.7016 -37.8791 0.0000 37.0598 0.0000
# 6 0.0000 0.0000 0.0000 67.5355 0.0000 -235.9662
#
#
#
# Elastic Compliance Matrix: (Units=1/GPa)
#
#
# Indices 1 2 3 4 5 6 
#
# 1 0.025640 -0.007219 0.007706 0.000000 0.032963 0.000000
# 2 -0.007219 0.014102 0.001784 0.000000 0.000200 0.000000
# 3 0.007706 0.001784 0.045573 0.000000 0.055902 0.000000
# 4 0.000000 0.000000 0.000000 0.046122 0.000000 0.013201
# 5 0.032963 0.000200 0.055902 0.000000 0.120646 0.000000
# 6 0.000000 0.000000 0.000000 0.013201 0.000000 -0.000460
#
#
# Mechanical properties :
#
#
# Convention : Reuss Voigt Hill
#
# Bulk Modulus (GPa) = 11.12888 47.02983 29.07935
# Shear Modulus (GPa) = 18.04831 -28.41863 -5.18516
#
# Velocity S-wave (km/s) = 2.73027 -3.42601 -1.46342
# Velocity P-wave (km/s) = 3.81256 1.94276 3.02572
#
# Compressibility (1/GPa) = 0.08985633
#
# Stress axis : x y z
#
# Youngs Moduli (GPa) = 39.00199 70.91024 21.94286
#
# Poissons Ratio (x) = 0.51193 -0.16908
# Poissons Ratio (y) = 0.28157 -0.03916
# Poissons Ratio (z) = -0.30053 -0.12654
#
# Static dielectric constant tensor:
#      x y z
#    x 3.000390 0.000000 -0.327510 
#    y 0.000000 1.990120 0.000000 
#    z -0.327510 0.000000 2.097100 
# 
# From -- ./inp_files/11477.got.cif
#   From: 2010.05.17/outbox.cif.g08.bks.cpg/sg4_6_cif.got.tgz:11477.got - 2010.06.03 18:43:04.
