data_PCOD9118573
_publ_section_title
;
Structure prediction by ZEFSAII (Michael W. Deem and Ramdas Pophale) SiO2 
 PCOD9118573
Probable space group: P 21
;
_chemical_formula_sum "Si O2"
_cell_formula_units_Z 16
_cell_length_a 11.698132
_cell_length_b 8.510528
_cell_length_c 7.186140
_cell_angle_alpha 90.000000
_cell_angle_beta 74.254749
_cell_angle_gamma 90.000000
_cell_volume 688.587899
_symmetry_space_group_name_H-M "P 21"
_symmetry_group_IT_number 4
_symmetry_cell_setting 'monoclinic'
loop_
_space_group_symop_operation_xyz
x,y,z
-x,1/2+y,-z
loop_
_atom_site_type_symbol
_atom_site_label
_atom_site_fract_x
_atom_site_fract_y
_atom_site_fract_z
Si Si1 0.005246 0.588130 0.879232
Si Si2 0.906002 0.732550 0.583857
Si Si3 0.685076 0.273402 0.971910
Si Si4 0.128555 0.580908 0.315630
Si Si5 0.221544 0.426111 0.621780
Si Si6 0.847375 0.409890 0.200770
Si Si7 0.348930 0.886290 0.429616
Si Si8 0.561076 0.109187 0.342494
O O1 0.914927 0.604058 0.743011
O O2 0.103758 0.454086 0.796906
O O3 0.079256 0.748328 0.848823
O O4 0.931233 0.549319 0.094467
O O5 0.797203 0.768498 0.491509
O O6 0.021933 0.696420 0.410996
O O7 0.916551 0.902382 0.681153
O O8 0.743097 0.393832 0.092389
O O9 0.581570 0.186254 0.130874
O O10 0.786910 0.144808 0.879830
O O11 0.653241 0.347031 0.788139
O O12 0.206797 0.561042 0.468934
O O13 0.341226 0.469093 0.673779
O O14 0.781704 0.416775 0.426709
O O15 0.407441 0.743624 0.521838
O O16 0.433200 0.035316 0.423428
#
# Coordination Sequence:
#
# PCOD9118573 Si02
#       8
#     2   2   2   2   2   2   2   2
#     4  11  21  42  67 106 145 187 235 284 354 429
#     4   9  19  34  65  97 140 187 226 275 347 423
#     4  11  22  44  72  98 137 188 233 295 360 416
#     4   9  18  36  62  95 140 184 222 281 348 413
#     4   9  18  41  66  99 140 185 228 288 355 408
#     4  11  26  44  70 103 152 183 236 290 353 426
#     4  11  24  52  72 102 140 186 237 301 360 409
#     4  11  24  47  76  96 138 188 237 300 351 420
#
# _framework density 23.235958
#
# number of rings (size 3 to 8) (size 9 to 14) (size 15 to 20)
#    0.750    1.000    3.750    1.500    1.750    2.000 
#    6.750    0.000    0.000    0.000    0.000    0.000 
#    0.000    0.000    0.000    0.000    0.000    0.000 
#
# Total GULP energy -89361.837101 kJ/mol
# GULP energy per Si atom -5585.114819 kJ/mol
# Density = 2.318307 g / cm^3
# Si number density = 23.235958 Si / 1000 Ang^3
#
#
#
# Elastic Constant Matrix: (Units=GPa)
#
#
# Indices 1 2 3 4 5 6 
#
# 1 72.5035 34.8895 39.0886 0.0000 -8.7932 0.0000
# 2 34.8895 59.4924 15.2884 0.0000 -2.3200 0.0000
# 3 39.0886 15.2884 118.5791 0.0000 10.2683 0.0000
# 4 0.0000 0.0000 0.0000 31.8235 0.0000 -3.5279
# 5 -8.7932 -2.3200 10.2683 0.0000 29.4451 0.0000
# 6 0.0000 0.0000 0.0000 -3.5279 0.0000 43.4550
#
#
#
# Elastic Compliance Matrix: (Units=1/GPa)
#
#
# Indices 1 2 3 4 5 6 
#
# 1 0.024757 -0.012278 -0.007357 0.000000 0.008991 0.000000
# 2 -0.012278 0.023615 0.001195 0.000000 -0.002223 0.000000
# 3 -0.007357 0.001195 0.011225 0.000000 -0.006017 0.000000
# 4 0.000000 0.000000 0.000000 0.031709 0.000000 0.002574
# 5 0.008991 -0.002223 -0.006017 0.000000 0.038570 0.000000
# 6 0.000000 0.000000 0.000000 0.002574 0.000000 0.023221
#
#
# Mechanical properties :
#
#
# Convention : Reuss Voigt Hill
#
# Bulk Modulus (GPa) = 44.01595 47.67868 45.84731
# Shear Modulus (GPa) = 25.31008 31.69864 28.50436
#
# Velocity S-wave (km/s) = 3.30398 3.69752 3.50628
# Velocity P-wave (km/s) = 5.79130 6.22839 6.01382
#
# Compressibility (1/GPa) = 0.02271904
#
# Stress axis : x y z
#
# Youngs Moduli (GPa) = 40.39214 42.34515 89.08486
#
# Poissons Ratio (x) = 0.51991 0.65537
# Poissons Ratio (y) = 0.49593 -0.10646
# Poissons Ratio (z) = 0.29715 -0.05060
#
# Static dielectric constant tensor:
#      x y z
#    x 1.900040 0.000000 0.063660 
#    y 0.000000 1.898940 0.000000 
#    z 0.063660 0.000000 1.891740 
# 
# From -- ./inp_files/2941.got.cif
#   From: 2010.05.17/outbox.cif.g08.bks.cpg/sg4_2_cif.got.tgz:2941.got - 2010.06.03 18:43:04.
